MODEL 1
REMARK VINA RESULT: -7.228962526      0.000      0.000
REMARK  8 active torsions:
REMARK  status: ('A' for Active; 'I' for Inactive)
REMARK    1  A    between atoms: C2_2  and  N1_3 
REMARK    2  A    between atoms: C2_2  and  C5_10 
REMARK    3  A    between atoms: C5_10  and  N4_13 
REMARK       I    between atoms: N4_13  and  C8_15 
REMARK       I    between atoms: C8_15  and  N5_17 
REMARK    4  A    between atoms: N5_17  and  C9_19 
REMARK    5  A    between atoms: C9_19  and  O2_20 
REMARK    6  A    between atoms: C9_19  and  N6_22 
REMARK    7  A    between atoms: N6_22  and  C10_24 
REMARK    8  A    between atoms: C12_27  and  N7_28 
ROOT
HETATM    1  N4  UNL     1      13.253  21.365  16.122  1.00  0.00    -0.332 N 
ATOM      2  H4  UNL     1      12.491  21.558  16.773  1.00  0.00     0.165 HD
HETATM    3  C8  UNL     1      13.087  20.293  15.236  1.00  0.00     0.320 C 
HETATM    4  O1  UNL     1      14.051  20.064  14.427  1.00  0.00    -0.247 OA
HETATM    5  N5  UNL     1      11.923  19.481  15.210  1.00  0.00    -0.300 N 
ATOM      6  H5  UNL     1      11.182  19.704  15.875  1.00  0.00     0.168 HD
ENDROOT
BRANCH   1   7
HETATM    7  C5  UNL     1      14.405  22.213  16.188  1.00  0.00     0.049 C 
HETATM    8  C6  UNL     1      14.378  23.126  14.978  1.00  0.00     0.040 C 
HETATM    9  C7  UNL     1      15.700  21.431  16.105  1.00  0.00     0.040 C 
BRANCH   7  10
HETATM   10  C2  UNL     1      14.422  23.079  17.415  1.00  0.00     0.132 C 
HETATM   11  C1  UNL     1      15.349  24.264  17.272  1.00  0.00     0.037 C 
BRANCH  10  12
HETATM   12  N1  UNL     1      14.874  22.309  18.557  1.00  0.00    -0.280 N 
HETATM   13  C3  UNL     1      15.881  22.631  19.397  1.00  0.00     0.201 A 
HETATM   14  N2  UNL     1      15.944  21.640  20.296  1.00  0.00    -0.346 N 
HETATM   15  C4  UNL     1      15.009  20.729  20.029  1.00  0.00     0.198 A 
ATOM     16  H2  UNL     1      16.608  21.590  21.069  1.00  0.00     0.167 HD
HETATM   17  N3  UNL     1      14.350  21.150  18.953  1.00  0.00    -0.293 N 
ATOM     18  H3  UNL     1      13.572  20.666  18.505  1.00  0.00     0.188 HD
ENDBRANCH  10  12
ENDBRANCH   7  10
ENDBRANCH   1   7
BRANCH   5  19
HETATM   19  C9  UNL     1      11.703  18.373  14.326  1.00  0.00     0.331 C 
BRANCH  19  20
HETATM   20  O2  UNL     1      12.765  17.442  14.413  1.00  0.00    -0.359 OA
ATOM     21  H2  UNL     1      12.444  16.586  14.671  1.00  0.00     0.214 HD
ENDBRANCH  19  20
BRANCH  19  22
HETATM   22  N6  UNL     1      10.488  17.668  14.471  1.00  0.00    -0.333 N 
ATOM     23  H6  UNL     1      10.518  16.657  14.604  1.00  0.00     0.165 HD
BRANCH  22  24
HETATM   24  C10 UNL     1       9.200  18.328  14.438  1.00  0.00     0.112 A 
HETATM   25  C11 UNL     1       8.679  18.837  15.607  1.00  0.00     0.101 A 
HETATM   26  S1  UNL     1       7.187  19.479  15.087  1.00  0.00    -0.062 SA
HETATM   27  C12 UNL     1       7.303  19.072  13.435  1.00  0.00     0.143 A 
HETATM   28  N8  UNL     1       8.486  18.459  13.359  1.00  0.00    -0.323 N 
ATOM     29  H8  UNL     1       8.825  18.099  12.468  1.00  0.00     0.169 HD
BRANCH  27  30
HETATM   30  N7  UNL     1       6.436  19.304  12.470  1.00  0.00    -0.380 N 
ATOM     31  H72 UNL     1       6.234  20.185  11.996  1.00  0.00     0.158 HD
ATOM     32  H71 UNL     1       5.804  18.648  12.012  1.00  0.00     0.158 HD
ENDBRANCH  27  30
ENDBRANCH  22  24
ENDBRANCH  19  22
ENDBRANCH   5  19
TORSDOF 8
ENDMDL
MODEL 2
REMARK VINA RESULT: -7.173024613      4.939      8.173
REMARK  8 active torsions:
REMARK  status: ('A' for Active; 'I' for Inactive)
REMARK    1  A    between atoms: C2_2  and  N1_3 
REMARK    2  A    between atoms: C2_2  and  C5_10 
REMARK    3  A    between atoms: C5_10  and  N4_13 
REMARK       I    between atoms: N4_13  and  C8_15 
REMARK       I    between atoms: C8_15  and  N5_17 
REMARK    4  A    between atoms: N5_17  and  C9_19 
REMARK    5  A    between atoms: C9_19  and  O2_20 
REMARK    6  A    between atoms: C9_19  and  N6_22 
REMARK    7  A    between atoms: N6_22  and  C10_24 
REMARK    8  A    between atoms: C12_27  and  N7_28 
ROOT
HETATM    1  N4  UNL     1       7.782  19.079  13.728  1.00  0.00    -0.332 N 
ATOM      2  H4  UNL     1       7.322  19.555  12.952  1.00  0.00     0.165 HD
HETATM    3  C8  UNL     1       8.896  18.285  13.427  1.00  0.00     0.320 C 
HETATM    4  O1  UNL     1       9.462  17.694  14.411  1.00  0.00    -0.247 OA
HETATM    5  N5  UNL     1       9.400  18.122  12.110  1.00  0.00    -0.300 N 
ATOM      6  H5  UNL     1       8.915  18.614  11.360  1.00  0.00     0.168 HD
ENDROOT
BRANCH   1   7
HETATM    7  C5  UNL     1       7.236  19.275  15.037  1.00  0.00     0.049 C 
HETATM    8  C6  UNL     1       8.392  19.495  15.993  1.00  0.00     0.040 C 
HETATM    9  C7  UNL     1       6.491  18.055  15.539  1.00  0.00     0.040 C 
BRANCH   7  10
HETATM   10  C2  UNL     1       6.339  20.478  15.120  1.00  0.00     0.132 C 
HETATM   11  C1  UNL     1       5.552  20.522  16.409  1.00  0.00     0.037 C 
BRANCH  10  12
HETATM   12  N1  UNL     1       5.386  20.458  14.029  1.00  0.00    -0.280 N 
HETATM   13  C3  UNL     1       5.671  20.461  12.709  1.00  0.00     0.201 A 
HETATM   14  N2  UNL     1       4.492  20.437  12.075  1.00  0.00    -0.346 N 
HETATM   15  C4  UNL     1       3.501  20.419  12.966  1.00  0.00     0.198 A 
ATOM     16  H2  UNL     1       4.370  20.432  11.062  1.00  0.00     0.167 HD
HETATM   17  N3  UNL     1       4.061  20.432  14.171  1.00  0.00    -0.293 N 
ATOM     18  H3  UNL     1       3.560  20.422  15.060  1.00  0.00     0.188 HD
ENDBRANCH  10  12
ENDBRANCH   7  10
ENDBRANCH   1   7
BRANCH   5  19
HETATM   19  C9  UNL     1      10.534  17.322  11.748  1.00  0.00     0.331 C 
BRANCH  19  20
HETATM   20  O2  UNL     1      11.042  17.713  10.487  1.00  0.00    -0.359 OA
ATOM     21  H2  UNL     1      11.127  18.657  10.434  1.00  0.00     0.214 HD
ENDBRANCH  19  20
BRANCH  19  22
HETATM   22  N6  UNL     1      11.611  17.283  12.662  1.00  0.00    -0.333 N 
ATOM     23  H6  UNL     1      11.756  16.438  13.215  1.00  0.00     0.165 HD
BRANCH  22  24
HETATM   24  C10 UNL     1      12.515  18.398  12.842  1.00  0.00     0.112 A 
HETATM   25  C11 UNL     1      12.800  18.831  14.118  1.00  0.00     0.101 A 
HETATM   26  S1  UNL     1      13.857  20.136  13.830  1.00  0.00    -0.062 SA
HETATM   27  C12 UNL     1      13.882  20.065  12.126  1.00  0.00     0.143 A 
HETATM   28  N8  UNL     1      13.073  19.039  11.857  1.00  0.00    -0.323 N 
ATOM     29  H8  UNL     1      12.895  18.761  10.892  1.00  0.00     0.169 HD
BRANCH  27  30
HETATM   30  N7  UNL     1      14.538  20.836  11.282  1.00  0.00    -0.380 N 
ATOM     31  H72 UNL     1      15.523  21.101  11.297  1.00  0.00     0.158 HD
ATOM     32  H71 UNL     1      14.186  21.313  10.452  1.00  0.00     0.158 HD
ENDBRANCH  27  30
ENDBRANCH  22  24
ENDBRANCH  19  22
ENDBRANCH   5  19
TORSDOF 8
ENDMDL
MODEL 3
REMARK VINA RESULT: -6.989075954      3.252      3.694
REMARK  8 active torsions:
REMARK  status: ('A' for Active; 'I' for Inactive)
REMARK    1  A    between atoms: C2_2  and  N1_3 
REMARK    2  A    between atoms: C2_2  and  C5_10 
REMARK    3  A    between atoms: C5_10  and  N4_13 
REMARK       I    between atoms: N4_13  and  C8_15 
REMARK       I    between atoms: C8_15  and  N5_17 
REMARK    4  A    between atoms: N5_17  and  C9_19 
REMARK    5  A    between atoms: C9_19  and  O2_20 
REMARK    6  A    between atoms: C9_19  and  N6_22 
REMARK    7  A    between atoms: N6_22  and  C10_24 
REMARK    8  A    between atoms: C12_27  and  N7_28 
ROOT
HETATM    1  N4  UNL     1      13.566  21.596  16.296  1.00  0.00    -0.332 N 
ATOM      2  H4  UNL     1      12.589  21.692  16.576  1.00  0.00     0.165 HD
HETATM    3  C8  UNL     1      13.889  20.536  15.441  1.00  0.00     0.320 C 
HETATM    4  O1  UNL     1      15.117  20.428  15.098  1.00  0.00    -0.247 OA
HETATM    5  N5  UNL     1      12.930  19.607  14.958  1.00  0.00    -0.300 N 
ATOM      6  H5  UNL     1      11.963  19.735  15.259  1.00  0.00     0.168 HD
ENDROOT
BRANCH   1   7
HETATM    7  C5  UNL     1      14.495  22.557  16.809  1.00  0.00     0.049 C 
HETATM    8  C6  UNL     1      14.461  23.767  15.897  1.00  0.00     0.040 C 
HETATM    9  C7  UNL     1      15.921  22.046  16.791  1.00  0.00     0.040 C 
BRANCH   7  10
HETATM   10  C2  UNL     1      14.148  23.020  18.196  1.00  0.00     0.132 C 
HETATM   11  C1  UNL     1      14.558  24.454  18.445  1.00  0.00     0.037 C 
BRANCH  10  12
HETATM   12  N1  UNL     1      14.829  22.197  19.176  1.00  0.00    -0.280 N 
HETATM   13  C3  UNL     1      15.929  22.533  19.884  1.00  0.00     0.201 A 
HETATM   14  N2  UNL     1      16.205  21.478  20.661  1.00  0.00    -0.346 N 
HETATM   15  C4  UNL     1      15.310  20.514  20.448  1.00  0.00     0.198 A 
ATOM     16  H2  UNL     1      16.984  21.420  21.318  1.00  0.00     0.167 HD
HETATM   17  N3  UNL     1      14.462  20.967  19.529  1.00  0.00    -0.293 N 
ATOM     18  H3  UNL     1      13.661  20.456  19.156  1.00  0.00     0.188 HD
ENDBRANCH  10  12
ENDBRANCH   7  10
ENDBRANCH   1   7
BRANCH   5  19
HETATM   19  C9  UNL     1      13.206  18.506  14.083  1.00  0.00     0.331 C 
BRANCH  19  20
HETATM   20  O2  UNL     1      12.030  18.080  13.422  1.00  0.00    -0.359 OA
ATOM     21  H2  UNL     1      12.176  18.008  12.486  1.00  0.00     0.214 HD
ENDBRANCH  19  20
BRANCH  19  22
HETATM   22  N6  UNL     1      14.213  18.696  13.110  1.00  0.00    -0.333 N 
ATOM     23  H6  UNL     1      15.159  18.373  13.310  1.00  0.00     0.165 HD
BRANCH  22  24
HETATM   24  C10 UNL     1      13.949  19.332  11.837  1.00  0.00     0.112 A 
HETATM   25  C11 UNL     1      14.365  20.630  11.638  1.00  0.00     0.101 A 
HETATM   26  S1  UNL     1      13.827  20.943  10.051  1.00  0.00    -0.062 SA
HETATM   27  C12 UNL     1      13.111  19.429   9.728  1.00  0.00     0.143 A 
HETATM   28  N8  UNL     1      13.319  18.752  10.858  1.00  0.00    -0.323 N 
ATOM     29  H8  UNL     1      12.988  17.792  10.954  1.00  0.00     0.169 HD
BRANCH  27  30
HETATM   30  N7  UNL     1      12.501  19.027   8.631  1.00  0.00    -0.380 N 
ATOM     31  H72 UNL     1      12.780  19.170   7.660  1.00  0.00     0.158 HD
ATOM     32  H71 UNL     1      11.635  18.495   8.544  1.00  0.00     0.158 HD
ENDBRANCH  27  30
ENDBRANCH  22  24
ENDBRANCH  19  22
ENDBRANCH   5  19
TORSDOF 8
ENDMDL
MODEL 4
REMARK VINA RESULT: -6.985898117      5.820      8.420
REMARK  8 active torsions:
REMARK  status: ('A' for Active; 'I' for Inactive)
REMARK    1  A    between atoms: C2_2  and  N1_3 
REMARK    2  A    between atoms: C2_2  and  C5_10 
REMARK    3  A    between atoms: C5_10  and  N4_13 
REMARK       I    between atoms: N4_13  and  C8_15 
REMARK       I    between atoms: C8_15  and  N5_17 
REMARK    4  A    between atoms: N5_17  and  C9_19 
REMARK    5  A    between atoms: C9_19  and  O2_20 
REMARK    6  A    between atoms: C9_19  and  N6_22 
REMARK    7  A    between atoms: N6_22  and  C10_24 
REMARK    8  A    between atoms: C12_27  and  N7_28 
ROOT
HETATM    1  N4  UNL     1       7.833  18.935  13.729  1.00  0.00    -0.332 N 
ATOM      2  H4  UNL     1       7.272  19.191  12.916  1.00  0.00     0.165 HD
HETATM    3  C8  UNL     1       9.080  18.344  13.491  1.00  0.00     0.320 C 
HETATM    4  O1  UNL     1       9.771  18.029  14.521  1.00  0.00    -0.247 OA
HETATM    5  N5  UNL     1       9.584  18.092  12.188  1.00  0.00    -0.300 N 
ATOM      6  H5  UNL     1       8.996  18.361  11.400  1.00  0.00     0.168 HD
ENDROOT
BRANCH   1   7
HETATM    7  C5  UNL     1       7.281  19.210  15.021  1.00  0.00     0.049 C 
HETATM    8  C6  UNL     1       8.434  19.438  15.978  1.00  0.00     0.040 C 
HETATM    9  C7  UNL     1       6.493  18.039  15.571  1.00  0.00     0.040 C 
BRANCH   7  10
HETATM   10  C2  UNL     1       6.422  20.443  15.038  1.00  0.00     0.132 C 
HETATM   11  C1  UNL     1       5.648  20.589  16.328  1.00  0.00     0.037 C 
BRANCH  10  12
HETATM   12  N1  UNL     1       5.459  20.388  13.956  1.00  0.00    -0.280 N 
HETATM   13  C3  UNL     1       5.732  20.276  12.639  1.00  0.00     0.201 A 
HETATM   14  N2  UNL     1       4.548  20.262  12.015  1.00  0.00    -0.346 N 
HETATM   15  C4  UNL     1       3.565  20.362  12.910  1.00  0.00     0.198 A 
ATOM     16  H2  UNL     1       4.416  20.186  11.006  1.00  0.00     0.167 HD
HETATM   17  N3  UNL     1       4.136  20.438  14.108  1.00  0.00    -0.293 N 
ATOM     18  H3  UNL     1       3.643  20.521  14.997  1.00  0.00     0.188 HD
ENDBRANCH  10  12
ENDBRANCH   7  10
ENDBRANCH   1   7
BRANCH   5  19
HETATM   19  C9  UNL     1      10.851  17.490  11.890  1.00  0.00     0.331 C 
BRANCH  19  20
HETATM   20  O2  UNL     1      10.873  16.136  12.300  1.00  0.00    -0.359 OA
ATOM     21  H2  UNL     1      11.755  15.786  12.262  1.00  0.00     0.214 HD
ENDBRANCH  19  20
BRANCH  19  22
HETATM   22  N6  UNL     1      11.289  17.549  10.548  1.00  0.00    -0.333 N 
ATOM     23  H6  UNL     1      10.911  16.881   9.876  1.00  0.00     0.165 HD
BRANCH  22  24
HETATM   24  C10 UNL     1      12.258  18.524  10.092  1.00  0.00     0.112 A 
HETATM   25  C11 UNL     1      12.550  18.599   8.748  1.00  0.00     0.101 A 
HETATM   26  S1  UNL     1      13.721  19.837   8.702  1.00  0.00    -0.062 SA
HETATM   27  C12 UNL     1      13.777  20.189  10.370  1.00  0.00     0.143 A 
HETATM   28  N8  UNL     1      12.891  19.335  10.887  1.00  0.00    -0.323 N 
ATOM     29  H8  UNL     1      12.713  19.320  11.891  1.00  0.00     0.169 HD
BRANCH  27  30
HETATM   30  N7  UNL     1      14.516  21.083  10.996  1.00  0.00    -0.380 N 
ATOM     31  H72 UNL     1      14.422  22.099  10.994  1.00  0.00     0.158 HD
ATOM     32  H71 UNL     1      15.321  20.929  11.603  1.00  0.00     0.158 HD
ENDBRANCH  27  30
ENDBRANCH  22  24
ENDBRANCH  19  22
ENDBRANCH   5  19
TORSDOF 8
ENDMDL
MODEL 5
REMARK VINA RESULT: -6.982701163      2.957      3.705
REMARK  8 active torsions:
REMARK  status: ('A' for Active; 'I' for Inactive)
REMARK    1  A    between atoms: C2_2  and  N1_3 
REMARK    2  A    between atoms: C2_2  and  C5_10 
REMARK    3  A    between atoms: C5_10  and  N4_13 
REMARK       I    between atoms: N4_13  and  C8_15 
REMARK       I    between atoms: C8_15  and  N5_17 
REMARK    4  A    between atoms: N5_17  and  C9_19 
REMARK    5  A    between atoms: C9_19  and  O2_20 
REMARK    6  A    between atoms: C9_19  and  N6_22 
REMARK    7  A    between atoms: N6_22  and  C10_24 
REMARK    8  A    between atoms: C12_27  and  N7_28 
ROOT
HETATM    1  N4  UNL     1      13.578  21.320  15.913  1.00  0.00    -0.332 N 
ATOM      2  H4  UNL     1      12.681  21.390  16.393  1.00  0.00     0.165 HD
HETATM    3  C8  UNL     1      13.742  20.266  15.005  1.00  0.00     0.320 C 
HETATM    4  O1  UNL     1      14.873  20.191  14.411  1.00  0.00    -0.247 OA
HETATM    5  N5  UNL     1      12.729  19.310  14.734  1.00  0.00    -0.300 N 
ATOM      6  H5  UNL     1      11.844  19.412  15.232  1.00  0.00     0.168 HD
ENDROOT
BRANCH   1   7
HETATM    7  C5  UNL     1      14.568  22.308  16.221  1.00  0.00     0.049 C 
HETATM    8  C6  UNL     1      14.565  23.330  15.102  1.00  0.00     0.040 C 
HETATM    9  C7  UNL     1      15.966  21.726  16.267  1.00  0.00     0.040 C 
BRANCH   7  10
HETATM   10  C2  UNL     1      14.286  23.034  17.505  1.00  0.00     0.132 C 
HETATM   11  C1  UNL     1      14.929  24.402  17.547  1.00  0.00     0.037 C 
BRANCH  10  12
HETATM   12  N1  UNL     1      14.806  22.275  18.626  1.00  0.00    -0.280 N 
HETATM   13  C3  UNL     1      15.793  22.653  19.466  1.00  0.00     0.201 A 
HETATM   14  N2  UNL     1      15.939  21.650  20.341  1.00  0.00    -0.346 N 
HETATM   15  C4  UNL     1      15.073  20.677  20.060  1.00  0.00     0.198 A 
ATOM     16  H2  UNL     1      16.611  21.633  21.108  1.00  0.00     0.167 HD
HETATM   17  N3  UNL     1      14.375  21.071  18.999  1.00  0.00    -0.293 N 
ATOM     18  H3  UNL     1      13.633  20.539  18.545  1.00  0.00     0.188 HD
ENDBRANCH  10  12
ENDBRANCH   7  10
ENDBRANCH   1   7
BRANCH   5  19
HETATM   19  C9  UNL     1      12.845  18.213  13.817  1.00  0.00     0.331 C 
BRANCH  19  20
HETATM   20  O2  UNL     1      12.442  17.002  14.428  1.00  0.00    -0.359 OA
ATOM     21  H2  UNL     1      11.684  17.140  14.983  1.00  0.00     0.214 HD
ENDBRANCH  19  20
BRANCH  19  22
HETATM   22  N6  UNL     1      12.164  18.331  12.585  1.00  0.00    -0.333 N 
ATOM     23  H6  UNL     1      11.217  17.959  12.508  1.00  0.00     0.165 HD
BRANCH  22  24
HETATM   24  C10 UNL     1      12.761  18.962  11.427  1.00  0.00     0.112 A 
HETATM   25  C11 UNL     1      12.764  18.289  10.225  1.00  0.00     0.101 A 
HETATM   26  S1  UNL     1      13.569  19.387   9.199  1.00  0.00    -0.062 SA
HETATM   27  C12 UNL     1      13.856  20.625  10.336  1.00  0.00     0.143 A 
HETATM   28  N8  UNL     1      13.319  20.136  11.455  1.00  0.00    -0.323 N 
ATOM     29  H8  UNL     1      13.346  20.676  12.319  1.00  0.00     0.169 HD
BRANCH  27  30
HETATM   30  N7  UNL     1      14.462  21.782  10.154  1.00  0.00    -0.380 N 
ATOM     31  H72 UNL     1      14.525  22.339   9.301  1.00  0.00     0.158 HD
ATOM     32  H71 UNL     1      14.981  22.340  10.831  1.00  0.00     0.158 HD
ENDBRANCH  27  30
ENDBRANCH  22  24
ENDBRANCH  19  22
ENDBRANCH   5  19
TORSDOF 8
ENDMDL
