MODEL 1
REMARK VINA RESULT: -10.334837582      0.000      0.000
REMARK  20 active torsions:
REMARK  status: ('A' for Active; 'I' for Inactive)
REMARK    1  A    between atoms: C2_2  and  C3_3 
REMARK    2  A    between atoms: C3_3  and  C4_4 
REMARK    3  A    between atoms: C4_4  and  C5_5 
REMARK    4  A    between atoms: C5_5  and  C6_6 
REMARK    5  A    between atoms: C7_7  and  C8_8 
REMARK    6  A    between atoms: C8_8  and  C9_9 
REMARK    7  A    between atoms: C10_10  and  C11_11 
REMARK    8  A    between atoms: C11_11  and  C12_12 
REMARK    9  A    between atoms: C13_13  and  C14_14 
REMARK   10  A    between atoms: C14_14  and  C15_15 
REMARK   11  A    between atoms: C16_16  and  C17_17 
REMARK   12  A    between atoms: C17_17  and  C18_18 
REMARK   13  A    between atoms: C19_19  and  C20_20 
REMARK   14  A    between atoms: C20_20  and  C21_21 
REMARK   15  A    between atoms: C21_21  and  C22_22 
REMARK   16  A    between atoms: C22_22  and  C23_23 
REMARK   17  A    between atoms: C24_24  and  C25_25 
REMARK   18  A    between atoms: C25_25  and  C26_26 
REMARK   19  A    between atoms: C27_27  and  C28_28 
REMARK   20  A    between atoms: C28_28  and  C29_29 
ROOT
HETATM    1  C15 UNL     1      93.913   7.763   8.213  1.00  0.00    -0.026 C 
HETATM    2  C16 UNL     1      93.349   8.670   8.972  1.00  0.00    -0.026 C 
ENDROOT
BRANCH   2   3
HETATM    3  C17 UNL     1      92.043   8.585   9.657  1.00  0.00     0.053 C 
BRANCH   3   4
HETATM    4  C18 UNL     1      91.167   9.720   9.239  1.00  0.00    -0.027 C 
HETATM    5  C19 UNL     1      91.304  10.227   8.029  1.00  0.00    -0.030 C 
BRANCH   5   6
HETATM    6  C20 UNL     1      90.413  11.372   7.617  1.00  0.00     0.027 C 
BRANCH   6   7
HETATM    7  C21 UNL     1      90.500  11.530   6.098  1.00  0.00     0.007 C 
BRANCH   7   8
HETATM    8  C22 UNL     1      89.190  11.142   5.444  1.00  0.00     0.027 C 
BRANCH   8   9
HETATM    9  C23 UNL     1      88.651  12.320   4.738  1.00  0.00    -0.030 C 
HETATM   10  C24 UNL     1      88.002  13.287   5.395  1.00  0.00    -0.027 C 
BRANCH  10  11
HETATM   11  C25 UNL     1      87.448  14.487   4.702  1.00  0.00     0.053 C 
BRANCH  11  12
HETATM   12  C26 UNL     1      86.029  14.285   4.332  1.00  0.00    -0.027 C 
HETATM   13  C27 UNL     1      85.236  13.603   5.137  1.00  0.00    -0.030 C 
BRANCH  13  14
HETATM   14  C28 UNL     1      83.796  13.361   4.824  1.00  0.00     0.031 C 
BRANCH  14  15
HETATM   15  C29 UNL     1      83.586  11.881   4.777  1.00  0.00    -0.011 C 
HETATM   16  C30 UNL     1      84.527  11.048   5.621  1.00  0.00     0.005 C 
HETATM   17  C31 UNL     1      84.518  10.016   4.490  1.00  0.00     0.001 C 
HETATM   18  C32 UNL     1      84.144  11.175   3.558  1.00  0.00     0.005 C 
ENDBRANCH  14  15
ENDBRANCH  13  14
ENDBRANCH  11  12
ENDBRANCH  10  11
ENDBRANCH   8   9
ENDBRANCH   7   8
ENDBRANCH   6   7
ENDBRANCH   5   6
ENDBRANCH   3   4
ENDBRANCH   2   3
BRANCH   1  19
HETATM   19  C14 UNL     1      93.329   6.439   7.889  1.00  0.00     0.053 C 
BRANCH  19  20
HETATM   20  C13 UNL     1      94.302   5.346   8.129  1.00  0.00    -0.026 C 
HETATM   21  C12 UNL     1      94.314   4.585   9.174  1.00  0.00    -0.026 C 
BRANCH  21  22
HETATM   22  C11 UNL     1      93.419   4.601  10.335  1.00  0.00     0.053 C 
BRANCH  22  23
HETATM   23  C10 UNL     1      92.895   3.238  10.614  1.00  0.00    -0.026 C 
HETATM   24  C9  UNL     1      92.676   2.369   9.649  1.00  0.00    -0.026 C 
BRANCH  24  25
HETATM   25  C8  UNL     1      92.150   1.013   9.989  1.00  0.00     0.053 C 
BRANCH  25  26
HETATM   26  C7  UNL     1      91.249   0.587   8.923  1.00  0.00    -0.026 C 
HETATM   27  C6  UNL     1      89.949   0.792   8.871  1.00  0.00    -0.026 C 
BRANCH  27  28
HETATM   28  C5  UNL     1      89.156   1.483   9.869  1.00  0.00     0.053 C 
BRANCH  28  29
HETATM   29  C4  UNL     1      87.696   1.490   9.666  1.00  0.00    -0.027 C 
BRANCH  29  30
HETATM   30  C3  UNL     1      86.977   0.393   9.040  1.00  0.00    -0.030 C 
BRANCH  30  31
HETATM   31  C2  UNL     1      85.510   0.391   8.913  1.00  0.00     0.022 C 
HETATM   32  C1  UNL     1      85.127  -0.777   7.977  1.00  0.00     0.009 C 
ENDBRANCH  30  31
ENDBRANCH  29  30
ENDBRANCH  28  29
ENDBRANCH  27  28
ENDBRANCH  25  26
ENDBRANCH  24  25
ENDBRANCH  22  23
ENDBRANCH  21  22
ENDBRANCH  19  20
ENDBRANCH   1  19
TORSDOF 20
ENDMDL
MODEL 2
REMARK VINA RESULT: -10.188346391      3.189      9.772
REMARK  20 active torsions:
REMARK  status: ('A' for Active; 'I' for Inactive)
REMARK    1  A    between atoms: C2_2  and  C3_3 
REMARK    2  A    between atoms: C3_3  and  C4_4 
REMARK    3  A    between atoms: C4_4  and  C5_5 
REMARK    4  A    between atoms: C5_5  and  C6_6 
REMARK    5  A    between atoms: C7_7  and  C8_8 
REMARK    6  A    between atoms: C8_8  and  C9_9 
REMARK    7  A    between atoms: C10_10  and  C11_11 
REMARK    8  A    between atoms: C11_11  and  C12_12 
REMARK    9  A    between atoms: C13_13  and  C14_14 
REMARK   10  A    between atoms: C14_14  and  C15_15 
REMARK   11  A    between atoms: C16_16  and  C17_17 
REMARK   12  A    between atoms: C17_17  and  C18_18 
REMARK   13  A    between atoms: C19_19  and  C20_20 
REMARK   14  A    between atoms: C20_20  and  C21_21 
REMARK   15  A    between atoms: C21_21  and  C22_22 
REMARK   16  A    between atoms: C22_22  and  C23_23 
REMARK   17  A    between atoms: C24_24  and  C25_25 
REMARK   18  A    between atoms: C25_25  and  C26_26 
REMARK   19  A    between atoms: C27_27  and  C28_28 
REMARK   20  A    between atoms: C28_28  and  C29_29 
ROOT
HETATM    1  C15 UNL     1      92.836   3.277  10.618  1.00  0.00    -0.026 C 
HETATM    2  C16 UNL     1      92.574   2.020  10.356  1.00  0.00    -0.026 C 
ENDROOT
BRANCH   2   3
HETATM    3  C17 UNL     1      92.132   1.441   9.071  1.00  0.00     0.053 C 
BRANCH   3   4
HETATM    4  C18 UNL     1      90.662   1.173   9.106  1.00  0.00    -0.027 C 
HETATM    5  C19 UNL     1      89.822   2.157   8.848  1.00  0.00    -0.030 C 
BRANCH   5   6
HETATM    6  C20 UNL     1      88.342   1.875   8.885  1.00  0.00     0.027 C 
BRANCH   6   7
HETATM    7  C21 UNL     1      88.125   0.518   9.557  1.00  0.00     0.007 C 
BRANCH   7   8
HETATM    8  C22 UNL     1      86.691   0.060   9.387  1.00  0.00     0.027 C 
BRANCH   8   9
HETATM    9  C23 UNL     1      86.092   0.803   8.262  1.00  0.00    -0.030 C 
HETATM   10  C24 UNL     1      84.785   0.721   7.992  1.00  0.00    -0.027 C 
BRANCH  10  11
HETATM   11  C25 UNL     1      84.158   1.463   6.859  1.00  0.00     0.053 C 
BRANCH  11  12
HETATM   12  C26 UNL     1      83.777   0.545   5.762  1.00  0.00    -0.027 C 
HETATM   13  C27 UNL     1      83.037   0.992   4.765  1.00  0.00    -0.030 C 
BRANCH  13  14
HETATM   14  C28 UNL     1      82.617   0.121   3.628  1.00  0.00     0.031 C 
BRANCH  14  15
HETATM   15  C29 UNL     1      83.035   0.798   2.362  1.00  0.00    -0.011 C 
HETATM   16  C30 UNL     1      83.813   2.086   2.521  1.00  0.00     0.005 C 
HETATM   17  C31 UNL     1      83.051   2.618   1.304  1.00  0.00     0.001 C 
HETATM   18  C32 UNL     1      81.959   1.601   1.659  1.00  0.00     0.005 C 
ENDBRANCH  14  15
ENDBRANCH  13  14
ENDBRANCH  11  12
ENDBRANCH  10  11
ENDBRANCH   8   9
ENDBRANCH   7   8
ENDBRANCH   6   7
ENDBRANCH   5   6
ENDBRANCH   3   4
ENDBRANCH   2   3
BRANCH   1  19
HETATM   19  C14 UNL     1      92.732   4.390   9.644  1.00  0.00     0.053 C 
BRANCH  19  20
HETATM   20  C13 UNL     1      93.928   4.456   8.770  1.00  0.00    -0.026 C 
HETATM   21  C12 UNL     1      94.358   5.527   8.188  1.00  0.00    -0.026 C 
BRANCH  21  22
HETATM   22  C11 UNL     1      93.806   6.885   8.233  1.00  0.00     0.053 C 
BRANCH  22  23
HETATM   23  C10 UNL     1      92.908   7.126   7.073  1.00  0.00    -0.026 C 
HETATM   24  C9  UNL     1      91.793   7.817   7.191  1.00  0.00    -0.026 C 
BRANCH  24  25
HETATM   25  C8  UNL     1      90.930   8.028   5.990  1.00  0.00     0.053 C 
BRANCH  25  26
HETATM   26  C7  UNL     1      91.396   9.223   5.292  1.00  0.00    -0.026 C 
HETATM   27  C6  UNL     1      90.984  10.456   5.495  1.00  0.00    -0.026 C 
BRANCH  27  28
HETATM   28  C5  UNL     1      89.979  10.869   6.457  1.00  0.00     0.053 C 
BRANCH  28  29
HETATM   29  C4  UNL     1      90.472  11.386   7.747  1.00  0.00    -0.027 C 
BRANCH  29  30
HETATM   30  C3  UNL     1      90.745  10.532   8.891  1.00  0.00    -0.030 C 
BRANCH  30  31
HETATM   31  C2  UNL     1      92.079  10.460   9.512  1.00  0.00     0.022 C 
HETATM   32  C1  UNL     1      92.036   9.338  10.574  1.00  0.00     0.009 C 
ENDBRANCH  30  31
ENDBRANCH  29  30
ENDBRANCH  28  29
ENDBRANCH  27  28
ENDBRANCH  25  26
ENDBRANCH  24  25
ENDBRANCH  22  23
ENDBRANCH  21  22
ENDBRANCH  19  20
ENDBRANCH   1  19
TORSDOF 20
ENDMDL
MODEL 3
REMARK VINA RESULT: -10.186287580      1.939     10.928
REMARK  20 active torsions:
REMARK  status: ('A' for Active; 'I' for Inactive)
REMARK    1  A    between atoms: C2_2  and  C3_3 
REMARK    2  A    between atoms: C3_3  and  C4_4 
REMARK    3  A    between atoms: C4_4  and  C5_5 
REMARK    4  A    between atoms: C5_5  and  C6_6 
REMARK    5  A    between atoms: C7_7  and  C8_8 
REMARK    6  A    between atoms: C8_8  and  C9_9 
REMARK    7  A    between atoms: C10_10  and  C11_11 
REMARK    8  A    between atoms: C11_11  and  C12_12 
REMARK    9  A    between atoms: C13_13  and  C14_14 
REMARK   10  A    between atoms: C14_14  and  C15_15 
REMARK   11  A    between atoms: C16_16  and  C17_17 
REMARK   12  A    between atoms: C17_17  and  C18_18 
REMARK   13  A    between atoms: C19_19  and  C20_20 
REMARK   14  A    between atoms: C20_20  and  C21_21 
REMARK   15  A    between atoms: C21_21  and  C22_22 
REMARK   16  A    between atoms: C22_22  and  C23_23 
REMARK   17  A    between atoms: C24_24  and  C25_25 
REMARK   18  A    between atoms: C25_25  and  C26_26 
REMARK   19  A    between atoms: C27_27  and  C28_28 
REMARK   20  A    between atoms: C28_28  and  C29_29 
ROOT
HETATM    1  C15 UNL     1      88.807  10.885   4.859  1.00  0.00    -0.026 C 
HETATM    2  C16 UNL     1      89.882  10.197   5.160  1.00  0.00    -0.026 C 
ENDROOT
BRANCH   2   3
HETATM    3  C17 UNL     1      91.254  10.709   5.354  1.00  0.00     0.053 C 
BRANCH   3   4
HETATM    4  C18 UNL     1      91.511  10.954   6.805  1.00  0.00    -0.027 C 
HETATM    5  C19 UNL     1      90.836  10.265   7.705  1.00  0.00    -0.030 C 
BRANCH   5   6
HETATM    6  C20 UNL     1      91.106  10.520   9.166  1.00  0.00     0.027 C 
BRANCH   6   7
HETATM    7  C21 UNL     1      91.801   9.290   9.751  1.00  0.00     0.007 C 
BRANCH   7   8
HETATM    8  C22 UNL     1      91.601   8.085   8.854  1.00  0.00     0.027 C 
BRANCH   8   9
HETATM    9  C23 UNL     1      92.696   7.128   9.104  1.00  0.00    -0.030 C 
HETATM   10  C24 UNL     1      93.175   6.351   8.127  1.00  0.00    -0.027 C 
BRANCH  10  11
HETATM   11  C25 UNL     1      94.282   5.376   8.357  1.00  0.00     0.053 C 
BRANCH  11  12
HETATM   12  C26 UNL     1      94.024   4.545   9.555  1.00  0.00    -0.027 C 
HETATM   13  C27 UNL     1      93.060   3.643   9.528  1.00  0.00    -0.030 C 
BRANCH  13  14
HETATM   14  C28 UNL     1      92.746   2.774  10.700  1.00  0.00     0.031 C 
BRANCH  14  15
HETATM   15  C29 UNL     1      91.855   1.673  10.220  1.00  0.00    -0.011 C 
HETATM   16  C30 UNL     1      92.402   0.813   9.102  1.00  0.00     0.005 C 
HETATM   17  C31 UNL     1      90.984   0.773   8.529  1.00  0.00     0.001 C 
HETATM   18  C32 UNL     1      90.743   2.089   9.279  1.00  0.00     0.005 C 
ENDBRANCH  14  15
ENDBRANCH  13  14
ENDBRANCH  11  12
ENDBRANCH  10  11
ENDBRANCH   8   9
ENDBRANCH   7   8
ENDBRANCH   6   7
ENDBRANCH   5   6
ENDBRANCH   3   4
ENDBRANCH   2   3
BRANCH   1  19
HETATM   19  C14 UNL     1      88.766  12.352   4.648  1.00  0.00     0.053 C 
BRANCH  19  20
HETATM   20  C13 UNL     1      88.379  12.687   3.256  1.00  0.00    -0.026 C 
HETATM   21  C12 UNL     1      87.666  13.709   2.914  1.00  0.00    -0.026 C 
BRANCH  21  22
HETATM   22  C11 UNL     1      87.083  14.752   3.765  1.00  0.00     0.053 C 
BRANCH  22  23
HETATM   23  C10 UNL     1      86.034  14.182   4.651  1.00  0.00    -0.026 C 
HETATM   24  C9  UNL     1      84.952  13.610   4.164  1.00  0.00    -0.026 C 
BRANCH  24  25
HETATM   25  C8  UNL     1      83.932  13.054   5.103  1.00  0.00     0.053 C 
BRANCH  25  26
HETATM   26  C7  UNL     1      84.465  11.828   5.690  1.00  0.00    -0.026 C 
HETATM   27  C6  UNL     1      84.727  10.708   5.052  1.00  0.00    -0.026 C 
BRANCH  27  28
HETATM   28  C5  UNL     1      84.534  10.471   3.634  1.00  0.00     0.053 C 
BRANCH  28  29
HETATM   29  C4  UNL     1      85.733  10.114   2.854  1.00  0.00    -0.027 C 
BRANCH  29  30
HETATM   30  C3  UNL     1      86.430   8.848   3.005  1.00  0.00    -0.030 C 
BRANCH  30  31
HETATM   31  C2  UNL     1      87.310   8.309   1.954  1.00  0.00     0.022 C 
HETATM   32  C1  UNL     1      88.163   7.189   2.592  1.00  0.00     0.009 C 
ENDBRANCH  30  31
ENDBRANCH  29  30
ENDBRANCH  28  29
ENDBRANCH  27  28
ENDBRANCH  25  26
ENDBRANCH  24  25
ENDBRANCH  22  23
ENDBRANCH  21  22
ENDBRANCH  19  20
ENDBRANCH   1  19
TORSDOF 20
ENDMDL
MODEL 4
REMARK VINA RESULT: -10.180462302      1.091     10.943
REMARK  20 active torsions:
REMARK  status: ('A' for Active; 'I' for Inactive)
REMARK    1  A    between atoms: C2_2  and  C3_3 
REMARK    2  A    between atoms: C3_3  and  C4_4 
REMARK    3  A    between atoms: C4_4  and  C5_5 
REMARK    4  A    between atoms: C5_5  and  C6_6 
REMARK    5  A    between atoms: C7_7  and  C8_8 
REMARK    6  A    between atoms: C8_8  and  C9_9 
REMARK    7  A    between atoms: C10_10  and  C11_11 
REMARK    8  A    between atoms: C11_11  and  C12_12 
REMARK    9  A    between atoms: C13_13  and  C14_14 
REMARK   10  A    between atoms: C14_14  and  C15_15 
REMARK   11  A    between atoms: C16_16  and  C17_17 
REMARK   12  A    between atoms: C17_17  and  C18_18 
REMARK   13  A    between atoms: C19_19  and  C20_20 
REMARK   14  A    between atoms: C20_20  and  C21_21 
REMARK   15  A    between atoms: C21_21  and  C22_22 
REMARK   16  A    between atoms: C22_22  and  C23_23 
REMARK   17  A    between atoms: C24_24  and  C25_25 
REMARK   18  A    between atoms: C25_25  and  C26_26 
REMARK   19  A    between atoms: C27_27  and  C28_28 
REMARK   20  A    between atoms: C28_28  and  C29_29 
ROOT
HETATM    1  C15 UNL     1      90.915  10.264   8.673  1.00  0.00    -0.026 C 
HETATM    2  C16 UNL     1      91.242   9.829   9.866  1.00  0.00    -0.026 C 
ENDROOT
BRANCH   2   3
HETATM    3  C17 UNL     1      92.402   8.992  10.232  1.00  0.00     0.053 C 
BRANCH   3   4
HETATM    4  C18 UNL     1      92.096   7.551   9.987  1.00  0.00    -0.027 C 
HETATM    5  C19 UNL     1      92.987   6.798   9.372  1.00  0.00    -0.030 C 
BRANCH   5   6
HETATM    6  C20 UNL     1      92.667   5.345   9.131  1.00  0.00     0.027 C 
BRANCH   6   7
HETATM    7  C21 UNL     1      93.759   4.495   9.783  1.00  0.00     0.007 C 
BRANCH   7   8
HETATM    8  C22 UNL     1      93.149   3.438  10.680  1.00  0.00     0.027 C 
BRANCH   8   9
HETATM    9  C23 UNL     1      92.368   2.506   9.844  1.00  0.00    -0.030 C 
HETATM   10  C24 UNL     1      92.325   1.198  10.115  1.00  0.00    -0.027 C 
BRANCH  10  11
HETATM   11  C25 UNL     1      91.543   0.237   9.282  1.00  0.00     0.053 C 
BRANCH  11  12
HETATM   12  C26 UNL     1      90.564   0.944   8.426  1.00  0.00    -0.027 C 
HETATM   13  C27 UNL     1      89.351   1.185   8.885  1.00  0.00    -0.030 C 
BRANCH  13  14
HETATM   14  C28 UNL     1      88.315   1.892   8.075  1.00  0.00     0.031 C 
BRANCH  14  15
HETATM   15  C29 UNL     1      86.975   1.406   8.530  1.00  0.00    -0.011 C 
HETATM   16  C30 UNL     1      86.955   0.059   9.219  1.00  0.00     0.005 C 
HETATM   17  C31 UNL     1      85.628  -0.210   8.505  1.00  0.00     0.001 C 
HETATM   18  C32 UNL     1      86.092   0.807   7.455  1.00  0.00     0.005 C 
ENDBRANCH  14  15
ENDBRANCH  13  14
ENDBRANCH  11  12
ENDBRANCH  10  11
ENDBRANCH   8   9
ENDBRANCH   7   8
ENDBRANCH   6   7
ENDBRANCH   5   6
ENDBRANCH   3   4
ENDBRANCH   2   3
BRANCH   1  19
HETATM   19  C14 UNL     1      91.671   9.987   7.429  1.00  0.00     0.053 C 
BRANCH  19  20
HETATM   20  C13 UNL     1      90.846   9.234   6.452  1.00  0.00    -0.026 C 
HETATM   21  C12 UNL     1      90.155   9.772   5.501  1.00  0.00    -0.026 C 
BRANCH  21  22
HETATM   22  C11 UNL     1      90.011  11.190   5.155  1.00  0.00     0.053 C 
BRANCH  22  23
HETATM   23  C10 UNL     1      88.589  11.612   5.251  1.00  0.00    -0.026 C 
HETATM   24  C9  UNL     1      88.252  12.841   5.586  1.00  0.00    -0.026 C 
BRANCH  24  25
HETATM   25  C8  UNL     1      86.807  13.209   5.666  1.00  0.00     0.053 C 
BRANCH  25  26
HETATM   26  C7  UNL     1      86.573  14.350   4.787  1.00  0.00    -0.026 C 
HETATM   27  C6  UNL     1      86.375  14.306   3.487  1.00  0.00    -0.026 C 
BRANCH  27  28
HETATM   28  C5  UNL     1      86.351  13.108   2.670  1.00  0.00     0.053 C 
BRANCH  28  29
HETATM   29  C4  UNL     1      85.037  12.472   2.466  1.00  0.00    -0.027 C 
BRANCH  29  30
HETATM   30  C3  UNL     1      84.575  11.337   3.247  1.00  0.00    -0.030 C 
BRANCH  30  31
HETATM   31  C2  UNL     1      83.619  11.488   4.357  1.00  0.00     0.022 C 
HETATM   32  C1  UNL     1      84.179  10.702   5.563  1.00  0.00     0.009 C 
ENDBRANCH  30  31
ENDBRANCH  29  30
ENDBRANCH  28  29
ENDBRANCH  27  28
ENDBRANCH  25  26
ENDBRANCH  24  25
ENDBRANCH  22  23
ENDBRANCH  21  22
ENDBRANCH  19  20
ENDBRANCH   1  19
TORSDOF 20
ENDMDL
MODEL 5
REMARK VINA RESULT: -10.156807877      1.862     10.388
REMARK  20 active torsions:
REMARK  status: ('A' for Active; 'I' for Inactive)
REMARK    1  A    between atoms: C2_2  and  C3_3 
REMARK    2  A    between atoms: C3_3  and  C4_4 
REMARK    3  A    between atoms: C4_4  and  C5_5 
REMARK    4  A    between atoms: C5_5  and  C6_6 
REMARK    5  A    between atoms: C7_7  and  C8_8 
REMARK    6  A    between atoms: C8_8  and  C9_9 
REMARK    7  A    between atoms: C10_10  and  C11_11 
REMARK    8  A    between atoms: C11_11  and  C12_12 
REMARK    9  A    between atoms: C13_13  and  C14_14 
REMARK   10  A    between atoms: C14_14  and  C15_15 
REMARK   11  A    between atoms: C16_16  and  C17_17 
REMARK   12  A    between atoms: C17_17  and  C18_18 
REMARK   13  A    between atoms: C19_19  and  C20_20 
REMARK   14  A    between atoms: C20_20  and  C21_21 
REMARK   15  A    between atoms: C21_21  and  C22_22 
REMARK   16  A    between atoms: C22_22  and  C23_23 
REMARK   17  A    between atoms: C24_24  and  C25_25 
REMARK   18  A    between atoms: C25_25  and  C26_26 
REMARK   19  A    between atoms: C27_27  and  C28_28 
REMARK   20  A    between atoms: C28_28  and  C29_29 
ROOT
HETATM    1  C15 UNL     1      93.741   6.586   7.179  1.00  0.00    -0.026 C 
HETATM    2  C16 UNL     1      94.001   5.669   8.078  1.00  0.00    -0.026 C 
ENDROOT
BRANCH   2   3
HETATM    3  C17 UNL     1      93.530   5.620   9.477  1.00  0.00     0.053 C 
BRANCH   3   4
HETATM    4  C18 UNL     1      92.605   4.463   9.669  1.00  0.00    -0.027 C 
HETATM    5  C19 UNL     1      93.082   3.328  10.144  1.00  0.00    -0.030 C 
BRANCH   5   6
HETATM    6  C20 UNL     1      92.139   2.168  10.334  1.00  0.00     0.027 C 
BRANCH   6   7
HETATM    7  C21 UNL     1      92.493   1.085   9.314  1.00  0.00     0.007 C 
BRANCH   7   8
HETATM    8  C22 UNL     1      91.334   0.128   9.126  1.00  0.00     0.027 C 
BRANCH   8   9
HETATM    9  C23 UNL     1      90.146   0.904   8.721  1.00  0.00    -0.030 C 
HETATM   10  C24 UNL     1      89.019   0.874   9.440  1.00  0.00    -0.027 C 
BRANCH  10  11
HETATM   11  C25 UNL     1      87.805   1.650   9.049  1.00  0.00     0.053 C 
BRANCH  11  12
HETATM   12  C26 UNL     1      87.709   1.791   7.579  1.00  0.00    -0.027 C 
HETATM   13  C27 UNL     1      86.605   1.419   6.958  1.00  0.00    -0.030 C 
BRANCH  13  14
HETATM   14  C28 UNL     1      86.442   1.533   5.479  1.00  0.00     0.031 C 
BRANCH  14  15
HETATM   15  C29 UNL     1      84.999   1.812   5.203  1.00  0.00    -0.011 C 
HETATM   16  C30 UNL     1      84.003   0.899   5.884  1.00  0.00     0.005 C 
HETATM   17  C31 UNL     1      83.164   0.972   4.605  1.00  0.00     0.001 C 
HETATM   18  C32 UNL     1      84.472   1.304   3.876  1.00  0.00     0.005 C 
ENDBRANCH  14  15
ENDBRANCH  13  14
ENDBRANCH  11  12
ENDBRANCH  10  11
ENDBRANCH   8   9
ENDBRANCH   7   8
ENDBRANCH   6   7
ENDBRANCH   5   6
ENDBRANCH   3   4
ENDBRANCH   2   3
BRANCH   1  19
HETATM   19  C14 UNL     1      92.899   7.786   7.404  1.00  0.00     0.053 C 
BRANCH  19  20
HETATM   20  C13 UNL     1      91.750   7.823   6.467  1.00  0.00    -0.026 C 
HETATM   21  C12 UNL     1      90.880   8.776   6.405  1.00  0.00    -0.026 C 
BRANCH  21  22
HETATM   22  C11 UNL     1      90.801  10.005   7.201  1.00  0.00     0.053 C 
BRANCH  22  23
HETATM   23  C10 UNL     1      89.958  11.021   6.518  1.00  0.00    -0.026 C 
HETATM   24  C9  UNL     1      89.376  10.775   5.362  1.00  0.00    -0.026 C 
BRANCH  24  25
HETATM   25  C8  UNL     1      88.540  11.835   4.722  1.00  0.00     0.053 C 
BRANCH  25  26
HETATM   26  C7  UNL     1      88.255  12.862   5.720  1.00  0.00    -0.026 C 
HETATM   27  C6  UNL     1      87.361  13.822   5.618  1.00  0.00    -0.026 C 
BRANCH  27  28
HETATM   28  C5  UNL     1      86.479  14.048   4.488  1.00  0.00     0.053 C 
BRANCH  28  29
HETATM   29  C4  UNL     1      85.035  13.877   4.732  1.00  0.00    -0.027 C 
BRANCH  29  30
HETATM   30  C3  UNL     1      84.346  12.609   4.559  1.00  0.00    -0.030 C 
BRANCH  30  31
HETATM   31  C2  UNL     1      84.436  11.528   5.555  1.00  0.00     0.022 C 
HETATM   32  C1  UNL     1      84.361  10.186   4.791  1.00  0.00     0.009 C 
ENDBRANCH  30  31
ENDBRANCH  29  30
ENDBRANCH  28  29
ENDBRANCH  27  28
ENDBRANCH  25  26
ENDBRANCH  24  25
ENDBRANCH  22  23
ENDBRANCH  21  22
ENDBRANCH  19  20
ENDBRANCH   1  19
TORSDOF 20
ENDMDL
