MODEL 1
REMARK VINA RESULT: -7.725521806      0.000      0.000
REMARK  6 active torsions:
REMARK  status: ('A' for Active; 'I' for Inactive)
REMARK    1  A    between atoms: C2_2  and  C3_3 
REMARK    2  A    between atoms: C2_2  and  N1_28 
REMARK    3  A    between atoms: C3_3  and  C4_4 
REMARK    4  A    between atoms: C15_15  and  C16_16 
REMARK    5  A    between atoms: C19_19  and  O1_20 
REMARK       I    between atoms: N1_28  and  C26_30 
REMARK       I    between atoms: C26_30  and  N2_32 
REMARK    6  A    between atoms: N2_32  and  N3_33 
ROOT
HETATM    1  C4  UNL     1       0.583  30.971  -7.180  1.00  0.00    -0.004 C 
HETATM    2  C5  UNL     1       1.901  31.624  -6.906  1.00  0.00     0.006 C 
HETATM    3  C6  UNL     1       1.631  33.145  -6.782  1.00  0.00     0.010 C 
HETATM    4  C7  UNL     1       0.261  33.157  -6.198  1.00  0.00    -0.036 C 
HETATM    5  C8  UNL     1       0.371  32.786  -4.724  1.00  0.00     0.016 C 
HETATM    6  C9  UNL     1      -0.468  32.050  -6.900  1.00  0.00    -0.002 C 
HETATM    7  C10 UNL     1      -1.231  32.469  -8.094  1.00  0.00     0.006 C 
HETATM    8  C11 UNL     1      -0.959  33.845  -8.625  1.00  0.00     0.011 C 
HETATM    9  C12 UNL     1      -0.758  34.928  -7.663  1.00  0.00    -0.028 C 
HETATM   10  C13 UNL     1       0.386  35.813  -8.109  1.00  0.00     0.011 C 
HETATM   11  C14 UNL     1      -0.217  37.188  -8.261  1.00  0.00     0.006 C 
HETATM   12  C15 UNL     1      -1.255  37.175  -7.182  1.00  0.00    -0.001 C 
HETATM   13  C21 UNL     1      -1.919  35.867  -7.416  1.00  0.00    -0.032 C 
HETATM   14  C22 UNL     1      -2.929  35.898  -8.498  1.00  0.00     0.016 C 
HETATM   15  C23 UNL     1      -2.590  35.432  -6.151  1.00  0.00     0.011 C 
HETATM   16  C24 UNL     1      -1.776  34.323  -5.580  1.00  0.00     0.007 C 
HETATM   17  C25 UNL     1      -0.438  34.477  -6.261  1.00  0.00     0.003 C 
ENDROOT
BRANCH   1  18
HETATM   18  C3  UNL     1       0.285  29.737  -6.406  1.00  0.00     0.057 C 
BRANCH  18  19
HETATM   19  C2  UNL     1       1.124  28.550  -6.548  1.00  0.00    -0.011 C 
HETATM   20  C1  UNL     1       0.788  27.602  -7.688  1.00  0.00     0.063 C 
BRANCH  19  21
HETATM   21  N1  UNL     1       1.713  27.959  -5.406  1.00  0.00    -0.303 N 
HETATM   22  C26 UNL     1       3.063  28.075  -5.020  1.00  0.00     0.415 C 
HETATM   23  O2  UNL     1       3.811  28.718  -5.822  1.00  0.00    -0.228 OA
HETATM   24  N2  UNL     1       3.587  27.538  -3.842  1.00  0.00    -0.272 NA
ATOM     25  H1  UNL     1       1.105  27.399  -4.807  1.00  0.00     0.171 HD
BRANCH  24  26
HETATM   26  N3  UNL     1       4.072  27.043  -2.753  1.00  0.00    -0.275 N 
ATOM     27  H32 UNL     1       3.742  27.448  -3.629  1.00  0.00     0.191 HD
ATOM     28  H31 UNL     1       4.454  26.652  -1.892  1.00  0.00     0.191 HD
ENDBRANCH  24  26
ENDBRANCH  19  21
ENDBRANCH  18  19
ENDBRANCH   1  18
BRANCH  12  29
HETATM   29  C16 UNL     1      -2.037  38.379  -6.954  1.00  0.00    -0.007 C 
HETATM   30  C17 UNL     1      -1.921  39.527  -7.877  1.00  0.00     0.007 C 
HETATM   31  C18 UNL     1      -1.778  40.799  -7.023  1.00  0.00     0.032 C 
HETATM   32  C19 UNL     1      -2.339  40.330  -5.668  1.00  0.00     0.118 C 
HETATM   33  C20 UNL     1      -1.632  38.971  -5.600  1.00  0.00     0.036 C 
BRANCH  32  34
HETATM   34  O1  UNL     1      -1.970  41.155  -4.632  1.00  0.00    -0.396 OA
ATOM     35  H1  UNL     1      -1.747  40.672  -3.845  1.00  0.00     0.210 HD
ENDBRANCH  32  34
ENDBRANCH  12  29
TORSDOF 6
ENDMDL
MODEL 2
REMARK VINA RESULT: -7.509336554      1.314      2.240
REMARK  6 active torsions:
REMARK  status: ('A' for Active; 'I' for Inactive)
REMARK    1  A    between atoms: C2_2  and  C3_3 
REMARK    2  A    between atoms: C2_2  and  N1_28 
REMARK    3  A    between atoms: C3_3  and  C4_4 
REMARK    4  A    between atoms: C15_15  and  C16_16 
REMARK    5  A    between atoms: C19_19  and  O1_20 
REMARK       I    between atoms: N1_28  and  C26_30 
REMARK       I    between atoms: C26_30  and  N2_32 
REMARK    6  A    between atoms: N2_32  and  N3_33 
ROOT
HETATM    1  C4  UNL     1       1.357  31.215  -6.254  1.00  0.00    -0.004 C 
HETATM    2  C5  UNL     1       0.618  31.162  -4.954  1.00  0.00     0.006 C 
HETATM    3  C6  UNL     1      -0.009  32.562  -4.737  1.00  0.00     0.010 C 
HETATM    4  C7  UNL     1      -0.287  32.983  -6.138  1.00  0.00    -0.036 C 
HETATM    5  C8  UNL     1      -1.510  32.217  -6.629  1.00  0.00     0.016 C 
HETATM    6  C9  UNL     1       0.899  32.513  -6.926  1.00  0.00    -0.002 C 
HETATM    7  C10 UNL     1       1.972  33.516  -7.090  1.00  0.00     0.006 C 
HETATM    8  C11 UNL     1       1.893  34.742  -6.230  1.00  0.00     0.011 C 
HETATM    9  C12 UNL     1       0.578  35.341  -6.003  1.00  0.00    -0.028 C 
HETATM   10  C13 UNL     1       0.440  35.755  -4.554  1.00  0.00     0.011 C 
HETATM   11  C14 UNL     1       0.181  37.241  -4.594  1.00  0.00     0.006 C 
HETATM   12  C15 UNL     1      -0.601  37.370  -5.865  1.00  0.00    -0.001 C 
HETATM   13  C21 UNL     1       0.222  36.570  -6.809  1.00  0.00    -0.032 C 
HETATM   14  C22 UNL     1       1.384  37.308  -7.355  1.00  0.00     0.016 C 
HETATM   15  C23 UNL     1      -0.641  36.130  -7.949  1.00  0.00     0.011 C 
HETATM   16  C24 UNL     1      -0.900  34.675  -7.768  1.00  0.00     0.007 C 
HETATM   17  C25 UNL     1      -0.589  34.437  -6.310  1.00  0.00     0.003 C 
ENDROOT
BRANCH   1  18
HETATM   18  C3  UNL     1       1.168  30.057  -7.168  1.00  0.00     0.057 C 
BRANCH  18  19
HETATM   19  C2  UNL     1       2.076  28.913  -7.116  1.00  0.00    -0.011 C 
HETATM   20  C1  UNL     1       2.118  28.012  -8.339  1.00  0.00     0.063 C 
BRANCH  19  21
HETATM   21  N1  UNL     1       2.356  28.289  -5.878  1.00  0.00    -0.303 N 
HETATM   22  C26 UNL     1       3.636  27.945  -5.399  1.00  0.00     0.415 C 
HETATM   23  O2  UNL     1       4.600  28.167  -6.197  1.00  0.00    -0.228 OA
HETATM   24  N2  UNL     1       3.876  27.399  -4.137  1.00  0.00    -0.272 NA
ATOM     25  H1  UNL     1       1.561  28.068  -5.279  1.00  0.00     0.171 HD
BRANCH  24  26
HETATM   26  N3  UNL     1       4.098  26.894  -2.969  1.00  0.00    -0.275 N 
ATOM     27  H32 UNL     1       3.942  27.343  -3.872  1.00  0.00     0.191 HD
ATOM     28  H31 UNL     1       4.273  26.495  -2.047  1.00  0.00     0.191 HD
ENDBRANCH  24  26
ENDBRANCH  19  21
ENDBRANCH  18  19
ENDBRANCH   1  18
BRANCH  12  29
HETATM   29  C16 UNL     1      -1.109  38.678  -6.240  1.00  0.00    -0.007 C 
HETATM   30  C17 UNL     1      -0.767  39.869  -5.434  1.00  0.00     0.007 C 
HETATM   31  C18 UNL     1      -2.062  40.664  -5.203  1.00  0.00     0.032 C 
HETATM   32  C19 UNL     1      -2.962  40.131  -6.334  1.00  0.00     0.118 C 
HETATM   33  C20 UNL     1      -2.639  38.640  -6.181  1.00  0.00     0.036 C 
BRANCH  32  34
HETATM   34  O1  UNL     1      -4.293  40.396  -6.116  1.00  0.00    -0.396 OA
ATOM     35  H1  UNL     1      -4.838  39.625  -6.218  1.00  0.00     0.210 HD
ENDBRANCH  32  34
ENDBRANCH  12  29
TORSDOF 6
ENDMDL
MODEL 3
REMARK VINA RESULT: -7.501350023      4.892      9.220
REMARK  6 active torsions:
REMARK  status: ('A' for Active; 'I' for Inactive)
REMARK    1  A    between atoms: C2_2  and  C3_3 
REMARK    2  A    between atoms: C2_2  and  N1_28 
REMARK    3  A    between atoms: C3_3  and  C4_4 
REMARK    4  A    between atoms: C15_15  and  C16_16 
REMARK    5  A    between atoms: C19_19  and  O1_20 
REMARK       I    between atoms: N1_28  and  C26_30 
REMARK       I    between atoms: C26_30  and  N2_32 
REMARK    6  A    between atoms: N2_32  and  N3_33 
ROOT
HETATM    1  C4  UNL     1      -0.379  38.133  -4.876  1.00  0.00    -0.004 C 
HETATM    2  C5  UNL     1       0.822  37.854  -4.027  1.00  0.00     0.006 C 
HETATM    3  C6  UNL     1       1.290  36.418  -4.372  1.00  0.00     0.010 C 
HETATM    4  C7  UNL     1       0.922  36.323  -5.812  1.00  0.00    -0.036 C 
HETATM    5  C8  UNL     1       1.933  37.132  -6.614  1.00  0.00     0.016 C 
HETATM    6  C9  UNL     1      -0.408  37.009  -5.917  1.00  0.00    -0.002 C 
HETATM    7  C10 UNL     1      -1.579  36.116  -5.804  1.00  0.00     0.006 C 
HETATM    8  C11 UNL     1      -1.324  34.721  -5.314  1.00  0.00     0.011 C 
HETATM    9  C12 UNL     1      -0.122  34.034  -5.785  1.00  0.00    -0.028 C 
HETATM   10  C13 UNL     1       0.532  33.290  -4.641  1.00  0.00     0.011 C 
HETATM   11  C14 UNL     1       0.553  31.844  -5.074  1.00  0.00     0.006 C 
HETATM   12  C15 UNL     1       0.731  31.984  -6.554  1.00  0.00    -0.001 C 
HETATM   13  C21 UNL     1      -0.288  33.012  -6.887  1.00  0.00    -0.032 C 
HETATM   14  C22 UNL     1      -1.658  32.468  -7.023  1.00  0.00     0.016 C 
HETATM   15  C23 UNL     1       0.093  33.670  -8.176  1.00  0.00     0.011 C 
HETATM   16  C24 UNL     1       0.594  35.032  -7.842  1.00  0.00     0.007 C 
HETATM   17  C25 UNL     1       0.932  34.937  -6.374  1.00  0.00     0.003 C 
ENDROOT
BRANCH   1  18
HETATM   18  C3  UNL     1      -0.422  39.463  -5.540  1.00  0.00     0.057 C 
BRANCH  18  19
HETATM   19  C2  UNL     1      -1.181  40.564  -4.951  1.00  0.00    -0.011 C 
HETATM   20  C1  UNL     1      -2.284  41.171  -5.802  1.00  0.00     0.063 C 
BRANCH  19  21
HETATM   21  N1  UNL     1      -0.559  41.437  -4.029  1.00  0.00    -0.303 N 
HETATM   22  C26 UNL     1      -0.553  41.288  -2.628  1.00  0.00     0.415 C 
HETATM   23  O2  UNL     1      -1.227  40.311  -2.175  1.00  0.00    -0.228 OA
HETATM   24  N2  UNL     1       0.139  42.133  -1.757  1.00  0.00    -0.272 NA
ATOM     25  H1  UNL     1      -0.072  42.247  -4.413  1.00  0.00     0.171 HD
BRANCH  24  26
HETATM   26  N3  UNL     1       0.779  42.913  -0.951  1.00  0.00    -0.275 N 
ATOM     27  H32 UNL     1       0.247  42.343  -1.609  1.00  0.00     0.191 HD
ATOM     28  H31 UNL     1       1.284  43.528  -0.313  1.00  0.00     0.191 HD
ENDBRANCH  24  26
ENDBRANCH  19  21
ENDBRANCH  18  19
ENDBRANCH   1  18
BRANCH  12  29
HETATM   29  C16 UNL     1       0.866  30.779  -7.355  1.00  0.00    -0.007 C 
HETATM   30  C17 UNL     1       0.691  29.449  -6.735  1.00  0.00     0.007 C 
HETATM   31  C18 UNL     1       1.849  28.556  -7.211  1.00  0.00     0.032 C 
HETATM   32  C19 UNL     1       2.316  29.298  -8.477  1.00  0.00     0.118 C 
HETATM   33  C20 UNL     1       2.292  30.723  -7.913  1.00  0.00     0.036 C 
BRANCH  32  34
HETATM   34  O1  UNL     1       3.577  28.920  -8.873  1.00  0.00    -0.396 OA
ATOM     35  H1  UNL     1       3.789  29.223  -9.748  1.00  0.00     0.210 HD
ENDBRANCH  32  34
ENDBRANCH  12  29
TORSDOF 6
ENDMDL
MODEL 4
REMARK VINA RESULT: -7.443044576      1.492      2.391
REMARK  6 active torsions:
REMARK  status: ('A' for Active; 'I' for Inactive)
REMARK    1  A    between atoms: C2_2  and  C3_3 
REMARK    2  A    between atoms: C2_2  and  N1_28 
REMARK    3  A    between atoms: C3_3  and  C4_4 
REMARK    4  A    between atoms: C15_15  and  C16_16 
REMARK    5  A    between atoms: C19_19  and  O1_20 
REMARK       I    between atoms: N1_28  and  C26_30 
REMARK       I    between atoms: C26_30  and  N2_32 
REMARK    6  A    between atoms: N2_32  and  N3_33 
ROOT
HETATM    1  C4  UNL     1       1.099  30.868  -5.668  1.00  0.00    -0.004 C 
HETATM    2  C5  UNL     1       0.121  31.134  -4.567  1.00  0.00     0.006 C 
HETATM    3  C6  UNL     1      -0.398  32.580  -4.767  1.00  0.00     0.010 C 
HETATM    4  C7  UNL     1      -0.358  32.707  -6.250  1.00  0.00    -0.036 C 
HETATM    5  C8  UNL     1      -1.531  31.922  -6.825  1.00  0.00     0.016 C 
HETATM    6  C9  UNL     1       0.907  32.016  -6.664  1.00  0.00    -0.002 C 
HETATM    7  C10 UNL     1       2.084  32.901  -6.795  1.00  0.00     0.006 C 
HETATM    8  C11 UNL     1       1.958  34.285  -6.230  1.00  0.00     0.011 C 
HETATM    9  C12 UNL     1       0.689  34.989  -6.405  1.00  0.00    -0.028 C 
HETATM   10  C13 UNL     1       0.314  35.709  -5.128  1.00  0.00     0.011 C 
HETATM   11  C14 UNL     1       0.212  37.165  -5.514  1.00  0.00     0.006 C 
HETATM   12  C15 UNL     1      -0.293  37.062  -6.920  1.00  0.00    -0.001 C 
HETATM   13  C21 UNL     1       0.616  36.036  -7.494  1.00  0.00    -0.032 C 
HETATM   14  C22 UNL     1       1.928  36.577  -7.919  1.00  0.00     0.016 C 
HETATM   15  C23 UNL     1      -0.049  35.411  -8.680  1.00  0.00     0.011 C 
HETATM   16  C24 UNL     1      -0.477  34.044  -8.273  1.00  0.00     0.007 C 
HETATM   17  C25 UNL     1      -0.479  34.106  -6.765  1.00  0.00     0.003 C 
ENDROOT
BRANCH   1  18
HETATM   18  C3  UNL     1       0.979  29.554  -6.354  1.00  0.00     0.057 C 
BRANCH  18  19
HETATM   19  C2  UNL     1       2.163  28.735  -6.603  1.00  0.00    -0.011 C 
HETATM   20  C1  UNL     1       2.469  28.390  -8.051  1.00  0.00     0.063 C 
BRANCH  19  21
HETATM   21  N1  UNL     1       2.582  27.788  -5.639  1.00  0.00    -0.303 N 
HETATM   22  C26 UNL     1       3.757  27.864  -4.865  1.00  0.00     0.415 C 
HETATM   23  O2  UNL     1       4.521  28.847  -5.120  1.00  0.00    -0.228 OA
HETATM   24  N2  UNL     1       4.095  26.946  -3.869  1.00  0.00    -0.272 NA
ATOM     25  H1  UNL     1       1.981  26.977  -5.493  1.00  0.00     0.171 HD
BRANCH  24  26
HETATM   26  N3  UNL     1       4.409  26.097  -2.947  1.00  0.00    -0.275 N 
ATOM     27  H32 UNL     1       4.106  26.756  -3.666  1.00  0.00     0.191 HD
ATOM     28  H31 UNL     1       4.658  25.427  -2.220  1.00  0.00     0.191 HD
ENDBRANCH  24  26
ENDBRANCH  19  21
ENDBRANCH  18  19
ENDBRANCH   1  18
BRANCH  12  29
HETATM   29  C16 UNL     1      -0.590  38.286  -7.644  1.00  0.00    -0.007 C 
HETATM   30  C17 UNL     1      -0.155  39.593  -7.107  1.00  0.00     0.007 C 
HETATM   31  C18 UNL     1      -1.346  40.560  -7.211  1.00  0.00     0.032 C 
HETATM   32  C19 UNL     1      -2.218  39.868  -8.276  1.00  0.00     0.118 C 
HETATM   33  C20 UNL     1      -2.111  38.434  -7.744  1.00  0.00     0.036 C 
BRANCH  32  34
HETATM   34  O1  UNL     1      -3.514  40.325  -8.271  1.00  0.00    -0.396 OA
ATOM     35  H1  UNL     1      -4.147  39.625  -8.383  1.00  0.00     0.210 HD
ENDBRANCH  32  34
ENDBRANCH  12  29
TORSDOF 6
ENDMDL
MODEL 5
REMARK VINA RESULT: -7.402658058      2.244      3.170
REMARK  6 active torsions:
REMARK  status: ('A' for Active; 'I' for Inactive)
REMARK    1  A    between atoms: C2_2  and  C3_3 
REMARK    2  A    between atoms: C2_2  and  N1_28 
REMARK    3  A    between atoms: C3_3  and  C4_4 
REMARK    4  A    between atoms: C15_15  and  C16_16 
REMARK    5  A    between atoms: C19_19  and  O1_20 
REMARK       I    between atoms: N1_28  and  C26_30 
REMARK       I    between atoms: C26_30  and  N2_32 
REMARK    6  A    between atoms: N2_32  and  N3_33 
ROOT
HETATM    1  C4  UNL     1       1.272  31.100  -6.265  1.00  0.00    -0.004 C 
HETATM    2  C5  UNL     1       0.559  31.070  -4.950  1.00  0.00     0.006 C 
HETATM    3  C6  UNL     1      -0.046  32.480  -4.735  1.00  0.00     0.010 C 
HETATM    4  C7  UNL     1      -0.347  32.890  -6.135  1.00  0.00    -0.036 C 
HETATM    5  C8  UNL     1      -1.589  32.135  -6.593  1.00  0.00     0.016 C 
HETATM    6  C9  UNL     1       0.817  32.397  -6.941  1.00  0.00    -0.002 C 
HETATM    7  C10 UNL     1       1.899  33.384  -7.137  1.00  0.00     0.006 C 
HETATM    8  C11 UNL     1       1.852  34.620  -6.289  1.00  0.00     0.011 C 
HETATM    9  C12 UNL     1       0.550  35.238  -6.042  1.00  0.00    -0.028 C 
HETATM   10  C13 UNL     1       0.446  35.669  -4.595  1.00  0.00     0.011 C 
HETATM   11  C14 UNL     1       0.205  37.158  -4.646  1.00  0.00     0.006 C 
HETATM   12  C15 UNL     1      -0.600  37.283  -5.902  1.00  0.00    -0.001 C 
HETATM   13  C21 UNL     1       0.193  36.464  -6.853  1.00  0.00    -0.032 C 
HETATM   14  C22 UNL     1       1.353  37.181  -7.430  1.00  0.00     0.016 C 
HETATM   15  C23 UNL     1      -0.698  36.023  -7.972  1.00  0.00     0.011 C 
HETATM   16  C24 UNL     1      -0.971  34.573  -7.770  1.00  0.00     0.007 C 
HETATM   17  C25 UNL     1      -0.634  34.346  -6.316  1.00  0.00     0.003 C 
ENDROOT
BRANCH   1  18
HETATM   18  C3  UNL     1       1.051  29.935  -7.162  1.00  0.00     0.057 C 
BRANCH  18  19
HETATM   19  C2  UNL     1       2.063  28.890  -7.286  1.00  0.00    -0.011 C 
HETATM   20  C1  UNL     1       2.701  28.394  -5.998  1.00  0.00     0.063 C 
BRANCH  19  21
HETATM   21  N1  UNL     1       2.874  28.823  -8.443  1.00  0.00    -0.303 N 
HETATM   22  C26 UNL     1       3.281  27.644  -9.099  1.00  0.00     0.415 C 
HETATM   23  O2  UNL     1       2.928  26.557  -8.544  1.00  0.00    -0.228 OA
HETATM   24  N2  UNL     1       4.018  27.625 -10.284  1.00  0.00    -0.272 NA
ATOM     25  H1  UNL     1       3.193  29.708  -8.838  1.00  0.00     0.171 HD
BRANCH  24  26
HETATM   26  N3  UNL     1       4.700  27.607 -11.381  1.00  0.00    -0.275 N 
ATOM     27  H32 UNL     1       4.142  27.570 -10.527  1.00  0.00     0.191 HD
ATOM     28  H31 UNL     1       5.239  27.594 -12.246  1.00  0.00     0.191 HD
ENDBRANCH  24  26
ENDBRANCH  19  21
ENDBRANCH  18  19
ENDBRANCH   1  18
BRANCH  12  29
HETATM   29  C16 UNL     1      -1.100  38.594  -6.281  1.00  0.00    -0.007 C 
HETATM   30  C17 UNL     1      -0.728  39.788  -5.494  1.00  0.00     0.007 C 
HETATM   31  C18 UNL     1      -2.009  40.602  -5.247  1.00  0.00     0.032 C 
HETATM   32  C19 UNL     1      -2.936  40.069  -6.354  1.00  0.00     0.118 C 
HETATM   33  C20 UNL     1      -2.629  38.575  -6.192  1.00  0.00     0.036 C 
BRANCH  32  34
HETATM   34  O1  UNL     1      -4.259  40.353  -6.113  1.00  0.00    -0.396 OA
ATOM     35  H1  UNL     1      -4.804  40.223  -6.881  1.00  0.00     0.210 HD
ENDBRANCH  32  34
ENDBRANCH  12  29
TORSDOF 6
ENDMDL
