MODEL 1
REMARK VINA RESULT: -7.533421596      0.000      0.000
REMARK  12 active torsions:
REMARK  status: ('A' for Active; 'I' for Inactive)
REMARK    1  A    between atoms: C2_2  and  O1_3 
REMARK    2  A    between atoms: O1_3  and  C3_4 
REMARK    3  A    between atoms: C3_4  and  C4_6 
REMARK    4  A    between atoms: C4_6  and  N1_7 
REMARK    5  A    between atoms: N1_7  and  C5_9 
REMARK    6  A    between atoms: C6_12  and  N3_13 
REMARK    7  A    between atoms: C8_16  and  O4_17 
REMARK    8  A    between atoms: C8_16  and  C9_19 
REMARK    9  A    between atoms: C9_19  and  N4_20 
REMARK   10  A    between atoms: C11_25  and  N7_26 
REMARK   11  A    between atoms: C12_31  and  N9_32 
REMARK   12  A    between atoms: C15_41  and  N12_42 
ROOT
HETATM    1  N3  UNL     1      -9.910 -25.426  -2.773  1.00  0.00    -0.190 N 
HETATM    2  C7  UNL     1     -10.322 -26.785  -3.024  1.00  0.00     0.315 C 
HETATM    3  O3  UNL     1     -11.513 -26.621  -3.697  1.00  0.00    -0.332 OA
HETATM    4  C8  UNL     1     -12.188 -25.657  -2.955  1.00  0.00     0.198 C 
HETATM    5  C14 UNL     1     -11.111 -24.710  -2.423  1.00  0.00     0.213 C 
ENDROOT
BRANCH   4   6
HETATM    6  O4  UNL     1     -13.038 -24.896  -3.774  1.00  0.00    -0.363 OA
ATOM      7  H4  UNL     1     -13.463 -24.207  -3.277  1.00  0.00     0.213 HD
ENDBRANCH   4   6
BRANCH   4   8
HETATM    8  C9  UNL     1     -12.978 -26.301  -1.856  1.00  0.00     0.218 C 
BRANCH   8   9
HETATM    9  N4  UNL     1     -13.828 -27.378  -2.299  1.00  0.00    -0.253 N 
HETATM   10  N5  UNL     1     -14.545 -27.493  -3.403  1.00  0.00    -0.018 NA
HETATM   11  N6  UNL     1     -15.192 -28.665  -3.423  1.00  0.00    -0.277 N 
HETATM   12  C10 UNL     1     -14.899 -29.336  -2.314  1.00  0.00     0.136 A 
ATOM     13  H6  UNL     1     -15.810 -28.989  -4.167  1.00  0.00     0.184 HD
HETATM   14  C11 UNL     1     -15.262 -30.564  -1.792  1.00  0.00     0.146 A 
HETATM   15  C13 UNL     1     -14.039 -28.529  -1.602  1.00  0.00     0.168 A 
HETATM   16  N8  UNL     1     -14.766 -30.951  -0.589  1.00  0.00    -0.175 N 
HETATM   17  C12 UNL     1     -13.932 -30.154   0.091  1.00  0.00     0.679 A 
ATOM     18  H8  UNL     1     -15.030 -31.857  -0.201  1.00  0.00     0.186 HD
HETATM   19  N10 UNL     1     -13.585 -28.960  -0.428  1.00  0.00    -0.173 N 
ATOM     20  H10 UNL     1     -12.948 -28.364   0.099  1.00  0.00     0.186 HD
BRANCH  14  21
HETATM   21  N7  UNL     1     -16.054 -31.350  -2.413  1.00  0.00    -0.383 N 
ATOM     22  H72 UNL     1     -17.046 -31.118  -2.450  1.00  0.00     0.157 HD
ATOM     23  H71 UNL     1     -15.719 -32.199  -2.868  1.00  0.00     0.157 HD
ENDBRANCH  14  21
BRANCH  17  24
HETATM   24  N9  UNL     1     -13.431 -30.467   1.251  1.00  0.00    -0.234 N 
ATOM     25  H92 UNL     1     -14.089 -30.650   2.009  1.00  0.00     0.174 HD
ATOM     26  H91 UNL     1     -12.430 -30.540   1.427  1.00  0.00     0.174 HD
ENDBRANCH  17  24
ENDBRANCH   8   9
ENDBRANCH   4   8
BRANCH   1  27
HETATM   27  C6  UNL     1      -8.596 -24.907  -2.855  1.00  0.00     0.711 A 
HETATM   28  N2  UNL     1      -8.205 -24.084  -3.842  1.00  0.00    -0.021 N 
HETATM   29  C5  UNL     1      -6.947 -23.585  -3.937  1.00  0.00     0.707 A 
ATOM     30  H2  UNL     1      -8.887 -23.822  -4.555  1.00  0.00     0.203 HD
HETATM   31  N13 UNL     1      -6.081 -23.955  -2.979  1.00  0.00    -0.022 N 
HETATM   32  C15 UNL     1      -6.459 -24.790  -1.970  1.00  0.00     0.705 A 
ATOM     33  H13 UNL     1      -5.123 -23.605  -3.007  1.00  0.00     0.203 HD
HETATM   34  N11 UNL     1      -7.712 -25.262  -1.909  1.00  0.00    -0.021 N 
ATOM     35  H11 UNL     1      -7.991 -25.885  -1.151  1.00  0.00     0.203 HD
BRANCH  29  36
HETATM   36  N1  UNL     1      -6.616 -22.796  -4.902  1.00  0.00    -0.216 N 
ATOM     37  H1  UNL     1      -6.915 -23.009  -5.853  1.00  0.00     0.178 HD
BRANCH  36  38
HETATM   38  C4  UNL     1      -5.836 -21.630  -4.654  1.00  0.00     0.249 C 
BRANCH  38  39
HETATM   39  C3  UNL     1      -6.590 -20.424  -5.125  1.00  0.00     0.277 C 
HETATM   40  O2  UNL     1      -7.130 -19.658  -4.283  1.00  0.00    -0.263 OA
BRANCH  39  41
HETATM   41  O1  UNL     1      -6.731 -20.093  -6.464  1.00  0.00    -0.321 OA
BRANCH  41  42
HETATM   42  C2  UNL     1      -6.686 -18.724  -6.894  1.00  0.00     0.174 C 
HETATM   43  C1  UNL     1      -6.776 -18.669  -8.403  1.00  0.00     0.034 C 
ENDBRANCH  41  42
ENDBRANCH  39  41
ENDBRANCH  38  39
ENDBRANCH  36  38
ENDBRANCH  29  36
BRANCH  32  44
HETATM   44  N12 UNL     1      -5.629 -25.147  -1.047  1.00  0.00    -0.234 N 
ATOM     45 2H12 UNL     1      -5.679 -24.753  -0.107  1.00  0.00     0.174 HD
ATOM     46 1H12 UNL     1      -4.917 -25.839  -1.282  1.00  0.00     0.174 HD
ENDBRANCH  32  44
ENDBRANCH   1  27
TORSDOF 12
ENDMDL
MODEL 2
REMARK VINA RESULT: -7.482162406      1.343      1.611
REMARK  12 active torsions:
REMARK  status: ('A' for Active; 'I' for Inactive)
REMARK    1  A    between atoms: C2_2  and  O1_3 
REMARK    2  A    between atoms: O1_3  and  C3_4 
REMARK    3  A    between atoms: C3_4  and  C4_6 
REMARK    4  A    between atoms: C4_6  and  N1_7 
REMARK    5  A    between atoms: N1_7  and  C5_9 
REMARK    6  A    between atoms: C6_12  and  N3_13 
REMARK    7  A    between atoms: C8_16  and  O4_17 
REMARK    8  A    between atoms: C8_16  and  C9_19 
REMARK    9  A    between atoms: C9_19  and  N4_20 
REMARK   10  A    between atoms: C11_25  and  N7_26 
REMARK   11  A    between atoms: C12_31  and  N9_32 
REMARK   12  A    between atoms: C15_41  and  N12_42 
ROOT
HETATM    1  N3  UNL     1      -9.593 -24.984  -2.338  1.00  0.00    -0.190 N 
HETATM    2  C7  UNL     1      -9.959 -26.371  -2.191  1.00  0.00     0.315 C 
HETATM    3  O3  UNL     1     -10.827 -26.568  -3.243  1.00  0.00    -0.332 OA
HETATM    4  C8  UNL     1     -11.670 -25.464  -3.193  1.00  0.00     0.198 C 
HETATM    5  C14 UNL     1     -10.803 -24.298  -2.716  1.00  0.00     0.213 C 
ENDROOT
BRANCH   4   6
HETATM    6  O4  UNL     1     -12.140 -25.130  -4.475  1.00  0.00    -0.363 OA
ATOM      7  H4  UNL     1     -12.082 -24.195  -4.626  1.00  0.00     0.213 HD
ENDBRANCH   4   6
BRANCH   4   8
HETATM    8  C9  UNL     1     -12.828 -25.728  -2.278  1.00  0.00     0.218 C 
BRANCH   8   9
HETATM    9  N4  UNL     1     -13.534 -26.952  -2.567  1.00  0.00    -0.253 N 
HETATM   10  N5  UNL     1     -14.187 -27.318  -3.655  1.00  0.00    -0.018 NA
HETATM   11  N6  UNL     1     -14.699 -28.546  -3.505  1.00  0.00    -0.277 N 
HETATM   12  C10 UNL     1     -14.379 -29.000  -2.298  1.00  0.00     0.136 A 
ATOM     13  H6  UNL     1     -15.245 -29.051  -4.203  1.00  0.00     0.184 HD
HETATM   14  C11 UNL     1     -14.625 -30.167  -1.598  1.00  0.00     0.146 A 
HETATM   15  C13 UNL     1     -13.645 -27.999  -1.701  1.00  0.00     0.168 A 
HETATM   16  N8  UNL     1     -14.139 -30.305  -0.338  1.00  0.00    -0.175 N 
HETATM   17  C12 UNL     1     -13.428 -29.321   0.228  1.00  0.00     0.679 A 
ATOM     18  H8  UNL     1     -14.316 -31.164   0.182  1.00  0.00     0.186 HD
HETATM   19  N10 UNL     1     -13.194 -28.188  -0.465  1.00  0.00    -0.173 N 
ATOM     20  H10 UNL     1     -12.650 -27.448  -0.023  1.00  0.00     0.186 HD
BRANCH  14  21
HETATM   21  N7  UNL     1     -15.298 -31.125  -2.106  1.00  0.00    -0.383 N 
ATOM     22  H72 UNL     1     -15.638 -31.034  -3.063  1.00  0.00     0.157 HD
ATOM     23  H71 UNL     1     -15.504 -31.974  -1.579  1.00  0.00     0.157 HD
ENDBRANCH  14  21
BRANCH  17  24
HETATM   24  N9  UNL     1     -12.944 -29.391   1.434  1.00  0.00    -0.234 N 
ATOM     25  H92 UNL     1     -13.188 -30.212   1.988  1.00  0.00     0.174 HD
ATOM     26  H91 UNL     1     -12.339 -28.676   1.837  1.00  0.00     0.174 HD
ENDBRANCH  17  24
ENDBRANCH   8   9
ENDBRANCH   4   8
BRANCH   1  27
HETATM   27  C6  UNL     1      -8.311 -24.418  -2.150  1.00  0.00     0.711 A 
HETATM   28  N2  UNL     1      -7.990 -23.191  -2.593  1.00  0.00    -0.021 N 
HETATM   29  C5  UNL     1      -6.762 -22.640  -2.425  1.00  0.00     0.707 A 
ATOM     30  H2  UNL     1      -8.705 -22.647  -3.078  1.00  0.00     0.203 HD
HETATM   31  N13 UNL     1      -5.850 -23.388  -1.782  1.00  0.00    -0.022 N 
HETATM   32  C15 UNL     1      -6.157 -24.636  -1.327  1.00  0.00     0.705 A 
ATOM     33  H13 UNL     1      -4.913 -23.017  -1.632  1.00  0.00     0.203 HD
HETATM   34  N11 UNL     1      -7.382 -25.147  -1.510  1.00  0.00    -0.021 N 
ATOM     35  H11 UNL     1      -7.607 -26.080  -1.165  1.00  0.00     0.203 HD
BRANCH  29  36
HETATM   36  N1  UNL     1      -6.499 -21.456  -2.866  1.00  0.00    -0.216 N 
ATOM     37  H1  UNL     1      -6.863 -20.642  -2.372  1.00  0.00     0.178 HD
BRANCH  36  38
HETATM   38  C4  UNL     1      -5.706 -21.274  -4.034  1.00  0.00     0.249 C 
BRANCH  38  39
HETATM   39  C3  UNL     1      -6.596 -21.271  -5.239  1.00  0.00     0.277 C 
HETATM   40  O2  UNL     1      -6.749 -20.208  -5.899  1.00  0.00    -0.263 OA
BRANCH  39  41
HETATM   41  O1  UNL     1      -7.277 -22.394  -5.682  1.00  0.00    -0.321 OA
BRANCH  41  42
HETATM   42  C2  UNL     1      -6.570 -23.526  -6.208  1.00  0.00     0.174 C 
HETATM   43  C1  UNL     1      -6.180 -23.251  -7.644  1.00  0.00     0.034 C 
ENDBRANCH  41  42
ENDBRANCH  39  41
ENDBRANCH  38  39
ENDBRANCH  36  38
ENDBRANCH  29  36
BRANCH  32  44
HETATM   44  N12 UNL     1      -5.283 -25.357  -0.708  1.00  0.00    -0.234 N 
ATOM     45 2H12 UNL     1      -5.431 -26.355  -0.556  1.00  0.00     0.174 HD
ATOM     46 1H12 UNL     1      -4.433 -24.902  -0.373  1.00  0.00     0.174 HD
ENDBRANCH  32  44
ENDBRANCH   1  27
TORSDOF 12
ENDMDL
MODEL 3
REMARK VINA RESULT: -7.388508304      1.006      1.111
REMARK  12 active torsions:
REMARK  status: ('A' for Active; 'I' for Inactive)
REMARK    1  A    between atoms: C2_2  and  O1_3 
REMARK    2  A    between atoms: O1_3  and  C3_4 
REMARK    3  A    between atoms: C3_4  and  C4_6 
REMARK    4  A    between atoms: C4_6  and  N1_7 
REMARK    5  A    between atoms: N1_7  and  C5_9 
REMARK    6  A    between atoms: C6_12  and  N3_13 
REMARK    7  A    between atoms: C8_16  and  O4_17 
REMARK    8  A    between atoms: C8_16  and  C9_19 
REMARK    9  A    between atoms: C9_19  and  N4_20 
REMARK   10  A    between atoms: C11_25  and  N7_26 
REMARK   11  A    between atoms: C12_31  and  N9_32 
REMARK   12  A    between atoms: C15_41  and  N12_42 
ROOT
HETATM    1  N3  UNL     1      -9.580 -25.033  -2.415  1.00  0.00    -0.190 N 
HETATM    2  C7  UNL     1      -9.945 -26.421  -2.284  1.00  0.00     0.315 C 
HETATM    3  O3  UNL     1     -10.844 -26.597  -3.314  1.00  0.00    -0.332 OA
HETATM    4  C8  UNL     1     -11.682 -25.491  -3.219  1.00  0.00     0.198 C 
HETATM    5  C14 UNL     1     -10.798 -24.336  -2.746  1.00  0.00     0.213 C 
ENDROOT
BRANCH   4   6
HETATM    6  O4  UNL     1     -12.187 -25.132  -4.480  1.00  0.00    -0.363 OA
ATOM      7  H4  UNL     1     -12.495 -24.234  -4.482  1.00  0.00     0.213 HD
ENDBRANCH   4   6
BRANCH   4   8
HETATM    8  C9  UNL     1     -12.814 -25.770  -2.276  1.00  0.00     0.218 C 
BRANCH   8   9
HETATM    9  N4  UNL     1     -13.536 -26.982  -2.572  1.00  0.00    -0.253 N 
HETATM   10  N5  UNL     1     -14.194 -27.333  -3.662  1.00  0.00    -0.018 NA
HETATM   11  N6  UNL     1     -14.722 -28.555  -3.519  1.00  0.00    -0.277 N 
HETATM   12  C10 UNL     1     -14.409 -29.021  -2.315  1.00  0.00     0.136 A 
ATOM     13  H6  UNL     1     -15.276 -29.048  -4.221  1.00  0.00     0.184 HD
HETATM   14  C11 UNL     1     -14.671 -30.188  -1.622  1.00  0.00     0.146 A 
HETATM   15  C13 UNL     1     -13.661 -28.033  -1.713  1.00  0.00     0.168 A 
HETATM   16  N8  UNL     1     -14.186 -30.339  -0.362  1.00  0.00    -0.175 N 
HETATM   17  C12 UNL     1     -13.462 -29.369   0.209  1.00  0.00     0.679 A 
ATOM     18  H8  UNL     1     -14.376 -31.199   0.152  1.00  0.00     0.186 HD
HETATM   19  N10 UNL     1     -13.213 -28.236  -0.477  1.00  0.00    -0.173 N 
ATOM     20  H10 UNL     1     -12.659 -27.505  -0.031  1.00  0.00     0.186 HD
BRANCH  14  21
HETATM   21  N7  UNL     1     -15.357 -31.134  -2.135  1.00  0.00    -0.383 N 
ATOM     22  H72 UNL     1     -16.192 -30.900  -2.672  1.00  0.00     0.157 HD
ATOM     23  H71 UNL     1     -15.091 -32.112  -2.020  1.00  0.00     0.157 HD
ENDBRANCH  14  21
BRANCH  17  24
HETATM   24  N9  UNL     1     -12.979 -29.453   1.415  1.00  0.00    -0.234 N 
ATOM     25  H92 UNL     1     -13.643 -29.406   2.187  1.00  0.00     0.174 HD
ATOM     26  H91 UNL     1     -11.985 -29.565   1.613  1.00  0.00     0.174 HD
ENDBRANCH  17  24
ENDBRANCH   8   9
ENDBRANCH   4   8
BRANCH   1  27
HETATM   27  C6  UNL     1      -8.291 -24.473  -2.254  1.00  0.00     0.711 A 
HETATM   28  N2  UNL     1      -7.942 -23.294  -2.793  1.00  0.00    -0.021 N 
HETATM   29  C5  UNL     1      -6.707 -22.750  -2.652  1.00  0.00     0.707 A 
ATOM     30  H2  UNL     1      -8.639 -22.782  -3.335  1.00  0.00     0.203 HD
HETATM   31  N13 UNL     1      -5.819 -23.456  -1.932  1.00  0.00    -0.022 N 
HETATM   32  C15 UNL     1      -6.154 -24.655  -1.377  1.00  0.00     0.705 A 
ATOM     33  H13 UNL     1      -4.877 -23.088  -1.797  1.00  0.00     0.203 HD
HETATM   34  N11 UNL     1      -7.386 -25.160  -1.538  1.00  0.00    -0.021 N 
ATOM     35  H11 UNL     1      -7.632 -26.057  -1.119  1.00  0.00     0.203 HD
BRANCH  29  36
HETATM   36  N1  UNL     1      -6.416 -21.613  -3.186  1.00  0.00    -0.216 N 
ATOM     37  H1  UNL     1      -6.779 -20.754  -2.773  1.00  0.00     0.178 HD
BRANCH  36  38
HETATM   38  C4  UNL     1      -5.593 -21.543  -4.346  1.00  0.00     0.249 C 
BRANCH  38  39
HETATM   39  C3  UNL     1      -6.457 -21.614  -5.568  1.00  0.00     0.277 C 
HETATM   40  O2  UNL     1      -6.935 -22.723  -5.929  1.00  0.00    -0.263 OA
BRANCH  39  41
HETATM   41  O1  UNL     1      -6.769 -20.508  -6.343  1.00  0.00    -0.321 OA
BRANCH  41  42
HETATM   42  C2  UNL     1      -6.379 -19.188  -5.936  1.00  0.00     0.174 C 
HETATM   43  C1  UNL     1      -6.664 -18.213  -7.057  1.00  0.00     0.034 C 
ENDBRANCH  41  42
ENDBRANCH  39  41
ENDBRANCH  38  39
ENDBRANCH  36  38
ENDBRANCH  29  36
BRANCH  32  44
HETATM   44  N12 UNL     1      -5.303 -25.336  -0.684  1.00  0.00    -0.234 N 
ATOM     45 2H12 UNL     1      -5.467 -26.317  -0.458  1.00  0.00     0.174 HD
ATOM     46 1H12 UNL     1      -4.455 -24.865  -0.368  1.00  0.00     0.174 HD
ENDBRANCH  32  44
ENDBRANCH   1  27
TORSDOF 12
ENDMDL
MODEL 4
REMARK VINA RESULT: -7.213598507      1.078      1.710
REMARK  12 active torsions:
REMARK  status: ('A' for Active; 'I' for Inactive)
REMARK    1  A    between atoms: C2_2  and  O1_3 
REMARK    2  A    between atoms: O1_3  and  C3_4 
REMARK    3  A    between atoms: C3_4  and  C4_6 
REMARK    4  A    between atoms: C4_6  and  N1_7 
REMARK    5  A    between atoms: N1_7  and  C5_9 
REMARK    6  A    between atoms: C6_12  and  N3_13 
REMARK    7  A    between atoms: C8_16  and  O4_17 
REMARK    8  A    between atoms: C8_16  and  C9_19 
REMARK    9  A    between atoms: C9_19  and  N4_20 
REMARK   10  A    between atoms: C11_25  and  N7_26 
REMARK   11  A    between atoms: C12_31  and  N9_32 
REMARK   12  A    between atoms: C15_41  and  N12_42 
ROOT
HETATM    1  N3  UNL     1     -10.407 -25.557  -2.831  1.00  0.00    -0.190 N 
HETATM    2  C7  UNL     1     -10.862 -26.883  -3.169  1.00  0.00     0.315 C 
HETATM    3  O3  UNL     1     -12.116 -26.649  -3.689  1.00  0.00    -0.332 OA
HETATM    4  C8  UNL     1     -12.694 -25.762  -2.787  1.00  0.00     0.198 C 
HETATM    5  C14 UNL     1     -11.553 -24.876  -2.284  1.00  0.00     0.213 C 
ENDROOT
BRANCH   4   6
HETATM    6  O4  UNL     1     -13.617 -24.920  -3.429  1.00  0.00    -0.363 OA
ATOM      7  H4  UNL     1     -13.767 -24.130  -2.923  1.00  0.00     0.213 HD
ENDBRANCH   4   6
BRANCH   4   8
HETATM    8  C9  UNL     1     -13.370 -26.509  -1.677  1.00  0.00     0.218 C 
BRANCH   8   9
HETATM    9  N4  UNL     1     -14.200 -27.599  -2.126  1.00  0.00    -0.253 N 
HETATM   10  N5  UNL     1     -14.989 -27.684  -3.182  1.00  0.00    -0.018 NA
HETATM   11  N6  UNL     1     -15.583 -28.884  -3.230  1.00  0.00    -0.277 N 
HETATM   12  C10 UNL     1     -15.181 -29.603  -2.188  1.00  0.00     0.136 A 
ATOM     13  H6  UNL     1     -16.238 -29.194  -3.948  1.00  0.00     0.184 HD
HETATM   14  C11 UNL     1     -15.451 -30.875  -1.719  1.00  0.00     0.146 A 
HETATM   15  C13 UNL     1     -14.309 -28.798  -1.488  1.00  0.00     0.168 A 
HETATM   16  N8  UNL     1     -14.852 -31.308  -0.579  1.00  0.00    -0.175 N 
HETATM   17  C12 UNL     1     -14.008 -30.512   0.090  1.00  0.00     0.679 A 
ATOM     18  H8  UNL     1     -15.047 -32.246  -0.230  1.00  0.00     0.186 HD
HETATM   19  N10 UNL     1     -13.752 -29.274  -0.378  1.00  0.00    -0.173 N 
ATOM     20  H10 UNL     1     -13.107 -28.679   0.140  1.00  0.00     0.186 HD
BRANCH  14  21
HETATM   21  N7  UNL     1     -16.249 -31.661  -2.331  1.00  0.00    -0.383 N 
ATOM     22  H72 UNL     1     -17.115 -31.282  -2.713  1.00  0.00     0.157 HD
ATOM     23  H71 UNL     1     -16.043 -32.654  -2.443  1.00  0.00     0.157 HD
ENDBRANCH  14  21
BRANCH  17  24
HETATM   24  N9  UNL     1     -13.411 -30.867   1.191  1.00  0.00    -0.234 N 
ATOM     25  H92 UNL     1     -13.429 -30.204   1.965  1.00  0.00     0.174 HD
ATOM     26  H91 UNL     1     -12.941 -31.764   1.309  1.00  0.00     0.174 HD
ENDBRANCH  17  24
ENDBRANCH   8   9
ENDBRANCH   4   8
BRANCH   1  27
HETATM   27  C6  UNL     1      -9.103 -25.036  -3.004  1.00  0.00     0.711 A 
HETATM   28  N2  UNL     1      -8.743 -24.336  -4.093  1.00  0.00    -0.021 N 
HETATM   29  C5  UNL     1      -7.495 -23.838  -4.274  1.00  0.00     0.707 A 
ATOM     30  H2  UNL     1      -9.442 -24.172  -4.818  1.00  0.00     0.203 HD
HETATM   31  N13 UNL     1      -6.604 -24.077  -3.297  1.00  0.00    -0.022 N 
HETATM   32  C15 UNL     1      -6.951 -24.785  -2.185  1.00  0.00     0.705 A 
ATOM     33  H13 UNL     1      -5.653 -23.721  -3.387  1.00  0.00     0.203 HD
HETATM   34  N11 UNL     1      -8.195 -25.261  -2.040  1.00  0.00    -0.021 N 
ATOM     35  H11 UNL     1      -8.450 -25.790  -1.206  1.00  0.00     0.203 HD
BRANCH  29  36
HETATM   36  N1  UNL     1      -7.193 -23.169  -5.336  1.00  0.00    -0.216 N 
ATOM     37  H1  UNL     1      -7.851 -23.134  -6.114  1.00  0.00     0.178 HD
BRANCH  36  38
HETATM   38  C4  UNL     1      -5.951 -22.479  -5.433  1.00  0.00     0.249 C 
BRANCH  38  39
HETATM   39  C3  UNL     1      -6.165 -21.032  -5.112  1.00  0.00     0.277 C 
HETATM   40  O2  UNL     1      -6.850 -20.315  -5.891  1.00  0.00    -0.263 OA
BRANCH  39  41
HETATM   41  O1  UNL     1      -5.643 -20.419  -3.983  1.00  0.00    -0.321 OA
BRANCH  41  42
HETATM   42  C2  UNL     1      -4.367 -20.810  -3.455  1.00  0.00     0.174 C 
HETATM   43  C1  UNL     1      -4.559 -21.444  -2.095  1.00  0.00     0.034 C 
ENDBRANCH  41  42
ENDBRANCH  39  41
ENDBRANCH  38  39
ENDBRANCH  36  38
ENDBRANCH  29  36
BRANCH  32  44
HETATM   44  N12 UNL     1      -6.098 -25.016  -1.243  1.00  0.00    -0.234 N 
ATOM     45 2H12 UNL     1      -6.365 -25.522  -0.399  1.00  0.00     0.174 HD
ATOM     46 1H12 UNL     1      -5.143 -24.679  -1.367  1.00  0.00     0.174 HD
ENDBRANCH  32  44
ENDBRANCH   1  27
TORSDOF 12
ENDMDL
MODEL 5
REMARK VINA RESULT: -7.173523538      2.053      2.584
REMARK  12 active torsions:
REMARK  status: ('A' for Active; 'I' for Inactive)
REMARK    1  A    between atoms: C2_2  and  O1_3 
REMARK    2  A    between atoms: O1_3  and  C3_4 
REMARK    3  A    between atoms: C3_4  and  C4_6 
REMARK    4  A    between atoms: C4_6  and  N1_7 
REMARK    5  A    between atoms: N1_7  and  C5_9 
REMARK    6  A    between atoms: C6_12  and  N3_13 
REMARK    7  A    between atoms: C8_16  and  O4_17 
REMARK    8  A    between atoms: C8_16  and  C9_19 
REMARK    9  A    between atoms: C9_19  and  N4_20 
REMARK   10  A    between atoms: C11_25  and  N7_26 
REMARK   11  A    between atoms: C12_31  and  N9_32 
REMARK   12  A    between atoms: C15_41  and  N12_42 
ROOT
HETATM    1  N3  UNL     1      -9.195 -24.962  -2.680  1.00  0.00    -0.190 N 
HETATM    2  C7  UNL     1      -9.830 -26.053  -1.983  1.00  0.00     0.315 C 
HETATM    3  O3  UNL     1     -10.323 -26.824  -3.014  1.00  0.00    -0.332 OA
HETATM    4  C8  UNL     1     -10.923 -25.903  -3.866  1.00  0.00     0.198 C 
HETATM    5  C14 UNL     1     -10.068 -24.638  -3.780  1.00  0.00     0.213 C 
ENDROOT
BRANCH   4   6
HETATM    6  O4  UNL     1     -10.874 -26.344  -5.199  1.00  0.00    -0.363 OA
ATOM      7  H4  UNL     1     -10.417 -25.718  -5.748  1.00  0.00     0.213 HD
ENDBRANCH   4   6
BRANCH   4   8
HETATM    8  C9  UNL     1     -12.345 -25.661  -3.459  1.00  0.00     0.218 C 
BRANCH   8   9
HETATM    9  N4  UNL     1     -13.132 -26.864  -3.339  1.00  0.00    -0.253 N 
HETATM   10  N5  UNL     1     -12.865 -28.095  -3.739  1.00  0.00    -0.018 NA
HETATM   11  N6  UNL     1     -13.873 -28.919  -3.425  1.00  0.00    -0.277 N 
HETATM   12  C10 UNL     1     -14.821 -28.223  -2.808  1.00  0.00     0.136 A 
ATOM     13  H6  UNL     1     -13.907 -29.919  -3.628  1.00  0.00     0.184 HD
HETATM   14  C11 UNL     1     -16.060 -28.523  -2.274  1.00  0.00     0.146 A 
HETATM   15  C13 UNL     1     -14.360 -26.926  -2.751  1.00  0.00     0.168 A 
HETATM   16  N8  UNL     1     -16.798 -27.537  -1.702  1.00  0.00    -0.175 N 
HETATM   17  C12 UNL     1     -16.335 -26.281  -1.656  1.00  0.00     0.679 A 
ATOM     18  H8  UNL     1     -17.712 -27.754  -1.305  1.00  0.00     0.186 HD
HETATM   19  N10 UNL     1     -15.125 -26.001  -2.180  1.00  0.00    -0.173 N 
ATOM     20  H10 UNL     1     -14.784 -25.041  -2.137  1.00  0.00     0.186 HD
BRANCH  14  21
HETATM   21  N7  UNL     1     -16.533 -29.709  -2.299  1.00  0.00    -0.383 N 
ATOM     22  H72 UNL     1     -15.998 -30.460  -1.864  1.00  0.00     0.157 HD
ATOM     23  H71 UNL     1     -17.426 -29.921  -2.744  1.00  0.00     0.157 HD
ENDBRANCH  14  21
BRANCH  17  24
HETATM   24  N9  UNL     1     -16.999 -25.293  -1.130  1.00  0.00    -0.234 N 
ATOM     25  H92 UNL     1     -17.511 -25.482  -0.268  1.00  0.00     0.174 HD
ATOM     26  H91 UNL     1     -17.024 -24.357  -1.533  1.00  0.00     0.174 HD
ENDBRANCH  17  24
ENDBRANCH   8   9
ENDBRANCH   4   8
BRANCH   1  27
HETATM   27  C6  UNL     1      -7.967 -24.342  -2.349  1.00  0.00     0.711 A 
HETATM   28  N2  UNL     1      -7.623 -23.129  -2.811  1.00  0.00    -0.021 N 
HETATM   29  C5  UNL     1      -6.446 -22.527  -2.508  1.00  0.00     0.707 A 
ATOM     30  H2  UNL     1      -8.278 -22.637  -3.420  1.00  0.00     0.203 HD
HETATM   31  N13 UNL     1      -5.612 -23.209  -1.705  1.00  0.00    -0.022 N 
HETATM   32  C15 UNL     1      -5.943 -24.442  -1.227  1.00  0.00     0.705 A 
ATOM     33  H13 UNL     1      -4.715 -22.797  -1.448  1.00  0.00     0.203 HD
HETATM   34  N11 UNL     1      -7.117 -25.004  -1.548  1.00  0.00    -0.021 N 
ATOM     35  H11 UNL     1      -7.362 -25.926  -1.186  1.00  0.00     0.203 HD
BRANCH  29  36
HETATM   36  N1  UNL     1      -6.156 -21.359  -2.973  1.00  0.00    -0.216 N 
ATOM     37  H1  UNL     1      -6.407 -20.527  -2.438  1.00  0.00     0.178 HD
BRANCH  36  38
HETATM   38  C4  UNL     1      -5.492 -21.218  -4.224  1.00  0.00     0.249 C 
BRANCH  38  39
HETATM   39  C3  UNL     1      -6.511 -21.168  -5.321  1.00  0.00     0.277 C 
HETATM   40  O2  UNL     1      -6.740 -20.078  -5.910  1.00  0.00    -0.263 OA
BRANCH  39  41
HETATM   41  O1  UNL     1      -7.232 -22.277  -5.737  1.00  0.00    -0.321 OA
BRANCH  41  42
HETATM   42  C2  UNL     1      -6.566 -23.442  -6.245  1.00  0.00     0.174 C 
HETATM   43  C1  UNL     1      -6.140 -23.194  -7.675  1.00  0.00     0.034 C 
ENDBRANCH  41  42
ENDBRANCH  39  41
ENDBRANCH  38  39
ENDBRANCH  36  38
ENDBRANCH  29  36
BRANCH  32  44
HETATM   44  N12 UNL     1      -5.144 -25.099  -0.454  1.00  0.00    -0.234 N 
ATOM     45 2H12 UNL     1      -4.871 -26.059  -0.668  1.00  0.00     0.174 HD
ATOM     46 1H12 UNL     1      -4.789 -24.632   0.379  1.00  0.00     0.174 HD
ENDBRANCH  32  44
ENDBRANCH   1  27
TORSDOF 12
ENDMDL
