MODEL 1
REMARK VINA RESULT: -5.820993617      0.000      0.000
REMARK  11 active torsions:
REMARK  status: ('A' for Active; 'I' for Inactive)
REMARK       I    between atoms: C2_2  and  N1_4 
REMARK    1  A    between atoms: N1_4  and  C3_6 
REMARK    2  A    between atoms: C3_6  and  O2_7 
REMARK    3  A    between atoms: C3_6  and  N2_9 
REMARK    4  A    between atoms: C4_10  and  C5_11 
REMARK    5  A    between atoms: C5_11  and  N3_12 
REMARK    6  A    between atoms: C5_11  and  C7_22 
REMARK    7  A    between atoms: N3_12  and  C6_14 
REMARK    8  A    between atoms: C7_22  and  C8_24 
REMARK    9  A    between atoms: C8_24  and  O4_25 
REMARK   10  A    between atoms: C8_24  and  O5_27 
REMARK   11  A    between atoms: C9_33  and  N10_34 
ROOT
HETATM    1  N2  UNL     1      55.695  15.588   8.476  1.00  0.00    -0.094 N 
HETATM    2  C4  UNL     1      56.800  15.437   7.702  1.00  0.00     0.155 A 
HETATM    3  N8  UNL     1      56.373  15.214   6.452  1.00  0.00    -0.272 N 
ATOM      4  H8  UNL     1      56.976  15.061   5.643  1.00  0.00     0.189 HD
HETATM    5  N9  UNL     1      55.091  15.220   6.424  1.00  0.00    -0.130 N 
ATOM      6  H9  UNL     1      54.522  15.074   5.591  1.00  0.00     0.205 HD
HETATM    7  C9  UNL     1      54.602  15.453   7.678  1.00  0.00     0.701 A 
ENDROOT
BRANCH   2   8
HETATM    8  C5  UNL     1      58.247  15.547   8.027  1.00  0.00     0.244 C 
BRANCH   8   9
HETATM    9  N3  UNL     1      58.853  16.767   7.600  1.00  0.00    -0.205 N 
ATOM     10  H3  UNL     1      59.079  16.848   6.609  1.00  0.00     0.179 HD
BRANCH   9  11
HETATM   11  C6  UNL     1      59.144  17.776   8.349  1.00  0.00     0.707 A 
HETATM   12  N4  UNL     1      59.140  17.854   9.691  1.00  0.00    -0.118 N 
HETATM   13  N5  UNL     1      59.516  19.060  10.037  1.00  0.00    -0.212 N 
ATOM     14  H4  UNL     1      58.887  17.101  10.332  1.00  0.00     0.207 HD
HETATM   15  N6  UNL     1      59.773  19.799   8.965  1.00  0.00     0.009 NA
ATOM     16  H5  UNL     1      59.600  19.388  11.000  1.00  0.00     0.206 HD
HETATM   17  N7  UNL     1      59.541  19.000   7.937  1.00  0.00    -0.114 N 
ATOM     18  H7  UNL     1      59.648  19.273   6.960  1.00  0.00     0.203 HD
ENDBRANCH   9  11
ENDBRANCH   8   9
BRANCH   8  19
HETATM   19  C7  UNL     1      58.966  14.402   7.391  1.00  0.00     0.211 C 
HETATM   20  O3  UNL     1      58.283  13.395   7.181  1.00  0.00    -0.290 OA
BRANCH  19  21
HETATM   21  C8  UNL     1      60.396  14.455   7.030  1.00  0.00     0.328 C 
BRANCH  21  22
HETATM   22  O4  UNL     1      61.160  14.666   8.180  1.00  0.00    -0.365 OA
ATOM     23  H4  UNL     1      61.543  13.844   8.461  1.00  0.00     0.213 HD
ENDBRANCH  21  22
BRANCH  21  24
HETATM   24  O5  UNL     1      60.743  13.156   6.589  1.00  0.00    -0.365 OA
ATOM     25  H5  UNL     1      61.305  13.273   5.833  1.00  0.00     0.213 HD
ENDBRANCH  21  24
ENDBRANCH  19  21
ENDBRANCH   8  19
ENDBRANCH   2   8
BRANCH   1  26
HETATM   26  C3  UNL     1      55.723  15.675   9.862  1.00  0.00     0.247 C 
BRANCH  26  27
HETATM   27  N1  UNL     1      55.980  16.633  10.831  1.00  0.00    -0.292 N 
HETATM   28  C2  UNL     1      56.378  16.674  12.147  1.00  0.00     0.220 C 
HETATM   29  C1  UNL     1      56.504  18.036  12.831  1.00  0.00     0.117 C 
HETATM   30  O1  UNL     1      56.658  15.735  12.878  1.00  0.00    -0.274 OA
ATOM     31  H1  UNL     1      55.832  17.574  10.464  1.00  0.00     0.172 HD
ENDBRANCH  26  27
BRANCH  26  32
HETATM   32  O2  UNL     1      55.418  14.493  10.433  1.00  0.00    -0.331 OA
ATOM     33  H2  UNL     1      56.166  14.148  10.906  1.00  0.00     0.221 HD
ENDBRANCH  26  32
ENDBRANCH   1  26
BRANCH   7  34
HETATM   34  N10 UNL     1      53.344  15.447   7.932  1.00  0.00    -0.233 N 
ATOM     35 2H10 UNL     1      52.848  14.596   8.199  1.00  0.00     0.174 HD
ATOM     36 1H10 UNL     1      52.652  16.194   7.983  1.00  0.00     0.174 HD
ENDBRANCH   7  34
TORSDOF 11
ENDMDL
MODEL 2
REMARK VINA RESULT: -5.725370332      5.334      7.254
REMARK  11 active torsions:
REMARK  status: ('A' for Active; 'I' for Inactive)
REMARK       I    between atoms: C2_2  and  N1_4 
REMARK    1  A    between atoms: N1_4  and  C3_6 
REMARK    2  A    between atoms: C3_6  and  O2_7 
REMARK    3  A    between atoms: C3_6  and  N2_9 
REMARK    4  A    between atoms: C4_10  and  C5_11 
REMARK    5  A    between atoms: C5_11  and  N3_12 
REMARK    6  A    between atoms: C5_11  and  C7_22 
REMARK    7  A    between atoms: N3_12  and  C6_14 
REMARK    8  A    between atoms: C7_22  and  C8_24 
REMARK    9  A    between atoms: C8_24  and  O4_25 
REMARK   10  A    between atoms: C8_24  and  O5_27 
REMARK   11  A    between atoms: C9_33  and  N10_34 
ROOT
HETATM    1  N2  UNL     1      50.424  15.877   9.444  1.00  0.00    -0.094 N 
HETATM    2  C4  UNL     1      51.458  15.345  10.144  1.00  0.00     0.155 A 
HETATM    3  N8  UNL     1      51.274  14.017  10.161  1.00  0.00    -0.272 N 
ATOM      4  H8  UNL     1      51.893  13.344  10.614  1.00  0.00     0.189 HD
HETATM    5  N9  UNL     1      50.204  13.720   9.521  1.00  0.00    -0.130 N 
ATOM      6  H9  UNL     1      49.843  12.775   9.389  1.00  0.00     0.205 HD
HETATM    7  C9  UNL     1      49.619  14.857   9.042  1.00  0.00     0.701 A 
ENDROOT
BRANCH   2   8
HETATM    8  C5  UNL     1      52.656  15.976  10.756  1.00  0.00     0.244 C 
BRANCH   8   9
HETATM    9  N3  UNL     1      53.826  15.158  10.737  1.00  0.00    -0.205 N 
ATOM     10  H3  UNL     1      53.767  14.281  10.219  1.00  0.00     0.179 HD
BRANCH   9  11
HETATM   11  C6  UNL     1      54.950  15.422  11.311  1.00  0.00     0.707 A 
HETATM   12  N4  UNL     1      55.967  16.177  10.859  1.00  0.00    -0.118 N 
HETATM   13  N5  UNL     1      56.909  16.191  11.770  1.00  0.00    -0.212 N 
ATOM     14  H4  UNL     1      55.999  16.658   9.960  1.00  0.00     0.207 HD
HETATM   15  N6  UNL     1      56.557  15.465  12.823  1.00  0.00     0.009 NA
ATOM     16  H5  UNL     1      57.794  16.692  11.681  1.00  0.00     0.206 HD
HETATM   17  N7  UNL     1      55.355  15.000  12.530  1.00  0.00    -0.114 N 
ATOM     18  H7  UNL     1      54.803  14.399  13.143  1.00  0.00     0.203 HD
ENDBRANCH   9  11
ENDBRANCH   8   9
BRANCH   8  19
HETATM   19  C7  UNL     1      52.337  16.330  12.172  1.00  0.00     0.211 C 
HETATM   20  O3  UNL     1      52.140  15.375  12.928  1.00  0.00    -0.290 OA
BRANCH  19  21
HETATM   21  C8  UNL     1      52.262  17.724  12.652  1.00  0.00     0.328 C 
BRANCH  21  22
HETATM   22  O4  UNL     1      52.297  18.596  11.562  1.00  0.00    -0.365 OA
ATOM     23  H4  UNL     1      52.731  18.173  10.831  1.00  0.00     0.213 HD
ENDBRANCH  21  22
BRANCH  21  24
HETATM   24  O5  UNL     1      50.972  17.882  13.211  1.00  0.00    -0.365 OA
ATOM     25  H5  UNL     1      50.392  18.093  12.490  1.00  0.00     0.213 HD
ENDBRANCH  21  24
ENDBRANCH  19  21
ENDBRANCH   8  19
ENDBRANCH   2   8
BRANCH   1  26
HETATM   26  C3  UNL     1      50.173  17.240   9.345  1.00  0.00     0.247 C 
BRANCH  26  27
HETATM   27  N1  UNL     1      50.373  18.262   8.428  1.00  0.00    -0.292 N 
HETATM   28  C2  UNL     1      50.643  19.610   8.445  1.00  0.00     0.220 C 
HETATM   29  C1  UNL     1      50.755  20.349   7.111  1.00  0.00     0.117 C 
HETATM   30  O1  UNL     1      50.814  20.331   9.417  1.00  0.00    -0.274 OA
ATOM     31  H1  UNL     1      50.298  17.915   7.472  1.00  0.00     0.172 HD
ENDBRANCH  26  27
BRANCH  26  32
HETATM   32  O2  UNL     1      49.568  17.709  10.453  1.00  0.00    -0.331 OA
ATOM     33  H2  UNL     1      49.088  18.506  10.260  1.00  0.00     0.221 HD
ENDBRANCH  26  32
ENDBRANCH   1  26
BRANCH   7  34
HETATM   34  N10 UNL     1      48.499  14.838   8.418  1.00  0.00    -0.233 N 
ATOM     35 2H10 UNL     1      47.643  15.214   8.826  1.00  0.00     0.174 HD
ATOM     36 1H10 UNL     1      48.244  14.543   7.475  1.00  0.00     0.174 HD
ENDBRANCH   7  34
TORSDOF 11
ENDMDL
MODEL 3
REMARK VINA RESULT: -5.712297245      1.686      2.060
REMARK  11 active torsions:
REMARK  status: ('A' for Active; 'I' for Inactive)
REMARK       I    between atoms: C2_2  and  N1_4 
REMARK    1  A    between atoms: N1_4  and  C3_6 
REMARK    2  A    between atoms: C3_6  and  O2_7 
REMARK    3  A    between atoms: C3_6  and  N2_9 
REMARK    4  A    between atoms: C4_10  and  C5_11 
REMARK    5  A    between atoms: C5_11  and  N3_12 
REMARK    6  A    between atoms: C5_11  and  C7_22 
REMARK    7  A    between atoms: N3_12  and  C6_14 
REMARK    8  A    between atoms: C7_22  and  C8_24 
REMARK    9  A    between atoms: C8_24  and  O4_25 
REMARK   10  A    between atoms: C8_24  and  O5_27 
REMARK   11  A    between atoms: C9_33  and  N10_34 
ROOT
HETATM    1  N2  UNL     1      56.062  15.270   6.920  1.00  0.00    -0.094 N 
HETATM    2  C4  UNL     1      57.168  14.767   6.313  1.00  0.00     0.155 A 
HETATM    3  N8  UNL     1      56.769  14.257   5.140  1.00  0.00    -0.272 N 
ATOM      4  H8  UNL     1      57.380  13.806   4.458  1.00  0.00     0.189 HD
HETATM    5  N9  UNL     1      55.505  14.419   5.003  1.00  0.00    -0.130 N 
ATOM      6  H9  UNL     1      54.959  14.118   4.196  1.00  0.00     0.205 HD
HETATM    7  C9  UNL     1      54.998  15.056   6.100  1.00  0.00     0.701 A 
ENDROOT
BRANCH   2   8
HETATM    8  C5  UNL     1      58.598  14.778   6.717  1.00  0.00     0.244 C 
BRANCH   8   9
HETATM    9  N3  UNL     1      59.154  16.083   6.873  1.00  0.00    -0.205 N 
ATOM     10  H3  UNL     1      59.593  16.499   6.051  1.00  0.00     0.179 HD
BRANCH   9  11
HETATM   11  C6  UNL     1      59.155  16.788   7.953  1.00  0.00     0.707 A 
HETATM   12  N4  UNL     1      59.292  16.373   9.225  1.00  0.00    -0.118 N 
HETATM   13  N5  UNL     1      59.251  17.422  10.009  1.00  0.00    -0.212 N 
ATOM     14  H4  UNL     1      59.408  15.406   9.528  1.00  0.00     0.207 HD
HETATM   15  N6  UNL     1      59.088  18.533   9.302  1.00  0.00     0.009 NA
ATOM     16  H5  UNL     1      59.332  17.389  11.026  1.00  0.00     0.206 HD
HETATM   17  N7  UNL     1      59.031  18.130   8.044  1.00  0.00    -0.114 N 
ATOM     18  H7  UNL     1      58.909  18.752   7.245  1.00  0.00     0.203 HD
ENDBRANCH   9  11
ENDBRANCH   8   9
BRANCH   8  19
HETATM   19  C7  UNL     1      59.388  14.035   5.689  1.00  0.00     0.211 C 
HETATM   20  O3  UNL     1      59.643  14.663   4.657  1.00  0.00    -0.290 OA
BRANCH  19  21
HETATM   21  C8  UNL     1      59.844  12.644   5.880  1.00  0.00     0.328 C 
BRANCH  21  22
HETATM   22  O4  UNL     1      59.668  12.274   7.214  1.00  0.00    -0.365 OA
ATOM     23  H4  UNL     1      58.761  12.404   7.463  1.00  0.00     0.213 HD
ENDBRANCH  21  22
BRANCH  21  24
HETATM   24  O5  UNL     1      58.948  11.829   5.149  1.00  0.00    -0.365 OA
ATOM     25  H5  UNL     1      59.469  11.127   4.777  1.00  0.00     0.213 HD
ENDBRANCH  21  24
ENDBRANCH  19  21
ENDBRANCH   8  19
ENDBRANCH   2   8
BRANCH   1  26
HETATM   26  C3  UNL     1      56.039  15.740   8.227  1.00  0.00     0.247 C 
BRANCH  26  27
HETATM   27  N1  UNL     1      55.784  15.245   9.497  1.00  0.00    -0.292 N 
HETATM   28  C2  UNL     1      56.105  15.555  10.798  1.00  0.00     0.220 C 
HETATM   29  C1  UNL     1      55.581  14.652  11.916  1.00  0.00     0.117 C 
HETATM   30  O1  UNL     1      56.779  16.490  11.204  1.00  0.00    -0.274 OA
ATOM     31  H1  UNL     1      55.189  14.417   9.455  1.00  0.00     0.172 HD
ENDBRANCH  26  27
BRANCH  26  32
HETATM   32  O2  UNL     1      56.349  17.049   8.283  1.00  0.00    -0.331 OA
ATOM     33  H2  UNL     1      55.731  17.561   7.775  1.00  0.00     0.221 HD
ENDBRANCH  26  32
ENDBRANCH   1  26
BRANCH   7  34
HETATM   34  N10 UNL     1      53.743  15.283   6.239  1.00  0.00    -0.233 N 
ATOM     35 2H10 UNL     1      53.087  15.196   5.462  1.00  0.00     0.174 HD
ATOM     36 1H10 UNL     1      53.173  15.508   7.053  1.00  0.00     0.174 HD
ENDBRANCH   7  34
TORSDOF 11
ENDMDL
MODEL 4
REMARK VINA RESULT: -5.706178900      3.501      5.588
REMARK  11 active torsions:
REMARK  status: ('A' for Active; 'I' for Inactive)
REMARK       I    between atoms: C2_2  and  N1_4 
REMARK    1  A    between atoms: N1_4  and  C3_6 
REMARK    2  A    between atoms: C3_6  and  O2_7 
REMARK    3  A    between atoms: C3_6  and  N2_9 
REMARK    4  A    between atoms: C4_10  and  C5_11 
REMARK    5  A    between atoms: C5_11  and  N3_12 
REMARK    6  A    between atoms: C5_11  and  C7_22 
REMARK    7  A    between atoms: N3_12  and  C6_14 
REMARK    8  A    between atoms: C7_22  and  C8_24 
REMARK    9  A    between atoms: C8_24  and  O4_25 
REMARK   10  A    between atoms: C8_24  and  O5_27 
REMARK   11  A    between atoms: C9_33  and  N10_34 
ROOT
HETATM    1  N2  UNL     1      51.878  16.141  10.141  1.00  0.00    -0.094 N 
HETATM    2  C4  UNL     1      52.941  15.347  10.431  1.00  0.00     0.155 A 
HETATM    3  N8  UNL     1      52.536  14.080  10.271  1.00  0.00    -0.272 N 
ATOM      4  H8  UNL     1      53.117  13.255  10.417  1.00  0.00     0.189 HD
HETATM    5  N9  UNL     1      51.307  14.061   9.906  1.00  0.00    -0.130 N 
ATOM      6  H9  UNL     1      50.765  13.218   9.718  1.00  0.00     0.205 HD
HETATM    7  C9  UNL     1      50.833  15.338   9.806  1.00  0.00     0.701 A 
ENDROOT
BRANCH   2   8
HETATM    8  C5  UNL     1      54.344  15.680  10.793  1.00  0.00     0.244 C 
BRANCH   8   9
HETATM    9  N3  UNL     1      55.324  14.847  10.173  1.00  0.00    -0.205 N 
ATOM     10  H3  UNL     1      55.137  13.844  10.164  1.00  0.00     0.179 HD
BRANCH   9  11
HETATM   11  C6  UNL     1      56.422  15.241   9.624  1.00  0.00     0.707 A 
HETATM   12  N4  UNL     1      57.279  16.187  10.047  1.00  0.00    -0.118 N 
HETATM   13  N5  UNL     1      58.274  16.254   9.197  1.00  0.00    -0.212 N 
ATOM     14  H4  UNL     1      57.173  16.757  10.886  1.00  0.00     0.207 HD
HETATM   15  N6  UNL     1      58.112  15.379   8.212  1.00  0.00     0.009 NA
ATOM     16  H5  UNL     1      59.066  16.892   9.281  1.00  0.00     0.206 HD
HETATM   17  N7  UNL     1      56.974  14.764   8.486  1.00  0.00    -0.114 N 
ATOM     18  H7  UNL     1      56.565  14.027   7.913  1.00  0.00     0.203 HD
ENDBRANCH   9  11
ENDBRANCH   8   9
BRANCH   8  19
HETATM   19  C7  UNL     1      54.491  15.579  12.276  1.00  0.00     0.211 C 
HETATM   20  O3  UNL     1      53.639  14.894  12.850  1.00  0.00    -0.290 OA
BRANCH  19  21
HETATM   21  C8  UNL     1      55.578  16.245  13.021  1.00  0.00     0.328 C 
BRANCH  21  22
HETATM   22  O4  UNL     1      56.746  15.487  12.919  1.00  0.00    -0.365 OA
ATOM     23  H4  UNL     1      57.412  15.852  13.489  1.00  0.00     0.213 HD
ENDBRANCH  21  22
BRANCH  21  24
HETATM   24  O5  UNL     1      55.855  17.447  12.330  1.00  0.00    -0.365 OA
ATOM     25  H5  UNL     1      55.381  18.132  12.786  1.00  0.00     0.213 HD
ENDBRANCH  21  24
ENDBRANCH  19  21
ENDBRANCH   8  19
ENDBRANCH   2   8
BRANCH   1  26
HETATM   26  C3  UNL     1      51.856  17.514  10.348  1.00  0.00     0.247 C 
BRANCH  26  27
HETATM   27  N1  UNL     1      52.394  18.654   9.769  1.00  0.00    -0.292 N 
HETATM   28  C2  UNL     1      51.964  19.898   9.371  1.00  0.00     0.220 C 
HETATM   29  C1  UNL     1      52.974  20.850   8.729  1.00  0.00     0.117 C 
HETATM   30  O1  UNL     1      50.840  20.371   9.463  1.00  0.00    -0.274 OA
ATOM     31  H1  UNL     1      53.391  18.537   9.588  1.00  0.00     0.172 HD
ENDBRANCH  26  27
BRANCH  26  32
HETATM   32  O2  UNL     1      51.100  17.837  11.415  1.00  0.00    -0.331 OA
ATOM     33  H2  UNL     1      51.354  17.322  12.173  1.00  0.00     0.221 HD
ENDBRANCH  26  32
ENDBRANCH   1  26
BRANCH   7  34
HETATM   34  N10 UNL     1      49.610  15.591   9.517  1.00  0.00    -0.233 N 
ATOM     35 2H10 UNL     1      49.347  16.127   8.689  1.00  0.00     0.174 HD
ATOM     36 1H10 UNL     1      48.730  15.305   9.946  1.00  0.00     0.174 HD
ENDBRANCH   7  34
TORSDOF 11
ENDMDL
MODEL 5
REMARK VINA RESULT: -5.661185660      2.797      5.056
REMARK  11 active torsions:
REMARK  status: ('A' for Active; 'I' for Inactive)
REMARK       I    between atoms: C2_2  and  N1_4 
REMARK    1  A    between atoms: N1_4  and  C3_6 
REMARK    2  A    between atoms: C3_6  and  O2_7 
REMARK    3  A    between atoms: C3_6  and  N2_9 
REMARK    4  A    between atoms: C4_10  and  C5_11 
REMARK    5  A    between atoms: C5_11  and  N3_12 
REMARK    6  A    between atoms: C5_11  and  C7_22 
REMARK    7  A    between atoms: N3_12  and  C6_14 
REMARK    8  A    between atoms: C7_22  and  C8_24 
REMARK    9  A    between atoms: C8_24  and  O4_25 
REMARK   10  A    between atoms: C8_24  and  O5_27 
REMARK   11  A    between atoms: C9_33  and  N10_34 
ROOT
HETATM    1  N2  UNL     1      57.542  16.233   9.215  1.00  0.00    -0.094 N 
HETATM    2  C4  UNL     1      56.829  15.386   8.430  1.00  0.00     0.155 A 
HETATM    3  N8  UNL     1      55.800  14.947   9.167  1.00  0.00    -0.272 N 
ATOM      4  H8  UNL     1      55.085  14.293   8.847  1.00  0.00     0.189 HD
HETATM    5  N9  UNL     1      55.849  15.470  10.336  1.00  0.00    -0.130 N 
ATOM      6  H9  UNL     1      55.179  15.297  11.085  1.00  0.00     0.205 HD
HETATM    7  C9  UNL     1      56.933  16.296  10.429  1.00  0.00     0.701 A 
ENDROOT
BRANCH   2   8
HETATM    8  C5  UNL     1      56.995  14.994   7.006  1.00  0.00     0.244 C 
BRANCH   8   9
HETATM    9  N3  UNL     1      58.343  15.039   6.538  1.00  0.00    -0.205 N 
ATOM     10  H3  UNL     1      58.747  15.963   6.384  1.00  0.00     0.179 HD
BRANCH   9  11
HETATM   11  C6  UNL     1      59.098  14.024   6.290  1.00  0.00     0.707 A 
HETATM   12  N4  UNL     1      60.296  13.719   6.822  1.00  0.00    -0.118 N 
HETATM   13  N5  UNL     1      60.704  12.589   6.301  1.00  0.00    -0.212 N 
ATOM     14  H4  UNL     1      60.800  14.274   7.514  1.00  0.00     0.207 HD
HETATM   15  N6  UNL     1      59.817  12.123   5.431  1.00  0.00     0.009 NA
ATOM     16  H5  UNL     1      61.586  12.130   6.531  1.00  0.00     0.206 HD
HETATM   17  N7  UNL     1      58.838  13.011   5.435  1.00  0.00    -0.114 N 
ATOM     18  H7  UNL     1      57.994  12.942   4.865  1.00  0.00     0.203 HD
ENDBRANCH   9  11
ENDBRANCH   8   9
BRANCH   8  19
HETATM   19  C7  UNL     1      56.160  15.901   6.162  1.00  0.00     0.211 C 
HETATM   20  O3  UNL     1      55.464  16.713   6.779  1.00  0.00    -0.290 OA
BRANCH  19  21
HETATM   21  C8  UNL     1      56.156  15.844   4.687  1.00  0.00     0.328 C 
BRANCH  21  22
HETATM   22  O4  UNL     1      57.328  16.421   4.195  1.00  0.00    -0.365 OA
ATOM     23  H4  UNL     1      57.184  16.725   3.306  1.00  0.00     0.213 HD
ENDBRANCH  21  22
BRANCH  21  24
HETATM   24  O5  UNL     1      56.244  14.475   4.341  1.00  0.00    -0.365 OA
ATOM     25  H5  UNL     1      57.139  14.213   4.518  1.00  0.00     0.213 HD
ENDBRANCH  21  24
ENDBRANCH  19  21
ENDBRANCH   8  19
ENDBRANCH   2   8
BRANCH   1  26
HETATM   26  C3  UNL     1      58.775  16.768   8.860  1.00  0.00     0.247 C 
BRANCH  26  27
HETATM   27  N1  UNL     1      59.270  17.934   8.296  1.00  0.00    -0.292 N 
HETATM   28  C2  UNL     1      59.373  18.500   7.046  1.00  0.00     0.220 C 
HETATM   29  C1  UNL     1      60.056  19.862   6.915  1.00  0.00     0.117 C 
HETATM   30  O1  UNL     1      58.979  18.049   5.981  1.00  0.00    -0.274 OA
ATOM     31  H1  UNL     1      59.669  18.545   9.008  1.00  0.00     0.172 HD
ENDBRANCH  26  27
BRANCH  26  32
HETATM   32  O2  UNL     1      59.778  15.914   9.139  1.00  0.00    -0.331 OA
ATOM     33  H2  UNL     1      59.456  15.170   9.635  1.00  0.00     0.221 HD
ENDBRANCH  26  32
ENDBRANCH   1  26
BRANCH   7  34
HETATM   34  N10 UNL     1      57.243  16.896  11.520  1.00  0.00    -0.233 N 
ATOM     35 2H10 UNL     1      57.124  17.902  11.639  1.00  0.00     0.174 HD
ATOM     36 1H10 UNL     1      57.574  16.552  12.421  1.00  0.00     0.174 HD
ENDBRANCH   7  34
TORSDOF 11
ENDMDL
