MODEL 1
REMARK VINA RESULT: -4.403533444      0.000      0.000
REMARK  2 active torsions:
REMARK  status: ('A' for Active; 'I' for Inactive)
REMARK    1  A    between atoms: C4_6  and  N1_7 
REMARK    2  A    between atoms: N1_7  and  C5_9 
ROOT
HETATM    1  C1  UNL     1      10.994  -5.447  -8.872  1.00  0.00     0.077 C 
HETATM    2  C2  UNL     1       9.931  -4.759  -9.668  1.00  0.00     0.059 A 
HETATM    3  O1  UNL     1       9.052  -3.891  -9.227  1.00  0.00    -0.305 OA
HETATM    4  C3  UNL     1       8.265  -3.493 -10.225  1.00  0.00     0.149 A 
HETATM    5 BR1  UNL     1       6.823  -2.243 -10.141  1.00  0.00    -0.021 Br
HETATM    6  C4  UNL     1       8.641  -4.130 -11.380  1.00  0.00     0.084 A 
HETATM    7  C6  UNL     1       9.698  -4.936 -11.039  1.00  0.00    -0.003 A 
HETATM    8  C7  UNL     1      10.471  -5.838 -11.933  1.00  0.00     0.053 C 
ENDROOT
BRANCH   6   9
HETATM    9  N1  UNL     1       8.078  -4.001 -12.669  1.00  0.00    -0.332 N 
ATOM     10  H1  UNL     1       7.325  -4.638 -12.929  1.00  0.00     0.168 HD
BRANCH   9  11
HETATM   11  C5  UNL     1       8.496  -3.045 -13.616  1.00  0.00     0.185 C 
HETATM   12  N2  UNL     1       7.785  -1.847 -13.788  1.00  0.00    -0.070 NA
HETATM   13  S1  UNL     1       9.813  -3.329 -14.516  1.00  0.00    -0.044 SA
ENDBRANCH   9  11
ENDBRANCH   6   9
TORSDOF 2
ENDMDL
MODEL 2
REMARK VINA RESULT: -4.401871056      2.534      3.484
REMARK  2 active torsions:
REMARK  status: ('A' for Active; 'I' for Inactive)
REMARK    1  A    between atoms: C4_6  and  N1_7 
REMARK    2  A    between atoms: N1_7  and  C5_9 
ROOT
HETATM    1  C1  UNL     1       7.269  -2.541  -9.657  1.00  0.00     0.077 C 
HETATM    2  C2  UNL     1       8.341  -3.522 -10.012  1.00  0.00     0.059 A 
HETATM    3  O1  UNL     1       9.109  -4.185  -9.180  1.00  0.00    -0.305 OA
HETATM    4  C3  UNL     1       9.947  -4.967  -9.859  1.00  0.00     0.149 A 
HETATM    5 BR1  UNL     1      11.275  -6.142  -9.149  1.00  0.00    -0.021 Br
HETATM    6  C4  UNL     1       9.722  -4.811 -11.204  1.00  0.00     0.084 A 
HETATM    7  C6  UNL     1       8.705  -3.896 -11.312  1.00  0.00    -0.003 A 
HETATM    8  C7  UNL     1       8.085  -3.380 -12.560  1.00  0.00     0.053 C 
ENDROOT
BRANCH   6   9
HETATM    9  N1  UNL     1      10.384  -5.447 -12.277  1.00  0.00    -0.332 N 
ATOM     10  H1  UNL     1      10.015  -6.339 -12.607  1.00  0.00     0.168 HD
BRANCH   9  11
HETATM   11  C5  UNL     1      11.524  -4.922 -12.918  1.00  0.00     0.185 C 
HETATM   12  N2  UNL     1      12.798  -5.057 -12.343  1.00  0.00    -0.070 NA
HETATM   13  S1  UNL     1      11.365  -4.155 -14.337  1.00  0.00    -0.044 SA
ENDBRANCH   9  11
ENDBRANCH   6   9
TORSDOF 2
ENDMDL
MODEL 3
REMARK VINA RESULT: -4.340479023      2.635      3.385
REMARK  2 active torsions:
REMARK  status: ('A' for Active; 'I' for Inactive)
REMARK    1  A    between atoms: C4_6  and  N1_7 
REMARK    2  A    between atoms: N1_7  and  C5_9 
ROOT
HETATM    1  C1  UNL     1       7.287  -2.542  -9.622  1.00  0.00     0.077 C 
HETATM    2  C2  UNL     1       8.352  -3.522 -10.000  1.00  0.00     0.059 A 
HETATM    3  O1  UNL     1       9.153  -4.169  -9.186  1.00  0.00    -0.305 OA
HETATM    4  C3  UNL     1       9.971  -4.955  -9.883  1.00  0.00     0.149 A 
HETATM    5 BR1  UNL     1      11.331  -6.111  -9.204  1.00  0.00    -0.021 Br
HETATM    6  C4  UNL     1       9.698  -4.820 -11.221  1.00  0.00     0.084 A 
HETATM    7  C6  UNL     1       8.672  -3.913 -11.307  1.00  0.00    -0.003 A 
HETATM    8  C7  UNL     1       8.005  -3.419 -12.539  1.00  0.00     0.053 C 
ENDROOT
BRANCH   6   9
HETATM    9  N1  UNL     1      10.325  -5.469 -12.307  1.00  0.00    -0.332 N 
ATOM     10  H1  UNL     1       9.980  -6.389 -12.581  1.00  0.00     0.168 HD
BRANCH   9  11
HETATM   11  C5  UNL     1      11.400  -4.919 -13.036  1.00  0.00     0.185 C 
HETATM   12  N2  UNL     1      11.166  -4.052 -14.115  1.00  0.00    -0.070 NA
HETATM   13  S1  UNL     1      12.922  -5.290 -12.622  1.00  0.00    -0.044 SA
ENDBRANCH   9  11
ENDBRANCH   6   9
TORSDOF 2
ENDMDL
MODEL 4
REMARK VINA RESULT: -4.265291902      1.036      1.066
REMARK  2 active torsions:
REMARK  status: ('A' for Active; 'I' for Inactive)
REMARK    1  A    between atoms: C4_6  and  N1_7 
REMARK    2  A    between atoms: N1_7  and  C5_9 
ROOT
HETATM    1  C1  UNL     1      11.010  -5.493  -8.806  1.00  0.00     0.077 C 
HETATM    2  C2  UNL     1       9.973  -4.814  -9.643  1.00  0.00     0.059 A 
HETATM    3  O1  UNL     1       9.059  -3.966  -9.231  1.00  0.00    -0.305 OA
HETATM    4  C3  UNL     1       8.312  -3.569 -10.260  1.00  0.00     0.149 A 
HETATM    5 BR1  UNL     1       6.846  -2.345 -10.227  1.00  0.00    -0.021 Br
HETATM    6  C4  UNL     1       8.753  -4.184 -11.405  1.00  0.00     0.084 A 
HETATM    7  C6  UNL     1       9.807  -4.976 -11.025  1.00  0.00    -0.003 A 
HETATM    8  C7  UNL     1      10.636  -5.852 -11.893  1.00  0.00     0.053 C 
ENDROOT
BRANCH   6   9
HETATM    9  N1  UNL     1       8.248  -4.047 -12.716  1.00  0.00    -0.332 N 
ATOM     10  H1  UNL     1       7.462  -4.636 -12.991  1.00  0.00     0.168 HD
BRANCH   9  11
HETATM   11  C5  UNL     1       8.766  -3.145 -13.667  1.00  0.00     0.185 C 
HETATM   12  N2  UNL     1      10.070  -3.297 -14.166  1.00  0.00    -0.070 NA
HETATM   13  S1  UNL     1       7.847  -1.918 -14.194  1.00  0.00    -0.044 SA
ENDBRANCH   9  11
ENDBRANCH   6   9
TORSDOF 2
ENDMDL
MODEL 5
REMARK VINA RESULT: -4.208592712      1.256      1.494
REMARK  2 active torsions:
REMARK  status: ('A' for Active; 'I' for Inactive)
REMARK    1  A    between atoms: C4_6  and  N1_7 
REMARK    2  A    between atoms: N1_7  and  C5_9 
ROOT
HETATM    1  C1  UNL     1      11.371  -6.011  -8.594  1.00  0.00     0.077 C 
HETATM    2  C2  UNL     1      10.409  -5.181  -9.383  1.00  0.00     0.059 A 
HETATM    3  O1  UNL     1       9.430  -4.446  -8.910  1.00  0.00    -0.305 OA
HETATM    4  C3  UNL     1       8.786  -3.848  -9.911  1.00  0.00     0.149 A 
HETATM    5 BR1  UNL     1       7.287  -2.671  -9.791  1.00  0.00    -0.021 Br
HETATM    6  C4  UNL     1       9.367  -4.206 -11.102  1.00  0.00     0.084 A 
HETATM    7  C6  UNL     1      10.399  -5.051 -10.778  1.00  0.00    -0.003 A 
HETATM    8  C7  UNL     1      11.344  -5.719 -11.710  1.00  0.00     0.053 C 
ENDROOT
BRANCH   6   9
HETATM    9  N1  UNL     1       9.003  -3.802 -12.405  1.00  0.00    -0.332 N 
ATOM     10  H1  UNL     1       9.359  -2.910 -12.748  1.00  0.00     0.168 HD
BRANCH   9  11
HETATM   11  C5  UNL     1       8.177  -4.560 -13.259  1.00  0.00     0.185 C 
HETATM   12  N2  UNL     1       7.334  -5.557 -12.743  1.00  0.00    -0.070 NA
HETATM   13  S1  UNL     1       8.198  -4.277 -14.854  1.00  0.00    -0.044 SA
ENDBRANCH   9  11
ENDBRANCH   6   9
TORSDOF 2
ENDMDL
