MODEL 1
REMARK VINA RESULT: -4.929927073      0.000      0.000
REMARK  4 active torsions:
REMARK  status: ('A' for Active; 'I' for Inactive)
REMARK    1  A    between atoms: N1_2  and  N2_4 
REMARK    2  A    between atoms: N2_4  and  C2_6 
REMARK    3  A    between atoms: C5_15  and  N6_16 
REMARK    4  A    between atoms: N8_22  and  O1_23 
ROOT
HETATM    1  C2  UNL     1      14.776  17.381  -7.171  1.00  0.00     0.726 A 
HETATM    2  N3  UNL     1      15.235  17.657  -5.965  1.00  0.00    -0.172 N 
ATOM      3  H3  UNL     1      15.932  18.393  -5.858  1.00  0.00     0.186 HD
HETATM    4  C3  UNL     1      14.814  17.000  -4.878  1.00  0.00     0.139 A 
HETATM    5  N4  UNL     1      15.296  17.295  -3.635  1.00  0.00    -0.337 N 
ATOM      6  H4  UNL     1      15.993  18.028  -3.500  1.00  0.00     0.168 HD
HETATM    7  C4  UNL     1      14.820  16.589  -2.598  1.00  0.00     0.183 A 
HETATM    8  N5  UNL     1      13.900  15.616  -2.733  1.00  0.00    -0.338 N 
ATOM      9  H5  UNL     1      13.575  15.112  -1.908  1.00  0.00     0.168 HD
HETATM   10  C5  UNL     1      13.400  15.298  -3.954  1.00  0.00     0.117 A 
HETATM   11  C6  UNL     1      13.876  16.012  -5.037  1.00  0.00     0.096 A 
HETATM   12  C7  UNL     1      13.392  15.721  -6.307  1.00  0.00     0.180 A 
HETATM   13  N7  UNL     1      12.424  14.710  -6.513  1.00  0.00    -0.078 NA
HETATM   14  N8  UNL     1      13.859  16.424  -7.377  1.00  0.00    -0.036 N 
ENDROOT
BRANCH   1  15
HETATM   15  N2  UNL     1      15.187  18.019  -8.227  1.00  0.00    -0.135 N 
ATOM     16  H2  UNL     1      16.140  17.864  -8.556  1.00  0.00     0.205 HD
BRANCH  15  17
HETATM   17  N1  UNL     1      14.366  18.911  -8.924  1.00  0.00    -0.327 N 
HETATM   18  C1  UNL     1      14.025  20.150  -8.281  1.00  0.00     0.168 C 
ATOM     19  H1  UNL     1      14.020  18.689  -9.857  1.00  0.00     0.180 HD
ENDBRANCH  15  17
ENDBRANCH   1  15
BRANCH  14  20
HETATM   20  O1  UNL     1      13.385  16.141  -8.637  1.00  0.00    -0.268 OA
ATOM     21  H1  UNL     1      12.986  15.303  -8.841  1.00  0.00     0.246 HD
ENDBRANCH  14  20
BRANCH  10  22
HETATM   22  N6  UNL     1      12.527  14.386  -4.135  1.00  0.00    -0.385 N 
ATOM     23  H62 UNL     1      12.703  13.443  -3.785  1.00  0.00     0.157 HD
ATOM     24  H61 UNL     1      11.644  14.546  -4.620  1.00  0.00     0.157 HD
ENDBRANCH  10  22
TORSDOF 4
ENDMDL
MODEL 2
REMARK VINA RESULT: -4.580878275      7.529      9.105
REMARK  4 active torsions:
REMARK  status: ('A' for Active; 'I' for Inactive)
REMARK    1  A    between atoms: N1_2  and  N2_4 
REMARK    2  A    between atoms: N2_4  and  C2_6 
REMARK    3  A    between atoms: C5_15  and  N6_16 
REMARK    4  A    between atoms: N8_22  and  O1_23 
ROOT
HETATM    1  C2  UNL     1      13.222  24.110  -9.426  1.00  0.00     0.726 A 
HETATM    2  N3  UNL     1      13.674  25.108  -8.691  1.00  0.00    -0.172 N 
ATOM      3  H3  UNL     1      14.655  25.376  -8.771  1.00  0.00     0.186 HD
HETATM    4  C3  UNL     1      12.886  25.780  -7.844  1.00  0.00     0.139 A 
HETATM    5  N4  UNL     1      13.366  26.812  -7.089  1.00  0.00    -0.337 N 
ATOM      6  H4  UNL     1      14.342  27.100  -7.150  1.00  0.00     0.168 HD
HETATM    7  C4  UNL     1      12.507  27.433  -6.265  1.00  0.00     0.183 A 
HETATM    8  N5  UNL     1      11.213  27.084  -6.155  1.00  0.00    -0.338 N 
ATOM      9  H5  UNL     1      10.607  27.592  -5.512  1.00  0.00     0.168 HD
HETATM   10  C5  UNL     1      10.704  26.064  -6.891  1.00  0.00     0.117 A 
HETATM   11  C6  UNL     1      11.569  25.409  -7.747  1.00  0.00     0.096 A 
HETATM   12  C7  UNL     1      11.092  24.358  -8.520  1.00  0.00     0.180 A 
HETATM   13  N7  UNL     1       9.740  23.945  -8.450  1.00  0.00    -0.078 NA
HETATM   14  N8  UNL     1      11.943  23.711  -9.366  1.00  0.00    -0.036 N 
ENDROOT
BRANCH   1  15
HETATM   15  N2  UNL     1      13.989  23.458 -10.248  1.00  0.00    -0.135 N 
ATOM     16  H2  UNL     1      14.177  23.855 -11.168  1.00  0.00     0.205 HD
BRANCH  15  17
HETATM   17  N1  UNL     1      14.565  22.228  -9.911  1.00  0.00    -0.327 N 
HETATM   18  C1  UNL     1      15.642  21.746 -10.731  1.00  0.00     0.168 C 
ATOM     19  H1  UNL     1      14.231  21.692  -9.110  1.00  0.00     0.180 HD
ENDBRANCH  15  17
ENDBRANCH   1  15
BRANCH  14  20
HETATM   20  O1  UNL     1      11.477  22.669 -10.134  1.00  0.00    -0.268 OA
ATOM     21  H1  UNL     1      10.716  22.766 -10.694  1.00  0.00     0.246 HD
ENDBRANCH  14  20
BRANCH  10  22
HETATM   22  N6  UNL     1       9.484  25.695  -6.824  1.00  0.00    -0.385 N 
ATOM     23  H62 UNL     1       8.912  25.987  -6.031  1.00  0.00     0.157 HD
ATOM     24  H61 UNL     1       9.038  25.112  -7.532  1.00  0.00     0.157 HD
ENDBRANCH  10  22
TORSDOF 4
ENDMDL
MODEL 3
REMARK VINA RESULT: -4.556465724      8.549     10.375
REMARK  4 active torsions:
REMARK  status: ('A' for Active; 'I' for Inactive)
REMARK    1  A    between atoms: N1_2  and  N2_4 
REMARK    2  A    between atoms: N2_4  and  C2_6 
REMARK    3  A    between atoms: C5_15  and  N6_16 
REMARK    4  A    between atoms: N8_22  and  O1_23 
ROOT
HETATM    1  C2  UNL     1      10.050  26.104  -6.751  1.00  0.00     0.726 A 
HETATM    2  N3  UNL     1       9.822  25.044  -7.502  1.00  0.00    -0.172 N 
ATOM      3  H3  UNL     1       8.885  24.641  -7.516  1.00  0.00     0.186 HD
HETATM    4  C3  UNL     1      10.780  24.480  -8.245  1.00  0.00     0.139 A 
HETATM    5  N4  UNL     1      10.532  23.384  -9.019  1.00  0.00    -0.337 N 
ATOM      6  H4  UNL     1       9.604  22.961  -9.053  1.00  0.00     0.168 HD
HETATM    7  C4  UNL     1      11.551  22.882  -9.735  1.00  0.00     0.183 A 
HETATM    8  N5  UNL     1      12.788  23.409  -9.719  1.00  0.00    -0.338 N 
ATOM      9  H5  UNL     1      13.524  22.984 -10.284  1.00  0.00     0.168 HD
HETATM   10  C5  UNL     1      13.069  24.498  -8.962  1.00  0.00     0.117 A 
HETATM   11  C6  UNL     1      12.036  25.034  -8.216  1.00  0.00     0.096 A 
HETATM   12  C7  UNL     1      12.278  26.150  -7.425  1.00  0.00     0.180 A 
HETATM   13  N7  UNL     1      13.558  26.750  -7.367  1.00  0.00    -0.078 NA
HETATM   14  N8  UNL     1      11.260  26.679  -6.689  1.00  0.00    -0.036 N 
ENDROOT
BRANCH   1  15
HETATM   15  N2  UNL     1       9.117  26.650  -6.028  1.00  0.00    -0.135 N 
ATOM     16  H2  UNL     1       8.291  27.027  -6.492  1.00  0.00     0.205 HD
BRANCH  15  17
HETATM   17  N1  UNL     1       9.210  26.736  -4.635  1.00  0.00    -0.327 N 
HETATM   18  C1  UNL     1       9.388  25.515  -3.898  1.00  0.00     0.168 C 
ATOM     19  H1  UNL     1       9.153  27.636  -4.158  1.00  0.00     0.180 HD
ENDBRANCH  15  17
ENDBRANCH   1  15
BRANCH  14  20
HETATM   20  O1  UNL     1      11.492  27.784  -5.903  1.00  0.00    -0.268 OA
ATOM     21  H1  UNL     1      12.367  28.133  -5.783  1.00  0.00     0.246 HD
ENDBRANCH  14  20
BRANCH  10  22
HETATM   22  N6  UNL     1      14.225  25.036  -8.913  1.00  0.00    -0.385 N 
ATOM     23  H62 UNL     1      14.623  25.452  -9.756  1.00  0.00     0.157 HD
ATOM     24  H61 UNL     1      14.787  25.076  -8.063  1.00  0.00     0.157 HD
ENDBRANCH  10  22
TORSDOF 4
ENDMDL
MODEL 4
REMARK VINA RESULT: -4.521096076      8.499      9.583
REMARK  4 active torsions:
REMARK  status: ('A' for Active; 'I' for Inactive)
REMARK    1  A    between atoms: N1_2  and  N2_4 
REMARK    2  A    between atoms: N2_4  and  C2_6 
REMARK    3  A    between atoms: C5_15  and  N6_16 
REMARK    4  A    between atoms: N8_22  and  O1_23 
ROOT
HETATM    1  C2  UNL     1      14.059  26.232  -8.166  1.00  0.00     0.726 A 
HETATM    2  N3  UNL     1      12.937  26.349  -7.481  1.00  0.00    -0.172 N 
ATOM      3  H3  UNL     1      12.864  27.078  -6.772  1.00  0.00     0.186 HD
HETATM    4  C3  UNL     1      11.891  25.540  -7.688  1.00  0.00     0.139 A 
HETATM    5  N4  UNL     1      10.735  25.672  -6.974  1.00  0.00    -0.337 N 
ATOM      6  H4  UNL     1      10.636  26.393  -6.259  1.00  0.00     0.168 HD
HETATM    7  C4  UNL     1       9.734  24.819  -7.245  1.00  0.00     0.183 A 
HETATM    8  N5  UNL     1       9.825  23.855  -8.179  1.00  0.00    -0.338 N 
ATOM      9  H5  UNL     1       9.031  23.235  -8.341  1.00  0.00     0.168 HD
HETATM   10  C5  UNL     1      10.959  23.697  -8.906  1.00  0.00     0.117 A 
HETATM   11  C6  UNL     1      12.003  24.563  -8.645  1.00  0.00     0.096 A 
HETATM   12  C7  UNL     1      13.184  24.439  -9.366  1.00  0.00     0.180 A 
HETATM   13  N7  UNL     1      13.339  23.445 -10.362  1.00  0.00    -0.078 NA
HETATM   14  N8  UNL     1      14.216  25.293  -9.110  1.00  0.00    -0.036 N 
ENDROOT
BRANCH   1  15
HETATM   15  N2  UNL     1      15.074  27.018  -7.963  1.00  0.00    -0.135 N 
ATOM     16  H2  UNL     1      15.573  26.959  -7.075  1.00  0.00     0.205 HD
BRANCH  15  17
HETATM   17  N1  UNL     1      15.504  27.940  -8.922  1.00  0.00    -0.327 N 
HETATM   18  C1  UNL     1      14.612  29.013  -9.266  1.00  0.00     0.168 C 
ATOM     19  H1  UNL     1      16.420  27.855  -9.362  1.00  0.00     0.180 HD
ENDBRANCH  15  17
ENDBRANCH   1  15
BRANCH  14  20
HETATM   20  O1  UNL     1      15.388  25.175  -9.821  1.00  0.00    -0.268 OA
ATOM     21  H1  UNL     1      15.389  25.091 -10.767  1.00  0.00     0.246 HD
ENDBRANCH  14  20
BRANCH  10  22
HETATM   22  N6  UNL     1      11.094  22.800  -9.803  1.00  0.00    -0.385 N 
ATOM     23  H62 UNL     1      10.602  21.911  -9.705  1.00  0.00     0.157 HD
ATOM     24  H61 UNL     1      11.678  22.921 -10.630  1.00  0.00     0.157 HD
ENDBRANCH  10  22
TORSDOF 4
ENDMDL
MODEL 5
REMARK VINA RESULT: -4.490510945      6.241      7.895
REMARK  4 active torsions:
REMARK  status: ('A' for Active; 'I' for Inactive)
REMARK    1  A    between atoms: N1_2  and  N2_4 
REMARK    2  A    between atoms: N2_4  and  C2_6 
REMARK    3  A    between atoms: C5_15  and  N6_16 
REMARK    4  A    between atoms: N8_22  and  O1_23 
ROOT
HETATM    1  C2  UNL     1      11.645  24.734  -7.683  1.00  0.00     0.726 A 
HETATM    2  N3  UNL     1      12.820  24.820  -7.089  1.00  0.00    -0.172 N 
ATOM      3  H3  UNL     1      13.005  25.611  -6.472  1.00  0.00     0.186 HD
HETATM    4  C3  UNL     1      13.776  23.903  -7.270  1.00  0.00     0.139 A 
HETATM    5  N4  UNL     1      14.987  24.002  -6.648  1.00  0.00    -0.337 N 
ATOM      6  H4  UNL     1      15.199  24.782  -6.026  1.00  0.00     0.168 HD
HETATM    7  C4  UNL     1      15.891  23.037  -6.884  1.00  0.00     0.183 A 
HETATM    8  N5  UNL     1      15.652  21.992  -7.697  1.00  0.00    -0.338 N 
ATOM      9  H5  UNL     1      16.377  21.288  -7.839  1.00  0.00     0.168 HD
HETATM   10  C5  UNL     1      14.459  21.862  -8.330  1.00  0.00     0.117 A 
HETATM   11  C6  UNL     1      13.513  22.843  -8.102  1.00  0.00     0.096 A 
HETATM   12  C7  UNL     1      12.276  22.752  -8.728  1.00  0.00     0.180 A 
HETATM   13  N7  UNL     1      11.966  21.676  -9.593  1.00  0.00    -0.078 NA
HETATM   14  N8  UNL     1      11.341  23.719  -8.505  1.00  0.00    -0.036 N 
ENDROOT
BRANCH   1  15
HETATM   15  N2  UNL     1      10.717  25.627  -7.507  1.00  0.00    -0.135 N 
ATOM     16  H2  UNL     1      10.838  26.552  -7.921  1.00  0.00     0.205 HD
BRANCH  15  17
HETATM   17  N1  UNL     1       9.559  25.362  -6.768  1.00  0.00    -0.327 N 
HETATM   18  C1  UNL     1       9.621  25.533  -5.342  1.00  0.00     0.168 C 
ATOM     19  H1  UNL     1       8.700  25.058  -7.225  1.00  0.00     0.180 HD
ENDBRANCH  15  17
ENDBRANCH   1  15
BRANCH  14  20
HETATM   20  O1  UNL     1      10.115  23.635  -9.122  1.00  0.00    -0.268 OA
ATOM     21  H1  UNL     1       9.876  22.883  -9.652  1.00  0.00     0.246 HD
ENDBRANCH  14  20
BRANCH  10  22
HETATM   22  N6  UNL     1      14.183  20.890  -9.108  1.00  0.00    -0.385 N 
ATOM     23  H62 UNL     1      14.347  19.933  -8.796  1.00  0.00     0.157 HD
ATOM     24  H61 UNL     1      13.801  21.017 -10.046  1.00  0.00     0.157 HD
ENDBRANCH  10  22
TORSDOF 4
ENDMDL
