MODEL 1
REMARK VINA RESULT: -4.684072723      0.000      0.000
REMARK  1 active torsions:
REMARK  status: ('A' for Active; 'I' for Inactive)
REMARK    1  A    between atoms: N1_2  and  C2_5 
ROOT
HETATM    1  C2  UNL     1     -16.923 -34.805  16.018  1.00  0.00     0.280 C 
HETATM    2  C3  UNL     1     -18.174 -34.511  16.838  1.00  0.00     0.054 C 
HETATM    3  C4  UNL     1     -18.087 -35.469  18.011  1.00  0.00     0.007 C 
HETATM    4  C5  UNL     1     -18.209 -36.857  17.479  1.00  0.00     0.041 C 
HETATM    5  C6  UNL     1     -17.819 -37.056  16.063  1.00  0.00     0.176 C 
HETATM    6 CL1  UNL     1     -17.043 -38.668  15.964  1.00  0.00    -0.103 Cl
HETATM    7  N2  UNL     1     -16.925 -36.124  15.483  1.00  0.00    -0.379 N 
ATOM      8  H2  UNL     1     -16.308 -36.386  14.714  1.00  0.00     0.156 HD
ENDROOT
BRANCH   1   9
HETATM    9  N1  UNL     1     -16.783 -33.748  15.065  1.00  0.00    -0.058 N 
HETATM   10  C1  UNL     1     -17.726 -32.678  15.211  1.00  0.00     0.269 C 
ATOM     11  H12 UNL     1     -16.815 -34.120  14.116  1.00  0.00     0.279 HD
ATOM     12  H11 UNL     1     -15.830 -33.383  15.079  1.00  0.00     0.279 HD
ENDBRANCH   1   9
TORSDOF 1
ENDMDL
MODEL 2
REMARK VINA RESULT: -4.519464793      2.559      3.671
REMARK  1 active torsions:
REMARK  status: ('A' for Active; 'I' for Inactive)
REMARK    1  A    between atoms: N1_2  and  C2_5 
ROOT
HETATM    1  C2  UNL     1     -19.175 -32.882  17.035  1.00  0.00     0.280 C 
HETATM    2  C3  UNL     1     -18.248 -31.779  16.537  1.00  0.00     0.054 C 
HETATM    3  C4  UNL     1     -17.887 -32.202  15.125  1.00  0.00     0.007 C 
HETATM    4  C5  UNL     1     -17.091 -33.460  15.213  1.00  0.00     0.041 C 
HETATM    5  C6  UNL     1     -17.298 -34.288  16.425  1.00  0.00     0.176 C 
HETATM    6 CL1  UNL     1     -17.188 -35.999  15.906  1.00  0.00    -0.103 Cl
HETATM    7  N2  UNL     1     -18.518 -34.140  17.130  1.00  0.00    -0.379 N 
ATOM      8  H2  UNL     1     -18.908 -34.904  17.682  1.00  0.00     0.156 HD
ENDROOT
BRANCH   1   9
HETATM    9  N1  UNL     1     -19.788 -32.409  18.238  1.00  0.00    -0.058 N 
HETATM   10  C1  UNL     1     -21.212 -32.570  18.289  1.00  0.00     0.269 C 
ATOM     11  H12 UNL     1     -19.537 -31.435  18.404  1.00  0.00     0.279 HD
ATOM     12  H11 UNL     1     -19.354 -32.845  19.051  1.00  0.00     0.279 HD
ENDBRANCH   1   9
TORSDOF 1
ENDMDL
MODEL 3
REMARK VINA RESULT: -4.486788210      2.257      3.608
REMARK  1 active torsions:
REMARK  status: ('A' for Active; 'I' for Inactive)
REMARK    1  A    between atoms: N1_2  and  C2_5 
ROOT
HETATM    1  C2  UNL     1     -17.512 -36.372  16.027  1.00  0.00     0.280 C 
HETATM    2  C3  UNL     1     -17.855 -36.029  17.472  1.00  0.00     0.054 C 
HETATM    3  C4  UNL     1     -18.872 -34.909  17.359  1.00  0.00     0.007 C 
HETATM    4  C5  UNL     1     -18.187 -33.726  16.762  1.00  0.00     0.041 C 
HETATM    5  C6  UNL     1     -16.992 -34.007  15.932  1.00  0.00     0.176 C 
HETATM    6 CL1  UNL     1     -17.006 -32.820  14.589  1.00  0.00    -0.103 Cl
HETATM    7  N2  UNL     1     -16.874 -35.294  15.352  1.00  0.00    -0.379 N 
ATOM      8  H2  UNL     1     -16.353 -35.442  14.487  1.00  0.00     0.156 HD
ENDROOT
BRANCH   1   9
HETATM    9  N1  UNL     1     -16.791 -37.608  16.045  1.00  0.00    -0.058 N 
HETATM   10  C1  UNL     1     -17.564 -38.759  15.680  1.00  0.00     0.269 C 
ATOM     11  H12 UNL     1     -16.354 -37.750  16.955  1.00  0.00     0.279 HD
ATOM     12  H11 UNL     1     -15.959 -37.541  15.459  1.00  0.00     0.279 HD
ENDBRANCH   1   9
TORSDOF 1
ENDMDL
MODEL 4
REMARK VINA RESULT: -4.429126548      2.726      4.001
REMARK  1 active torsions:
REMARK  status: ('A' for Active; 'I' for Inactive)
REMARK    1  A    between atoms: N1_2  and  C2_5 
ROOT
HETATM    1  C2  UNL     1     -16.854 -34.112  16.095  1.00  0.00     0.280 C 
HETATM    2  C3  UNL     1     -17.155 -33.422  14.769  1.00  0.00     0.054 C 
HETATM    3  C4  UNL     1     -17.445 -31.983  15.154  1.00  0.00     0.007 C 
HETATM    4  C5  UNL     1     -18.695 -31.969  15.968  1.00  0.00     0.041 C 
HETATM    5  C6  UNL     1     -19.033 -33.225  16.678  1.00  0.00     0.176 C 
HETATM    6 CL1  UNL     1     -19.765 -32.752  18.243  1.00  0.00    -0.103 Cl
HETATM    7  N2  UNL     1     -17.981 -34.130  16.964  1.00  0.00    -0.379 N 
ATOM      8  H2  UNL     1     -18.029 -34.768  17.758  1.00  0.00     0.156 HD
ENDROOT
BRANCH   1   9
HETATM    9  N1  UNL     1     -16.285 -35.389  15.788  1.00  0.00    -0.058 N 
HETATM   10  C1  UNL     1     -17.214 -36.481  15.813  1.00  0.00     0.269 C 
ATOM     11  H12 UNL     1     -15.496 -35.582  16.404  1.00  0.00     0.279 HD
ATOM     12  H11 UNL     1     -15.804 -35.355  14.890  1.00  0.00     0.279 HD
ENDBRANCH   1   9
TORSDOF 1
ENDMDL
MODEL 5
REMARK VINA RESULT: -4.262520604      3.663      4.525
REMARK  1 active torsions:
REMARK  status: ('A' for Active; 'I' for Inactive)
REMARK    1  A    between atoms: N1_2  and  C2_5 
ROOT
HETATM    1  C2  UNL     1     -18.393 -32.132  17.167  1.00  0.00     0.280 C 
HETATM    2  C3  UNL     1     -18.585 -33.620  16.897  1.00  0.00     0.054 C 
HETATM    3  C4  UNL     1     -17.242 -34.080  16.361  1.00  0.00     0.007 C 
HETATM    4  C5  UNL     1     -17.017 -33.406  15.049  1.00  0.00     0.041 C 
HETATM    5  C6  UNL     1     -17.735 -32.127  14.834  1.00  0.00     0.176 C 
HETATM    6 CL1  UNL     1     -16.636 -31.071  13.891  1.00  0.00    -0.103 Cl
HETATM    7  N2  UNL     1     -18.143 -31.394  15.976  1.00  0.00    -0.379 N 
ATOM      8  H2  UNL     1     -18.253 -30.381  15.946  1.00  0.00     0.156 HD
ENDROOT
BRANCH   1   9
HETATM    9  N1  UNL     1     -19.511 -31.695  17.946  1.00  0.00    -0.058 N 
HETATM   10  C1  UNL     1     -20.605 -32.620  17.997  1.00  0.00     0.269 C 
ATOM     11  H12 UNL     1     -19.833 -30.784  17.622  1.00  0.00     0.279 HD
ATOM     12  H11 UNL     1     -19.210 -31.450  18.889  1.00  0.00     0.279 HD
ENDBRANCH   1   9
TORSDOF 1
ENDMDL
