MODEL 1
REMARK VINA RESULT: -4.599120752      0.000      0.000
REMARK  1 active torsions:
REMARK  status: ('A' for Active; 'I' for Inactive)
REMARK    1  A    between atoms: C2_2  and  C4_4 
ROOT
HETATM    1  C4  UNL     1      -1.441  33.594 -14.516  1.00  0.00     0.125 C 
HETATM    2  N1  UNL     1      -2.202  33.589 -15.779  1.00  0.00    -0.123 NA
HETATM    3  N2  UNL     1      -1.721  32.479 -16.470  1.00  0.00    -0.039 NA
HETATM    4  N3  UNL     1      -1.314  31.547 -15.545  1.00  0.00    -0.119 NA
HETATM    5  C5  UNL     1      -1.393  32.156 -14.226  1.00  0.00     0.060 C 
HETATM    6  C6  UNL     1      -2.742  31.771 -13.594  1.00  0.00     0.037 C 
HETATM    7  C7  UNL     1      -0.335  31.608 -13.370  1.00  0.00     0.037 C 
ENDROOT
BRANCH   1   8
HETATM    8  C2  UNL     1      -0.129  34.308 -14.690  1.00  0.00     0.000 C 
HETATM    9  C1  UNL     1      -0.360  35.598 -15.504  1.00  0.00     0.011 C 
HETATM   10  C3  UNL     1       0.346  34.823 -13.345  1.00  0.00     0.011 C 
ENDBRANCH   1   8
TORSDOF 1
ENDMDL
MODEL 2
REMARK VINA RESULT: -4.598792341      3.048      4.075
REMARK  1 active torsions:
REMARK  status: ('A' for Active; 'I' for Inactive)
REMARK    1  A    between atoms: C2_2  and  C4_4 
ROOT
HETATM    1  C4  UNL     1      -2.237  30.003 -13.490  1.00  0.00     0.125 C 
HETATM    2  N1  UNL     1      -2.509  30.236 -14.921  1.00  0.00    -0.123 NA
HETATM    3  N2  UNL     1      -1.861  31.436 -15.206  1.00  0.00    -0.039 NA
HETATM    4  N3  UNL     1      -0.781  31.546 -14.363  1.00  0.00    -0.119 NA
HETATM    5  C5  UNL     1      -0.843  30.453 -13.405  1.00  0.00     0.060 C 
HETATM    6  C6  UNL     1       0.042  29.305 -13.921  1.00  0.00     0.037 C 
HETATM    7  C7  UNL     1      -0.285  30.893 -12.122  1.00  0.00     0.037 C 
ENDROOT
BRANCH   1   8
HETATM    8  C2  UNL     1      -3.248  30.716 -12.635  1.00  0.00     0.000 C 
HETATM    9  C1  UNL     1      -4.532  30.949 -13.458  1.00  0.00     0.011 C 
HETATM   10  C3  UNL     1      -3.707  29.794 -11.523  1.00  0.00     0.011 C 
ENDBRANCH   1   8
TORSDOF 1
ENDMDL
MODEL 3
REMARK VINA RESULT: -4.467330956      3.406      4.168
REMARK  1 active torsions:
REMARK  status: ('A' for Active; 'I' for Inactive)
REMARK    1  A    between atoms: C2_2  and  C4_4 
ROOT
HETATM    1  C4  UNL     1      -2.148  30.436 -13.496  1.00  0.00     0.125 C 
HETATM    2  N1  UNL     1      -2.245  29.982 -14.895  1.00  0.00    -0.123 NA
HETATM    3  N2  UNL     1      -2.923  28.768 -14.819  1.00  0.00    -0.039 NA
HETATM    4  N3  UNL     1      -3.752  28.813 -13.724  1.00  0.00    -0.119 NA
HETATM    5  C5  UNL     1      -3.467  30.037 -12.992  1.00  0.00     0.060 C 
HETATM    6  C6  UNL     1      -4.472  31.114 -13.435  1.00  0.00     0.037 C 
HETATM    7  C7  UNL     1      -3.673  29.810 -11.557  1.00  0.00     0.037 C 
ENDROOT
BRANCH   1   8
HETATM    8  C2  UNL     1      -0.941  29.839 -12.826  1.00  0.00     0.000 C 
HETATM    9  C1  UNL     1       0.079  29.418 -13.905  1.00  0.00     0.011 C 
HETATM   10  C3  UNL     1      -0.208  30.917 -12.052  1.00  0.00     0.011 C 
ENDBRANCH   1   8
TORSDOF 1
ENDMDL
MODEL 4
REMARK VINA RESULT: -4.450850318      3.128      5.326
REMARK  1 active torsions:
REMARK  status: ('A' for Active; 'I' for Inactive)
REMARK    1  A    between atoms: C2_2  and  C4_4 
ROOT
HETATM    1  C4  UNL     1       0.249  36.712 -15.688  1.00  0.00     0.125 C 
HETATM    2  N1  UNL     1      -1.026  36.620 -16.424  1.00  0.00    -0.123 NA
HETATM    3  N2  UNL     1      -1.726  37.764 -16.048  1.00  0.00    -0.039 NA
HETATM    4  N3  UNL     1      -0.810  38.746 -15.755  1.00  0.00    -0.119 NA
HETATM    5  C5  UNL     1       0.517  38.151 -15.794  1.00  0.00     0.060 C 
HETATM    6  C6  UNL     1       1.122  38.403 -17.186  1.00  0.00     0.037 C 
HETATM    7  C7  UNL     1       1.382  38.817 -14.814  1.00  0.00     0.037 C 
ENDROOT
BRANCH   1   8
HETATM    8  C2  UNL     1       0.108  36.134 -14.307  1.00  0.00     0.000 C 
HETATM    9  C1  UNL     1      -0.724  34.837 -14.384  1.00  0.00     0.011 C 
HETATM   10  C3  UNL     1       1.461  35.655 -13.821  1.00  0.00     0.011 C 
ENDBRANCH   1   8
TORSDOF 1
ENDMDL
MODEL 5
REMARK VINA RESULT: -4.358583490      2.442      3.540
REMARK  1 active torsions:
REMARK  status: ('A' for Active; 'I' for Inactive)
REMARK    1  A    between atoms: C2_2  and  C4_4 
ROOT
HETATM    1  C4  UNL     1      -0.598  31.169 -14.099  1.00  0.00     0.125 C 
HETATM    2  N1  UNL     1       0.302  31.495 -12.977  1.00  0.00    -0.123 NA
HETATM    3  N2  UNL     1      -0.395  31.084 -11.843  1.00  0.00    -0.039 NA
HETATM    4  N3  UNL     1      -1.206  30.033 -12.201  1.00  0.00    -0.119 NA
HETATM    5  C5  UNL     1      -1.136  29.881 -13.646  1.00  0.00     0.060 C 
HETATM    6  C6  UNL     1      -0.086  28.805 -13.971  1.00  0.00     0.037 C 
HETATM    7  C7  UNL     1      -2.427  29.400 -14.151  1.00  0.00     0.037 C 
ENDROOT
BRANCH   1   8
HETATM    8  C2  UNL     1      -1.578  32.285 -14.334  1.00  0.00     0.000 C 
HETATM    9  C1  UNL     1      -0.861  33.637 -14.142  1.00  0.00     0.011 C 
HETATM   10  C3  UNL     1      -1.977  32.305 -15.797  1.00  0.00     0.011 C 
ENDBRANCH   1   8
TORSDOF 1
ENDMDL
