MODEL 1
REMARK VINA RESULT: -10.059796090      0.000      0.000
REMARK  9 active torsions:
REMARK  status: ('A' for Active; 'I' for Inactive)
REMARK    1  A    between atoms: N3_4  and  C2_6 
REMARK    2  A    between atoms: C2_6  and  O1_7 
REMARK    3  A    between atoms: C2_6  and  C3_9 
REMARK    4  A    between atoms: C4_10  and  O2_11 
REMARK    5  A    between atoms: N5_15  and  N6_16 
REMARK       I    between atoms: N6_16  and  C5_18 
REMARK       I    between atoms: C5_18  and  N7_20 
REMARK    6  A    between atoms: N7_20  and  N8_22 
REMARK    7  A    between atoms: C6_24  and  C7_25 
REMARK    8  A    between atoms: N11_30  and  C8_31 
REMARK    9  A    between atoms: C12_42  and  O4_43 
ROOT
HETATM    1  N6  UNL     1     -17.930   2.573  11.358  1.00  0.00    -0.227 N 
ATOM      2  H6  UNL     1     -17.890   1.577  11.146  1.00  0.00     0.194 HD
HETATM    3  C5  UNL     1     -16.961   3.470  10.837  1.00  0.00     0.355 C 
HETATM    4  O3  UNL     1     -16.991   4.705  11.082  1.00  0.00    -0.244 OA
HETATM    5  N7  UNL     1     -15.936   2.927  10.014  1.00  0.00    -0.251 N 
ATOM      6  H7  UNL     1     -15.908   1.927   9.814  1.00  0.00     0.191 HD
ENDROOT
BRANCH   1   7
HETATM    7  N5  UNL     1     -18.939   3.095  12.165  1.00  0.00    -0.166 N 
HETATM    8  N4  UNL     1     -19.621   4.229  11.958  1.00  0.00    -0.256 N 
HETATM    9  C4  UNL     1     -20.515   4.424  12.929  1.00  0.00     0.171 A 
ATOM     10  H4  UNL     1     -19.478   4.857  11.168  1.00  0.00     0.191 HD
HETATM   11  C3  UNL     1     -20.386   3.359  13.788  1.00  0.00     0.096 A 
HETATM   12  C12 UNL     1     -19.412   2.542  13.310  1.00  0.00     0.194 A 
BRANCH   9  13
HETATM   13  O2  UNL     1     -21.374   5.502  13.008  1.00  0.00    -0.344 OA
ATOM     14  H2  UNL     1     -21.424   6.267  12.447  1.00  0.00     0.219 HD
ENDBRANCH   9  13
BRANCH  11  15
HETATM   15  C2  UNL     1     -21.188   3.136  15.042  1.00  0.00     0.263 C 
BRANCH  15  16
HETATM   16  N3  UNL     1     -21.336   4.388  15.731  1.00  0.00    -0.337 N 
HETATM   17  C1  UNL     1     -22.470   4.963  15.778  1.00  0.00     0.199 C 
HETATM   18  N1  UNL     1     -22.602   6.192  16.458  1.00  0.00    -0.067 NA
HETATM   19  N2  UNL     1     -23.600   4.377  15.150  1.00  0.00    -0.067 NA
ATOM     20  H3  UNL     1     -20.529   4.817  16.183  1.00  0.00     0.164 HD
ENDBRANCH  15  16
BRANCH  15  21
HETATM   21  O1  UNL     1     -20.545   2.194  15.825  1.00  0.00    -0.372 OA
ATOM     22  H1  UNL     1     -21.152   1.551  16.172  1.00  0.00     0.212 HD
ENDBRANCH  15  21
ENDBRANCH  11  15
BRANCH  12  23
HETATM   23  O4  UNL     1     -18.936   1.356  13.833  1.00  0.00    -0.343 OA
ATOM     24  H4  UNL     1     -18.768   1.124  14.739  1.00  0.00     0.219 HD
ENDBRANCH  12  23
ENDBRANCH   1   7
BRANCH   5  25
HETATM   25  N8  UNL     1     -14.970   3.780   9.486  1.00  0.00    -0.304 N 
HETATM   26  C6  UNL     1     -13.728   3.498   9.578  1.00  0.00     0.158 C 
ATOM     27  H8  UNL     1     -15.258   4.640   9.019  1.00  0.00     0.186 HD
BRANCH  26  28
HETATM   28  C7  UNL     1     -13.314   2.269  10.243  1.00  0.00     0.154 A 
HETATM   29  N9  UNL     1     -13.076   1.074   9.718  1.00  0.00    -0.267 N 
HETATM   30  N10 UNL     1     -12.725   0.250  10.687  1.00  0.00    -0.218 N 
ATOM     31  H9  UNL     1     -13.151   0.832   8.731  1.00  0.00     0.190 HD
HETATM   32  N11 UNL     1     -12.724   0.867  11.846  1.00  0.00    -0.167 N 
ATOM     33  H10 UNL     1     -12.486  -0.732  10.553  1.00  0.00     0.210 HD
HETATM   34  N15 UNL     1     -13.086   2.108  11.584  1.00  0.00    -0.259 N 
ATOM     35  H15 UNL     1     -13.182   2.845  12.282  1.00  0.00     0.191 HD
BRANCH  32  36
HETATM   36  C8  UNL     1     -12.408   0.344  13.135  1.00  0.00     0.130 A 
HETATM   37  N12 UNL     1     -11.262  -0.165  13.408  1.00  0.00    -0.317 N 
HETATM   38  C9  UNL     1     -10.942  -0.690  14.697  1.00  0.00     0.193 A 
ATOM     39  H12 UNL     1     -10.552  -0.196  12.675  1.00  0.00     0.170 HD
HETATM   40  N13 UNL     1      -9.649  -1.248  14.958  1.00  0.00    -0.063 NA
HETATM   41  N14 UNL     1     -11.833  -0.643  15.598  1.00  0.00    -0.344 N 
HETATM   42  C10 UNL     1     -13.130  -0.123  15.470  1.00  0.00     0.071 A 
ATOM     43  H14 UNL     1     -11.582  -1.023  16.510  1.00  0.00     0.167 HD
HETATM   44  C11 UNL     1     -13.485   0.427  14.144  1.00  0.00     0.124 A 
ENDBRANCH  32  36
ENDBRANCH  26  28
ENDBRANCH   5  25
TORSDOF 9
ENDMDL
MODEL 2
REMARK VINA RESULT: -9.816173191      1.538      2.052
REMARK  9 active torsions:
REMARK  status: ('A' for Active; 'I' for Inactive)
REMARK    1  A    between atoms: N3_4  and  C2_6 
REMARK    2  A    between atoms: C2_6  and  O1_7 
REMARK    3  A    between atoms: C2_6  and  C3_9 
REMARK    4  A    between atoms: C4_10  and  O2_11 
REMARK    5  A    between atoms: N5_15  and  N6_16 
REMARK       I    between atoms: N6_16  and  C5_18 
REMARK       I    between atoms: C5_18  and  N7_20 
REMARK    6  A    between atoms: N7_20  and  N8_22 
REMARK    7  A    between atoms: C6_24  and  C7_25 
REMARK    8  A    between atoms: N11_30  and  C8_31 
REMARK    9  A    between atoms: C12_42  and  O4_43 
ROOT
HETATM    1  N6  UNL     1     -17.109   2.771  12.122  1.00  0.00    -0.227 N 
ATOM      2  H6  UNL     1     -17.218   1.793  12.391  1.00  0.00     0.194 HD
HETATM    3  C5  UNL     1     -16.269   3.139  11.038  1.00  0.00     0.355 C 
HETATM    4  O3  UNL     1     -16.119   4.339  10.685  1.00  0.00    -0.244 OA
HETATM    5  N7  UNL     1     -15.590   2.099  10.347  1.00  0.00    -0.251 N 
ATOM      6  H7  UNL     1     -15.709   1.126  10.630  1.00  0.00     0.191 HD
ENDROOT
BRANCH   1   7
HETATM    7  N5  UNL     1     -17.778   3.782  12.806  1.00  0.00    -0.166 N 
HETATM    8  N4  UNL     1     -17.234   4.895  13.319  1.00  0.00    -0.256 N 
HETATM    9  C4  UNL     1     -18.167   5.646  13.907  1.00  0.00     0.171 A 
ATOM     10  H4  UNL     1     -16.245   5.134  13.267  1.00  0.00     0.191 HD
HETATM   11  C3  UNL     1     -19.355   4.971  13.755  1.00  0.00     0.096 A 
HETATM   12  C12 UNL     1     -19.108   3.822  13.075  1.00  0.00     0.194 A 
BRANCH   9  13
HETATM   13  O2  UNL     1     -17.931   6.854  14.532  1.00  0.00    -0.344 OA
ATOM     14  H2  UNL     1     -17.514   7.021  15.369  1.00  0.00     0.219 HD
ENDBRANCH   9  13
BRANCH  11  15
HETATM   15  C2  UNL     1     -20.698   5.427  14.258  1.00  0.00     0.263 C 
BRANCH  15  16
HETATM   16  N3  UNL     1     -21.177   4.486  15.232  1.00  0.00    -0.337 N 
HETATM   17  C1  UNL     1     -22.059   4.834  16.080  1.00  0.00     0.199 C 
HETATM   18  N1  UNL     1     -22.521   3.900  17.031  1.00  0.00    -0.067 NA
HETATM   19  N2  UNL     1     -22.578   6.155  16.076  1.00  0.00    -0.067 NA
ATOM     20  H3  UNL     1     -20.808   3.535  15.243  1.00  0.00     0.164 HD
ENDBRANCH  15  16
BRANCH  15  21
HETATM   21  O1  UNL     1     -21.564   5.539  13.185  1.00  0.00    -0.372 OA
ATOM     22  H1  UNL     1     -21.633   4.725  12.701  1.00  0.00     0.212 HD
ENDBRANCH  15  21
ENDBRANCH  11  15
BRANCH  12  23
HETATM   23  O4  UNL     1     -19.988   2.830  12.691  1.00  0.00    -0.343 OA
ATOM     24  H4  UNL     1     -20.804   2.906  12.210  1.00  0.00     0.219 HD
ENDBRANCH  12  23
ENDBRANCH   1   7
BRANCH   5  25
HETATM   25  N8  UNL     1     -14.760   2.427   9.277  1.00  0.00    -0.304 N 
HETATM   26  C6  UNL     1     -13.500   2.549   9.442  1.00  0.00     0.158 C 
ATOM     27  H8  UNL     1     -15.164   2.571   8.352  1.00  0.00     0.186 HD
BRANCH  26  28
HETATM   28  C7  UNL     1     -12.920   2.341  10.763  1.00  0.00     0.154 A 
HETATM   29  N9  UNL     1     -12.774   3.208  11.757  1.00  0.00    -0.267 N 
HETATM   30  N10 UNL     1     -12.200   2.592  12.772  1.00  0.00    -0.218 N 
ATOM     31  H9  UNL     1     -13.056   4.188  11.738  1.00  0.00     0.190 HD
HETATM   32  N11 UNL     1     -11.960   1.335  12.480  1.00  0.00    -0.167 N 
ATOM     33  H10 UNL     1     -11.974   3.033  13.664  1.00  0.00     0.210 HD
HETATM   34  N15 UNL     1     -12.399   1.171  11.247  1.00  0.00    -0.259 N 
ATOM     35  H15 UNL     1     -12.356   0.296  10.727  1.00  0.00     0.191 HD
BRANCH  32  36
HETATM   36  C8  UNL     1     -11.357   0.329  13.292  1.00  0.00     0.130 A 
HETATM   37  N12 UNL     1     -10.125   0.378  13.645  1.00  0.00    -0.317 N 
HETATM   38  C9  UNL     1      -9.518  -0.628  14.457  1.00  0.00     0.193 A 
ATOM     39  H12 UNL     1      -9.557   1.167  13.334  1.00  0.00     0.170 HD
HETATM   40  N13 UNL     1      -8.138  -0.532  14.829  1.00  0.00    -0.063 NA
HETATM   41  N14 UNL     1     -10.236  -1.601  14.837  1.00  0.00    -0.344 N 
HETATM   42  C10 UNL     1     -11.593  -1.809  14.543  1.00  0.00     0.071 A 
ATOM     43  H14 UNL     1      -9.781  -2.307  15.416  1.00  0.00     0.167 HD
HETATM   44  C11 UNL     1     -12.244  -0.780  13.705  1.00  0.00     0.124 A 
ENDBRANCH  32  36
ENDBRANCH  26  28
ENDBRANCH   5  25
TORSDOF 9
ENDMDL
MODEL 3
REMARK VINA RESULT: -9.809144770      1.309      2.066
REMARK  9 active torsions:
REMARK  status: ('A' for Active; 'I' for Inactive)
REMARK    1  A    between atoms: N3_4  and  C2_6 
REMARK    2  A    between atoms: C2_6  and  O1_7 
REMARK    3  A    between atoms: C2_6  and  C3_9 
REMARK    4  A    between atoms: C4_10  and  O2_11 
REMARK    5  A    between atoms: N5_15  and  N6_16 
REMARK       I    between atoms: N6_16  and  C5_18 
REMARK       I    between atoms: C5_18  and  N7_20 
REMARK    6  A    between atoms: N7_20  and  N8_22 
REMARK    7  A    between atoms: C6_24  and  C7_25 
REMARK    8  A    between atoms: N11_30  and  C8_31 
REMARK    9  A    between atoms: C12_42  and  O4_43 
ROOT
HETATM    1  N6  UNL     1     -16.768   3.977  11.234  1.00  0.00    -0.227 N 
ATOM      2  H6  UNL     1     -16.040   4.670  11.405  1.00  0.00     0.194 HD
HETATM    3  C5  UNL     1     -16.656   3.051  10.164  1.00  0.00     0.355 C 
HETATM    4  O3  UNL     1     -17.540   2.184   9.933  1.00  0.00    -0.244 OA
HETATM    5  N7  UNL     1     -15.497   3.129   9.343  1.00  0.00    -0.251 N 
ATOM      6  H7  UNL     1     -14.780   3.831   9.526  1.00  0.00     0.191 HD
ENDROOT
BRANCH   1   7
HETATM    7  N5  UNL     1     -17.899   3.909  12.044  1.00  0.00    -0.166 N 
HETATM    8  N4  UNL     1     -18.387   2.815  12.644  1.00  0.00    -0.256 N 
HETATM    9  C4  UNL     1     -19.483   3.112  13.345  1.00  0.00     0.171 A 
ATOM     10  H4  UNL     1     -17.978   1.884  12.576  1.00  0.00     0.191 HD
HETATM   11  C3  UNL     1     -19.692   4.460  13.175  1.00  0.00     0.096 A 
HETATM   12  C12 UNL     1     -18.711   4.945  12.372  1.00  0.00     0.194 A 
BRANCH   9  13
HETATM   13  O2  UNL     1     -20.223   2.206  14.077  1.00  0.00    -0.344 OA
ATOM     14  H2  UNL     1     -20.062   1.280  14.218  1.00  0.00     0.219 HD
ENDBRANCH   9  13
BRANCH  11  15
HETATM   15  C2  UNL     1     -20.816   5.260  13.777  1.00  0.00     0.263 C 
BRANCH  15  16
HETATM   16  N3  UNL     1     -21.312   4.571  14.936  1.00  0.00    -0.337 N 
HETATM   17  C1  UNL     1     -21.942   5.208  15.840  1.00  0.00     0.199 C 
HETATM   18  N1  UNL     1     -22.424   4.519  16.973  1.00  0.00    -0.067 NA
HETATM   19  N2  UNL     1     -22.160   6.604  15.715  1.00  0.00    -0.067 NA
ATOM     20  H3  UNL     1     -21.158   3.568  15.035  1.00  0.00     0.164 HD
ENDBRANCH  15  16
BRANCH  15  21
HETATM   21  O1  UNL     1     -21.803   5.436  12.824  1.00  0.00    -0.372 OA
ATOM     22  H1  UNL     1     -21.926   6.353  12.609  1.00  0.00     0.212 HD
ENDBRANCH  15  21
ENDBRANCH  11  15
BRANCH  12  23
HETATM   23  O4  UNL     1     -18.509   6.237  11.927  1.00  0.00    -0.343 OA
ATOM     24  H4  UNL     1     -18.008   6.542  11.180  1.00  0.00     0.219 HD
ENDBRANCH  12  23
ENDBRANCH   1   7
BRANCH   5  25
HETATM   25  N8  UNL     1     -15.357   2.234   8.285  1.00  0.00    -0.304 N 
HETATM   26  C6  UNL     1     -14.426   1.359   8.289  1.00  0.00     0.158 C 
ATOM     27  H8  UNL     1     -16.004   2.278   7.498  1.00  0.00     0.186 HD
BRANCH  26  28
HETATM   28  C7  UNL     1     -13.501   1.294   9.413  1.00  0.00     0.154 A 
HETATM   29  N9  UNL     1     -12.252   1.735   9.494  1.00  0.00    -0.267 N 
HETATM   30  N10 UNL     1     -11.788   1.467  10.699  1.00  0.00    -0.218 N 
ATOM     31  H9  UNL     1     -11.737   2.202   8.749  1.00  0.00     0.190 HD
HETATM   32  N11 UNL     1     -12.697   0.857  11.424  1.00  0.00    -0.167 N 
ATOM     33  H10 UNL     1     -10.850   1.701  11.024  1.00  0.00     0.210 HD
HETATM   34  N15 UNL     1     -13.753   0.746  10.642  1.00  0.00    -0.259 N 
ATOM     35  H15 UNL     1     -14.635   0.313  10.915  1.00  0.00     0.191 HD
BRANCH  32  36
HETATM   36  C8  UNL     1     -12.604   0.397  12.772  1.00  0.00     0.130 A 
HETATM   37  N12 UNL     1     -11.582  -0.244  13.210  1.00  0.00    -0.317 N 
HETATM   38  C9  UNL     1     -11.487  -0.707  14.558  1.00  0.00     0.193 A 
ATOM     39  H12 UNL     1     -10.809  -0.430  12.571  1.00  0.00     0.170 HD
HETATM   40  N13 UNL     1     -10.327  -1.418  15.005  1.00  0.00    -0.063 NA
HETATM   41  N14 UNL     1     -12.455  -0.467  15.341  1.00  0.00    -0.344 N 
HETATM   42  C10 UNL     1     -13.639   0.217  15.027  1.00  0.00     0.071 A 
ATOM     43  H14 UNL     1     -12.363  -0.807  16.298  1.00  0.00     0.167 HD
HETATM   44  C11 UNL     1     -13.761   0.707  13.637  1.00  0.00     0.124 A 
ENDBRANCH  32  36
ENDBRANCH  26  28
ENDBRANCH   5  25
TORSDOF 9
ENDMDL
MODEL 4
REMARK VINA RESULT: -9.756681028      1.731      2.010
REMARK  9 active torsions:
REMARK  status: ('A' for Active; 'I' for Inactive)
REMARK    1  A    between atoms: N3_4  and  C2_6 
REMARK    2  A    between atoms: C2_6  and  O1_7 
REMARK    3  A    between atoms: C2_6  and  C3_9 
REMARK    4  A    between atoms: C4_10  and  O2_11 
REMARK    5  A    between atoms: N5_15  and  N6_16 
REMARK       I    between atoms: N6_16  and  C5_18 
REMARK       I    between atoms: C5_18  and  N7_20 
REMARK    6  A    between atoms: N7_20  and  N8_22 
REMARK    7  A    between atoms: C6_24  and  C7_25 
REMARK    8  A    between atoms: N11_30  and  C8_31 
REMARK    9  A    between atoms: C12_42  and  O4_43 
ROOT
HETATM    1  N6  UNL     1     -16.639   4.328  12.913  1.00  0.00    -0.227 N 
ATOM      2  H6  UNL     1     -15.729   4.205  13.357  1.00  0.00     0.194 HD
HETATM    3  C5  UNL     1     -16.866   3.897  11.580  1.00  0.00     0.355 C 
HETATM    4  O3  UNL     1     -17.981   4.037  11.011  1.00  0.00    -0.244 OA
HETATM    5  N7  UNL     1     -15.781   3.291  10.889  1.00  0.00    -0.251 N 
ATOM      6  H7  UNL     1     -14.876   3.176  11.346  1.00  0.00     0.191 HD
ENDROOT
BRANCH   1   7
HETATM    7  N5  UNL     1     -17.696   4.924  13.599  1.00  0.00    -0.166 N 
HETATM    8  N4  UNL     1     -17.770   6.203  13.994  1.00  0.00    -0.256 N 
HETATM    9  C4  UNL     1     -18.924   6.433  14.623  1.00  0.00     0.171 A 
ATOM     10  H4  UNL     1     -17.046   6.903  13.836  1.00  0.00     0.191 HD
HETATM   11  C3  UNL     1     -19.606   5.240  14.622  1.00  0.00     0.096 A 
HETATM   12  C12 UNL     1     -18.843   4.313  13.988  1.00  0.00     0.194 A 
BRANCH   9  13
HETATM   13  O2  UNL     1     -19.306   7.649  15.153  1.00  0.00    -0.344 OA
ATOM     14  H2  UNL     1     -18.761   8.357  15.475  1.00  0.00     0.219 HD
ENDBRANCH   9  13
BRANCH  11  15
HETATM   15  C2  UNL     1     -20.967   5.001  15.221  1.00  0.00     0.263 C 
BRANCH  15  16
HETATM   16  N3  UNL     1     -21.670   4.042  14.416  1.00  0.00    -0.337 N 
HETATM   17  C1  UNL     1     -22.574   3.311  14.933  1.00  0.00     0.199 C 
HETATM   18  N1  UNL     1     -23.257   2.373  14.130  1.00  0.00    -0.067 NA
HETATM   19  N2  UNL     1     -22.897   3.432  16.309  1.00  0.00    -0.067 NA
ATOM     20  H3  UNL     1     -21.443   3.946  13.426  1.00  0.00     0.164 HD
ENDBRANCH  15  16
BRANCH  15  21
HETATM   21  O1  UNL     1     -21.644   6.206  15.292  1.00  0.00    -0.372 OA
ATOM     22  H1  UNL     1     -21.049   6.946  15.261  1.00  0.00     0.212 HD
ENDBRANCH  15  21
ENDBRANCH  11  15
BRANCH  12  23
HETATM   23  O4  UNL     1     -19.112   2.981  13.745  1.00  0.00    -0.343 OA
ATOM     24  H4  UNL     1     -19.885   2.475  13.965  1.00  0.00     0.219 HD
ENDBRANCH  12  23
ENDBRANCH   1   7
BRANCH   5  25
HETATM   25  N8  UNL     1     -15.971   2.855   9.580  1.00  0.00    -0.304 N 
HETATM   26  C6  UNL     1     -15.222   1.952   9.077  1.00  0.00     0.158 C 
ATOM     27  H8  UNL     1     -16.718   3.262   9.018  1.00  0.00     0.186 HD
BRANCH  26  28
HETATM   28  C7  UNL     1     -14.154   1.369   9.880  1.00  0.00     0.154 A 
HETATM   29  N9  UNL     1     -12.946   0.973   9.504  1.00  0.00    -0.267 N 
HETATM   30  N10 UNL     1     -12.307   0.506  10.559  1.00  0.00    -0.218 N 
ATOM     31  H9  UNL     1     -12.572   1.021   8.556  1.00  0.00     0.190 HD
HETATM   32  N11 UNL     1     -13.061   0.580  11.631  1.00  0.00    -0.167 N 
ATOM     33  H10 UNL     1     -11.356   0.137  10.544  1.00  0.00     0.210 HD
HETATM   34  N15 UNL     1     -14.199   1.109  11.224  1.00  0.00    -0.259 N 
ATOM     35  H15 UNL     1     -15.000   1.298  11.826  1.00  0.00     0.191 HD
BRANCH  32  36
HETATM   36  C8  UNL     1     -12.755   0.186  12.967  1.00  0.00     0.130 A 
HETATM   37  N12 UNL     1     -11.644  -0.374  13.281  1.00  0.00    -0.317 N 
HETATM   38  C9  UNL     1     -11.335  -0.771  14.618  1.00  0.00     0.193 A 
ATOM     39  H12 UNL     1     -10.955  -0.542  12.547  1.00  0.00     0.170 HD
HETATM   40  N13 UNL     1     -10.081  -1.392  14.924  1.00  0.00    -0.063 NA
HETATM   41  N14 UNL     1     -12.200  -0.555  15.520  1.00  0.00    -0.344 N 
HETATM   42  C10 UNL     1     -13.458   0.043  15.350  1.00  0.00     0.071 A 
ATOM     43  H14 UNL     1     -11.956  -0.846  16.466  1.00  0.00     0.167 HD
HETATM   44  C11 UNL     1     -13.800   0.464  13.975  1.00  0.00     0.124 A 
ENDBRANCH  32  36
ENDBRANCH  26  28
ENDBRANCH   5  25
TORSDOF 9
ENDMDL
MODEL 5
REMARK VINA RESULT: -9.666694651      1.019      1.020
REMARK  9 active torsions:
REMARK  status: ('A' for Active; 'I' for Inactive)
REMARK    1  A    between atoms: N3_4  and  C2_6 
REMARK    2  A    between atoms: C2_6  and  O1_7 
REMARK    3  A    between atoms: C2_6  and  C3_9 
REMARK    4  A    between atoms: C4_10  and  O2_11 
REMARK    5  A    between atoms: N5_15  and  N6_16 
REMARK       I    between atoms: N6_16  and  C5_18 
REMARK       I    between atoms: C5_18  and  N7_20 
REMARK    6  A    between atoms: N7_20  and  N8_22 
REMARK    7  A    between atoms: C6_24  and  C7_25 
REMARK    8  A    between atoms: N11_30  and  C8_31 
REMARK    9  A    between atoms: C12_42  and  O4_43 
ROOT
HETATM    1  N6  UNL     1     -17.830   2.597  12.044  1.00  0.00    -0.227 N 
ATOM      2  H6  UNL     1     -17.800   1.578  12.013  1.00  0.00     0.194 HD
HETATM    3  C5  UNL     1     -16.954   3.377  11.244  1.00  0.00     0.355 C 
HETATM    4  O3  UNL     1     -16.972   4.636  11.263  1.00  0.00    -0.244 OA
HETATM    5  N7  UNL     1     -16.039   2.687  10.402  1.00  0.00    -0.251 N 
ATOM      6  H7  UNL     1     -16.021   1.667  10.385  1.00  0.00     0.191 HD
ENDROOT
BRANCH   1   7
HETATM    7  N5  UNL     1     -18.730   3.263  12.872  1.00  0.00    -0.166 N 
HETATM    8  N4  UNL     1     -18.499   4.392  13.557  1.00  0.00    -0.256 N 
HETATM    9  C4  UNL     1     -19.583   4.752  14.247  1.00  0.00     0.171 A 
ATOM     10  H4  UNL     1     -17.618   4.904  13.552  1.00  0.00     0.191 HD
HETATM   11  C3  UNL     1     -20.540   3.803  13.981  1.00  0.00     0.096 A 
HETATM   12  C12 UNL     1     -20.007   2.887  13.131  1.00  0.00     0.194 A 
BRANCH   9  13
HETATM   13  O2  UNL     1     -19.671   5.868  15.055  1.00  0.00    -0.344 OA
ATOM     14  H2  UNL     1     -19.553   6.782  14.824  1.00  0.00     0.219 HD
ENDBRANCH   9  13
BRANCH  11  15
HETATM   15  C2  UNL     1     -21.940   3.781  14.536  1.00  0.00     0.263 C 
BRANCH  15  16
HETATM   16  N3  UNL     1     -21.926   4.341  15.858  1.00  0.00    -0.337 N 
HETATM   17  C1  UNL     1     -23.006   4.753  16.391  1.00  0.00     0.199 C 
HETATM   18  N1  UNL     1     -22.978   5.300  17.692  1.00  0.00    -0.067 NA
HETATM   19  N2  UNL     1     -24.234   4.667  15.686  1.00  0.00    -0.067 NA
ATOM     20  H3  UNL     1     -21.048   4.408  16.372  1.00  0.00     0.164 HD
ENDBRANCH  15  16
BRANCH  15  21
HETATM   21  O1  UNL     1     -22.403   2.478  14.535  1.00  0.00    -0.372 OA
ATOM     22  H1  UNL     1     -22.320   2.075  15.390  1.00  0.00     0.212 HD
ENDBRANCH  15  21
ENDBRANCH  11  15
BRANCH  12  23
HETATM   23  O4  UNL     1     -20.590   1.759  12.588  1.00  0.00    -0.343 OA
ATOM     24  H4  UNL     1     -20.264   1.185  11.906  1.00  0.00     0.219 HD
ENDBRANCH  12  23
ENDBRANCH   1   7
BRANCH   5  25
HETATM   25  N8  UNL     1     -15.167   3.423   9.603  1.00  0.00    -0.304 N 
HETATM   26  C6  UNL     1     -13.941   3.084   9.490  1.00  0.00     0.158 C 
ATOM     27  H8  UNL     1     -15.512   4.241   9.103  1.00  0.00     0.186 HD
BRANCH  26  28
HETATM   28  C7  UNL     1     -13.446   1.914  10.205  1.00  0.00     0.154 A 
HETATM   29  N9  UNL     1     -13.127   0.718   9.729  1.00  0.00    -0.267 N 
HETATM   30  N10 UNL     1     -12.722  -0.040  10.730  1.00  0.00    -0.218 N 
ATOM     31  H9  UNL     1     -13.185   0.431   8.752  1.00  0.00     0.190 HD
HETATM   32  N11 UNL     1     -12.764   0.622  11.862  1.00  0.00    -0.167 N 
ATOM     33  H10 UNL     1     -12.418  -1.009  10.636  1.00  0.00     0.210 HD
HETATM   34  N15 UNL     1     -13.208   1.824  11.550  1.00  0.00    -0.259 N 
ATOM     35  H15 UNL     1     -13.354   2.581  12.218  1.00  0.00     0.191 HD
BRANCH  32  36
HETATM   36  C8  UNL     1     -12.414   0.175  13.171  1.00  0.00     0.130 A 
HETATM   37  N12 UNL     1     -11.258  -0.308  13.446  1.00  0.00    -0.317 N 
HETATM   38  C9  UNL     1     -10.905  -0.757  14.755  1.00  0.00     0.193 A 
ATOM     39  H12 UNL     1     -10.565  -0.374  12.701  1.00  0.00     0.170 HD
HETATM   40  N13 UNL     1      -9.601  -1.289  15.018  1.00  0.00    -0.063 NA
HETATM   41  N14 UNL     1     -11.777  -0.668  15.672  1.00  0.00    -0.344 N 
HETATM   42  C10 UNL     1     -13.081  -0.167  15.544  1.00  0.00     0.071 A 
ATOM     43  H14 UNL     1     -11.501  -0.994  16.598  1.00  0.00     0.167 HD
HETATM   44  C11 UNL     1     -13.470   0.305  14.198  1.00  0.00     0.124 A 
ENDBRANCH  32  36
ENDBRANCH  26  28
ENDBRANCH   5  25
TORSDOF 9
ENDMDL
