MODEL 1
REMARK VINA RESULT: -7.192436520      0.000      0.000
REMARK  9 active torsions:
REMARK  status: ('A' for Active; 'I' for Inactive)
REMARK    1  A    between atoms: C2_2  and  C3_3 
REMARK    2  A    between atoms: C2_2  and  C6_7 
REMARK    3  A    between atoms: C3_3  and  C4_4 
REMARK    4  A    between atoms: C9_10  and  C10_11 
REMARK    5  A    between atoms: C10_11  and  O2_12 
REMARK    6  A    between atoms: C14_17  and  O3_18 
REMARK    7  A    between atoms: C20_25  and  C21_26 
REMARK    8  A    between atoms: C20_25  and  C23_28 
REMARK    9  A    between atoms: C23_28  and  C24_29 
ROOT
HETATM    1  C6  UNL     1     -27.135 -19.177 -39.261  1.00  0.00     0.014 C 
HETATM    2  C7  UNL     1     -26.194 -19.566 -40.337  1.00  0.00     0.010 C 
HETATM    3  C8  UNL     1     -26.278 -18.829 -41.615  1.00  0.00     0.015 C 
HETATM    4  C9  UNL     1     -27.594 -18.234 -41.964  1.00  0.00     0.012 C 
HETATM    5  C11 UNL     1     -28.448 -17.875 -40.796  1.00  0.00     0.002 C 
HETATM    6  C12 UNL     1     -28.511 -19.023 -39.812  1.00  0.00     0.014 C 
HETATM    7  C13 UNL     1     -27.895 -16.691 -40.031  1.00  0.00     0.037 C 
HETATM    8  C14 UNL     1     -28.523 -15.466 -40.645  1.00  0.00     0.122 C 
HETATM    9  C15 UNL     1     -27.614 -14.893 -41.655  1.00  0.00     0.017 C 
HETATM   10  C16 UNL     1     -28.397 -14.040 -42.614  1.00  0.00     0.013 C 
HETATM   11  C17 UNL     1     -26.738 -15.908 -42.392  1.00  0.00     0.022 C 
HETATM   12  C18 UNL     1     -26.130 -15.063 -43.524  1.00  0.00     0.009 C 
HETATM   13  C19 UNL     1     -24.868 -15.691 -43.951  1.00  0.00     0.020 C 
HETATM   14  C20 UNL     1     -25.036 -16.622 -45.153  1.00  0.00     0.048 C 
HETATM   15  C26 UNL     1     -25.941 -17.731 -44.856  1.00  0.00     0.268 C 
HETATM   16  O4  UNL     1     -25.555 -18.843 -45.301  1.00  0.00    -0.264 OA
HETATM   17  O5  UNL     1     -27.107 -17.590 -44.160  1.00  0.00    -0.314 OA
HETATM   18  C27 UNL     1     -27.450 -17.059 -42.939  1.00  0.00     0.147 C 
ENDROOT
BRANCH   1  19
HETATM   19  C2  UNL     1     -27.114 -20.250 -38.186  1.00  0.00    -0.078 C 
HETATM   20  C1  UNL     1     -28.013 -20.181 -37.259  1.00  0.00     0.015 C 
BRANCH  19  21
HETATM   21  C3  UNL     1     -26.067 -21.240 -38.319  1.00  0.00     0.111 C 
BRANCH  21  22
HETATM   22  C4  UNL     1     -26.422 -22.656 -38.305  1.00  0.00     0.127 C 
HETATM   23  C5  UNL     1     -26.611 -23.284 -39.689  1.00  0.00     0.091 C 
HETATM   24  O1  UNL     1     -26.592 -23.416 -37.402  1.00  0.00    -0.298 OA
ENDBRANCH  21  22
ENDBRANCH  19  21
ENDBRANCH   1  19
BRANCH   4  25
HETATM   25  C10 UNL     1     -28.383 -19.281 -42.768  1.00  0.00     0.176 C 
BRANCH  25  26
HETATM   26  O2  UNL     1     -27.421 -20.205 -43.215  1.00  0.00    -0.400 OA
ATOM     27  H2  UNL     1     -27.838 -21.055 -43.139  1.00  0.00     0.209 HD
ENDBRANCH  25  26
ENDBRANCH   4  25
BRANCH   8  28
HETATM   28  O3  UNL     1     -28.760 -14.546 -39.612  1.00  0.00    -0.395 OA
ATOM     29  H3  UNL     1     -29.026 -15.038 -38.844  1.00  0.00     0.210 HD
ENDBRANCH   8  28
BRANCH  14  30
HETATM   30  C21 UNL     1     -23.634 -17.100 -45.450  1.00  0.00     0.015 C 
HETATM   31  C22 UNL     1     -22.668 -17.021 -44.359  1.00  0.00     0.006 C 
ENDBRANCH  14  30
BRANCH  14  32
HETATM   32  C23 UNL     1     -25.574 -15.877 -46.334  1.00  0.00     0.019 C 
BRANCH  32  33
HETATM   33  C24 UNL     1     -26.003 -16.779 -47.468  1.00  0.00    -0.003 C 
HETATM   34  C25 UNL     1     -27.505 -16.659 -47.662  1.00  0.00     0.005 C 
ENDBRANCH  32  33
ENDBRANCH  14  32
TORSDOF 9
ENDMDL
MODEL 2
REMARK VINA RESULT: -7.097076525      1.954      7.004
REMARK  9 active torsions:
REMARK  status: ('A' for Active; 'I' for Inactive)
REMARK    1  A    between atoms: C2_2  and  C3_3 
REMARK    2  A    between atoms: C2_2  and  C6_7 
REMARK    3  A    between atoms: C3_3  and  C4_4 
REMARK    4  A    between atoms: C9_10  and  C10_11 
REMARK    5  A    between atoms: C10_11  and  O2_12 
REMARK    6  A    between atoms: C14_17  and  O3_18 
REMARK    7  A    between atoms: C20_25  and  C21_26 
REMARK    8  A    between atoms: C20_25  and  C23_28 
REMARK    9  A    between atoms: C23_28  and  C24_29 
ROOT
HETATM    1  C6  UNL     1     -25.951 -16.652 -45.251  1.00  0.00     0.014 C 
HETATM    2  C7  UNL     1     -25.943 -18.030 -44.706  1.00  0.00     0.010 C 
HETATM    3  C8  UNL     1     -26.165 -18.189 -43.253  1.00  0.00     0.015 C 
HETATM    4  C9  UNL     1     -25.777 -17.049 -42.384  1.00  0.00     0.012 C 
HETATM    5  C11 UNL     1     -25.835 -15.712 -43.042  1.00  0.00     0.002 C 
HETATM    6  C12 UNL     1     -25.138 -15.752 -44.385  1.00  0.00     0.014 C 
HETATM    7  C13 UNL     1     -27.258 -15.274 -43.316  1.00  0.00     0.037 C 
HETATM    8  C14 UNL     1     -27.699 -14.501 -42.100  1.00  0.00     0.122 C 
HETATM    9  C15 UNL     1     -28.435 -15.390 -41.182  1.00  0.00     0.017 C 
HETATM   10  C16 UNL     1     -28.415 -14.815 -39.794  1.00  0.00     0.013 C 
HETATM   11  C17 UNL     1     -27.983 -16.852 -41.191  1.00  0.00     0.022 C 
HETATM   12  C18 UNL     1     -28.727 -17.438 -39.979  1.00  0.00     0.009 C 
HETATM   13  C19 UNL     1     -28.874 -18.890 -40.177  1.00  0.00     0.020 C 
HETATM   14  C20 UNL     1     -27.767 -19.703 -39.503  1.00  0.00     0.048 C 
HETATM   15  C26 UNL     1     -26.448 -19.371 -40.037  1.00  0.00     0.268 C 
HETATM   16  O4  UNL     1     -25.704 -20.366 -40.227  1.00  0.00    -0.264 OA
HETATM   17  O5  UNL     1     -26.043 -18.095 -40.308  1.00  0.00    -0.314 OA
HETATM   18  C27 UNL     1     -26.544 -17.056 -41.056  1.00  0.00     0.147 C 
ENDROOT
BRANCH   1  19
HETATM   19  C2  UNL     1     -25.384 -16.684 -46.660  1.00  0.00    -0.078 C 
HETATM   20  C1  UNL     1     -24.130 -16.972 -46.791  1.00  0.00     0.015 C 
BRANCH  19  21
HETATM   21  C3  UNL     1     -26.325 -16.373 -47.714  1.00  0.00     0.111 C 
BRANCH  21  22
HETATM   22  C4  UNL     1     -27.556 -17.152 -47.820  1.00  0.00     0.127 C 
HETATM   23  C5  UNL     1     -27.357 -18.616 -48.222  1.00  0.00     0.091 C 
HETATM   24  O1  UNL     1     -28.696 -16.849 -47.647  1.00  0.00    -0.298 OA
ENDBRANCH  21  22
ENDBRANCH  19  21
ENDBRANCH   1  19
BRANCH   4  25
HETATM   25  C10 UNL     1     -24.313 -17.257 -41.962  1.00  0.00     0.176 C 
BRANCH  25  26
HETATM   26  O2  UNL     1     -24.056 -18.623 -42.185  1.00  0.00    -0.400 OA
ATOM     27  H2  UNL     1     -23.159 -18.660 -42.495  1.00  0.00     0.209 HD
ENDBRANCH  25  26
ENDBRANCH   4  25
BRANCH   8  28
HETATM   28  O3  UNL     1     -28.519 -13.451 -42.539  1.00  0.00    -0.395 OA
ATOM     29  H3  UNL     1     -29.401 -13.626 -42.230  1.00  0.00     0.210 HD
ENDBRANCH   8  28
BRANCH  14  30
HETATM   30  C21 UNL     1     -28.144 -21.141 -39.780  1.00  0.00     0.015 C 
HETATM   31  C22 UNL     1     -29.061 -21.377 -40.890  1.00  0.00     0.006 C 
ENDBRANCH  14  30
BRANCH  14  32
HETATM   32  C23 UNL     1     -27.753 -19.464 -38.026  1.00  0.00     0.019 C 
BRANCH  32  33
HETATM   33  C24 UNL     1     -28.304 -20.620 -37.225  1.00  0.00    -0.003 C 
HETATM   34  C25 UNL     1     -29.787 -20.399 -36.978  1.00  0.00     0.005 C 
ENDBRANCH  32  33
ENDBRANCH  14  32
TORSDOF 9
ENDMDL
MODEL 3
REMARK VINA RESULT: -7.072895980      1.900      6.998
REMARK  9 active torsions:
REMARK  status: ('A' for Active; 'I' for Inactive)
REMARK    1  A    between atoms: C2_2  and  C3_3 
REMARK    2  A    between atoms: C2_2  and  C6_7 
REMARK    3  A    between atoms: C3_3  and  C4_4 
REMARK    4  A    between atoms: C9_10  and  C10_11 
REMARK    5  A    between atoms: C10_11  and  O2_12 
REMARK    6  A    between atoms: C14_17  and  O3_18 
REMARK    7  A    between atoms: C20_25  and  C21_26 
REMARK    8  A    between atoms: C20_25  and  C23_28 
REMARK    9  A    between atoms: C23_28  and  C24_29 
ROOT
HETATM    1  C6  UNL     1     -27.078 -16.895 -45.630  1.00  0.00     0.014 C 
HETATM    2  C7  UNL     1     -26.478 -18.221 -45.353  1.00  0.00     0.010 C 
HETATM    3  C8  UNL     1     -26.272 -18.594 -43.937  1.00  0.00     0.015 C 
HETATM    4  C9  UNL     1     -26.087 -17.483 -42.969  1.00  0.00     0.012 C 
HETATM    5  C11 UNL     1     -26.747 -16.202 -43.353  1.00  0.00     0.002 C 
HETATM    6  C12 UNL     1     -26.427 -15.851 -44.790  1.00  0.00     0.014 C 
HETATM    7  C13 UNL     1     -28.255 -16.290 -43.263  1.00  0.00     0.037 C 
HETATM    8  C14 UNL     1     -28.617 -15.855 -41.866  1.00  0.00     0.122 C 
HETATM    9  C15 UNL     1     -28.767 -17.039 -40.999  1.00  0.00     0.017 C 
HETATM   10  C16 UNL     1     -28.601 -16.637 -39.560  1.00  0.00     0.013 C 
HETATM   11  C17 UNL     1     -27.870 -18.226 -41.357  1.00  0.00     0.022 C 
HETATM   12  C18 UNL     1     -28.055 -19.160 -40.150  1.00  0.00     0.009 C 
HETATM   13  C19 UNL     1     -27.753 -20.538 -40.573  1.00  0.00     0.020 C 
HETATM   14  C20 UNL     1     -26.310 -20.953 -40.282  1.00  0.00     0.048 C 
HETATM   15  C26 UNL     1     -25.350 -20.110 -40.993  1.00  0.00     0.268 C 
HETATM   16  O4  UNL     1     -24.387 -20.741 -41.499  1.00  0.00    -0.264 OA
HETATM   17  O5  UNL     1     -25.473 -18.755 -41.103  1.00  0.00    -0.314 OA
HETATM   18  C27 UNL     1     -26.458 -17.901 -41.541  1.00  0.00     0.147 C 
ENDROOT
BRANCH   1  19
HETATM   19  C2  UNL     1     -26.896 -16.577 -47.104  1.00  0.00    -0.078 C 
HETATM   20  C1  UNL     1     -25.742 -16.132 -47.478  1.00  0.00     0.015 C 
BRANCH  19  21
HETATM   21  C3  UNL     1     -28.058 -16.805 -47.935  1.00  0.00     0.111 C 
BRANCH  21  22
HETATM   22  C4  UNL     1     -28.310 -18.146 -48.453  1.00  0.00     0.127 C 
HETATM   23  C5  UNL     1     -29.309 -18.972 -47.637  1.00  0.00     0.091 C 
HETATM   24  O1  UNL     1     -27.875 -18.716 -49.405  1.00  0.00    -0.298 OA
ENDBRANCH  21  22
ENDBRANCH  19  21
ENDBRANCH   1  19
BRANCH   4  25
HETATM   25  C10 UNL     1     -24.582 -17.183 -42.882  1.00  0.00     0.176 C 
BRANCH  25  26
HETATM   26  O2  UNL     1     -23.947 -18.324 -43.406  1.00  0.00    -0.400 OA
ATOM     27  H2  UNL     1     -23.588 -18.777 -42.653  1.00  0.00     0.209 HD
ENDBRANCH  25  26
ENDBRANCH   4  25
BRANCH   8  28
HETATM   28  O3  UNL     1     -29.822 -15.140 -41.942  1.00  0.00    -0.395 OA
ATOM     29  H3  UNL     1     -30.412 -15.499 -41.289  1.00  0.00     0.210 HD
ENDBRANCH   8  28
BRANCH  14  30
HETATM   30  C21 UNL     1     -26.241 -22.393 -40.736  1.00  0.00     0.015 C 
HETATM   31  C22 UNL     1     -27.287 -22.846 -41.647  1.00  0.00     0.006 C 
ENDBRANCH  14  30
BRANCH  14  32
HETATM   32  C23 UNL     1     -26.016 -20.873 -38.817  1.00  0.00     0.019 C 
BRANCH  32  33
HETATM   33  C24 UNL     1     -26.279 -22.165 -38.081  1.00  0.00    -0.003 C 
HETATM   34  C25 UNL     1     -27.610 -22.067 -37.354  1.00  0.00     0.005 C 
ENDBRANCH  32  33
ENDBRANCH  14  32
TORSDOF 9
ENDMDL
MODEL 4
REMARK VINA RESULT: -7.020616299      1.818      6.943
REMARK  9 active torsions:
REMARK  status: ('A' for Active; 'I' for Inactive)
REMARK    1  A    between atoms: C2_2  and  C3_3 
REMARK    2  A    between atoms: C2_2  and  C6_7 
REMARK    3  A    between atoms: C3_3  and  C4_4 
REMARK    4  A    between atoms: C9_10  and  C10_11 
REMARK    5  A    between atoms: C10_11  and  O2_12 
REMARK    6  A    between atoms: C14_17  and  O3_18 
REMARK    7  A    between atoms: C20_25  and  C21_26 
REMARK    8  A    between atoms: C20_25  and  C23_28 
REMARK    9  A    between atoms: C23_28  and  C24_29 
ROOT
HETATM    1  C6  UNL     1     -26.269 -16.402 -44.882  1.00  0.00     0.014 C 
HETATM    2  C7  UNL     1     -26.082 -17.801 -44.431  1.00  0.00     0.010 C 
HETATM    3  C8  UNL     1     -26.337 -18.097 -43.005  1.00  0.00     0.015 C 
HETATM    4  C9  UNL     1     -26.155 -16.980 -42.043  1.00  0.00     0.012 C 
HETATM    5  C11 UNL     1     -26.380 -15.621 -42.612  1.00  0.00     0.002 C 
HETATM    6  C12 UNL     1     -25.632 -15.461 -43.917  1.00  0.00     0.014 C 
HETATM    7  C13 UNL     1     -27.840 -15.371 -42.926  1.00  0.00     0.037 C 
HETATM    8  C14 UNL     1     -28.437 -14.760 -41.685  1.00  0.00     0.122 C 
HETATM    9  C15 UNL     1     -29.073 -15.811 -40.868  1.00  0.00     0.017 C 
HETATM   10  C16 UNL     1     -29.193 -15.343 -39.445  1.00  0.00     0.013 C 
HETATM   11  C17 UNL     1     -28.413 -17.189 -40.953  1.00  0.00     0.022 C 
HETATM   12  C18 UNL     1     -29.111 -17.963 -39.822  1.00  0.00     0.009 C 
HETATM   13  C19 UNL     1     -29.036 -19.402 -40.125  1.00  0.00     0.020 C 
HETATM   14  C20 UNL     1     -27.851 -20.098 -39.451  1.00  0.00     0.048 C 
HETATM   15  C26 UNL     1     -26.574 -19.542 -39.894  1.00  0.00     0.268 C 
HETATM   16  O4  UNL     1     -25.686 -20.404 -40.114  1.00  0.00    -0.264 OA
HETATM   17  O5  UNL     1     -26.349 -18.205 -40.058  1.00  0.00    -0.314 OA
HETATM   18  C27 UNL     1     -26.965 -17.195 -40.758  1.00  0.00     0.147 C 
ENDROOT
BRANCH   1  19
HETATM   19  C2  UNL     1     -25.647 -16.248 -46.259  1.00  0.00    -0.078 C 
HETATM   20  C1  UNL     1     -26.418 -16.414 -47.283  1.00  0.00     0.015 C 
BRANCH  19  21
HETATM   21  C3  UNL     1     -24.234 -15.934 -46.269  1.00  0.00     0.111 C 
BRANCH  21  22
HETATM   22  C4  UNL     1     -23.264 -17.025 -46.276  1.00  0.00     0.127 C 
HETATM   23  C5  UNL     1     -22.544 -17.252 -44.943  1.00  0.00     0.091 C 
HETATM   24  O1  UNL     1     -22.931 -17.776 -47.139  1.00  0.00    -0.298 OA
ENDBRANCH  21  22
ENDBRANCH  19  21
ENDBRANCH   1  19
BRANCH   4  25
HETATM   25  C10 UNL     1     -24.695 -17.009 -41.562  1.00  0.00     0.176 C 
BRANCH  25  26
HETATM   26  O2  UNL     1     -24.223 -18.294 -41.889  1.00  0.00    -0.400 OA
ATOM     27  H2  UNL     1     -24.332 -18.367 -42.830  1.00  0.00     0.209 HD
ENDBRANCH  25  26
ENDBRANCH   4  25
BRANCH   8  28
HETATM   28  O3  UNL     1     -29.384 -13.809 -42.093  1.00  0.00    -0.395 OA
ATOM     29  H3  UNL     1     -30.070 -14.268 -42.564  1.00  0.00     0.210 HD
ENDBRANCH   8  28
BRANCH  14  30
HETATM   30  C21 UNL     1     -28.002 -21.549 -39.844  1.00  0.00     0.015 C 
HETATM   31  C22 UNL     1     -28.832 -21.831 -41.010  1.00  0.00     0.006 C 
ENDBRANCH  14  30
BRANCH  14  32
HETATM   32  C23 UNL     1     -27.932 -19.969 -37.963  1.00  0.00     0.019 C 
BRANCH  32  33
HETATM   33  C24 UNL     1     -29.123 -20.678 -37.362  1.00  0.00    -0.003 C 
HETATM   34  C25 UNL     1     -28.650 -21.599 -36.250  1.00  0.00     0.005 C 
ENDBRANCH  32  33
ENDBRANCH  14  32
TORSDOF 9
ENDMDL
MODEL 5
REMARK VINA RESULT: -6.952934092      2.655      4.782
REMARK  9 active torsions:
REMARK  status: ('A' for Active; 'I' for Inactive)
REMARK    1  A    between atoms: C2_2  and  C3_3 
REMARK    2  A    between atoms: C2_2  and  C6_7 
REMARK    3  A    between atoms: C3_3  and  C4_4 
REMARK    4  A    between atoms: C9_10  and  C10_11 
REMARK    5  A    between atoms: C10_11  and  O2_12 
REMARK    6  A    between atoms: C14_17  and  O3_18 
REMARK    7  A    between atoms: C20_25  and  C21_26 
REMARK    8  A    between atoms: C20_25  and  C23_28 
REMARK    9  A    between atoms: C23_28  and  C24_29 
ROOT
HETATM    1  C6  UNL     1     -29.048 -15.961 -40.785  1.00  0.00     0.014 C 
HETATM    2  C7  UNL     1     -27.581 -15.795 -40.911  1.00  0.00     0.010 C 
HETATM    3  C8  UNL     1     -26.924 -16.405 -42.087  1.00  0.00     0.015 C 
HETATM    4  C9  UNL     1     -27.588 -17.589 -42.689  1.00  0.00     0.012 C 
HETATM    5  C11 UNL     1     -29.067 -17.639 -42.506  1.00  0.00     0.002 C 
HETATM    6  C12 UNL     1     -29.431 -17.375 -41.061  1.00  0.00     0.014 C 
HETATM    7  C13 UNL     1     -29.777 -16.581 -43.322  1.00  0.00     0.037 C 
HETATM    8  C14 UNL     1     -30.096 -17.220 -44.650  1.00  0.00     0.122 C 
HETATM    9  C15 UNL     1     -29.045 -16.885 -45.629  1.00  0.00     0.017 C 
HETATM   10  C16 UNL     1     -29.050 -17.895 -46.742  1.00  0.00     0.013 C 
HETATM   11  C17 UNL     1     -27.643 -16.703 -45.043  1.00  0.00     0.022 C 
HETATM   12  C18 UNL     1     -26.762 -16.638 -46.301  1.00  0.00     0.009 C 
HETATM   13  C19 UNL     1     -25.527 -15.907 -45.971  1.00  0.00     0.020 C 
HETATM   14  C20 UNL     1     -24.369 -16.828 -45.582  1.00  0.00     0.048 C 
HETATM   15  C26 UNL     1     -24.681 -17.618 -44.393  1.00  0.00     0.268 C 
HETATM   16  O4  UNL     1     -23.732 -17.712 -43.573  1.00  0.00    -0.264 OA
HETATM   17  O5  UNL     1     -25.892 -18.211 -44.177  1.00  0.00    -0.314 OA
HETATM   18  C27 UNL     1     -27.197 -17.777 -44.160  1.00  0.00     0.147 C 
ENDROOT
BRANCH   1  19
HETATM   19  C2  UNL     1     -29.463 -15.566 -39.379  1.00  0.00    -0.078 C 
HETATM   20  C1  UNL     1     -29.161 -16.377 -38.418  1.00  0.00     0.015 C 
BRANCH  19  21
HETATM   21  C3  UNL     1     -30.170 -14.308 -39.272  1.00  0.00     0.111 C 
BRANCH  21  22
HETATM   22  C4  UNL     1     -31.600 -14.319 -38.976  1.00  0.00     0.127 C 
HETATM   23  C5  UNL     1     -32.125 -13.050 -38.299  1.00  0.00     0.091 C 
HETATM   24  O1  UNL     1     -32.437 -15.146 -39.169  1.00  0.00    -0.298 OA
ENDBRANCH  21  22
ENDBRANCH  19  21
ENDBRANCH   1  19
BRANCH   4  25
HETATM   25  C10 UNL     1     -27.026 -18.843 -41.999  1.00  0.00     0.176 C 
BRANCH  25  26
HETATM   26  O2  UNL     1     -25.834 -18.422 -41.382  1.00  0.00    -0.400 OA
ATOM     27  H2  UNL     1     -25.971 -17.505 -41.176  1.00  0.00     0.209 HD
ENDBRANCH  25  26
ENDBRANCH   4  25
BRANCH   8  28
HETATM   28  O3  UNL     1     -31.341 -16.728 -45.070  1.00  0.00    -0.395 OA
ATOM     29  H3  UNL     1     -31.743 -17.393 -45.617  1.00  0.00     0.210 HD
ENDBRANCH   8  28
BRANCH  14  30
HETATM   30  C21 UNL     1     -23.211 -15.886 -45.346  1.00  0.00     0.015 C 
HETATM   31  C22 UNL     1     -23.544 -14.499 -45.037  1.00  0.00     0.006 C 
ENDBRANCH  14  30
BRANCH  14  32
HETATM   32  C23 UNL     1     -24.034 -17.766 -46.698  1.00  0.00     0.019 C 
BRANCH  32  33
HETATM   33  C24 UNL     1     -22.658 -17.541 -47.279  1.00  0.00    -0.003 C 
HETATM   34  C25 UNL     1     -22.784 -17.228 -48.761  1.00  0.00     0.005 C 
ENDBRANCH  32  33
ENDBRANCH  14  32
TORSDOF 9
ENDMDL
