MODEL 1
REMARK VINA RESULT: -4.189991616      0.000      0.000
REMARK  1 active torsions:
REMARK  status: ('A' for Active; 'I' for Inactive)
REMARK    1  A    between atoms: C4_6  and  C5_7 
ROOT
HETATM    1  C1  UNL     1      17.795  19.402  16.433  1.00  0.00     0.017 C 
HETATM    2  C2  UNL     1      16.560  18.950  16.631  1.00  0.00    -0.054 C 
HETATM    3  C3  UNL     1      15.503  19.032  15.556  1.00  0.00     0.121 C 
HETATM    4  S1  UNL     1      14.320  20.230  16.311  1.00  0.00    -0.092 SA
HETATM    5  S2  UNL     1      14.727  19.588  18.341  1.00  0.00    -0.077 SA
HETATM    6  C4  UNL     1      15.961  18.320  17.824  1.00  0.00     0.188 C 
ENDROOT
BRANCH   6   7
HETATM    7  C5  UNL     1      16.897  18.015  18.880  1.00  0.00     0.192 C 
HETATM    8  O1  UNL     1      17.156  16.828  19.178  1.00  0.00    -0.647 OA
HETATM    9  O2  UNL     1      17.525  19.025  19.581  1.00  0.00    -0.647 OA
ENDBRANCH   6   7
TORSDOF 1
ENDMDL
MODEL 2
REMARK VINA RESULT: -4.124107740      2.367      3.225
REMARK  1 active torsions:
REMARK  status: ('A' for Active; 'I' for Inactive)
REMARK    1  A    between atoms: C4_6  and  C5_7 
ROOT
HETATM    1  C1  UNL     1      17.077  17.197  17.982  1.00  0.00     0.017 C 
HETATM    2  C2  UNL     1      16.798  18.475  17.734  1.00  0.00    -0.054 C 
HETATM    3  C3  UNL     1      16.170  19.366  18.779  1.00  0.00     0.121 C 
HETATM    4  S1  UNL     1      14.522  19.698  18.019  1.00  0.00    -0.092 SA
HETATM    5  S2  UNL     1      15.271  19.617  15.986  1.00  0.00    -0.077 SA
HETATM    6  C4  UNL     1      17.005  19.270  16.508  1.00  0.00     0.188 C 
ENDROOT
BRANCH   6   7
HETATM    7  C5  UNL     1      17.757  18.600  15.473  1.00  0.00     0.192 C 
HETATM    8  O1  UNL     1      19.007  18.606  15.491  1.00  0.00    -0.647 OA
HETATM    9  O2  UNL     1      17.112  17.939  14.447  1.00  0.00    -0.647 OA
ENDBRANCH   6   7
TORSDOF 1
ENDMDL
MODEL 3
REMARK VINA RESULT: -4.085547702      2.374      3.139
REMARK  1 active torsions:
REMARK  status: ('A' for Active; 'I' for Inactive)
REMARK    1  A    between atoms: C4_6  and  C5_7 
ROOT
HETATM    1  C1  UNL     1      17.069  17.210  17.965  1.00  0.00     0.017 C 
HETATM    2  C2  UNL     1      16.774  18.484  17.717  1.00  0.00    -0.054 C 
HETATM    3  C3  UNL     1      16.167  19.377  18.772  1.00  0.00     0.121 C 
HETATM    4  S1  UNL     1      14.496  19.691  18.053  1.00  0.00    -0.092 SA
HETATM    5  S2  UNL     1      15.194  19.603  16.002  1.00  0.00    -0.077 SA
HETATM    6  C4  UNL     1      16.944  19.273  16.482  1.00  0.00     0.188 C 
ENDROOT
BRANCH   6   7
HETATM    7  C5  UNL     1      17.674  18.602  15.432  1.00  0.00     0.192 C 
HETATM    8  O1  UNL     1      17.067  18.048  14.489  1.00  0.00    -0.647 OA
HETATM    9  O2  UNL     1      19.054  18.560  15.447  1.00  0.00    -0.647 OA
ENDBRANCH   6   7
TORSDOF 1
ENDMDL
MODEL 4
REMARK VINA RESULT: -3.802972435      2.977      3.672
REMARK  1 active torsions:
REMARK  status: ('A' for Active; 'I' for Inactive)
REMARK    1  A    between atoms: C4_6  and  C5_7 
ROOT
HETATM    1  C1  UNL     1      16.048  18.754  15.183  1.00  0.00     0.017 C 
HETATM    2  C2  UNL     1      16.218  19.353  16.360  1.00  0.00    -0.054 C 
HETATM    3  C3  UNL     1      17.573  19.433  17.021  1.00  0.00     0.121 C 
HETATM    4  S1  UNL     1      17.306  18.374  18.508  1.00  0.00    -0.092 SA
HETATM    5  S2  UNL     1      15.214  18.906  18.701  1.00  0.00    -0.077 SA
HETATM    6  C4  UNL     1      15.234  20.021  17.234  1.00  0.00     0.188 C 
ENDROOT
BRANCH   6   7
HETATM    7  C5  UNL     1      13.920  20.178  16.655  1.00  0.00     0.192 C 
HETATM    8  O1  UNL     1      13.726  20.997  15.731  1.00  0.00    -0.647 OA
HETATM    9  O2  UNL     1      12.855  19.426  17.109  1.00  0.00    -0.647 OA
ENDBRANCH   6   7
TORSDOF 1
ENDMDL
MODEL 5
REMARK VINA RESULT: -3.484726186      2.177      2.949
REMARK  1 active torsions:
REMARK  status: ('A' for Active; 'I' for Inactive)
REMARK    1  A    between atoms: C4_6  and  C5_7 
ROOT
HETATM    1  C1  UNL     1      16.147  17.728  18.504  1.00  0.00     0.017 C 
HETATM    2  C2  UNL     1      15.787  18.916  18.026  1.00  0.00    -0.054 C 
HETATM    3  C3  UNL     1      14.929  19.867  18.826  1.00  0.00     0.121 C 
HETATM    4  S1  UNL     1      13.387  19.893  17.812  1.00  0.00    -0.092 SA
HETATM    5  S2  UNL     1      14.434  19.613  15.934  1.00  0.00    -0.077 SA
HETATM    6  C4  UNL     1      16.097  19.549  16.729  1.00  0.00     0.188 C 
ENDROOT
BRANCH   6   7
HETATM    7  C5  UNL     1      17.054  18.832  15.920  1.00  0.00     0.192 C 
HETATM    8  O1  UNL     1      16.728  18.378  14.801  1.00  0.00    -0.647 OA
HETATM    9  O2  UNL     1      18.346  18.635  16.364  1.00  0.00    -0.647 OA
ENDBRANCH   6   7
TORSDOF 1
ENDMDL
