MODEL 1
REMARK VINA RESULT: -9.083487920      0.000      0.000
REMARK  7 active torsions:
REMARK  status: ('A' for Active; 'I' for Inactive)
REMARK    1  A    between atoms: C3_3  and  N1_4 
REMARK    2  A    between atoms: N1_4  and  C4_6 
REMARK    3  A    between atoms: C5_9  and  N3_10 
REMARK    4  A    between atoms: N3_10  and  C6_12 
REMARK    5  A    between atoms: C9_16  and  C10_17 
REMARK    6  A    between atoms: C17_35  and  N9_36 
REMARK    7  A    between atoms: N9_36  and  O3_38 
ROOT
HETATM    1  C4  UNL     1      11.166  75.526  -5.133  1.00  0.00     0.138 A 
HETATM    2  N2  UNL     1      12.056  76.369  -5.660  1.00  0.00    -0.176 N 
ATOM      3  H2  UNL     1      12.896  76.560  -5.113  1.00  0.00     0.186 HD
HETATM    4  C5  UNL     1      11.944  76.985  -6.842  1.00  0.00     0.681 A 
HETATM    5  N5  UNL     1      10.843  76.744  -7.575  1.00  0.00    -0.189 N 
ATOM      6  H5  UNL     1      10.724  77.196  -8.482  1.00  0.00     0.184 HD
HETATM    7  C11 UNL     1       9.892  75.898  -7.105  1.00  0.00     0.089 A 
HETATM    8  C12 UNL     1       8.749  75.629  -7.834  1.00  0.00     0.088 A 
HETATM    9  C13 UNL     1       8.527  76.230  -9.103  1.00  0.00     0.103 C 
HETATM   10  N6  UNL     1       8.338  76.701 -10.144  1.00  0.00    -0.191 NA
HETATM   11  C14 UNL     1       7.783  74.760  -7.340  1.00  0.00     0.114 A 
HETATM   12  N7  UNL     1       7.949  74.173  -6.151  1.00  0.00    -0.350 N 
ATOM     13  H7  UNL     1       7.236  73.536  -5.796  1.00  0.00     0.166 HD
HETATM   14  C15 UNL     1       9.043  74.412  -5.424  1.00  0.00     0.115 A 
HETATM   15  N8  UNL     1       9.151  73.816  -4.279  1.00  0.00    -0.385 N 
ATOM     16  H81 UNL     1       9.987  73.999  -3.724  1.00  0.00     0.157 HD
ATOM     17  H82 UNL     1       8.427  73.182  -3.942  1.00  0.00     0.157 HD
HETATM   18  C16 UNL     1      10.029  75.274  -5.883  1.00  0.00     0.081 A 
ENDROOT
BRANCH   4  19
HETATM   19  N3  UNL     1      12.944  77.867  -7.323  1.00  0.00    -0.212 N 
ATOM     20  H3  UNL     1      13.420  77.592  -8.183  1.00  0.00     0.179 HD
BRANCH  19  21
HETATM   21  C6  UNL     1      13.351  79.088  -6.737  1.00  0.00     0.169 C 
HETATM   22  C7  UNL     1      13.440  79.084  -5.224  1.00  0.00     0.116 C 
HETATM   23  C8  UNL     1      14.133  80.373  -4.944  1.00  0.00     0.152 C 
HETATM   24  O1  UNL     1      13.651  81.280  -4.296  1.00  0.00    -0.296 OA
HETATM   25  C9  UNL     1      15.485  80.390  -5.564  1.00  0.00     0.207 C 
HETATM   26  S1  UNL     1      15.110  79.481  -7.121  1.00  0.00    -0.121 SA
BRANCH  25  27
HETATM   27  C10 UNL     1      15.899  81.768  -5.936  1.00  0.00     0.252 C 
HETATM   28  N4  UNL     1      15.779  82.189  -7.286  1.00  0.00    -0.061 NA
HETATM   29  O2  UNL     1      16.359  82.596  -5.105  1.00  0.00    -0.275 OA
ENDBRANCH  25  27
ENDBRANCH  19  21
ENDBRANCH   4  19
BRANCH   1  30
HETATM   30  N1  UNL     1      11.285  74.948  -4.008  1.00  0.00    -0.338 N 
ATOM     31  H1  UNL     1      10.421  74.761  -3.497  1.00  0.00     0.167 HD
BRANCH  30  32
HETATM   32  C3  UNL     1      12.476  74.539  -3.394  1.00  0.00     0.086 A 
HETATM   33  C2  UNL     1      13.421  75.258  -2.685  1.00  0.00     0.036 A 
HETATM   34  C1  UNL     1      13.297  76.723  -2.447  1.00  0.00     0.071 C 
HETATM   35  N10 UNL     1      14.404  74.417  -2.285  1.00  0.00    -0.360 N 
HETATM   36  C18 UNL     1      14.139  73.162  -2.708  1.00  0.00     0.124 A 
HETATM   37  C19 UNL     1      15.564  74.801  -1.521  1.00  0.00     0.155 C 
HETATM   38  C17 UNL     1      12.945  73.239  -3.395  1.00  0.00     0.098 A 
BRANCH  38  39
HETATM   39  N9  UNL     1      12.326  72.104  -4.002  1.00  0.00    -0.266 N 
ATOM     40  H9  UNL     1      12.809  71.530  -4.693  1.00  0.00     0.194 HD
BRANCH  39  41
HETATM   41  O3  UNL     1      11.150  71.855  -3.633  1.00  0.00    -0.289 OA
ATOM     42  H3  UNL     1      11.061  71.272  -2.889  1.00  0.00     0.244 HD
ENDBRANCH  39  41
ENDBRANCH  38  39
ENDBRANCH  30  32
ENDBRANCH   1  30
TORSDOF 7
ENDMDL
MODEL 2
REMARK VINA RESULT: -8.887622829      3.053      6.701
REMARK  7 active torsions:
REMARK  status: ('A' for Active; 'I' for Inactive)
REMARK    1  A    between atoms: C3_3  and  N1_4 
REMARK    2  A    between atoms: N1_4  and  C4_6 
REMARK    3  A    between atoms: C5_9  and  N3_10 
REMARK    4  A    between atoms: N3_10  and  C6_12 
REMARK    5  A    between atoms: C9_16  and  C10_17 
REMARK    6  A    between atoms: C17_35  and  N9_36 
REMARK    7  A    between atoms: N9_36  and  O3_38 
ROOT
HETATM    1  C4  UNL     1      12.949  77.274  -5.080  1.00  0.00     0.138 A 
HETATM    2  N2  UNL     1      12.116  77.001  -6.085  1.00  0.00    -0.176 N 
ATOM      3  H2  UNL     1      11.488  76.206  -5.966  1.00  0.00     0.186 HD
HETATM    4  C5  UNL     1      12.032  77.677  -7.236  1.00  0.00     0.681 A 
HETATM    5  N5  UNL     1      12.853  78.728  -7.409  1.00  0.00    -0.189 N 
ATOM      6  H5  UNL     1      12.818  79.268  -8.274  1.00  0.00     0.184 HD
HETATM    7  C11 UNL     1      13.731  79.067  -6.431  1.00  0.00     0.089 A 
HETATM    8  C12 UNL     1      14.588  80.140  -6.578  1.00  0.00     0.088 A 
HETATM    9  C13 UNL     1      14.584  80.929  -7.761  1.00  0.00     0.103 C 
HETATM   10  N6  UNL     1      14.585  81.589  -8.713  1.00  0.00    -0.191 NA
HETATM   11  C14 UNL     1      15.481  80.477  -5.567  1.00  0.00     0.114 A 
HETATM   12  N7  UNL     1      15.520  79.763  -4.437  1.00  0.00    -0.350 N 
ATOM     13  H7  UNL     1      16.178  80.016  -3.700  1.00  0.00     0.166 HD
HETATM   14  C15 UNL     1      14.704  78.720  -4.266  1.00  0.00     0.115 A 
HETATM   15  N8  UNL     1      14.785  78.065  -3.151  1.00  0.00    -0.385 N 
ATOM     16  H81 UNL     1      14.161  77.269  -3.021  1.00  0.00     0.157 HD
ATOM     17  H82 UNL     1      15.449  78.334  -2.426  1.00  0.00     0.157 HD
HETATM   18  C16 UNL     1      13.799  78.354  -5.252  1.00  0.00     0.081 A 
ENDROOT
BRANCH   4  19
HETATM   19  N3  UNL     1      11.112  77.314  -8.252  1.00  0.00    -0.212 N 
ATOM     20  H3  UNL     1      11.497  77.175  -9.187  1.00  0.00     0.179 HD
BRANCH  19  21
HETATM   21  C6  UNL     1       9.719  77.124  -8.106  1.00  0.00     0.169 C 
HETATM   22  C7  UNL     1       8.884  77.476  -9.320  1.00  0.00     0.116 C 
HETATM   23  C8  UNL     1       7.548  76.925  -8.957  1.00  0.00     0.152 C 
HETATM   24  O1  UNL     1       6.543  77.595  -8.841  1.00  0.00    -0.296 OA
HETATM   25  C9  UNL     1       7.620  75.453  -8.761  1.00  0.00     0.207 C 
HETATM   26  S1  UNL     1       9.280  75.339  -7.971  1.00  0.00    -0.121 SA
BRANCH  25  27
HETATM   27  C10 UNL     1       6.618  74.982  -7.771  1.00  0.00     0.252 C 
HETATM   28  N4  UNL     1       7.040  74.657  -6.455  1.00  0.00    -0.061 NA
HETATM   29  O2  UNL     1       5.393  74.853  -8.040  1.00  0.00    -0.275 OA
ENDBRANCH  25  27
ENDBRANCH  19  21
ENDBRANCH   4  19
BRANCH   1  30
HETATM   30  N1  UNL     1      13.019  76.622  -3.992  1.00  0.00    -0.338 N 
ATOM     31  H1  UNL     1      13.104  77.170  -3.135  1.00  0.00     0.167 HD
BRANCH  30  32
HETATM   32  C3  UNL     1      12.993  75.229  -3.843  1.00  0.00     0.086 A 
HETATM   33  C2  UNL     1      11.940  74.333  -3.897  1.00  0.00     0.036 A 
HETATM   34  C1  UNL     1      10.536  74.765  -4.145  1.00  0.00     0.071 C 
HETATM   35  N10 UNL     1      12.416  73.082  -3.693  1.00  0.00    -0.360 N 
HETATM   36  C18 UNL     1      13.752  73.121  -3.505  1.00  0.00     0.124 A 
HETATM   37  C19 UNL     1      11.616  71.883  -3.678  1.00  0.00     0.155 C 
HETATM   38  C17 UNL     1      14.108  74.452  -3.599  1.00  0.00     0.098 A 
BRANCH  38  39
HETATM   39  N9  UNL     1      15.455  74.905  -3.454  1.00  0.00    -0.266 N 
ATOM     40  H9  UNL     1      16.161  74.737  -4.171  1.00  0.00     0.194 HD
BRANCH  39  41
HETATM   41  O3  UNL     1      15.718  75.523  -2.392  1.00  0.00    -0.289 OA
ATOM     42  H3  UNL     1      16.400  75.147  -1.848  1.00  0.00     0.244 HD
ENDBRANCH  39  41
ENDBRANCH  38  39
ENDBRANCH  30  32
ENDBRANCH   1  30
TORSDOF 7
ENDMDL
MODEL 3
REMARK VINA RESULT: -8.801308969      1.180      1.429
REMARK  7 active torsions:
REMARK  status: ('A' for Active; 'I' for Inactive)
REMARK    1  A    between atoms: C3_3  and  N1_4 
REMARK    2  A    between atoms: N1_4  and  C4_6 
REMARK    3  A    between atoms: C5_9  and  N3_10 
REMARK    4  A    between atoms: N3_10  and  C6_12 
REMARK    5  A    between atoms: C9_16  and  C10_17 
REMARK    6  A    between atoms: C17_35  and  N9_36 
REMARK    7  A    between atoms: N9_36  and  O3_38 
ROOT
HETATM    1  C4  UNL     1      11.134  75.410  -5.156  1.00  0.00     0.138 A 
HETATM    2  N2  UNL     1      12.037  76.228  -5.701  1.00  0.00    -0.176 N 
ATOM      3  H2  UNL     1      12.886  76.407  -5.164  1.00  0.00     0.186 HD
HETATM    4  C5  UNL     1      11.926  76.833  -6.888  1.00  0.00     0.681 A 
HETATM    5  N5  UNL     1      10.814  76.608  -7.608  1.00  0.00    -0.189 N 
ATOM      6  H5  UNL     1      10.695  77.053  -8.519  1.00  0.00     0.184 HD
HETATM    7  C11 UNL     1       9.849  75.788  -7.120  1.00  0.00     0.089 A 
HETATM    8  C12 UNL     1       8.693  75.536  -7.834  1.00  0.00     0.088 A 
HETATM    9  C13 UNL     1       8.472  76.127  -9.108  1.00  0.00     0.103 C 
HETATM   10  N6  UNL     1       8.282  76.591 -10.152  1.00  0.00    -0.191 NA
HETATM   11  C14 UNL     1       7.713  74.693  -7.322  1.00  0.00     0.114 A 
HETATM   12  N7  UNL     1       7.879  74.116  -6.128  1.00  0.00    -0.350 N 
ATOM     13  H7  UNL     1       7.156  73.498  -5.759  1.00  0.00     0.166 HD
HETATM   14  C15 UNL     1       8.985  74.340  -5.414  1.00  0.00     0.115 A 
HETATM   15  N8  UNL     1       9.092  73.753  -4.264  1.00  0.00    -0.385 N 
ATOM     16  H81 UNL     1       9.937  73.924  -3.718  1.00  0.00     0.157 HD
ATOM     17  H82 UNL     1       8.357  73.139  -3.912  1.00  0.00     0.157 HD
HETATM   18  C16 UNL     1       9.985  75.175  -5.892  1.00  0.00     0.081 A 
ENDROOT
BRANCH   4  19
HETATM   19  N3  UNL     1      12.940  77.689  -7.389  1.00  0.00    -0.212 N 
ATOM     20  H3  UNL     1      13.042  77.731  -8.403  1.00  0.00     0.179 HD
BRANCH  19  21
HETATM   21  C6  UNL     1      13.825  78.490  -6.630  1.00  0.00     0.169 C 
HETATM   22  C7  UNL     1      14.252  79.788  -7.286  1.00  0.00     0.116 C 
HETATM   23  C8  UNL     1      14.929  80.500  -6.167  1.00  0.00     0.152 C 
HETATM   24  O1  UNL     1      16.097  80.831  -6.177  1.00  0.00    -0.296 OA
HETATM   25  C9  UNL     1      13.982  80.748  -5.048  1.00  0.00     0.207 C 
HETATM   26  S1  UNL     1      13.008  79.186  -5.133  1.00  0.00    -0.121 SA
BRANCH  25  27
HETATM   27  C10 UNL     1      14.678  80.773  -3.736  1.00  0.00     0.252 C 
HETATM   28  N4  UNL     1      15.297  79.589  -3.255  1.00  0.00    -0.061 NA
HETATM   29  O2  UNL     1      14.751  81.804  -3.015  1.00  0.00    -0.275 OA
ENDBRANCH  25  27
ENDBRANCH  19  21
ENDBRANCH   4  19
BRANCH   1  30
HETATM   30  N1  UNL     1      11.251  74.842  -4.026  1.00  0.00    -0.338 N 
ATOM     31  H1  UNL     1      10.386  74.643  -3.523  1.00  0.00     0.167 HD
BRANCH  30  32
HETATM   32  C3  UNL     1      12.444  74.460  -3.397  1.00  0.00     0.086 A 
HETATM   33  C2  UNL     1      13.368  75.201  -2.684  1.00  0.00     0.036 A 
HETATM   34  C1  UNL     1      13.216  76.666  -2.459  1.00  0.00     0.071 C 
HETATM   35  N10 UNL     1      14.362  74.381  -2.267  1.00  0.00    -0.360 N 
HETATM   36  C18 UNL     1      14.124  73.119  -2.682  1.00  0.00     0.124 A 
HETATM   37  C19 UNL     1      15.507  74.793  -1.494  1.00  0.00     0.155 C 
HETATM   38  C17 UNL     1      12.935  73.169  -3.382  1.00  0.00     0.098 A 
BRANCH  38  39
HETATM   39  N9  UNL     1      12.343  72.018  -3.985  1.00  0.00    -0.266 N 
ATOM     40  H9  UNL     1      12.847  71.441  -4.659  1.00  0.00     0.194 HD
BRANCH  39  41
HETATM   41  O3  UNL     1      11.164  71.758  -3.637  1.00  0.00    -0.289 OA
ATOM     42  H3  UNL     1      10.554  71.567  -4.339  1.00  0.00     0.244 HD
ENDBRANCH  39  41
ENDBRANCH  38  39
ENDBRANCH  30  32
ENDBRANCH   1  30
TORSDOF 7
ENDMDL
MODEL 4
REMARK VINA RESULT: -8.765812528      3.280      7.030
REMARK  7 active torsions:
REMARK  status: ('A' for Active; 'I' for Inactive)
REMARK    1  A    between atoms: C3_3  and  N1_4 
REMARK    2  A    between atoms: N1_4  and  C4_6 
REMARK    3  A    between atoms: C5_9  and  N3_10 
REMARK    4  A    between atoms: N3_10  and  C6_12 
REMARK    5  A    between atoms: C9_16  and  C10_17 
REMARK    6  A    between atoms: C17_35  and  N9_36 
REMARK    7  A    between atoms: N9_36  and  O3_38 
ROOT
HETATM    1  C4  UNL     1      13.228  76.900  -5.831  1.00  0.00     0.138 A 
HETATM    2  N2  UNL     1      12.415  77.246  -6.830  1.00  0.00    -0.176 N 
ATOM      3  H2  UNL     1      12.754  77.955  -7.482  1.00  0.00     0.186 HD
HETATM    4  C5  UNL     1      11.194  76.747  -7.052  1.00  0.00     0.681 A 
HETATM    5  N5  UNL     1      10.732  75.813  -6.203  1.00  0.00    -0.189 N 
ATOM      6  H5  UNL     1       9.806  75.409  -6.341  1.00  0.00     0.184 HD
HETATM    7  C11 UNL     1      11.502  75.409  -5.161  1.00  0.00     0.089 A 
HETATM    8  C12 UNL     1      11.057  74.452  -4.270  1.00  0.00     0.088 A 
HETATM    9  C13 UNL     1       9.775  73.854  -4.411  1.00  0.00     0.103 C 
HETATM   10  N6  UNL     1       8.739  73.348  -4.520  1.00  0.00    -0.191 NA
HETATM   11  C14 UNL     1      11.857  74.047  -3.207  1.00  0.00     0.114 A 
HETATM   12  N7  UNL     1      13.070  74.582  -3.035  1.00  0.00    -0.350 N 
ATOM     13  H7  UNL     1      13.651  74.280  -2.253  1.00  0.00     0.166 HD
HETATM   14  C15 UNL     1      13.528  75.510  -3.879  1.00  0.00     0.115 A 
HETATM   15  N8  UNL     1      14.710  75.993  -3.664  1.00  0.00    -0.385 N 
ATOM     16  H81 UNL     1      15.060  76.702  -4.310  1.00  0.00     0.157 HD
ATOM     17  H82 UNL     1      15.276  75.678  -2.876  1.00  0.00     0.157 HD
HETATM   18  C16 UNL     1      12.758  75.939  -4.952  1.00  0.00     0.081 A 
ENDROOT
BRANCH   4  19
HETATM   19  N3  UNL     1      10.398  77.176  -8.144  1.00  0.00    -0.212 N 
ATOM     20  H3  UNL     1      10.896  77.486  -8.979  1.00  0.00     0.179 HD
BRANCH  19  21
HETATM   21  C6  UNL     1       8.985  77.219  -8.198  1.00  0.00     0.169 C 
HETATM   22  C7  UNL     1       8.394  77.486  -9.568  1.00  0.00     0.116 C 
HETATM   23  C8  UNL     1       6.948  77.205  -9.350  1.00  0.00     0.152 C 
HETATM   24  O1  UNL     1       6.065  78.025  -9.491  1.00  0.00    -0.296 OA
HETATM   25  C9  UNL     1       6.742  75.790  -8.940  1.00  0.00     0.207 C 
HETATM   26  S1  UNL     1       8.235  75.566  -7.886  1.00  0.00    -0.121 SA
BRANCH  25  27
HETATM   27  C10 UNL     1       5.549  75.641  -8.067  1.00  0.00     0.252 C 
HETATM   28  N4  UNL     1       5.687  75.012  -6.801  1.00  0.00    -0.061 NA
HETATM   29  O2  UNL     1       4.402  76.049  -8.393  1.00  0.00    -0.275 OA
ENDBRANCH  25  27
ENDBRANCH  19  21
ENDBRANCH   4  19
BRANCH   1  30
HETATM   30  N1  UNL     1      14.386  77.383  -5.631  1.00  0.00    -0.338 N 
ATOM     31  H1  UNL     1      15.150  76.714  -5.533  1.00  0.00     0.167 HD
BRANCH  30  32
HETATM   32  C3  UNL     1      14.725  78.739  -5.531  1.00  0.00     0.086 A 
HETATM   33  C2  UNL     1      14.795  79.575  -4.431  1.00  0.00     0.036 A 
HETATM   34  C1  UNL     1      14.487  79.107  -3.051  1.00  0.00     0.071 C 
HETATM   35  N10 UNL     1      15.172  80.810  -4.841  1.00  0.00    -0.360 N 
HETATM   36  C18 UNL     1      15.353  80.817  -6.178  1.00  0.00     0.124 A 
HETATM   37  C19 UNL     1      15.353  81.950  -3.978  1.00  0.00     0.155 C 
HETATM   38  C17 UNL     1      15.076  79.534  -6.605  1.00  0.00     0.098 A 
BRANCH  38  39
HETATM   39  N9  UNL     1      15.157  79.139  -7.975  1.00  0.00    -0.266 N 
ATOM     40  H9  UNL     1      15.261  79.819  -8.728  1.00  0.00     0.194 HD
BRANCH  39  41
HETATM   41  O3  UNL     1      15.092  77.904  -8.197  1.00  0.00    -0.289 OA
ATOM     42  H3  UNL     1      15.578  77.590  -8.951  1.00  0.00     0.244 HD
ENDBRANCH  39  41
ENDBRANCH  38  39
ENDBRANCH  30  32
ENDBRANCH   1  30
TORSDOF 7
ENDMDL
MODEL 5
REMARK VINA RESULT: -8.685753829      3.393      6.596
REMARK  7 active torsions:
REMARK  status: ('A' for Active; 'I' for Inactive)
REMARK    1  A    between atoms: C3_3  and  N1_4 
REMARK    2  A    between atoms: N1_4  and  C4_6 
REMARK    3  A    between atoms: C5_9  and  N3_10 
REMARK    4  A    between atoms: N3_10  and  C6_12 
REMARK    5  A    between atoms: C9_16  and  C10_17 
REMARK    6  A    between atoms: C17_35  and  N9_36 
REMARK    7  A    between atoms: N9_36  and  O3_38 
ROOT
HETATM    1  C4  UNL     1      12.047  77.171  -5.246  1.00  0.00     0.138 A 
HETATM    2  N2  UNL     1      11.279  77.020  -6.326  1.00  0.00    -0.176 N 
ATOM      3  H2  UNL     1      10.563  76.294  -6.291  1.00  0.00     0.186 HD
HETATM    4  C5  UNL     1      11.365  77.738  -7.452  1.00  0.00     0.681 A 
HETATM    5  N5  UNL     1      12.304  78.698  -7.515  1.00  0.00    -0.189 N 
ATOM      6  H5  UNL     1      12.399  79.266  -8.358  1.00  0.00     0.184 HD
HETATM    7  C11 UNL     1      13.124  78.911  -6.456  1.00  0.00     0.089 A 
HETATM    8  C12 UNL     1      14.099  79.889  -6.489  1.00  0.00     0.088 A 
HETATM    9  C13 UNL     1      14.279  80.711  -7.635  1.00  0.00     0.103 C 
HETATM   10  N6  UNL     1      14.430  81.396  -8.556  1.00  0.00    -0.191 NA
HETATM   11  C14 UNL     1      14.932  80.097  -5.395  1.00  0.00     0.114 A 
HETATM   12  N7  UNL     1      14.799  79.348  -4.295  1.00  0.00    -0.350 N 
ATOM     13  H7  UNL     1      15.414  79.506  -3.497  1.00  0.00     0.166 HD
HETATM   14  C15 UNL     1      13.866  78.394  -4.233  1.00  0.00     0.115 A 
HETATM   15  N8  UNL     1      13.783  77.700  -3.143  1.00  0.00    -0.385 N 
ATOM     16  H81 UNL     1      13.070  76.971  -3.096  1.00  0.00     0.157 HD
ATOM     17  H82 UNL     1      14.407  77.873  -2.356  1.00  0.00     0.157 HD
HETATM   18  C16 UNL     1      13.016  78.158  -5.305  1.00  0.00     0.081 A 
ENDROOT
BRANCH   4  19
HETATM   19  N3  UNL     1      10.503  77.507  -8.554  1.00  0.00    -0.212 N 
ATOM     20  H3  UNL     1      10.950  77.340  -9.456  1.00  0.00     0.179 HD
BRANCH  19  21
HETATM   21  C6  UNL     1       9.089  77.484  -8.534  1.00  0.00     0.169 C 
HETATM   22  C7  UNL     1       8.418  77.625  -9.886  1.00  0.00     0.116 C 
HETATM   23  C8  UNL     1       7.000  77.297  -9.571  1.00  0.00     0.152 C 
HETATM   24  O1  UNL     1       6.072  78.066  -9.722  1.00  0.00    -0.296 OA
HETATM   25  C9  UNL     1       6.882  75.908  -9.052  1.00  0.00     0.207 C 
HETATM   26  S1  UNL     1       8.436  75.827  -8.066  1.00  0.00    -0.121 SA
BRANCH  25  27
HETATM   27  C10 UNL     1       5.743  75.771  -8.108  1.00  0.00     0.252 C 
HETATM   28  N4  UNL     1       5.997  75.394  -6.762  1.00  0.00    -0.061 NA
HETATM   29  O2  UNL     1       4.545  75.975  -8.440  1.00  0.00    -0.275 OA
ENDBRANCH  25  27
ENDBRANCH  19  21
ENDBRANCH   4  19
BRANCH   1  30
HETATM   30  N1  UNL     1      11.954  76.482  -4.183  1.00  0.00    -0.338 N 
ATOM     31  H1  UNL     1      11.799  76.997  -3.316  1.00  0.00     0.167 HD
BRANCH  30  32
HETATM   32  C3  UNL     1      12.044  75.087  -4.074  1.00  0.00     0.086 A 
HETATM   33  C2  UNL     1      13.140  74.261  -3.905  1.00  0.00     0.036 A 
HETATM   34  C1  UNL     1      14.529  74.789  -3.805  1.00  0.00     0.071 C 
HETATM   35  N10 UNL     1      12.718  72.976  -3.855  1.00  0.00    -0.360 N 
HETATM   36  C18 UNL     1      11.376  72.924  -3.985  1.00  0.00     0.124 A 
HETATM   37  C19 UNL     1      13.574  71.828  -3.687  1.00  0.00     0.155 C 
HETATM   38  C17 UNL     1      10.959  74.233  -4.121  1.00  0.00     0.098 A 
BRANCH  38  39
HETATM   39  N9  UNL     1       9.587  74.596  -4.285  1.00  0.00    -0.266 N 
ATOM     40  H9  UNL     1       9.298  75.564  -4.430  1.00  0.00     0.194 HD
BRANCH  39  41
HETATM   41  O3  UNL     1       8.758  73.653  -4.239  1.00  0.00    -0.289 OA
ATOM     42  H3  UNL     1       8.040  73.699  -4.859  1.00  0.00     0.244 HD
ENDBRANCH  39  41
ENDBRANCH  38  39
ENDBRANCH  30  32
ENDBRANCH   1  30
TORSDOF 7
ENDMDL
