MODEL 1
REMARK VINA RESULT: -8.550719236      0.000      0.000
REMARK  8 active torsions:
REMARK  status: ('A' for Active; 'I' for Inactive)
REMARK    1  A    between atoms: N1_4  and  N2_6 
REMARK    2  A    between atoms: N2_6  and  C4_8 
REMARK    3  A    between atoms: C5_11  and  N4_12 
REMARK    4  A    between atoms: C10_20  and  N6_21 
REMARK    5  A    between atoms: N6_21  and  C11_23 
REMARK    6  A    between atoms: C12_24  and  N7_25 
REMARK    7  A    between atoms: N7_25  and  C13_27 
REMARK    8  A    between atoms: C17_31  and  N8_32 
ROOT
HETATM    1  C11 UNL     1      12.236  78.159  -5.886  1.00  0.00     0.128 A 
HETATM    2  C12 UNL     1      12.207  77.727  -7.193  1.00  0.00     0.175 A 
HETATM    3  O2  UNL     1      12.999  78.508  -7.913  1.00  0.00    -0.279 OA
HETATM    4  C19 UNL     1      13.550  79.421  -7.173  1.00  0.00     0.184 A 
HETATM    5  C20 UNL     1      14.476  80.467  -7.567  1.00  0.00     0.127 C 
HETATM    6  N9  UNL     1      15.216  81.313  -7.866  1.00  0.00    -0.189 NA
HETATM    7  C21 UNL     1      13.106  79.254  -5.880  1.00  0.00     0.122 A 
HETATM    8  N10 UNL     1      13.473  80.052  -4.761  1.00  0.00    -0.096 NA
ENDROOT
BRANCH   2   9
HETATM    9  N7  UNL     1      11.443  76.620  -7.692  1.00  0.00    -0.364 N 
ATOM     10  H7  UNL     1      11.925  75.760  -7.957  1.00  0.00     0.162 HD
BRANCH   9  11
HETATM   11  C13 UNL     1      10.000  76.695  -7.827  1.00  0.00     0.085 C 
HETATM   12  C14 UNL     1       9.375  75.355  -7.559  1.00  0.00     0.025 C 
HETATM   13  C15 UNL     1       7.942  75.251  -7.911  1.00  0.00     0.004 C 
HETATM   14  C16 UNL     1       7.391  76.559  -8.437  1.00  0.00     0.033 C 
HETATM   15  C17 UNL     1       8.272  76.898  -9.647  1.00  0.00     0.185 C 
HETATM   16  C18 UNL     1       9.589  77.329  -9.103  1.00  0.00     0.057 C 
BRANCH  15  17
HETATM   17  N8  UNL     1       7.656  77.965 -10.367  1.00  0.00    -0.075 N 
ATOM     18  H83 UNL     1       7.978  78.024 -11.333  1.00  0.00     0.274 HD
ATOM     19  H82 UNL     1       6.670  77.790 -10.560  1.00  0.00     0.274 HD
ATOM     20  H81 UNL     1       7.806  78.831  -9.850  1.00  0.00     0.274 HD
ENDBRANCH  15  17
ENDBRANCH   9  11
ENDBRANCH   2   9
BRANCH   1  21
HETATM   21  N6  UNL     1      11.563  77.656  -4.759  1.00  0.00    -0.184 N 
ATOM     22  H6  UNL     1      10.981  78.289  -4.210  1.00  0.00     0.184 HD
BRANCH  21  23
HETATM   23  C10 UNL     1      11.657  76.409  -4.394  1.00  0.00     0.712 A 
HETATM   24  N5  UNL     1      12.768  75.876  -3.868  1.00  0.00    -0.021 N 
HETATM   25  C5  UNL     1      12.817  74.585  -3.487  1.00  0.00     0.709 A 
ATOM     26  H5  UNL     1      13.596  76.461  -3.754  1.00  0.00     0.203 HD
HETATM   27  N3  UNL     1      11.732  73.807  -3.633  1.00  0.00    -0.020 N 
HETATM   28  C4  UNL     1      10.609  74.300  -4.151  1.00  0.00     0.726 A 
ATOM     29  H3  UNL     1      11.769  72.829  -3.346  1.00  0.00     0.203 HD
HETATM   30  N11 UNL     1      10.589  75.614  -4.530  1.00  0.00    -0.020 N 
ATOM     31  H11 UNL     1       9.734  76.000  -4.929  1.00  0.00     0.203 HD
BRANCH  25  32
HETATM   32  N4  UNL     1      13.987  74.014  -2.925  1.00  0.00    -0.213 N 
HETATM   33  C6  UNL     1      13.932  73.380  -1.643  1.00  0.00     0.167 C 
HETATM   34  C7  UNL     1      15.311  72.984  -1.154  1.00  0.00     0.188 C 
HETATM   35  O1  UNL     1      16.285  73.863  -1.633  1.00  0.00    -0.388 OA
HETATM   36  C8  UNL     1      16.432  73.649  -2.989  1.00  0.00     0.188 C 
HETATM   37  C9  UNL     1      15.205  74.110  -3.716  1.00  0.00     0.167 C 
ENDBRANCH  25  32
BRANCH  28  38
HETATM   38  N2  UNL     1       9.522  73.644  -4.308  1.00  0.00    -0.131 N 
ATOM     39  H2  UNL     1       9.551  72.667  -4.015  1.00  0.00     0.205 HD
BRANCH  38  40
HETATM   40  N1  UNL     1       8.326  74.074  -4.816  1.00  0.00    -0.295 N 
HETATM   41  C2  UNL     1       7.221  73.508  -4.501  1.00  0.00    -0.004 C 
HETATM   42  C1  UNL     1       7.185  72.366  -3.572  1.00  0.00     0.064 C 
HETATM   43  C3  UNL     1       5.958  74.016  -5.085  1.00  0.00     0.064 C 
ATOM     44  H1  UNL     1       8.314  74.863  -5.462  1.00  0.00     0.186 HD
ENDBRANCH  38  40
ENDBRANCH  28  38
ENDBRANCH  21  23
ENDBRANCH   1  21
TORSDOF 8
ENDMDL
MODEL 2
REMARK VINA RESULT: -8.525482385      3.105      8.539
REMARK  8 active torsions:
REMARK  status: ('A' for Active; 'I' for Inactive)
REMARK    1  A    between atoms: N1_4  and  N2_6 
REMARK    2  A    between atoms: N2_6  and  C4_8 
REMARK    3  A    between atoms: C5_11  and  N4_12 
REMARK    4  A    between atoms: C10_20  and  N6_21 
REMARK    5  A    between atoms: N6_21  and  C11_23 
REMARK    6  A    between atoms: C12_24  and  N7_25 
REMARK    7  A    between atoms: N7_25  and  C13_27 
REMARK    8  A    between atoms: C17_31  and  N8_32 
ROOT
HETATM    1  C11 UNL     1      12.784  74.641  -2.726  1.00  0.00     0.128 A 
HETATM    2  C12 UNL     1      13.326  75.442  -1.747  1.00  0.00     0.175 A 
HETATM    3  O2  UNL     1      14.393  74.836  -1.248  1.00  0.00    -0.279 OA
HETATM    4  C19 UNL     1      14.594  73.694  -1.830  1.00  0.00     0.184 A 
HETATM    5  C20 UNL     1      15.647  72.726  -1.583  1.00  0.00     0.127 C 
HETATM    6  N9  UNL     1      16.481  71.938  -1.394  1.00  0.00    -0.189 NA
HETATM    7  C21 UNL     1      13.609  73.512  -2.775  1.00  0.00     0.122 A 
HETATM    8  N10 UNL     1      13.470  72.384  -3.631  1.00  0.00    -0.096 NA
ENDROOT
BRANCH   2   9
HETATM    9  N7  UNL     1      12.817  76.719  -1.335  1.00  0.00    -0.364 N 
ATOM     10  H7  UNL     1      11.913  77.033  -1.688  1.00  0.00     0.162 HD
BRANCH   9  11
HETATM   11  C13 UNL     1      13.560  77.572  -0.426  1.00  0.00     0.085 C 
HETATM   12  C14 UNL     1      12.681  78.030   0.704  1.00  0.00     0.025 C 
HETATM   13  C15 UNL     1      13.256  79.100   1.549  1.00  0.00     0.004 C 
HETATM   14  C16 UNL     1      14.653  79.481   1.110  1.00  0.00     0.033 C 
HETATM   15  C17 UNL     1      14.502  79.906  -0.356  1.00  0.00     0.185 C 
HETATM   16  C18 UNL     1      14.276  78.659  -1.137  1.00  0.00     0.057 C 
BRANCH  15  17
HETATM   17  N8  UNL     1      15.712  80.541  -0.768  1.00  0.00    -0.075 N 
ATOM     18  H83 UNL     1      16.470  80.415  -0.096  1.00  0.00     0.274 HD
ATOM     19  H82 UNL     1      16.151  80.071  -1.560  1.00  0.00     0.274 HD
ATOM     20  H81 UNL     1      15.513  81.523  -0.956  1.00  0.00     0.274 HD
ENDBRANCH  15  17
ENDBRANCH   9  11
ENDBRANCH   2   9
BRANCH   1  21
HETATM   21  N6  UNL     1      11.653  74.850  -3.534  1.00  0.00    -0.184 N 
ATOM     22  H6  UNL     1      10.757  74.459  -3.240  1.00  0.00     0.184 HD
BRANCH  21  23
HETATM   23  C10 UNL     1      11.710  75.526  -4.646  1.00  0.00     0.712 A 
HETATM   24  N5  UNL     1      10.726  75.537  -5.554  1.00  0.00    -0.021 N 
HETATM   25  C5  UNL     1      10.819  76.265  -6.684  1.00  0.00     0.709 A 
ATOM     26  H5  UNL     1       9.886  74.982  -5.387  1.00  0.00     0.203 HD
HETATM   27  N3  UNL     1      11.919  76.999  -6.913  1.00  0.00    -0.020 N 
HETATM   28  C4  UNL     1      12.918  77.015  -6.034  1.00  0.00     0.726 A 
ATOM     29  H3  UNL     1      11.990  77.550  -7.769  1.00  0.00     0.203 HD
HETATM   30  N11 UNL     1      12.797  76.265  -4.897  1.00  0.00    -0.020 N 
ATOM     31  H11 UNL     1      13.558  76.270  -4.218  1.00  0.00     0.203 HD
BRANCH  25  32
HETATM   32  N4  UNL     1       9.779  76.287  -7.649  1.00  0.00    -0.213 N 
HETATM   33  C6  UNL     1       8.820  75.225  -7.695  1.00  0.00     0.167 C 
HETATM   34  C7  UNL     1       7.900  75.353  -8.893  1.00  0.00     0.188 C 
HETATM   35  O1  UNL     1       8.554  75.963  -9.966  1.00  0.00    -0.388 OA
HETATM   36  C8  UNL     1       8.745  77.294  -9.656  1.00  0.00     0.188 C 
HETATM   37  C9  UNL     1       9.754  77.426  -8.556  1.00  0.00     0.167 C 
ENDBRANCH  25  32
BRANCH  28  38
HETATM   38  N2  UNL     1      13.993  77.699  -6.155  1.00  0.00    -0.131 N 
ATOM     39  H2  UNL     1      14.244  77.959  -7.109  1.00  0.00     0.205 HD
BRANCH  38  40
HETATM   40  N1  UNL     1      14.851  78.129  -5.179  1.00  0.00    -0.295 N 
HETATM   41  C2  UNL     1      15.479  79.241  -5.280  1.00  0.00    -0.004 C 
HETATM   42  C1  UNL     1      15.304  80.113  -6.454  1.00  0.00     0.064 C 
HETATM   43  C3  UNL     1      16.396  79.652  -4.192  1.00  0.00     0.064 C 
ATOM     44  H1  UNL     1      14.994  77.550  -4.352  1.00  0.00     0.186 HD
ENDBRANCH  38  40
ENDBRANCH  28  38
ENDBRANCH  21  23
ENDBRANCH   1  21
TORSDOF 8
ENDMDL
MODEL 3
REMARK VINA RESULT: -8.461622684      2.758      7.100
REMARK  8 active torsions:
REMARK  status: ('A' for Active; 'I' for Inactive)
REMARK    1  A    between atoms: N1_4  and  N2_6 
REMARK    2  A    between atoms: N2_6  and  C4_8 
REMARK    3  A    between atoms: C5_11  and  N4_12 
REMARK    4  A    between atoms: C10_20  and  N6_21 
REMARK    5  A    between atoms: N6_21  and  C11_23 
REMARK    6  A    between atoms: C12_24  and  N7_25 
REMARK    7  A    between atoms: N7_25  and  C13_27 
REMARK    8  A    between atoms: C17_31  and  N8_32 
ROOT
HETATM    1  C11 UNL     1      14.986  79.156  -6.437  1.00  0.00     0.128 A 
HETATM    2  C12 UNL     1      15.539  79.104  -5.178  1.00  0.00     0.175 A 
HETATM    3  O2  UNL     1      16.010  80.305  -4.874  1.00  0.00    -0.279 OA
HETATM    4  C19 UNL     1      15.805  81.144  -5.843  1.00  0.00     0.184 A 
HETATM    5  C20 UNL     1      16.162  82.549  -5.913  1.00  0.00     0.127 C 
HETATM    6  N9  UNL     1      16.445  83.674  -5.987  1.00  0.00    -0.189 NA
HETATM    7  C21 UNL     1      15.161  80.477  -6.862  1.00  0.00     0.122 A 
HETATM    8  N10 UNL     1      14.757  81.040  -8.104  1.00  0.00    -0.096 NA
ENDROOT
BRANCH   2   9
HETATM    9  N7  UNL     1      15.598  77.943  -4.338  1.00  0.00    -0.364 N 
ATOM     10  H7  UNL     1      15.491  77.018  -4.756  1.00  0.00     0.162 HD
BRANCH   9  11
HETATM   11  C13 UNL     1      15.807  78.055  -2.906  1.00  0.00     0.085 C 
HETATM   12  C14 UNL     1      16.507  76.834  -2.379  1.00  0.00     0.025 C 
HETATM   13  C15 UNL     1      16.548  76.724  -0.904  1.00  0.00     0.004 C 
HETATM   14  C16 UNL     1      15.900  77.913  -0.228  1.00  0.00     0.033 C 
HETATM   15  C17 UNL     1      14.467  77.943  -0.777  1.00  0.00     0.185 C 
HETATM   16  C18 UNL     1      14.563  78.418  -2.184  1.00  0.00     0.057 C 
BRANCH  15  17
HETATM   17  N8  UNL     1      13.703  78.858   0.008  1.00  0.00    -0.075 N 
ATOM     18  H83 UNL     1      13.582  79.761  -0.450  1.00  0.00     0.274 HD
ATOM     19  H82 UNL     1      12.719  78.598   0.065  1.00  0.00     0.274 HD
ATOM     20  H81 UNL     1      14.141  78.938   0.925  1.00  0.00     0.274 HD
ENDBRANCH  15  17
ENDBRANCH   9  11
ENDBRANCH   2   9
BRANCH   1  21
HETATM   21  N6  UNL     1      14.369  78.142  -7.190  1.00  0.00    -0.184 N 
ATOM     22  H6  UNL     1      14.778  77.873  -8.085  1.00  0.00     0.184 HD
BRANCH  21  23
HETATM   23  C10 UNL     1      13.291  77.535  -6.782  1.00  0.00     0.712 A 
HETATM   24  N5  UNL     1      12.185  77.414  -7.528  1.00  0.00    -0.021 N 
HETATM   25  C5  UNL     1      11.097  76.761  -7.074  1.00  0.00     0.709 A 
ATOM     26  H5  UNL     1      12.165  77.825  -8.461  1.00  0.00     0.203 HD
HETATM   27  N3  UNL     1      11.113  76.216  -5.847  1.00  0.00    -0.020 N 
HETATM   28  C4  UNL     1      12.194  76.314  -5.076  1.00  0.00     0.726 A 
ATOM     29  H3  UNL     1      10.290  75.723  -5.502  1.00  0.00     0.203 HD
HETATM   30  N11 UNL     1      13.283  76.983  -5.563  1.00  0.00    -0.020 N 
ATOM     31  H11 UNL     1      14.115  77.064  -4.979  1.00  0.00     0.203 HD
BRANCH  25  32
HETATM   32  N4  UNL     1       9.923  76.625  -7.858  1.00  0.00    -0.213 N 
HETATM   33  C6  UNL     1       9.080  75.480  -7.695  1.00  0.00     0.167 C 
HETATM   34  C7  UNL     1       7.977  75.444  -8.734  1.00  0.00     0.188 C 
HETATM   35  O1  UNL     1       8.391  76.039  -9.928  1.00  0.00    -0.388 OA
HETATM   36  C8  UNL     1       8.494  77.399  -9.721  1.00  0.00     0.188 C 
HETATM   37  C9  UNL     1       9.643  77.694  -8.806  1.00  0.00     0.167 C 
ENDBRANCH  25  32
BRANCH  28  38
HETATM   38  N2  UNL     1      12.310  75.809  -3.906  1.00  0.00    -0.131 N 
ATOM     39  H2  UNL     1      11.471  75.842  -3.327  1.00  0.00     0.205 HD
BRANCH  38  40
HETATM   40  N1  UNL     1      13.407  75.231  -3.325  1.00  0.00    -0.295 N 
HETATM   41  C2  UNL     1      13.511  73.960  -3.204  1.00  0.00    -0.004 C 
HETATM   42  C1  UNL     1      12.453  73.058  -3.688  1.00  0.00     0.064 C 
HETATM   43  C3  UNL     1      14.721  73.394  -2.564  1.00  0.00     0.064 C 
ATOM     44  H1  UNL     1      14.159  75.828  -2.980  1.00  0.00     0.186 HD
ENDBRANCH  38  40
ENDBRANCH  28  38
ENDBRANCH  21  23
ENDBRANCH   1  21
TORSDOF 8
ENDMDL
MODEL 4
REMARK VINA RESULT: -8.363924988      2.660      4.487
REMARK  8 active torsions:
REMARK  status: ('A' for Active; 'I' for Inactive)
REMARK    1  A    between atoms: N1_4  and  N2_6 
REMARK    2  A    between atoms: N2_6  and  C4_8 
REMARK    3  A    between atoms: C5_11  and  N4_12 
REMARK    4  A    between atoms: C10_20  and  N6_21 
REMARK    5  A    between atoms: N6_21  and  C11_23 
REMARK    6  A    between atoms: C12_24  and  N7_25 
REMARK    7  A    between atoms: N7_25  and  C13_27 
REMARK    8  A    between atoms: C17_31  and  N8_32 
ROOT
HETATM    1  C11 UNL     1      12.832  78.835  -6.016  1.00  0.00     0.128 A 
HETATM    2  C12 UNL     1      12.984  78.540  -7.351  1.00  0.00     0.175 A 
HETATM    3  O2  UNL     1      13.836  79.406  -7.880  1.00  0.00    -0.279 OA
HETATM    4  C19 UNL     1      14.257  80.249  -6.988  1.00  0.00     0.184 A 
HETATM    5  C20 UNL     1      15.192  81.347  -7.152  1.00  0.00     0.127 C 
HETATM    6  N9  UNL     1      15.935  82.234  -7.267  1.00  0.00    -0.189 NA
HETATM    7  C21 UNL     1      13.657  79.941  -5.787  1.00  0.00     0.122 A 
HETATM    8  N10 UNL     1      13.851  80.627  -4.556  1.00  0.00    -0.096 NA
ENDROOT
BRANCH   2   9
HETATM    9  N7  UNL     1      12.327  77.475  -8.053  1.00  0.00    -0.364 N 
ATOM     10  H7  UNL     1      12.860  76.908  -8.712  1.00  0.00     0.162 HD
BRANCH   9  11
HETATM   11  C13 UNL     1      10.920  77.186  -7.844  1.00  0.00     0.085 C 
HETATM   12  C14 UNL     1      10.743  75.803  -7.284  1.00  0.00     0.025 C 
HETATM   13  C15 UNL     1       9.350  75.308  -7.267  1.00  0.00     0.004 C 
HETATM   14  C16 UNL     1       8.374  76.341  -7.789  1.00  0.00     0.033 C 
HETATM   15  C17 UNL     1       8.867  76.664  -9.206  1.00  0.00     0.185 C 
HETATM   16  C18 UNL     1      10.103  77.478  -9.048  1.00  0.00     0.057 C 
BRANCH  15  17
HETATM   17  N8  UNL     1       7.855  77.418  -9.873  1.00  0.00    -0.075 N 
ATOM     18  H83 UNL     1       7.570  76.996 -10.757  1.00  0.00     0.274 HD
ATOM     19  H82 UNL     1       6.954  77.370  -9.399  1.00  0.00     0.274 HD
ATOM     20  H81 UNL     1       8.189  78.376  -9.985  1.00  0.00     0.274 HD
ENDBRANCH  15  17
ENDBRANCH   9  11
ENDBRANCH   2   9
BRANCH   1  21
HETATM   21  N6  UNL     1      12.036  78.207  -5.042  1.00  0.00    -0.184 N 
ATOM     22  H6  UNL     1      11.023  78.320  -5.084  1.00  0.00     0.184 HD
BRANCH  21  23
HETATM   23  C10 UNL     1      12.550  77.484  -4.088  1.00  0.00     0.712 A 
HETATM   24  N5  UNL     1      12.378  76.160  -3.990  1.00  0.00    -0.021 N 
HETATM   25  C5  UNL     1      12.943  75.447  -2.996  1.00  0.00     0.709 A 
ATOM     26  H5  UNL     1      11.805  75.679  -4.684  1.00  0.00     0.203 HD
HETATM   27  N3  UNL     1      13.698  76.071  -2.078  1.00  0.00    -0.020 N 
HETATM   28  C4  UNL     1      13.895  77.385  -2.141  1.00  0.00     0.726 A 
ATOM     29  H3  UNL     1      14.125  75.532  -1.324  1.00  0.00     0.203 HD
HETATM   30  N11 UNL     1      13.307  78.083  -3.161  1.00  0.00    -0.020 N 
ATOM     31  H11 UNL     1      13.451  79.091  -3.216  1.00  0.00     0.203 HD
BRANCH  25  32
HETATM   32  N4  UNL     1      12.769  74.043  -2.888  1.00  0.00    -0.213 N 
HETATM   33  C6  UNL     1      12.307  73.289  -4.013  1.00  0.00     0.167 C 
HETATM   34  C7  UNL     1      12.033  71.844  -3.643  1.00  0.00     0.188 C 
HETATM   35  O1  UNL     1      11.623  71.735  -2.313  1.00  0.00    -0.388 OA
HETATM   36  C8  UNL     1      12.709  71.997  -1.502  1.00  0.00     0.188 C 
HETATM   37  C9  UNL     1      13.085  73.444  -1.599  1.00  0.00     0.167 C 
ENDBRANCH  25  32
BRANCH  28  38
HETATM   38  N2  UNL     1      14.614  78.061  -1.327  1.00  0.00    -0.131 N 
ATOM     39  H2  UNL     1      15.591  78.177  -1.594  1.00  0.00     0.205 HD
BRANCH  38  40
HETATM   40  N1  UNL     1      14.251  78.650  -0.145  1.00  0.00    -0.295 N 
HETATM   41  C2  UNL     1      14.337  79.916   0.029  1.00  0.00    -0.004 C 
HETATM   42  C1  UNL     1      14.830  80.801  -1.040  1.00  0.00     0.064 C 
HETATM   43  C3  UNL     1      13.931  80.494   1.330  1.00  0.00     0.064 C 
ATOM     44  H1  UNL     1      13.904  78.065   0.616  1.00  0.00     0.186 HD
ENDBRANCH  38  40
ENDBRANCH  28  38
ENDBRANCH  21  23
ENDBRANCH   1  21
TORSDOF 8
ENDMDL
MODEL 5
REMARK VINA RESULT: -8.330205145      3.148      7.289
REMARK  8 active torsions:
REMARK  status: ('A' for Active; 'I' for Inactive)
REMARK    1  A    between atoms: N1_4  and  N2_6 
REMARK    2  A    between atoms: N2_6  and  C4_8 
REMARK    3  A    between atoms: C5_11  and  N4_12 
REMARK    4  A    between atoms: C10_20  and  N6_21 
REMARK    5  A    between atoms: N6_21  and  C11_23 
REMARK    6  A    between atoms: C12_24  and  N7_25 
REMARK    7  A    between atoms: N7_25  and  C13_27 
REMARK    8  A    between atoms: C17_31  and  N8_32 
ROOT
HETATM    1  C11 UNL     1      15.105  79.190  -6.332  1.00  0.00     0.128 A 
HETATM    2  C12 UNL     1      15.716  79.196  -5.098  1.00  0.00     0.175 A 
HETATM    3  O2  UNL     1      16.147  80.423  -4.847  1.00  0.00    -0.279 OA
HETATM    4  C19 UNL     1      15.862  81.227  -5.826  1.00  0.00     0.184 A 
HETATM    5  C20 UNL     1      16.153  82.643  -5.947  1.00  0.00     0.127 C 
HETATM    6  N9  UNL     1      16.383  83.777  -6.063  1.00  0.00    -0.189 NA
HETATM    7  C21 UNL     1      15.203  80.505  -6.797  1.00  0.00     0.122 A 
HETATM    8  N10 UNL     1      14.719  81.017  -8.033  1.00  0.00    -0.096 NA
ENDROOT
BRANCH   2   9
HETATM    9  N7  UNL     1      15.864  78.062  -4.232  1.00  0.00    -0.364 N 
ATOM     10  H7  UNL     1      16.057  77.146  -4.638  1.00  0.00     0.162 HD
BRANCH   9  11
HETATM   11  C13 UNL     1      15.745  78.189  -2.791  1.00  0.00     0.085 C 
HETATM   12  C14 UNL     1      14.519  78.979  -2.431  1.00  0.00     0.025 C 
HETATM   13  C15 UNL     1      14.431  79.385  -1.012  1.00  0.00     0.004 C 
HETATM   14  C16 UNL     1      15.599  78.869  -0.200  1.00  0.00     0.033 C 
HETATM   15  C17 UNL     1      16.842  79.435  -0.898  1.00  0.00     0.185 C 
HETATM   16  C18 UNL     1      17.001  78.670  -2.165  1.00  0.00     0.057 C 
BRANCH  15  17
HETATM   17  N8  UNL     1      17.969  79.229  -0.047  1.00  0.00    -0.075 N 
ATOM     18  H83 UNL     1      18.398  80.104   0.255  1.00  0.00     0.274 HD
ATOM     19  H82 UNL     1      17.706  78.879   0.874  1.00  0.00     0.274 HD
ATOM     20  H81 UNL     1      18.627  78.615  -0.527  1.00  0.00     0.274 HD
ENDBRANCH  15  17
ENDBRANCH   9  11
ENDBRANCH   2   9
BRANCH   1  21
HETATM   21  N6  UNL     1      14.500  78.130  -7.029  1.00  0.00    -0.184 N 
ATOM     22  H6  UNL     1      14.944  77.782  -7.880  1.00  0.00     0.184 HD
BRANCH  21  23
HETATM   23  C10 UNL     1      13.392  77.577  -6.625  1.00  0.00     0.712 A 
HETATM   24  N5  UNL     1      12.325  77.400  -7.414  1.00  0.00    -0.021 N 
HETATM   25  C5  UNL     1      11.204  76.807  -6.960  1.00  0.00     0.709 A 
ATOM     26  H5  UNL     1      12.362  77.721  -8.382  1.00  0.00     0.203 HD
HETATM   27  N3  UNL     1      11.146  76.380  -5.688  1.00  0.00    -0.020 N 
HETATM   28  C4  UNL     1      12.186  76.537  -4.872  1.00  0.00     0.726 A 
ATOM     29  H3  UNL     1      10.297  75.932  -5.344  1.00  0.00     0.203 HD
HETATM   30  N11 UNL     1      13.311  77.144  -5.361  1.00  0.00    -0.020 N 
ATOM     31  H11 UNL     1      14.112  77.270  -4.743  1.00  0.00     0.203 HD
BRANCH  25  32
HETATM   32  N4  UNL     1      10.071  76.610  -7.790  1.00  0.00    -0.213 N 
HETATM   33  C6  UNL     1       9.308  75.403  -7.691  1.00  0.00     0.167 C 
HETATM   34  C7  UNL     1       8.247  75.321  -8.770  1.00  0.00     0.188 C 
HETATM   35  O1  UNL     1       8.658  75.981  -9.930  1.00  0.00    -0.388 OA
HETATM   36  C8  UNL     1       8.654  77.338  -9.681  1.00  0.00     0.188 C 
HETATM   37  C9  UNL     1       9.746  77.686  -8.717  1.00  0.00     0.167 C 
ENDBRANCH  25  32
BRANCH  28  38
HETATM   38  N2  UNL     1      12.232  76.144  -3.656  1.00  0.00    -0.131 N 
ATOM     39  H2  UNL     1      12.059  76.863  -2.954  1.00  0.00     0.205 HD
BRANCH  38  40
HETATM   40  N1  UNL     1      12.482  74.889  -3.167  1.00  0.00    -0.295 N 
HETATM   41  C2  UNL     1      12.908  74.707  -1.973  1.00  0.00    -0.004 C 
HETATM   42  C1  UNL     1      13.147  75.842  -1.066  1.00  0.00     0.064 C 
HETATM   43  C3  UNL     1      13.163  73.325  -1.503  1.00  0.00     0.064 C 
ATOM     44  H1  UNL     1      12.326  74.081  -3.770  1.00  0.00     0.186 HD
ENDBRANCH  38  40
ENDBRANCH  28  38
ENDBRANCH  21  23
ENDBRANCH   1  21
TORSDOF 8
ENDMDL
