MODEL 1
REMARK VINA RESULT: -7.914443566      0.000      0.000
REMARK  7 active torsions:
REMARK  status: ('A' for Active; 'I' for Inactive)
REMARK    1  A    between atoms: O1_2  and  C2_3 
REMARK    2  A    between atoms: C4_5  and  O2_6 
REMARK    3  A    between atoms: C8_10  and  O3_11 
REMARK    4  A    between atoms: C11_15  and  C12_16 
REMARK    5  A    between atoms: C14_21  and  O6_22 
REMARK    6  A    between atoms: C18_27  and  O7_28 
REMARK    7  A    between atoms: O7_28  and  C19_29 
REMARK       I    between atoms: C19_29  and  N3_31 
REMARK       I    between atoms: N3_31  and  C20_33 
ROOT
HETATM    1  C2  UNL     1      14.366  78.826  -2.890  1.00  0.00     0.107 A 
HETATM    2  C3  UNL     1      14.149  77.924  -1.898  1.00  0.00     0.077 A 
HETATM    3  C4  UNL     1      13.268  76.879  -2.138  1.00  0.00     0.083 A 
HETATM    4  C6  UNL     1      12.609  76.729  -3.355  1.00  0.00     0.046 A 
HETATM    5  C7  UNL     1      12.819  77.636  -4.360  1.00  0.00     0.124 A 
HETATM    6  C8  UNL     1      13.710  78.681  -4.098  1.00  0.00     0.136 A 
HETATM    7  O4  UNL     1      12.194  77.559  -5.570  1.00  0.00    -0.305 OA
HETATM    8  C10 UNL     1      11.305  76.566  -5.855  1.00  0.00     0.103 A 
HETATM    9  C11 UNL     1      10.711  76.589  -7.107  1.00  0.00     0.090 A 
HETATM   10  C13 UNL     1       9.795  75.612  -7.420  1.00  0.00     0.098 A 
HETATM   11  N2  UNL     1       9.184  75.636  -8.706  1.00  0.00    -0.098 NA
HETATM   12  C14 UNL     1       9.504  74.651  -6.480  1.00  0.00     0.097 A 
HETATM   13  C15 UNL     1      10.112  74.635  -5.217  1.00  0.00    -0.015 A 
HETATM   14  C16 UNL     1       9.656  73.557  -4.336  1.00  0.00     0.052 C 
HETATM   15  C17 UNL     1      11.034  75.607  -4.893  1.00  0.00     0.020 A 
HETATM   16  C18 UNL     1      11.739  75.521  -3.581  1.00  0.00     0.209 C 
ENDROOT
BRANCH  16  17
HETATM   17  O7  UNL     1      12.711  74.486  -3.794  1.00  0.00    -0.288 OA
BRANCH  17  18
HETATM   18  C19 UNL     1      13.038  73.460  -2.992  1.00  0.00     0.369 C 
HETATM   19  O8  UNL     1      12.191  72.750  -2.411  1.00  0.00    -0.238 OA
HETATM   20  N3  UNL     1      14.416  73.095  -2.739  1.00  0.00    -0.257 N 
HETATM   21  C20 UNL     1      15.446  73.854  -3.362  1.00  0.00     0.337 C 
ATOM     22  H3  UNL     1      14.643  72.311  -2.127  1.00  0.00     0.175 HD
HETATM   23  N4  UNL     1      16.815  73.534  -3.145  1.00  0.00    -0.040 NA
HETATM   24  O9  UNL     1      15.162  74.836  -4.129  1.00  0.00    -0.251 OA
ENDBRANCH  17  18
ENDBRANCH  16  17
BRANCH   3  25
HETATM   25  O2  UNL     1      13.078  75.994  -1.098  1.00  0.00    -0.355 OA
HETATM   26  C5  UNL     1      14.055  75.694  -0.145  1.00  0.00     0.210 C 
ENDBRANCH   3  25
BRANCH   6  27
HETATM   27  O3  UNL     1      13.944  79.609  -5.095  1.00  0.00    -0.351 OA
HETATM   28  C9  UNL     1      15.007  79.419  -6.024  1.00  0.00     0.210 C 
ENDBRANCH   6  27
BRANCH   9  29
HETATM   29  C12 UNL     1      11.032  77.599  -8.095  1.00  0.00     0.269 C 
HETATM   30  N1  UNL     1      12.291  77.731  -8.718  1.00  0.00    -0.057 NA
HETATM   31  O5  UNL     1      10.148  78.422  -8.435  1.00  0.00    -0.271 OA
ENDBRANCH   9  29
BRANCH  12  32
HETATM   32  O6  UNL     1       8.563  73.660  -6.815  1.00  0.00    -0.358 OA
ATOM     33  H6  UNL     1       8.182  73.149  -6.111  1.00  0.00     0.217 HD
ENDBRANCH  12  32
BRANCH   1  34
HETATM   34  O1  UNL     1      15.248  79.886  -2.680  1.00  0.00    -0.353 OA
HETATM   35  C1  UNL     1      14.851  81.054  -2.003  1.00  0.00     0.210 C 
ENDBRANCH   1  34
TORSDOF 7
ENDMDL
MODEL 2
REMARK VINA RESULT: -7.552685127      2.526      5.677
REMARK  7 active torsions:
REMARK  status: ('A' for Active; 'I' for Inactive)
REMARK    1  A    between atoms: O1_2  and  C2_3 
REMARK    2  A    between atoms: C4_5  and  O2_6 
REMARK    3  A    between atoms: C8_10  and  O3_11 
REMARK    4  A    between atoms: C11_15  and  C12_16 
REMARK    5  A    between atoms: C14_21  and  O6_22 
REMARK    6  A    between atoms: C18_27  and  O7_28 
REMARK    7  A    between atoms: O7_28  and  C19_29 
REMARK       I    between atoms: C19_29  and  N3_31 
REMARK       I    between atoms: N3_31  and  C20_33 
ROOT
HETATM    1  C2  UNL     1      12.020  77.797  -7.031  1.00  0.00     0.107 A 
HETATM    2  C3  UNL     1      12.572  78.860  -6.390  1.00  0.00     0.077 A 
HETATM    3  C4  UNL     1      13.029  78.684  -5.092  1.00  0.00     0.083 A 
HETATM    4  C6  UNL     1      12.939  77.459  -4.434  1.00  0.00     0.046 A 
HETATM    5  C7  UNL     1      12.379  76.384  -5.071  1.00  0.00     0.124 A 
HETATM    6  C8  UNL     1      11.926  76.583  -6.378  1.00  0.00     0.136 A 
HETATM    7  O4  UNL     1      12.244  75.161  -4.480  1.00  0.00    -0.305 OA
HETATM    8  C10 UNL     1      12.657  74.934  -3.201  1.00  0.00     0.103 A 
HETATM    9  C11 UNL     1      12.457  73.663  -2.688  1.00  0.00     0.090 A 
HETATM   10  C13 UNL     1      12.845  73.405  -1.393  1.00  0.00     0.098 A 
HETATM   11  N2  UNL     1      12.639  72.099  -0.866  1.00  0.00    -0.098 NA
HETATM   12  C14 UNL     1      13.415  74.418  -0.659  1.00  0.00     0.097 A 
HETATM   13  C15 UNL     1      13.614  75.702  -1.188  1.00  0.00    -0.015 A 
HETATM   14  C16 UNL     1      14.205  76.661  -0.251  1.00  0.00     0.052 C 
HETATM   15  C17 UNL     1      13.233  75.970  -2.485  1.00  0.00     0.020 A 
HETATM   16  C18 UNL     1      13.537  77.313  -3.061  1.00  0.00     0.209 C 
ENDROOT
BRANCH  16  17
HETATM   17  O7  UNL     1      14.942  77.239  -3.351  1.00  0.00    -0.288 OA
BRANCH  17  18
HETATM   18  C19 UNL     1      15.957  77.904  -2.777  1.00  0.00     0.369 C 
HETATM   19  O8  UNL     1      15.951  79.140  -2.600  1.00  0.00    -0.238 OA
HETATM   20  N3  UNL     1      17.150  77.228  -2.315  1.00  0.00    -0.257 N 
HETATM   21  C20 UNL     1      17.240  75.817  -2.479  1.00  0.00     0.337 C 
ATOM     22  H3  UNL     1      17.911  77.751  -1.881  1.00  0.00     0.175 HD
HETATM   23  N4  UNL     1      18.392  75.107  -2.040  1.00  0.00    -0.040 NA
HETATM   24  O9  UNL     1      16.288  75.160  -3.022  1.00  0.00    -0.251 OA
ENDBRANCH  17  18
ENDBRANCH  16  17
BRANCH   3  25
HETATM   25  O2  UNL     1      13.576  79.793  -4.484  1.00  0.00    -0.355 OA
HETATM   26  C5  UNL     1      14.258  80.800  -5.174  1.00  0.00     0.210 C 
ENDBRANCH   3  25
BRANCH   6  27
HETATM   27  O3  UNL     1      11.360  75.513  -7.046  1.00  0.00    -0.351 OA
HETATM   28  C9  UNL     1      10.003  75.149  -6.808  1.00  0.00     0.210 C 
ENDBRANCH   6  27
BRANCH   9  29
HETATM   29  C12 UNL     1      11.866  72.598  -3.473  1.00  0.00     0.269 C 
HETATM   30  N1  UNL     1      12.597  71.547  -4.066  1.00  0.00    -0.057 NA
HETATM   31  O5  UNL     1      10.625  72.589  -3.652  1.00  0.00    -0.271 OA
ENDBRANCH   9  29
BRANCH  12  32
HETATM   32  O6  UNL     1      13.803  74.140   0.664  1.00  0.00    -0.358 OA
ATOM     33  H6  UNL     1      14.005  74.872   1.235  1.00  0.00     0.217 HD
ENDBRANCH  12  32
BRANCH   1  34
HETATM   34  O1  UNL     1      11.555  77.943  -8.338  1.00  0.00    -0.353 OA
HETATM   35  C1  UNL     1      10.181  78.047  -8.625  1.00  0.00     0.210 C 
ENDBRANCH   1  34
TORSDOF 7
ENDMDL
MODEL 3
REMARK VINA RESULT: -7.551846646      2.300      5.042
REMARK  7 active torsions:
REMARK  status: ('A' for Active; 'I' for Inactive)
REMARK    1  A    between atoms: O1_2  and  C2_3 
REMARK    2  A    between atoms: C4_5  and  O2_6 
REMARK    3  A    between atoms: C8_10  and  O3_11 
REMARK    4  A    between atoms: C11_15  and  C12_16 
REMARK    5  A    between atoms: C14_21  and  O6_22 
REMARK    6  A    between atoms: C18_27  and  O7_28 
REMARK    7  A    between atoms: O7_28  and  C19_29 
REMARK       I    between atoms: C19_29  and  N3_31 
REMARK       I    between atoms: N3_31  and  C20_33 
ROOT
HETATM    1  C2  UNL     1      14.286  73.304  -1.876  1.00  0.00     0.107 A 
HETATM    2  C3  UNL     1      15.305  74.197  -1.979  1.00  0.00     0.077 A 
HETATM    3  C4  UNL     1      15.189  75.226  -2.902  1.00  0.00     0.083 A 
HETATM    4  C6  UNL     1      14.069  75.369  -3.717  1.00  0.00     0.046 A 
HETATM    5  C7  UNL     1      13.040  74.470  -3.624  1.00  0.00     0.124 A 
HETATM    6  C8  UNL     1      13.176  73.442  -2.687  1.00  0.00     0.136 A 
HETATM    7  O4  UNL     1      11.922  74.541  -4.403  1.00  0.00    -0.305 OA
HETATM    8  C10 UNL     1      11.762  75.518  -5.339  1.00  0.00     0.103 A 
HETATM    9  C11 UNL     1      10.599  75.489  -6.092  1.00  0.00     0.090 A 
HETATM   10  C13 UNL     1      10.414  76.450  -7.059  1.00  0.00     0.098 A 
HETATM   11  N2  UNL     1       9.219  76.420  -7.832  1.00  0.00    -0.098 NA
HETATM   12  C14 UNL     1      11.391  77.401  -7.242  1.00  0.00     0.097 A 
HETATM   13  C15 UNL     1      12.564  77.422  -6.475  1.00  0.00    -0.015 A 
HETATM   14  C16 UNL     1      13.505  78.488  -6.831  1.00  0.00     0.052 C 
HETATM   15  C17 UNL     1      12.758  76.467  -5.500  1.00  0.00     0.020 A 
HETATM   16  C18 UNL     1      13.967  76.561  -4.631  1.00  0.00     0.209 C 
ENDROOT
BRANCH  16  17
HETATM   17  O7  UNL     1      13.637  77.615  -3.715  1.00  0.00    -0.288 OA
BRANCH  17  18
HETATM   18  C19 UNL     1      14.377  78.673  -3.345  1.00  0.00     0.369 C 
HETATM   19  O8  UNL     1      14.972  79.409  -4.159  1.00  0.00    -0.238 OA
HETATM   20  N3  UNL     1      14.543  79.042  -1.955  1.00  0.00    -0.257 N 
HETATM   21  C20 UNL     1      13.898  78.255  -0.960  1.00  0.00     0.337 C 
ATOM     22  H3  UNL     1      15.109  79.850  -1.695  1.00  0.00     0.175 HD
HETATM   23  N4  UNL     1      14.030  78.578   0.419  1.00  0.00    -0.040 NA
HETATM   24  O9  UNL     1      13.188  77.243  -1.286  1.00  0.00    -0.251 OA
ENDBRANCH  17  18
ENDBRANCH  16  17
BRANCH   3  25
HETATM   25  O2  UNL     1      16.251  76.103  -2.971  1.00  0.00    -0.355 OA
HETATM   26  C5  UNL     1      17.081  76.405  -1.887  1.00  0.00     0.210 C 
ENDBRANCH   3  25
BRANCH   6  27
HETATM   27  O3  UNL     1      12.150  72.522  -2.568  1.00  0.00    -0.351 OA
HETATM   28  C9  UNL     1      11.826  71.659  -3.654  1.00  0.00     0.210 C 
ENDBRANCH   6  27
BRANCH   9  29
HETATM   29  C12 UNL     1       9.570  74.490  -5.884  1.00  0.00     0.269 C 
HETATM   30  N1  UNL     1       8.839  74.337  -4.687  1.00  0.00    -0.057 NA
HETATM   31  O5  UNL     1       9.294  73.697  -6.816  1.00  0.00    -0.271 OA
ENDBRANCH   9  29
BRANCH  12  32
HETATM   32  O6  UNL     1      11.188  78.375  -8.237  1.00  0.00    -0.358 OA
ATOM     33  H6  UNL     1      11.151  78.089  -9.142  1.00  0.00     0.217 HD
ENDBRANCH  12  32
BRANCH   1  34
HETATM   34  O1  UNL     1      14.372  72.260  -0.955  1.00  0.00    -0.353 OA
HETATM   35  C1  UNL     1      13.992  72.429   0.389  1.00  0.00     0.210 C 
ENDBRANCH   1  34
TORSDOF 7
ENDMDL
MODEL 4
REMARK VINA RESULT: -7.204931197      2.603      5.942
REMARK  7 active torsions:
REMARK  status: ('A' for Active; 'I' for Inactive)
REMARK    1  A    between atoms: O1_2  and  C2_3 
REMARK    2  A    between atoms: C4_5  and  O2_6 
REMARK    3  A    between atoms: C8_10  and  O3_11 
REMARK    4  A    between atoms: C11_15  and  C12_16 
REMARK    5  A    between atoms: C14_21  and  O6_22 
REMARK    6  A    between atoms: C18_27  and  O7_28 
REMARK    7  A    between atoms: O7_28  and  C19_29 
REMARK       I    between atoms: C19_29  and  N3_31 
REMARK       I    between atoms: N3_31  and  C20_33 
ROOT
HETATM    1  C2  UNL     1      10.831  75.553  -5.938  1.00  0.00     0.107 A 
HETATM    2  C3  UNL     1      11.077  74.473  -5.151  1.00  0.00     0.077 A 
HETATM    3  C4  UNL     1      12.181  74.507  -4.311  1.00  0.00     0.083 A 
HETATM    4  C6  UNL     1      13.034  75.606  -4.252  1.00  0.00     0.046 A 
HETATM    5  C7  UNL     1      12.797  76.697  -5.046  1.00  0.00     0.124 A 
HETATM    6  C8  UNL     1      11.679  76.643  -5.883  1.00  0.00     0.136 A 
HETATM    7  O4  UNL     1      13.601  77.799  -5.050  1.00  0.00    -0.305 OA
HETATM    8  C10 UNL     1      14.709  77.880  -4.261  1.00  0.00     0.103 A 
HETATM    9  C11 UNL     1      15.469  79.035  -4.355  1.00  0.00     0.090 A 
HETATM   10  C13 UNL     1      16.605  79.141  -3.586  1.00  0.00     0.098 A 
HETATM   11  N2  UNL     1      17.386  80.328  -3.683  1.00  0.00    -0.098 NA
HETATM   12  C14 UNL     1      16.942  78.099  -2.755  1.00  0.00     0.097 A 
HETATM   13  C15 UNL     1      16.165  76.935  -2.666  1.00  0.00    -0.015 A 
HETATM   14  C16 UNL     1      16.695  75.918  -1.753  1.00  0.00     0.052 C 
HETATM   15  C17 UNL     1      15.023  76.819  -3.429  1.00  0.00     0.020 A 
HETATM   16  C18 UNL     1      14.159  75.615  -3.252  1.00  0.00     0.209 C 
ENDROOT
BRANCH  16  17
HETATM   17  O7  UNL     1      13.468  75.880  -2.023  1.00  0.00    -0.288 OA
BRANCH  17  18
HETATM   18  C19 UNL     1      13.528  75.211  -0.861  1.00  0.00     0.369 C 
HETATM   19  O8  UNL     1      13.556  73.964  -0.791  1.00  0.00    -0.238 OA
HETATM   20  N3  UNL     1      13.565  75.893   0.415  1.00  0.00    -0.257 N 
HETATM   21  C20 UNL     1      13.535  77.316   0.426  1.00  0.00     0.337 C 
ATOM     22  H3  UNL     1      13.611  75.366   1.288  1.00  0.00     0.175 HD
HETATM   23  N4  UNL     1      13.571  78.033   1.654  1.00  0.00    -0.040 NA
HETATM   24  O9  UNL     1      13.478  77.977  -0.666  1.00  0.00    -0.251 OA
ENDBRANCH  17  18
ENDBRANCH  16  17
BRANCH   3  25
HETATM   25  O2  UNL     1      12.390  73.386  -3.537  1.00  0.00    -0.355 OA
HETATM   26  C5  UNL     1      11.692  72.186  -3.704  1.00  0.00     0.210 C 
ENDBRANCH   3  25
BRANCH   6  27
HETATM   27  O3  UNL     1      11.412  77.732  -6.693  1.00  0.00    -0.351 OA
HETATM   28  C9  UNL     1      11.952  77.801  -8.010  1.00  0.00     0.210 C 
ENDBRANCH   6  27
BRANCH   9  29
HETATM   29  C12 UNL     1      15.101  80.133  -5.225  1.00  0.00     0.269 C 
HETATM   30  N1  UNL     1      15.576  80.299  -6.543  1.00  0.00    -0.057 NA
HETATM   31  O5  UNL     1      14.309  81.008  -4.800  1.00  0.00    -0.271 OA
ENDBRANCH   9  29
BRANCH  12  32
HETATM   32  O6  UNL     1      18.108  78.222  -1.977  1.00  0.00    -0.358 OA
ATOM     33  H6  UNL     1      18.336  79.083  -1.647  1.00  0.00     0.217 HD
ENDBRANCH  12  32
BRANCH   1  34
HETATM   34  O1  UNL     1       9.726  75.550  -6.790  1.00  0.00    -0.353 OA
HETATM   35  C1  UNL     1       8.948  74.394  -6.986  1.00  0.00     0.210 C 
ENDBRANCH   1  34
TORSDOF 7
ENDMDL
MODEL 5
REMARK VINA RESULT: -7.192548899      2.002      3.550
REMARK  7 active torsions:
REMARK  status: ('A' for Active; 'I' for Inactive)
REMARK    1  A    between atoms: O1_2  and  C2_3 
REMARK    2  A    between atoms: C4_5  and  O2_6 
REMARK    3  A    between atoms: C8_10  and  O3_11 
REMARK    4  A    between atoms: C11_15  and  C12_16 
REMARK    5  A    between atoms: C14_21  and  O6_22 
REMARK    6  A    between atoms: C18_27  and  O7_28 
REMARK    7  A    between atoms: O7_28  and  C19_29 
REMARK       I    between atoms: C19_29  and  N3_31 
REMARK       I    between atoms: N3_31  and  C20_33 
ROOT
HETATM    1  C2  UNL     1      14.967  77.569   0.213  1.00  0.00     0.107 A 
HETATM    2  C3  UNL     1      14.305  76.383   0.266  1.00  0.00     0.077 A 
HETATM    3  C4  UNL     1      13.642  75.946  -0.871  1.00  0.00     0.083 A 
HETATM    4  C6  UNL     1      13.637  76.680  -2.055  1.00  0.00     0.046 A 
HETATM    5  C7  UNL     1      14.297  77.879  -2.116  1.00  0.00     0.124 A 
HETATM    6  C8  UNL     1      14.959  78.300  -0.960  1.00  0.00     0.136 A 
HETATM    7  O4  UNL     1      14.318  78.656  -3.237  1.00  0.00    -0.305 OA
HETATM    8  C10 UNL     1      13.669  78.287  -4.377  1.00  0.00     0.103 A 
HETATM    9  C11 UNL     1      13.737  79.157  -5.454  1.00  0.00     0.090 A 
HETATM   10  C13 UNL     1      13.077  78.823  -6.614  1.00  0.00     0.098 A 
HETATM   11  N2  UNL     1      13.147  79.717  -7.720  1.00  0.00    -0.098 NA
HETATM   12  C14 UNL     1      12.376  77.641  -6.661  1.00  0.00     0.097 A 
HETATM   13  C15 UNL     1      12.315  76.767  -5.566  1.00  0.00    -0.015 A 
HETATM   14  C16 UNL     1      11.496  75.572  -5.787  1.00  0.00     0.052 C 
HETATM   15  C17 UNL     1      12.975  77.089  -4.400  1.00  0.00     0.020 A 
HETATM   16  C18 UNL     1      12.976  76.104  -3.279  1.00  0.00     0.209 C 
ENDROOT
BRANCH  16  17
HETATM   17  O7  UNL     1      13.932  75.120  -3.702  1.00  0.00    -0.288 OA
BRANCH  17  18
HETATM   18  C19 UNL     1      13.870  73.784  -3.592  1.00  0.00     0.369 C 
HETATM   19  O8  UNL     1      12.833  73.127  -3.817  1.00  0.00    -0.238 OA
HETATM   20  N3  UNL     1      15.018  72.994  -3.199  1.00  0.00    -0.257 N 
HETATM   21  C20 UNL     1      16.243  73.665  -2.923  1.00  0.00     0.337 C 
ATOM     22  H3  UNL     1      14.951  71.979  -3.122  1.00  0.00     0.175 HD
HETATM   23  N4  UNL     1      17.399  72.932  -2.534  1.00  0.00    -0.040 NA
HETATM   24  O9  UNL     1      16.328  74.936  -3.019  1.00  0.00    -0.251 OA
ENDBRANCH  17  18
ENDBRANCH  16  17
BRANCH   3  25
HETATM   25  O2  UNL     1      12.982  74.741  -0.765  1.00  0.00    -0.355 OA
HETATM   26  C5  UNL     1      13.449  73.664  -0.004  1.00  0.00     0.210 C 
ENDBRANCH   3  25
BRANCH   6  27
HETATM   27  O3  UNL     1      15.637  79.505  -0.994  1.00  0.00    -0.351 OA
HETATM   28  C9  UNL     1      14.981  80.713  -0.620  1.00  0.00     0.210 C 
ENDBRANCH   6  27
BRANCH   9  29
HETATM   29  C12 UNL     1      14.488  80.395  -5.400  1.00  0.00     0.269 C 
HETATM   30  N1  UNL     1      15.746  80.590  -6.007  1.00  0.00    -0.057 NA
HETATM   31  O5  UNL     1      14.008  81.372  -4.777  1.00  0.00    -0.271 OA
ENDBRANCH   9  29
BRANCH  12  32
HETATM   32  O6  UNL     1      11.705  77.316  -7.854  1.00  0.00    -0.358 OA
ATOM     33  H6  UNL     1      11.147  76.547  -7.857  1.00  0.00     0.217 HD
ENDBRANCH  12  32
BRANCH   1  34
HETATM   34  O1  UNL     1      15.645  78.033   1.340  1.00  0.00    -0.353 OA
HETATM   35  C1  UNL     1      16.921  77.550   1.685  1.00  0.00     0.210 C 
ENDBRANCH   1  34
TORSDOF 7
ENDMDL
