MODEL 1
REMARK VINA RESULT: -5.771705917      0.000      0.000
REMARK  4 active torsions:
REMARK  status: ('A' for Active; 'I' for Inactive)
REMARK    1  A    between atoms: N1_1  and  C1_4 
REMARK    2  A    between atoms: C2_7  and  N3_8 
REMARK    3  A    between atoms: N3_8  and  O1_9 
REMARK    4  A    between atoms: N3_8  and  C3_11 
ROOT
HETATM    1  N3  UNL     1      -8.056  16.814  12.228  1.00  0.00    -0.089 NA
ENDROOT
BRANCH   1   2
HETATM    2  C2  UNL     1      -8.613  17.697  13.179  1.00  0.00     0.131 A 
HETATM    3  N2  UNL     1      -9.907  18.023  13.286  1.00  0.00    -0.179 N 
HETATM    4  C1  UNL     1     -10.386  18.869  14.212  1.00  0.00     0.676 A 
ATOM      5  H2  UNL     1     -10.565  17.605  12.628  1.00  0.00     0.185 HD
HETATM    6  N7  UNL     1      -9.579  19.458  15.110  1.00  0.00    -0.202 N 
HETATM    7  C7  UNL     1      -8.281  19.167  15.047  1.00  0.00     0.109 A 
ATOM      8  H7  UNL     1      -9.945  20.101  15.812  1.00  0.00     0.183 HD
HETATM    9  C6  UNL     1      -7.768  18.308  14.113  1.00  0.00     0.063 A 
BRANCH   4  10
HETATM   10  N1  UNL     1     -11.644  19.126  14.244  1.00  0.00    -0.234 N 
ATOM     11  H12 UNL     1     -12.305  18.352  14.303  1.00  0.00     0.174 HD
ATOM     12  H11 UNL     1     -11.960  20.096  14.209  1.00  0.00     0.174 HD
ENDBRANCH   4  10
ENDBRANCH   1   2
BRANCH   1  13
HETATM   13  O1  UNL     1      -9.033  16.361  11.392  1.00  0.00    -0.300 OA
ATOM     14  H1  UNL     1      -8.863  16.661  10.507  1.00  0.00     0.238 HD
ENDBRANCH   1  13
BRANCH   1  15
HETATM   15  C3  UNL     1      -7.360  15.712  12.768  1.00  0.00     0.197 A 
HETATM   16  N4  UNL     1      -7.627  15.153  13.954  1.00  0.00    -0.280 N 
HETATM   17  N5  UNL     1      -6.997  14.134  14.472  1.00  0.00    -0.250 N 
ATOM     18  H4  UNL     1      -8.388  15.558  14.501  1.00  0.00     0.188 HD
HETATM   19  C4  UNL     1      -5.979  13.555  13.793  1.00  0.00     0.341 A 
ATOM     20  H5  UNL     1      -7.271  13.774  15.386  1.00  0.00     0.192 HD
HETATM   21  O2  UNL     1      -5.380  12.569  14.314  1.00  0.00    -0.245 OA
HETATM   22  N6  UNL     1      -5.665  14.064  12.610  1.00  0.00    -0.272 N 
HETATM   23  C5  UNL     1      -6.305  15.112  12.066  1.00  0.00     0.291 A 
ATOM     24  H6  UNL     1      -4.900  13.639  12.086  1.00  0.00     0.174 HD
HETATM   25  O3  UNL     1      -5.991  15.587  10.931  1.00  0.00    -0.264 OA
ENDBRANCH   1  15
TORSDOF 4
ENDMDL
MODEL 2
REMARK VINA RESULT: -5.699798623      2.245      5.858
REMARK  4 active torsions:
REMARK  status: ('A' for Active; 'I' for Inactive)
REMARK    1  A    between atoms: N1_1  and  C1_4 
REMARK    2  A    between atoms: C2_7  and  N3_8 
REMARK    3  A    between atoms: N3_8  and  O1_9 
REMARK    4  A    between atoms: N3_8  and  C3_11 
ROOT
HETATM    1  N3  UNL     1      -6.298  14.704  11.135  1.00  0.00    -0.089 NA
ENDROOT
BRANCH   1   2
HETATM    2  C2  UNL     1      -5.890  13.525  11.797  1.00  0.00     0.131 A 
HETATM    3  N2  UNL     1      -5.875  13.332  13.122  1.00  0.00    -0.179 N 
HETATM    4  C1  UNL     1      -5.478  12.189  13.701  1.00  0.00     0.676 A 
ATOM      5  H2  UNL     1      -6.182  14.097  13.723  1.00  0.00     0.185 HD
HETATM    6  N7  UNL     1      -5.060  11.140  12.973  1.00  0.00    -0.202 N 
HETATM    7  C7  UNL     1      -5.055  11.280  11.649  1.00  0.00     0.109 A 
ATOM      8  H7  UNL     1      -4.758  10.272  13.416  1.00  0.00     0.183 HD
HETATM    9  C6  UNL     1      -5.455  12.436  11.034  1.00  0.00     0.063 A 
BRANCH   4  10
HETATM   10  N1  UNL     1      -5.496  12.089  14.982  1.00  0.00    -0.234 N 
ATOM     11  H12 UNL     1      -4.865  11.428  15.435  1.00  0.00     0.174 HD
ATOM     12  H11 UNL     1      -6.138  12.669  15.522  1.00  0.00     0.174 HD
ENDBRANCH   4  10
ENDBRANCH   1   2
BRANCH   1  13
HETATM   13  O1  UNL     1      -5.219  15.307  10.558  1.00  0.00    -0.300 OA
ATOM     14  H1  UNL     1      -5.364  16.244  10.507  1.00  0.00     0.238 HD
ENDBRANCH   1  13
BRANCH   1  15
HETATM   15  C3  UNL     1      -6.975  15.642  11.943  1.00  0.00     0.197 A 
HETATM   16  N4  UNL     1      -8.262  15.980  11.797  1.00  0.00    -0.280 N 
HETATM   17  N5  UNL     1      -8.907  16.844  12.533  1.00  0.00    -0.250 N 
ATOM     18  H4  UNL     1      -8.782  15.524  11.047  1.00  0.00     0.188 HD
HETATM   19  C4  UNL     1      -8.269  17.480  13.542  1.00  0.00     0.341 A 
ATOM     20  H5  UNL     1      -9.891  17.039  12.347  1.00  0.00     0.192 HD
HETATM   21  O2  UNL     1      -8.914  18.315  14.242  1.00  0.00    -0.245 OA
HETATM   22  N6  UNL     1      -6.991  17.188  13.738  1.00  0.00    -0.272 N 
HETATM   23  C5  UNL     1      -6.315  16.302  12.989  1.00  0.00     0.291 A 
ATOM     24  H6  UNL     1      -6.496  17.660  14.495  1.00  0.00     0.174 HD
HETATM   25  O3  UNL     1      -5.090  16.035  13.191  1.00  0.00    -0.264 OA
ENDBRANCH   1  15
TORSDOF 4
ENDMDL
MODEL 3
REMARK VINA RESULT: -5.572259787      2.388      6.210
REMARK  4 active torsions:
REMARK  status: ('A' for Active; 'I' for Inactive)
REMARK    1  A    between atoms: N1_1  and  C1_4 
REMARK    2  A    between atoms: C2_7  and  N3_8 
REMARK    3  A    between atoms: N3_8  and  O1_9 
REMARK    4  A    between atoms: N3_8  and  C3_11 
ROOT
HETATM    1  N3  UNL     1      -6.189  14.179  11.429  1.00  0.00    -0.089 NA
ENDROOT
BRANCH   1   2
HETATM    2  C2  UNL     1      -5.338  13.145  11.879  1.00  0.00     0.131 A 
HETATM    3  N2  UNL     1      -4.347  13.274  12.770  1.00  0.00    -0.179 N 
HETATM    4  C1  UNL     1      -3.566  12.257  13.166  1.00  0.00     0.676 A 
ATOM      5  H2  UNL     1      -4.176  14.197  13.169  1.00  0.00     0.185 HD
HETATM    6  N7  UNL     1      -3.732  11.015  12.681  1.00  0.00    -0.202 N 
HETATM    7  C7  UNL     1      -4.705  10.832  11.791  1.00  0.00     0.109 A 
ATOM      8  H7  UNL     1      -3.137  10.243  12.984  1.00  0.00     0.183 HD
HETATM    9  C6  UNL     1      -5.515  11.853  11.372  1.00  0.00     0.063 A 
BRANCH   4  10
HETATM   10  N1  UNL     1      -2.637  12.470  14.026  1.00  0.00    -0.234 N 
ATOM     11  H12 UNL     1      -2.849  13.027  14.854  1.00  0.00     0.174 HD
ATOM     12  H11 UNL     1      -1.707  12.081  13.869  1.00  0.00     0.174 HD
ENDBRANCH   4  10
ENDBRANCH   1   2
BRANCH   1  13
HETATM   13  O1  UNL     1      -5.472  15.082  10.700  1.00  0.00    -0.300 OA
ATOM     14  H1  UNL     1      -6.024  15.461  10.027  1.00  0.00     0.238 HD
ENDBRANCH   1  13
BRANCH   1  15
HETATM   15  C3  UNL     1      -6.896  14.858  12.443  1.00  0.00     0.197 A 
HETATM   16  N4  UNL     1      -6.913  14.494  13.730  1.00  0.00    -0.280 N 
HETATM   17  N5  UNL     1      -7.560  15.108  14.684  1.00  0.00    -0.250 N 
ATOM     18  H4  UNL     1      -6.375  13.666  13.989  1.00  0.00     0.188 HD
HETATM   19  C4  UNL     1      -8.291  16.210  14.401  1.00  0.00     0.341 A 
ATOM     20  H5  UNL     1      -7.515  14.756  15.640  1.00  0.00     0.192 HD
HETATM   21  O2  UNL     1      -8.912  16.789  15.341  1.00  0.00    -0.245 OA
HETATM   22  N6  UNL     1      -8.315  16.622  13.141  1.00  0.00    -0.272 N 
HETATM   23  C5  UNL     1      -7.655  16.000  12.151  1.00  0.00     0.291 A 
ATOM     24  H6  UNL     1      -8.862  17.452  12.912  1.00  0.00     0.174 HD
HETATM   25  O3  UNL     1      -7.689  16.409  10.949  1.00  0.00    -0.264 OA
ENDBRANCH   1  15
TORSDOF 4
ENDMDL
MODEL 4
REMARK VINA RESULT: -5.494750644      4.121      8.043
REMARK  4 active torsions:
REMARK  status: ('A' for Active; 'I' for Inactive)
REMARK    1  A    between atoms: N1_1  and  C1_4 
REMARK    2  A    between atoms: C2_7  and  N3_8 
REMARK    3  A    between atoms: N3_8  and  O1_9 
REMARK    4  A    between atoms: N3_8  and  C3_11 
ROOT
HETATM    1  N3  UNL     1      -4.110  11.352  11.672  1.00  0.00    -0.089 NA
ENDROOT
BRANCH   1   2
HETATM    2  C2  UNL     1      -4.204  10.043  12.194  1.00  0.00     0.131 A 
HETATM    3  N2  UNL     1      -4.902   9.033  11.661  1.00  0.00    -0.179 N 
HETATM    4  C1  UNL     1      -4.957   7.804  12.198  1.00  0.00     0.676 A 
ATOM      5  H2  UNL     1      -5.420   9.206  10.800  1.00  0.00     0.185 HD
HETATM    6  N7  UNL     1      -4.301   7.502  13.332  1.00  0.00    -0.202 N 
HETATM    7  C7  UNL     1      -3.591   8.473  13.902  1.00  0.00     0.109 A 
ATOM      8  H7  UNL     1      -4.345   6.568  13.738  1.00  0.00     0.183 HD
HETATM    9  C6  UNL     1      -3.519   9.734  13.375  1.00  0.00     0.063 A 
BRANCH   4  10
HETATM   10  N1  UNL     1      -5.652   6.891  11.621  1.00  0.00    -0.234 N 
ATOM     11  H12 UNL     1      -6.474   6.521  12.097  1.00  0.00     0.174 HD
ATOM     12  H11 UNL     1      -5.372   6.554  10.699  1.00  0.00     0.174 HD
ENDBRANCH   4  10
ENDBRANCH   1   2
BRANCH   1  13
HETATM   13  O1  UNL     1      -2.824  11.795  11.765  1.00  0.00    -0.300 OA
ATOM     14  H1  UNL     1      -2.746  12.646  11.348  1.00  0.00     0.238 HD
ENDBRANCH   1  13
BRANCH   1  15
HETATM   15  C3  UNL     1      -4.970  12.299  12.267  1.00  0.00     0.197 A 
HETATM   16  N4  UNL     1      -5.316  12.303  13.559  1.00  0.00    -0.280 N 
HETATM   17  N5  UNL     1      -6.110  13.169  14.130  1.00  0.00    -0.250 N 
ATOM     18  H4  UNL     1      -4.927  11.567  14.149  1.00  0.00     0.188 HD
HETATM   19  C4  UNL     1      -6.657  14.167  13.397  1.00  0.00     0.341 A 
ATOM     20  H5  UNL     1      -6.318  13.092  15.125  1.00  0.00     0.192 HD
HETATM   21  O2  UNL     1      -7.424  14.995  13.971  1.00  0.00    -0.245 OA
HETATM   22  N6  UNL     1      -6.352  14.217  12.108  1.00  0.00    -0.272 N 
HETATM   23  C5  UNL     1      -5.538  13.333  11.509  1.00  0.00     0.291 A 
ATOM     24  H6  UNL     1      -6.757  14.963  11.543  1.00  0.00     0.174 HD
HETATM   25  O3  UNL     1      -5.258  13.396  10.272  1.00  0.00    -0.264 OA
ENDBRANCH   1  15
TORSDOF 4
ENDMDL
MODEL 5
REMARK VINA RESULT: -5.394129063      2.728      6.204
REMARK  4 active torsions:
REMARK  status: ('A' for Active; 'I' for Inactive)
REMARK    1  A    between atoms: N1_1  and  C1_4 
REMARK    2  A    between atoms: C2_7  and  N3_8 
REMARK    3  A    between atoms: N3_8  and  O1_9 
REMARK    4  A    between atoms: N3_8  and  C3_11 
ROOT
HETATM    1  N3  UNL     1      -6.160  14.262  11.607  1.00  0.00    -0.089 NA
ENDROOT
BRANCH   1   2
HETATM    2  C2  UNL     1      -5.303  13.211  12.001  1.00  0.00     0.131 A 
HETATM    3  N2  UNL     1      -4.309  13.300  12.893  1.00  0.00    -0.179 N 
HETATM    4  C1  UNL     1      -3.521  12.268  13.234  1.00  0.00     0.676 A 
ATOM      5  H2  UNL     1      -4.140  14.203  13.338  1.00  0.00     0.185 HD
HETATM    6  N7  UNL     1      -3.683  11.051  12.688  1.00  0.00    -0.202 N 
HETATM    7  C7  UNL     1      -4.659  10.908  11.794  1.00  0.00     0.109 A 
ATOM      8  H7  UNL     1      -3.083  10.268  12.948  1.00  0.00     0.183 HD
HETATM    9  C6  UNL     1      -5.476  11.945  11.430  1.00  0.00     0.063 A 
BRANCH   4  10
HETATM   10  N1  UNL     1      -2.589  12.442  14.100  1.00  0.00    -0.234 N 
ATOM     11  H12 UNL     1      -2.577  13.302  14.647  1.00  0.00     0.174 HD
ATOM     12  H11 UNL     1      -1.879  11.720  14.226  1.00  0.00     0.174 HD
ENDBRANCH   4  10
ENDBRANCH   1   2
BRANCH   1  13
HETATM   13  O1  UNL     1      -5.556  15.015  10.645  1.00  0.00    -0.300 OA
ATOM     14  H1  UNL     1      -5.803  14.697   9.785  1.00  0.00     0.238 HD
ENDBRANCH   1  13
BRANCH   1  15
HETATM   15  C3  UNL     1      -6.594  15.105  12.651  1.00  0.00     0.197 A 
HETATM   16  N4  UNL     1      -7.719  14.926  13.354  1.00  0.00    -0.280 N 
HETATM   17  N5  UNL     1      -8.139  15.694  14.323  1.00  0.00    -0.250 N 
ATOM     18  H4  UNL     1      -8.299  14.122  13.111  1.00  0.00     0.188 HD
HETATM   19  C4  UNL     1      -7.413  16.776  14.689  1.00  0.00     0.341 A 
ATOM     20  H5  UNL     1      -9.013  15.479  14.803  1.00  0.00     0.192 HD
HETATM   21  O2  UNL     1      -7.839  17.507  15.631  1.00  0.00    -0.245 OA
HETATM   22  N6  UNL     1      -6.286  17.007  14.030  1.00  0.00    -0.272 N 
HETATM   23  C5  UNL     1      -5.843  16.226  13.031  1.00  0.00     0.291 A 
ATOM     24  H6  UNL     1      -5.728  17.819  14.294  1.00  0.00     0.174 HD
HETATM   25  O3  UNL     1      -4.761  16.464  12.410  1.00  0.00    -0.264 OA
ENDBRANCH   1  15
TORSDOF 4
ENDMDL
