MODEL 1
REMARK VINA RESULT: -4.727037061      0.000      0.000
REMARK  5 active torsions:
REMARK  status: ('A' for Active; 'I' for Inactive)
REMARK    1  A    between atoms: N1_2  and  C3_4 
REMARK    2  A    between atoms: C3_4  and  C4_5 
REMARK    3  A    between atoms: C5_10  and  N4_11 
REMARK       I    between atoms: N4_11  and  C6_13 
REMARK    4  A    between atoms: C7_18  and  N7_19 
REMARK    5  A    between atoms: N7_19  and  N8_21 
ROOT
HETATM    1  C4  UNL     1      -4.268  10.699  12.089  1.00  0.00     0.126 A 
HETATM    2  N2  UNL     1      -5.276  11.307  11.445  1.00  0.00    -0.286 N 
ATOM      3  H2  UNL     1      -5.773  10.788  10.721  1.00  0.00     0.188 HD
HETATM    4  N3  UNL     1      -5.653  12.542  11.704  1.00  0.00    -0.281 N 
ATOM      5  H3  UNL     1      -6.428  12.942  11.176  1.00  0.00     0.188 HD
HETATM    6  C5  UNL     1      -5.041  13.302  12.654  1.00  0.00     0.169 A 
HETATM    7  C7  UNL     1      -4.009  12.712  13.330  1.00  0.00     0.167 A 
HETATM    8  N9  UNL     1      -3.657  11.441  13.031  1.00  0.00    -0.325 N 
ATOM      9  H9  UNL     1      -2.884  11.022  13.549  1.00  0.00     0.169 HD
ENDROOT
BRANCH   6  10
HETATM   10  N4  UNL     1      -5.428  14.496  12.882  1.00  0.00    -0.313 N 
HETATM   11  C6  UNL     1      -6.623  15.108  12.497  1.00  0.00     0.187 C 
HETATM   12  N5  UNL     1      -7.632  15.089  13.300  1.00  0.00    -0.373 N 
HETATM   13  N6  UNL     1      -6.778  15.770  11.248  1.00  0.00    -0.064 NA
ATOM     14  H52 UNL     1      -7.520  14.615  14.196  1.00  0.00     0.158 HD
ATOM     15  H51 UNL     1      -8.505  15.536  13.019  1.00  0.00     0.158 HD
ATOM     16  H4  UNL     1      -4.782  15.078  13.415  1.00  0.00     0.170 HD
ENDBRANCH   6  10
BRANCH   7  17
HETATM   17  N7  UNL     1      -3.350  13.311  14.243  1.00  0.00    -0.289 N 
ATOM     18  H7  UNL     1      -3.750  13.365  15.181  1.00  0.00     0.188 HD
BRANCH  17  19
HETATM   19  N8  UNL     1      -2.115  13.891  14.013  1.00  0.00    -0.344 N 
ATOM     20  H82 UNL     1      -1.840  14.051  13.044  1.00  0.00     0.176 HD
ATOM     21  H81 UNL     1      -1.484  14.157  14.769  1.00  0.00     0.176 HD
ENDBRANCH  17  19
ENDBRANCH   7  17
BRANCH   1  22
HETATM   22  C3  UNL     1      -3.793   9.332  11.856  1.00  0.00     0.349 C 
BRANCH  22  23
HETATM   23  N1  UNL     1      -4.868   8.369  11.709  1.00  0.00     0.086 N 
HETATM   24  C1  UNL     1      -5.187   7.778  13.012  1.00  0.00     0.309 C 
HETATM   25  C2  UNL     1      -4.338   7.289  10.893  1.00  0.00     0.309 C 
ENDBRANCH  22  23
ENDBRANCH   1  22
TORSDOF 5
ENDMDL
MODEL 2
REMARK VINA RESULT: -4.673513129      4.178      7.428
REMARK  5 active torsions:
REMARK  status: ('A' for Active; 'I' for Inactive)
REMARK    1  A    between atoms: N1_2  and  C3_4 
REMARK    2  A    between atoms: C3_4  and  C4_5 
REMARK    3  A    between atoms: C5_10  and  N4_11 
REMARK       I    between atoms: N4_11  and  C6_13 
REMARK    4  A    between atoms: C7_18  and  N7_19 
REMARK    5  A    between atoms: N7_19  and  N8_21 
ROOT
HETATM    1  C4  UNL     1      -8.134  16.338  13.052  1.00  0.00     0.126 A 
HETATM    2  N2  UNL     1      -8.164  15.962  14.340  1.00  0.00    -0.286 N 
ATOM      3  H2  UNL     1      -7.617  15.149  14.622  1.00  0.00     0.188 HD
HETATM    4  N3  UNL     1      -8.866  16.595  15.257  1.00  0.00    -0.281 N 
ATOM      5  H3  UNL     1      -8.843  16.255  16.218  1.00  0.00     0.188 HD
HETATM    6  C5  UNL     1      -9.623  17.688  14.963  1.00  0.00     0.169 A 
HETATM    7  C7  UNL     1      -9.615  18.098  13.659  1.00  0.00     0.167 A 
HETATM    8  N9  UNL     1      -8.878  17.418  12.752  1.00  0.00    -0.325 N 
ATOM      9  H9  UNL     1      -8.887  17.743  11.784  1.00  0.00     0.169 HD
ENDROOT
BRANCH   6  10
HETATM   10  N4  UNL     1     -10.294  18.280  15.873  1.00  0.00    -0.313 N 
HETATM   11  C6  UNL     1     -11.649  18.140  16.182  1.00  0.00     0.187 C 
HETATM   12  N5  UNL     1     -12.009  17.286  17.079  1.00  0.00    -0.373 N 
HETATM   13  N6  UNL     1     -12.663  18.912  15.552  1.00  0.00    -0.064 NA
ATOM     14  H52 UNL     1     -11.281  16.732  17.530  1.00  0.00     0.158 HD
ATOM     15  H51 UNL     1     -12.998  17.182  17.304  1.00  0.00     0.158 HD
ATOM     16  H4  UNL     1      -9.773  18.942  16.449  1.00  0.00     0.170 HD
ENDBRANCH   6  10
BRANCH   7  17
HETATM   17  N7  UNL     1     -10.279  19.107  13.248  1.00  0.00    -0.289 N 
ATOM     18  H7  UNL     1     -11.298  19.051  13.237  1.00  0.00     0.188 HD
BRANCH  17  19
HETATM   19  N8  UNL     1      -9.672  20.273  12.816  1.00  0.00    -0.344 N 
ATOM     20  H82 UNL     1      -9.975  20.663  11.924  1.00  0.00     0.176 HD
ATOM     21  H81 UNL     1      -8.943  20.743  13.353  1.00  0.00     0.176 HD
ENDBRANCH  17  19
ENDBRANCH   7  17
BRANCH   1  22
HETATM   22  C3  UNL     1      -7.379  15.685  11.979  1.00  0.00     0.349 C 
BRANCH  22  23
HETATM   23  N1  UNL     1      -6.221  14.953  12.457  1.00  0.00     0.086 N 
HETATM   24  C1  UNL     1      -5.027  15.798  12.369  1.00  0.00     0.309 C 
HETATM   25  C2  UNL     1      -6.015  13.862  11.518  1.00  0.00     0.309 C 
ENDBRANCH  22  23
ENDBRANCH   1  22
TORSDOF 5
ENDMDL
MODEL 3
REMARK VINA RESULT: -4.597105049      3.150      5.534
REMARK  5 active torsions:
REMARK  status: ('A' for Active; 'I' for Inactive)
REMARK    1  A    between atoms: N1_2  and  C3_4 
REMARK    2  A    between atoms: C3_4  and  C4_5 
REMARK    3  A    between atoms: C5_10  and  N4_11 
REMARK       I    between atoms: N4_11  and  C6_13 
REMARK    4  A    between atoms: C7_18  and  N7_19 
REMARK    5  A    between atoms: N7_19  and  N8_21 
ROOT
HETATM    1  C4  UNL     1      -6.869  15.520  12.028  1.00  0.00     0.126 A 
HETATM    2  N2  UNL     1      -8.032  15.812  11.424  1.00  0.00    -0.286 N 
ATOM      3  H2  UNL     1      -8.232  15.382  10.521  1.00  0.00     0.188 HD
HETATM    4  N3  UNL     1      -8.926  16.627  11.943  1.00  0.00    -0.281 N 
ATOM      5  H3  UNL     1      -9.789  16.804  11.430  1.00  0.00     0.188 HD
HETATM    6  C5  UNL     1      -8.736  17.242  13.143  1.00  0.00     0.169 A 
HETATM    7  C7  UNL     1      -7.561  16.967  13.786  1.00  0.00     0.167 A 
HETATM    8  N9  UNL     1      -6.671  16.123  13.215  1.00  0.00    -0.325 N 
ATOM      9  H9  UNL     1      -5.802  15.931  13.713  1.00  0.00     0.169 HD
ENDROOT
BRANCH   6  10
HETATM   10  N4  UNL     1      -9.620  18.027  13.621  1.00  0.00    -0.313 N 
HETATM   11  C6  UNL     1      -9.542  19.409  13.808  1.00  0.00     0.187 C 
HETATM   12  N5  UNL     1      -9.965  20.200  12.881  1.00  0.00    -0.373 N 
HETATM   13  N6  UNL     1      -9.021  19.994  14.996  1.00  0.00    -0.064 NA
ATOM     14  H52 UNL     1     -10.339  19.780  12.030  1.00  0.00     0.158 HD
ATOM     15  H51 UNL     1      -9.908  21.209  13.018  1.00  0.00     0.158 HD
ATOM     16  H4  UNL     1     -10.498  17.590  13.901  1.00  0.00     0.170 HD
ENDBRANCH   6  10
BRANCH   7  17
HETATM   17  N7  UNL     1      -7.256  17.475  14.915  1.00  0.00    -0.289 N 
ATOM     18  H7  UNL     1      -7.770  17.173  15.743  1.00  0.00     0.188 HD
BRANCH  17  19
HETATM   19  N8  UNL     1      -6.254  18.419  15.061  1.00  0.00    -0.344 N 
ATOM     20  H82 UNL     1      -5.424  18.323  14.477  1.00  0.00     0.176 HD
ATOM     21  H81 UNL     1      -6.321  19.192  15.723  1.00  0.00     0.176 HD
ENDBRANCH  17  19
ENDBRANCH   7  17
BRANCH   1  22
HETATM   22  C3  UNL     1      -5.829  14.626  11.513  1.00  0.00     0.349 C 
BRANCH  22  23
HETATM   23  N1  UNL     1      -5.904  13.284  12.061  1.00  0.00     0.086 N 
HETATM   24  C1  UNL     1      -4.826  13.084  13.034  1.00  0.00     0.309 C 
HETATM   25  C2  UNL     1      -5.627  12.379  10.957  1.00  0.00     0.309 C 
ENDBRANCH  22  23
ENDBRANCH   1  22
TORSDOF 5
ENDMDL
MODEL 4
REMARK VINA RESULT: -4.539136330      4.881      8.322
REMARK  5 active torsions:
REMARK  status: ('A' for Active; 'I' for Inactive)
REMARK    1  A    between atoms: N1_2  and  C3_4 
REMARK    2  A    between atoms: C3_4  and  C4_5 
REMARK    3  A    between atoms: C5_10  and  N4_11 
REMARK       I    between atoms: N4_11  and  C6_13 
REMARK    4  A    between atoms: C7_18  and  N7_19 
REMARK    5  A    between atoms: N7_19  and  N8_21 
ROOT
HETATM    1  C4  UNL     1      -8.622  18.223  14.697  1.00  0.00     0.126 A 
HETATM    2  N2  UNL     1      -7.378  18.594  15.036  1.00  0.00    -0.286 N 
ATOM      3  H2  UNL     1      -7.258  19.444  15.587  1.00  0.00     0.188 HD
HETATM    4  N3  UNL     1      -6.305  17.913  14.690  1.00  0.00    -0.281 N 
ATOM      5  H3  UNL     1      -5.389  18.253  14.982  1.00  0.00     0.188 HD
HETATM    6  C5  UNL     1      -6.379  16.769  13.954  1.00  0.00     0.169 A 
HETATM    7  C7  UNL     1      -7.633  16.362  13.592  1.00  0.00     0.167 A 
HETATM    8  N9  UNL     1      -8.706  17.093  13.970  1.00  0.00    -0.325 N 
ATOM      9  H9  UNL     1      -9.632  16.769  13.689  1.00  0.00     0.169 HD
ENDROOT
BRANCH   6  10
HETATM   10  N4  UNL     1      -5.323  16.131  13.634  1.00  0.00    -0.313 N 
HETATM   11  C6  UNL     1      -4.618  16.170  12.428  1.00  0.00     0.187 C 
HETATM   12  N5  UNL     1      -3.638  16.996  12.294  1.00  0.00    -0.373 N 
HETATM   13  N6  UNL     1      -4.930  15.321  11.330  1.00  0.00    -0.064 NA
ATOM     14  H52 UNL     1      -3.414  17.605  13.082  1.00  0.00     0.158 HD
ATOM     15  H51 UNL     1      -3.123  17.025  11.413  1.00  0.00     0.158 HD
ATOM     16  H4  UNL     1      -4.943  15.512  14.350  1.00  0.00     0.170 HD
ENDBRANCH   6  10
BRANCH   7  17
HETATM   17  N7  UNL     1      -7.846  15.310  12.903  1.00  0.00    -0.289 N 
ATOM     18  H7  UNL     1      -7.802  14.402  13.368  1.00  0.00     0.188 HD
BRANCH  17  19
HETATM   19  N8  UNL     1      -8.133  15.351  11.550  1.00  0.00    -0.344 N 
ATOM     20  H82 UNL     1      -7.408  15.698  10.923  1.00  0.00     0.176 HD
ATOM     21  H81 UNL     1      -9.030  15.050  11.170  1.00  0.00     0.176 HD
ENDBRANCH  17  19
ENDBRANCH   7  17
BRANCH   1  22
HETATM   22  C3  UNL     1      -9.859  18.927  15.044  1.00  0.00     0.349 C 
BRANCH  22  23
HETATM   23  N1  UNL     1     -10.572  19.439  13.889  1.00  0.00     0.086 N 
HETATM   24  C1  UNL     1     -10.013  20.736  13.495  1.00  0.00     0.309 C 
HETATM   25  C2  UNL     1     -11.931  19.701  14.333  1.00  0.00     0.309 C 
ENDBRANCH  22  23
ENDBRANCH   1  22
TORSDOF 5
ENDMDL
MODEL 5
REMARK VINA RESULT: -4.468748271      1.405      1.654
REMARK  5 active torsions:
REMARK  status: ('A' for Active; 'I' for Inactive)
REMARK    1  A    between atoms: N1_2  and  C3_4 
REMARK    2  A    between atoms: C3_4  and  C4_5 
REMARK    3  A    between atoms: C5_10  and  N4_11 
REMARK       I    between atoms: N4_11  and  C6_13 
REMARK    4  A    between atoms: C7_18  and  N7_19 
REMARK    5  A    between atoms: N7_19  and  N8_21 
ROOT
HETATM    1  C4  UNL     1      -4.643  10.366  12.486  1.00  0.00     0.126 A 
HETATM    2  N2  UNL     1      -4.825  11.219  11.466  1.00  0.00    -0.286 N 
ATOM      3  H2  UNL     1      -4.633  10.892  10.519  1.00  0.00     0.188 HD
HETATM    4  N3  UNL     1      -5.240  12.457  11.630  1.00  0.00    -0.281 N 
ATOM      5  H3  UNL     1      -5.358  13.051  10.810  1.00  0.00     0.188 HD
HETATM    6  C5  UNL     1      -5.518  12.971  12.861  1.00  0.00     0.169 A 
HETATM    7  C7  UNL     1      -5.343  12.128  13.923  1.00  0.00     0.167 A 
HETATM    8  N9  UNL     1      -4.916  10.863  13.706  1.00  0.00    -0.325 N 
ATOM      9  H9  UNL     1      -4.793  10.252  14.513  1.00  0.00     0.169 HD
ENDROOT
BRANCH   6  10
HETATM   10  N4  UNL     1      -5.919  14.175  12.989  1.00  0.00    -0.313 N 
HETATM   11  C6  UNL     1      -6.661  14.942  12.089  1.00  0.00     0.187 C 
HETATM   12  N5  UNL     1      -7.947  14.962  12.182  1.00  0.00    -0.373 N 
HETATM   13  N6  UNL     1      -6.055  15.722  11.064  1.00  0.00    -0.064 NA
ATOM     14  H52 UNL     1      -8.381  14.403  12.917  1.00  0.00     0.158 HD
ATOM     15  H51 UNL     1      -8.489  15.522  11.524  1.00  0.00     0.158 HD
ATOM     16  H4  UNL     1      -5.665  14.637  13.863  1.00  0.00     0.170 HD
ENDBRANCH   6  10
BRANCH   7  17
HETATM   17  N7  UNL     1      -5.567  12.480  15.128  1.00  0.00    -0.289 N 
ATOM     18  H7  UNL     1      -4.802  12.881  15.672  1.00  0.00     0.188 HD
BRANCH  17  19
HETATM   19  N8  UNL     1      -6.806  12.339  15.727  1.00  0.00    -0.344 N 
ATOM     20  H82 UNL     1      -6.990  12.886  16.569  1.00  0.00     0.176 HD
ATOM     21  H81 UNL     1      -7.526  11.717  15.360  1.00  0.00     0.176 HD
ENDBRANCH  17  19
ENDBRANCH   7  17
BRANCH   1  22
HETATM   22  C3  UNL     1      -4.185   8.978  12.380  1.00  0.00     0.349 C 
BRANCH  22  23
HETATM   23  N1  UNL     1      -5.241   8.051  12.018  1.00  0.00     0.086 N 
HETATM   24  C1  UNL     1      -5.620   7.250  13.186  1.00  0.00     0.309 C 
HETATM   25  C2  UNL     1      -4.658   7.123  11.063  1.00  0.00     0.309 C 
ENDBRANCH  22  23
ENDBRANCH   1  22
TORSDOF 5
ENDMDL
