MODEL 1
REMARK VINA RESULT: -9.684933795      0.000      0.000
REMARK  7 active torsions:
REMARK  status: ('A' for Active; 'I' for Inactive)
REMARK    1  A    between atoms: C8_11  and  O1_12 
REMARK    2  A    between atoms: N2_14  and  C9_15 
REMARK    3  A    between atoms: C9_15  and  N3_16 
REMARK    4  A    between atoms: N4_19  and  C12_20 
REMARK    5  A    between atoms: C12_20  and  C13_21 
REMARK    6  A    between atoms: C14_22  and  O2_23 
REMARK    7  A    between atoms: C21_33  and  O3_34 
ROOT
HETATM    1  C1  UNL     1       2.032  -9.688 -16.991  1.00  0.00     0.051 C 
HETATM    2  C2  UNL     1       1.756  -8.965 -15.719  1.00  0.00    -0.027 A 
HETATM    3  C3  UNL     1       1.602  -7.601 -15.769  1.00  0.00     0.041 A 
HETATM    4 CL1  UNL     1       1.754  -6.711 -17.246  1.00  0.00    -0.084 Cl
HETATM    5  C4  UNL     1       1.262  -6.897 -14.613  1.00  0.00     0.026 A 
HETATM    6  C5  UNL     1       1.078  -7.514 -13.469  1.00  0.00     0.032 A 
HETATM    7  C6  UNL     1       1.208  -8.937 -13.354  1.00  0.00     0.044 A 
HETATM    8  N1  UNL     1       1.017  -9.754 -12.360  1.00  0.00    -0.351 N 
ATOM      9  H1  UNL     1       0.734  -9.492 -11.415  1.00  0.00     0.166 HD
HETATM   10  C7  UNL     1       1.265 -11.047 -12.805  1.00  0.00     0.100 A 
HETATM   11  C8  UNL     1       1.296 -12.387 -12.462  1.00  0.00     0.174 A 
HETATM   12  N2  UNL     1       1.660 -13.048 -13.543  1.00  0.00    -0.278 N 
HETATM   13  C21 UNL     1       1.858 -12.197 -14.572  1.00  0.00     0.159 A 
HETATM   14  C22 UNL     1       1.613 -10.916 -14.155  1.00  0.00     0.059 A 
HETATM   15  C23 UNL     1       1.569  -9.559 -14.539  1.00  0.00     0.015 A 
ENDROOT
BRANCH  12  16
HETATM   16  C9  UNL     1       1.845 -14.502 -13.612  1.00  0.00     0.406 C 
BRANCH  16  17
HETATM   17  N3  UNL     1       0.703 -15.233 -14.227  1.00  0.00     0.108 N 
HETATM   18  C10 UNL     1       1.252 -16.227 -15.106  1.00  0.00     0.289 C 
HETATM   19  C11 UNL     1       0.761 -16.376 -16.473  1.00  0.00     0.125 C 
HETATM   20  N4  UNL     1      -0.110 -15.429 -17.070  1.00  0.00    -0.288 NA
HETATM   21  C19 UNL     1      -0.992 -14.992 -15.904  1.00  0.00     0.125 C 
HETATM   22  C20 UNL     1      -0.108 -14.234 -14.977  1.00  0.00     0.289 C 
BRANCH  20  23
HETATM   23  C12 UNL     1       0.377 -14.268 -17.684  1.00  0.00     0.075 C 
BRANCH  23  24
HETATM   24  C13 UNL     1       0.382 -14.097 -19.189  1.00  0.00     0.031 A 
HETATM   25  C14 UNL     1      -0.797 -14.593 -19.803  1.00  0.00     0.078 A 
HETATM   26  C15 UNL     1      -1.026 -14.173 -21.126  1.00  0.00     0.039 A 
HETATM   27  C16 UNL     1      -0.162 -13.344 -21.795  1.00  0.00     0.028 A 
HETATM   28  C17 UNL     1       0.942 -12.905 -21.172  1.00  0.00     0.056 A 
HETATM   29 CL2  UNL     1       1.974 -11.788 -22.073  1.00  0.00    -0.083 Cl
HETATM   30  C18 UNL     1       1.242 -13.278 -19.825  1.00  0.00     0.069 A 
HETATM   31 CL3  UNL     1       2.689 -12.597 -19.151  1.00  0.00    -0.082 Cl
BRANCH  25  32
HETATM   32  O2  UNL     1      -1.706 -15.415 -19.284  1.00  0.00    -0.360 OA
ATOM     33  H2  UNL     1      -1.676 -16.364 -19.236  1.00  0.00     0.217 HD
ENDBRANCH  25  32
ENDBRANCH  23  24
ENDBRANCH  20  23
ENDBRANCH  16  17
ENDBRANCH  12  16
BRANCH  11  34
HETATM   34  O1  UNL     1       0.962 -12.833 -11.177  1.00  0.00    -0.344 OA
ATOM     35  H1  UNL     1       0.086 -13.128 -10.958  1.00  0.00     0.219 HD
ENDBRANCH  11  34
BRANCH  13  36
HETATM   36  O3  UNL     1       2.264 -12.595 -15.829  1.00  0.00    -0.345 OA
ATOM     37  H3  UNL     1       2.582 -11.997 -16.495  1.00  0.00     0.219 HD
ENDBRANCH  13  36
TORSDOF 7
ENDMDL
MODEL 2
REMARK VINA RESULT: -9.541592500      1.482      6.353
REMARK  7 active torsions:
REMARK  status: ('A' for Active; 'I' for Inactive)
REMARK    1  A    between atoms: C8_11  and  O1_12 
REMARK    2  A    between atoms: N2_14  and  C9_15 
REMARK    3  A    between atoms: C9_15  and  N3_16 
REMARK    4  A    between atoms: N4_19  and  C12_20 
REMARK    5  A    between atoms: C12_20  and  C13_21 
REMARK    6  A    between atoms: C14_22  and  O2_23 
REMARK    7  A    between atoms: C21_33  and  O3_34 
ROOT
HETATM    1  C1  UNL     1       2.779 -12.943 -19.246  1.00  0.00     0.051 C 
HETATM    2  C2  UNL     1       1.426 -13.400 -19.668  1.00  0.00    -0.027 A 
HETATM    3  C3  UNL     1       0.974 -13.029 -20.911  1.00  0.00     0.041 A 
HETATM    4 CL1  UNL     1       1.909 -12.028 -21.969  1.00  0.00    -0.084 Cl
HETATM    5  C4  UNL     1      -0.253 -13.504 -21.375  1.00  0.00     0.026 A 
HETATM    6  C5  UNL     1      -0.991 -14.310 -20.646  1.00  0.00     0.032 A 
HETATM    7  C6  UNL     1      -0.568 -14.747 -19.349  1.00  0.00     0.044 A 
HETATM    8  N1  UNL     1      -1.093 -15.574 -18.492  1.00  0.00    -0.351 N 
ATOM      9  H1  UNL     1      -1.973 -16.078 -18.608  1.00  0.00     0.166 HD
HETATM   10  C7  UNL     1      -0.249 -15.653 -17.391  1.00  0.00     0.100 A 
HETATM   11  C8  UNL     1      -0.039 -16.232 -16.152  1.00  0.00     0.174 A 
HETATM   12  N2  UNL     1       1.098 -15.749 -15.694  1.00  0.00    -0.278 N 
HETATM   13  C21 UNL     1       1.639 -14.891 -16.585  1.00  0.00     0.159 A 
HETATM   14  C22 UNL     1       0.824 -14.802 -17.682  1.00  0.00     0.059 A 
HETATM   15  C23 UNL     1       0.648 -14.214 -18.952  1.00  0.00     0.015 A 
ENDROOT
BRANCH  12  16
HETATM   16  C9  UNL     1       1.684 -16.081 -14.390  1.00  0.00     0.406 C 
BRANCH  16  17
HETATM   17  N3  UNL     1       1.118 -15.303 -13.253  1.00  0.00     0.108 N 
HETATM   18  C10 UNL     1      -0.090 -14.680 -13.719  1.00  0.00     0.289 C 
HETATM   19  C11 UNL     1      -0.341 -13.260 -13.486  1.00  0.00     0.125 C 
HETATM   20  N4  UNL     1       0.661 -12.385 -12.994  1.00  0.00    -0.288 NA
HETATM   21  C19 UNL     1       1.442 -13.270 -12.026  1.00  0.00     0.125 C 
HETATM   22  C20 UNL     1       2.135 -14.288 -12.862  1.00  0.00     0.289 C 
BRANCH  20  23
HETATM   23  C12 UNL     1       1.590 -11.780 -13.849  1.00  0.00     0.075 C 
BRANCH  23  24
HETATM   24  C13 UNL     1       1.416 -10.361 -14.350  1.00  0.00     0.031 A 
HETATM   25  C14 UNL     1       1.424  -9.404 -13.303  1.00  0.00     0.078 A 
HETATM   26  C15 UNL     1       1.612  -8.065 -13.693  1.00  0.00     0.039 A 
HETATM   27  C16 UNL     1       1.767  -7.696 -15.005  1.00  0.00     0.028 A 
HETATM   28  C17 UNL     1       1.747  -8.639 -15.960  1.00  0.00     0.056 A 
HETATM   29 CL2  UNL     1       2.019  -8.097 -17.620  1.00  0.00    -0.083 Cl
HETATM   30  C18 UNL     1       1.571 -10.022 -15.644  1.00  0.00     0.069 A 
HETATM   31 CL3  UNL     1       1.606 -11.120 -16.989  1.00  0.00    -0.082 Cl
BRANCH  25  32
HETATM   32  O2  UNL     1       1.265  -9.616 -11.999  1.00  0.00    -0.360 OA
ATOM     33  H2  UNL     1       0.833  -9.056 -11.364  1.00  0.00     0.217 HD
ENDBRANCH  25  32
ENDBRANCH  23  24
ENDBRANCH  20  23
ENDBRANCH  16  17
ENDBRANCH  12  16
BRANCH  11  34
HETATM   34  O1  UNL     1      -0.935 -17.159 -15.604  1.00  0.00    -0.344 OA
ATOM     35  H1  UNL     1      -0.709 -18.075 -15.496  1.00  0.00     0.219 HD
ENDBRANCH  11  34
BRANCH  13  36
HETATM   36  O3  UNL     1       2.822 -14.213 -16.376  1.00  0.00    -0.345 OA
ATOM     37  H3  UNL     1       3.268 -13.710 -17.047  1.00  0.00     0.219 HD
ENDBRANCH  13  36
TORSDOF 7
ENDMDL
MODEL 3
REMARK VINA RESULT: -9.451163796      3.583      5.875
REMARK  7 active torsions:
REMARK  status: ('A' for Active; 'I' for Inactive)
REMARK    1  A    between atoms: C8_11  and  O1_12 
REMARK    2  A    between atoms: N2_14  and  C9_15 
REMARK    3  A    between atoms: C9_15  and  N3_16 
REMARK    4  A    between atoms: N4_19  and  C12_20 
REMARK    5  A    between atoms: C12_20  and  C13_21 
REMARK    6  A    between atoms: C14_22  and  O2_23 
REMARK    7  A    between atoms: C21_33  and  O3_34 
ROOT
HETATM    1  C1  UNL     1       1.248 -10.633 -14.418  1.00  0.00     0.051 C 
HETATM    2  C2  UNL     1       1.520  -9.906 -15.689  1.00  0.00    -0.027 A 
HETATM    3  C3  UNL     1       1.593  -8.535 -15.649  1.00  0.00     0.041 A 
HETATM    4 CL1  UNL     1       1.344  -7.642 -14.187  1.00  0.00    -0.084 Cl
HETATM    5  C4  UNL     1       1.926  -7.823 -16.802  1.00  0.00     0.026 A 
HETATM    6  C5  UNL     1       2.180  -8.439 -17.933  1.00  0.00     0.032 A 
HETATM    7  C6  UNL     1       2.137  -9.868 -18.036  1.00  0.00     0.044 A 
HETATM    8  N1  UNL     1       2.405 -10.681 -19.016  1.00  0.00    -0.351 N 
ATOM      9  H1  UNL     1       2.701 -10.411 -19.954  1.00  0.00     0.166 HD
HETATM   10  C7  UNL     1       2.219 -11.981 -18.564  1.00  0.00     0.100 A 
HETATM   11  C8  UNL     1       2.277 -13.324 -18.894  1.00  0.00     0.174 A 
HETATM   12  N2  UNL     1       1.919 -13.996 -17.818  1.00  0.00    -0.278 N 
HETATM   13  C21 UNL     1       1.641 -13.148 -16.804  1.00  0.00     0.159 A 
HETATM   14  C22 UNL     1       1.823 -11.859 -17.227  1.00  0.00     0.059 A 
HETATM   15  C23 UNL     1       1.777 -10.499 -16.856  1.00  0.00     0.015 A 
ENDROOT
BRANCH  12  16
HETATM   16  C9  UNL     1       1.817 -15.457 -17.739  1.00  0.00     0.406 C 
BRANCH  16  17
HETATM   17  N3  UNL     1       0.757 -16.041 -18.608  1.00  0.00     0.108 N 
HETATM   18  C10 UNL     1      -0.507 -15.770 -17.984  1.00  0.00     0.289 C 
HETATM   19  C11 UNL     1      -1.499 -16.827 -17.805  1.00  0.00     0.125 C 
HETATM   20  N4  UNL     1      -1.196 -18.194 -18.029  1.00  0.00    -0.288 NA
HETATM   21  C19 UNL     1      -0.229 -18.141 -19.209  1.00  0.00     0.125 C 
HETATM   22  C20 UNL     1       1.016 -17.505 -18.697  1.00  0.00     0.289 C 
BRANCH  20  23
HETATM   23  C12 UNL     1      -0.603 -18.987 -17.038  1.00  0.00     0.075 C 
BRANCH  23  24
HETATM   24  C13 UNL     1      -1.052 -18.936 -15.593  1.00  0.00     0.031 A 
HETATM   25  C14 UNL     1      -2.188 -19.747 -15.343  1.00  0.00     0.078 A 
HETATM   26  C15 UNL     1      -2.460 -20.027 -13.991  1.00  0.00     0.039 A 
HETATM   27  C16 UNL     1      -1.685 -19.541 -12.968  1.00  0.00     0.028 A 
HETATM   28  C17 UNL     1      -0.622 -18.774 -13.257  1.00  0.00     0.056 A 
HETATM   29 CL2  UNL     1       0.368 -18.239 -11.894  1.00  0.00    -0.083 Cl
HETATM   30  C18 UNL     1      -0.274 -18.452 -14.606  1.00  0.00     0.069 A 
HETATM   31 CL3  UNL     1       1.150 -17.481 -14.813  1.00  0.00    -0.082 Cl
BRANCH  25  32
HETATM   32  O2  UNL     1      -3.036 -20.265 -16.228  1.00  0.00    -0.360 OA
ATOM     33  H2  UNL     1      -3.416 -19.843 -16.990  1.00  0.00     0.217 HD
ENDBRANCH  25  32
ENDBRANCH  23  24
ENDBRANCH  20  23
ENDBRANCH  16  17
ENDBRANCH  12  16
BRANCH  11  34
HETATM   34  O1  UNL     1       2.675 -13.761 -20.163  1.00  0.00    -0.344 OA
ATOM     35  H1  UNL     1       2.457 -14.626 -20.490  1.00  0.00     0.219 HD
ENDBRANCH  11  34
BRANCH  13  36
HETATM   36  O3  UNL     1       1.221 -13.559 -15.555  1.00  0.00    -0.345 OA
ATOM     37  H3  UNL     1       0.544 -13.118 -15.055  1.00  0.00     0.219 HD
ENDBRANCH  13  36
TORSDOF 7
ENDMDL
MODEL 4
REMARK VINA RESULT: -9.439713641      2.484      3.811
REMARK  7 active torsions:
REMARK  status: ('A' for Active; 'I' for Inactive)
REMARK    1  A    between atoms: C8_11  and  O1_12 
REMARK    2  A    between atoms: N2_14  and  C9_15 
REMARK    3  A    between atoms: C9_15  and  N3_16 
REMARK    4  A    between atoms: N4_19  and  C12_20 
REMARK    5  A    between atoms: C12_20  and  C13_21 
REMARK    6  A    between atoms: C14_22  and  O2_23 
REMARK    7  A    between atoms: C21_33  and  O3_34 
ROOT
HETATM    1  C1  UNL     1       1.469 -10.355 -14.008  1.00  0.00     0.051 C 
HETATM    2  C2  UNL     1       1.562  -9.586 -15.280  1.00  0.00    -0.027 A 
HETATM    3  C3  UNL     1       1.433  -8.220 -15.223  1.00  0.00     0.041 A 
HETATM    4 CL1  UNL     1       1.133  -7.385 -13.737  1.00  0.00    -0.084 Cl
HETATM    5  C4  UNL     1       1.595  -7.458 -16.380  1.00  0.00     0.026 A 
HETATM    6  C5  UNL     1       1.876  -8.020 -17.533  1.00  0.00     0.032 A 
HETATM    7  C6  UNL     1       2.040  -9.439 -17.655  1.00  0.00     0.044 A 
HETATM    8  N1  UNL     1       2.374 -10.196 -18.660  1.00  0.00    -0.351 N 
ATOM      9  H1  UNL     1       2.575  -9.878 -19.608  1.00  0.00     0.166 HD
HETATM   10  C7  UNL     1       2.407 -11.513 -18.219  1.00  0.00     0.100 A 
HETATM   11  C8  UNL     1       2.645 -12.830 -18.572  1.00  0.00     0.174 A 
HETATM   12  N2  UNL     1       2.449 -13.555 -17.489  1.00  0.00    -0.278 N 
HETATM   13  C21 UNL     1       2.103 -12.766 -16.450  1.00  0.00     0.159 A 
HETATM   14  C22 UNL     1       2.069 -11.461 -16.862  1.00  0.00     0.059 A 
HETATM   15  C23 UNL     1       1.841 -10.126 -16.468  1.00  0.00     0.015 A 
ENDROOT
BRANCH  12  16
HETATM   16  C9  UNL     1       2.569 -15.016 -17.428  1.00  0.00     0.406 C 
BRANCH  16  17
HETATM   17  N3  UNL     1       1.353 -15.746 -17.883  1.00  0.00     0.108 N 
HETATM   18  C10 UNL     1       1.652 -16.321 -19.164  1.00  0.00     0.289 C 
HETATM   19  C11 UNL     1       0.737 -16.165 -20.291  1.00  0.00     0.125 C 
HETATM   20  N4  UNL     1      -0.365 -15.273 -20.252  1.00  0.00    -0.288 NA
HETATM   21  C19 UNL     1      -0.829 -15.366 -18.800  1.00  0.00     0.125 C 
HETATM   22  C20 UNL     1       0.250 -14.749 -17.980  1.00  0.00     0.289 C 
BRANCH  20  23
HETATM   23  C12 UNL     1      -0.221 -13.914 -20.558  1.00  0.00     0.075 C 
BRANCH  23  24
HETATM   24  C13 UNL     1      -0.890 -13.287 -21.763  1.00  0.00     0.031 A 
HETATM   25  C14 UNL     1      -2.303 -13.238 -21.644  1.00  0.00     0.078 A 
HETATM   26  C15 UNL     1      -2.968 -12.380 -22.539  1.00  0.00     0.039 A 
HETATM   27  C16 UNL     1      -2.301 -11.640 -23.482  1.00  0.00     0.028 A 
HETATM   28  C17 UNL     1      -0.963 -11.723 -23.557  1.00  0.00     0.056 A 
HETATM   29 CL2  UNL     1      -0.167 -10.691 -24.750  1.00  0.00    -0.083 Cl
HETATM   30  C18 UNL     1      -0.214 -12.565 -22.677  1.00  0.00     0.069 A 
HETATM   31 CL3  UNL     1       1.510 -12.533 -22.880  1.00  0.00    -0.082 Cl
BRANCH  25  32
HETATM   32  O2  UNL     1      -3.077 -13.914 -20.798  1.00  0.00    -0.360 OA
ATOM     33  H2  UNL     1      -3.324 -13.673 -19.912  1.00  0.00     0.217 HD
ENDBRANCH  25  32
ENDBRANCH  23  24
ENDBRANCH  20  23
ENDBRANCH  16  17
ENDBRANCH  12  16
BRANCH  11  34
HETATM   34  O1  UNL     1       3.036 -13.193 -19.867  1.00  0.00    -0.344 OA
ATOM     35  H1  UNL     1       3.037 -14.097 -20.158  1.00  0.00     0.219 HD
ENDBRANCH  11  34
BRANCH  13  36
HETATM   36  O3  UNL     1       1.815 -13.244 -15.187  1.00  0.00    -0.345 OA
ATOM     37  H3  UNL     1       1.180 -13.928 -15.014  1.00  0.00     0.219 HD
ENDBRANCH  13  36
TORSDOF 7
ENDMDL
MODEL 5
REMARK VINA RESULT: -9.330086984      1.523      1.801
REMARK  7 active torsions:
REMARK  status: ('A' for Active; 'I' for Inactive)
REMARK    1  A    between atoms: C8_11  and  O1_12 
REMARK    2  A    between atoms: N2_14  and  C9_15 
REMARK    3  A    between atoms: C9_15  and  N3_16 
REMARK    4  A    between atoms: N4_19  and  C12_20 
REMARK    5  A    between atoms: C12_20  and  C13_21 
REMARK    6  A    between atoms: C14_22  and  O2_23 
REMARK    7  A    between atoms: C21_33  and  O3_34 
ROOT
HETATM    1  C1  UNL     1       1.969  -9.323 -17.220  1.00  0.00     0.051 C 
HETATM    2  C2  UNL     1       1.765  -8.733 -15.868  1.00  0.00    -0.027 A 
HETATM    3  C3  UNL     1       1.613  -7.371 -15.771  1.00  0.00     0.041 A 
HETATM    4 CL1  UNL     1       1.686  -6.336 -17.157  1.00  0.00    -0.084 Cl
HETATM    5  C4  UNL     1       1.339  -6.789 -14.534  1.00  0.00     0.026 A 
HETATM    6  C5  UNL     1       1.217  -7.520 -13.449  1.00  0.00     0.032 A 
HETATM    7  C6  UNL     1       1.349  -8.946 -13.487  1.00  0.00     0.044 A 
HETATM    8  N1  UNL     1       1.211  -9.861 -12.571  1.00  0.00    -0.351 N 
ATOM      9  H1  UNL     1       0.982  -9.696 -11.590  1.00  0.00     0.166 HD
HETATM   10  C7  UNL     1       1.431 -11.100 -13.158  1.00  0.00     0.100 A 
HETATM   11  C8  UNL     1       1.477 -12.468 -12.954  1.00  0.00     0.174 A 
HETATM   12  N2  UNL     1       1.779 -13.016 -14.115  1.00  0.00    -0.278 N 
HETATM   13  C21 UNL     1       1.922 -12.064 -15.062  1.00  0.00     0.159 A 
HETATM   14  C22 UNL     1       1.704 -10.833 -14.505  1.00  0.00     0.059 A 
HETATM   15  C23 UNL     1       1.643  -9.444 -14.747  1.00  0.00     0.015 A 
ENDROOT
BRANCH  12  16
HETATM   16  C9  UNL     1       1.956 -14.455 -14.340  1.00  0.00     0.406 C 
BRANCH  16  17
HETATM   17  N3  UNL     1       0.681 -15.216 -14.446  1.00  0.00     0.108 N 
HETATM   18  C10 UNL     1       1.012 -16.613 -14.427  1.00  0.00     0.289 C 
HETATM   19  C11 UNL     1       0.457 -17.531 -15.418  1.00  0.00     0.125 C 
HETATM   20  N4  UNL     1      -0.248 -17.074 -16.561  1.00  0.00    -0.288 NA
HETATM   21  C19 UNL     1      -0.997 -15.852 -16.035  1.00  0.00     0.125 C 
HETATM   22  C20 UNL     1       0.040 -14.828 -15.733  1.00  0.00     0.289 C 
BRANCH  20  23
HETATM   23  C12 UNL     1       0.421 -16.683 -17.728  1.00  0.00     0.075 C 
BRANCH  23  24
HETATM   24  C13 UNL     1      -0.309 -16.466 -19.037  1.00  0.00     0.031 A 
HETATM   25  C14 UNL     1      -1.164 -17.546 -19.375  1.00  0.00     0.078 A 
HETATM   26  C15 UNL     1      -2.120 -17.286 -20.374  1.00  0.00     0.039 A 
HETATM   27  C16 UNL     1      -2.221 -16.068 -20.997  1.00  0.00     0.028 A 
HETATM   28  C17 UNL     1      -1.386 -15.078 -20.645  1.00  0.00     0.056 A 
HETATM   29 CL2  UNL     1      -1.617 -13.519 -21.443  1.00  0.00    -0.083 Cl
HETATM   30  C18 UNL     1      -0.393 -15.260 -19.632  1.00  0.00     0.069 A 
HETATM   31 CL3  UNL     1       0.584 -13.873 -19.267  1.00  0.00    -0.082 Cl
BRANCH  25  32
HETATM   32  O2  UNL     1      -1.165 -18.779 -18.872  1.00  0.00    -0.360 OA
ATOM     33  H2  UNL     1      -1.414 -19.053 -17.997  1.00  0.00     0.217 HD
ENDBRANCH  25  32
ENDBRANCH  23  24
ENDBRANCH  20  23
ENDBRANCH  16  17
ENDBRANCH  12  16
BRANCH  11  34
HETATM   34  O1  UNL     1       1.213 -13.043 -11.705  1.00  0.00    -0.344 OA
ATOM     35  H1  UNL     1       0.854 -13.918 -11.618  1.00  0.00     0.219 HD
ENDBRANCH  11  34
BRANCH  13  36
HETATM   36  O3  UNL     1       2.257 -12.332 -16.373  1.00  0.00    -0.345 OA
ATOM     37  H3  UNL     1       1.820 -12.987 -16.906  1.00  0.00     0.219 HD
ENDBRANCH  13  36
TORSDOF 7
ENDMDL
