MODEL 1
REMARK VINA RESULT: -8.137717391      0.000      0.000
REMARK  7 active torsions:
REMARK  status: ('A' for Active; 'I' for Inactive)
REMARK    1  A    between atoms: O1_2  and  C2_3 
REMARK    2  A    between atoms: C3_4  and  O2_5 
REMARK    3  A    between atoms: C7_10  and  N1_11 
REMARK    4  A    between atoms: N1_11  and  C8_13 
REMARK    5  A    between atoms: C15_24  and  N4_25 
REMARK    6  A    between atoms: N4_25  and  C16_27 
REMARK    7  A    between atoms: C21_34  and  O3_35 
ROOT
HETATM    1  C8  UNL     1      26.373 -54.380 -38.970  1.00  0.00     0.056 A 
HETATM    2  C9  UNL     1      27.515 -54.006 -39.647  1.00  0.00     0.054 A 
HETATM    3  C10 UNL     1      27.984 -54.714 -40.747  1.00  0.00     0.036 A 
HETATM    4 CL1  UNL     1      29.430 -54.197 -41.563  1.00  0.00    -0.084 Cl
HETATM    5  C11 UNL     1      27.318 -55.824 -41.198  1.00  0.00     0.025 A 
HETATM    6  C12 UNL     1      26.172 -56.216 -40.533  1.00  0.00     0.027 A 
HETATM    7  C13 UNL     1      25.715 -55.503 -39.442  1.00  0.00     0.071 A 
HETATM    8  C14 UNL     1      24.517 -55.891 -38.727  1.00  0.00     0.102 C 
HETATM    9  N2  UNL     1      23.564 -56.219 -38.145  1.00  0.00    -0.191 NA
ENDROOT
BRANCH   1  10
HETATM   10  N1  UNL     1      25.875 -53.668 -37.843  1.00  0.00    -0.340 N 
ATOM     11  H1  UNL     1      24.882 -53.443 -37.797  1.00  0.00     0.167 HD
BRANCH  10  12
HETATM   12  C7  UNL     1      26.655 -53.296 -36.868  1.00  0.00     0.135 A 
HETATM   13  C6  UNL     1      26.646 -51.962 -36.517  1.00  0.00     0.059 A 
HETATM   14  C5  UNL     1      25.856 -51.027 -37.149  1.00  0.00     0.063 A 
HETATM   15  C20 UNL     1      27.481 -51.541 -35.468  1.00  0.00     0.101 A 
HETATM   16  C3  UNL     1      25.872 -49.710 -36.776  1.00  0.00     0.122 A 
HETATM   17 BR1  UNL     1      24.726 -51.582 -38.565  1.00  0.00    -0.047 Br
HETATM   18  C2  UNL     1      26.710 -49.306 -35.729  1.00  0.00     0.139 A 
HETATM   19  C21 UNL     1      27.511 -50.221 -35.079  1.00  0.00     0.132 A 
HETATM   20  N5  UNL     1      28.244 -52.470 -34.864  1.00  0.00    -0.188 N 
HETATM   21  C15 UNL     1      28.262 -53.772 -35.196  1.00  0.00     0.680 A 
ATOM     22  H5  UNL     1      28.850 -52.164 -34.102  1.00  0.00     0.184 HD
HETATM   23  N3  UNL     1      27.449 -54.163 -36.213  1.00  0.00    -0.176 N 
ATOM     24  H3  UNL     1      27.441 -55.145 -36.489  1.00  0.00     0.186 HD
BRANCH  16  25
HETATM   25  O2  UNL     1      25.069 -48.807 -37.431  1.00  0.00    -0.352 OA
HETATM   26  C4  UNL     1      25.533 -48.202 -38.605  1.00  0.00     0.210 C 
ENDBRANCH  16  25
BRANCH  18  27
HETATM   27  O1  UNL     1      26.723 -47.969 -35.352  1.00  0.00    -0.351 OA
HETATM   28  C1  UNL     1      26.204 -47.528 -34.121  1.00  0.00     0.210 C 
ENDBRANCH  18  27
BRANCH  19  29
HETATM   29  O3  UNL     1      28.324 -49.796 -34.051  1.00  0.00    -0.351 OA
HETATM   30  C22 UNL     1      28.046 -49.933 -32.692  1.00  0.00     0.210 C 
ENDBRANCH  19  29
BRANCH  21  31
HETATM   31  N4  UNL     1      28.968 -54.671 -34.648  1.00  0.00    -0.218 N 
ATOM     32  H4  UNL     1      29.042 -55.550 -35.159  1.00  0.00     0.178 HD
BRANCH  31  33
HETATM   33  C16 UNL     1      29.671 -54.614 -33.409  1.00  0.00     0.036 C 
HETATM   34  C17 UNL     1      28.740 -54.281 -32.257  1.00  0.00     0.038 C 
HETATM   35  C18 UNL     1      30.871 -53.673 -33.443  1.00  0.00     0.038 C 
HETATM   36  C19 UNL     1      30.204 -56.024 -33.137  1.00  0.00     0.038 C 
ENDBRANCH  31  33
ENDBRANCH  21  31
ENDBRANCH  10  12
ENDBRANCH   1  10
TORSDOF 7
ENDMDL
MODEL 2
REMARK VINA RESULT: -7.579150820      1.830      2.344
REMARK  7 active torsions:
REMARK  status: ('A' for Active; 'I' for Inactive)
REMARK    1  A    between atoms: O1_2  and  C2_3 
REMARK    2  A    between atoms: C3_4  and  O2_5 
REMARK    3  A    between atoms: C7_10  and  N1_11 
REMARK    4  A    between atoms: N1_11  and  C8_13 
REMARK    5  A    between atoms: C15_24  and  N4_25 
REMARK    6  A    between atoms: N4_25  and  C16_27 
REMARK    7  A    between atoms: C21_34  and  O3_35 
ROOT
HETATM    1  C8  UNL     1      26.924 -54.390 -38.913  1.00  0.00     0.056 A 
HETATM    2  C9  UNL     1      25.781 -54.833 -38.280  1.00  0.00     0.054 A 
HETATM    3  C10 UNL     1      24.902 -55.723 -38.885  1.00  0.00     0.036 A 
HETATM    4 CL1  UNL     1      23.476 -56.248 -38.039  1.00  0.00    -0.084 Cl
HETATM    5  C11 UNL     1      25.145 -56.193 -40.149  1.00  0.00     0.025 A 
HETATM    6  C12 UNL     1      26.284 -55.761 -40.801  1.00  0.00     0.027 A 
HETATM    7  C13 UNL     1      27.150 -54.877 -40.189  1.00  0.00     0.071 A 
HETATM    8  C14 UNL     1      28.351 -54.408 -40.849  1.00  0.00     0.102 C 
HETATM    9  N2  UNL     1      29.305 -54.021 -41.393  1.00  0.00    -0.191 NA
ENDROOT
BRANCH   1  10
HETATM   10  N1  UNL     1      27.837 -53.479 -38.311  1.00  0.00    -0.340 N 
ATOM     11  H1  UNL     1      28.475 -52.952 -38.906  1.00  0.00     0.167 HD
BRANCH  10  12
HETATM   12  C7  UNL     1      27.878 -53.301 -37.021  1.00  0.00     0.135 A 
HETATM   13  C6  UNL     1      27.376 -52.118 -36.523  1.00  0.00     0.059 A 
HETATM   14  C5  UNL     1      26.841 -51.136 -37.327  1.00  0.00     0.063 A 
HETATM   15  C20 UNL     1      27.413 -51.907 -35.135  1.00  0.00     0.101 A 
HETATM   16  C3  UNL     1      26.350 -49.970 -36.799  1.00  0.00     0.122 A 
HETATM   17 BR1  UNL     1      26.785 -51.407 -39.201  1.00  0.00    -0.047 Br
HETATM   18  C2  UNL     1      26.395 -49.776 -35.413  1.00  0.00     0.139 A 
HETATM   19  C21 UNL     1      26.925 -50.743 -34.586  1.00  0.00     0.132 A 
HETATM   20  N5  UNL     1      27.940 -52.879 -34.368  1.00  0.00    -0.188 N 
HETATM   21  C15 UNL     1      28.433 -54.037 -34.841  1.00  0.00     0.680 A 
ATOM     22  H5  UNL     1      27.967 -52.727 -33.359  1.00  0.00     0.184 HD
HETATM   23  N3  UNL     1      28.390 -54.225 -36.186  1.00  0.00    -0.176 N 
ATOM     24  H3  UNL     1      28.757 -55.094 -36.575  1.00  0.00     0.186 HD
BRANCH  16  25
HETATM   25  O2  UNL     1      25.823 -49.014 -37.634  1.00  0.00    -0.352 OA
HETATM   26  C4  UNL     1      24.533 -49.187 -38.148  1.00  0.00     0.210 C 
ENDBRANCH  16  25
BRANCH  18  27
HETATM   27  O1  UNL     1      25.896 -48.594 -34.882  1.00  0.00    -0.351 OA
HETATM   28  C1  UNL     1      26.726 -47.511 -34.541  1.00  0.00     0.210 C 
ENDBRANCH  18  27
BRANCH  19  29
HETATM   29  O3  UNL     1      26.955 -50.525 -33.225  1.00  0.00    -0.351 OA
HETATM   30  C22 UNL     1      28.021 -49.968 -32.521  1.00  0.00     0.210 C 
ENDBRANCH  19  29
BRANCH  21  31
HETATM   31  N4  UNL     1      28.935 -54.971 -34.147  1.00  0.00    -0.218 N 
ATOM     32  H4  UNL     1      28.586 -55.908 -34.346  1.00  0.00     0.178 HD
BRANCH  31  33
HETATM   33  C16 UNL     1      29.924 -54.883 -33.123  1.00  0.00     0.036 C 
HETATM   34  C17 UNL     1      29.296 -54.915 -31.741  1.00  0.00     0.038 C 
HETATM   35  C18 UNL     1      30.850 -53.682 -33.285  1.00  0.00     0.038 C 
HETATM   36  C19 UNL     1      30.788 -56.143 -33.231  1.00  0.00     0.038 C 
ENDBRANCH  31  33
ENDBRANCH  21  31
ENDBRANCH  10  12
ENDBRANCH   1  10
TORSDOF 7
ENDMDL
MODEL 3
REMARK VINA RESULT: -6.805722292      1.006      1.059
REMARK  7 active torsions:
REMARK  status: ('A' for Active; 'I' for Inactive)
REMARK    1  A    between atoms: O1_2  and  C2_3 
REMARK    2  A    between atoms: C3_4  and  O2_5 
REMARK    3  A    between atoms: C7_10  and  N1_11 
REMARK    4  A    between atoms: N1_11  and  C8_13 
REMARK    5  A    between atoms: C15_24  and  N4_25 
REMARK    6  A    between atoms: N4_25  and  C16_27 
REMARK    7  A    between atoms: C21_34  and  O3_35 
ROOT
HETATM    1  C8  UNL     1      26.951 -54.149 -39.462  1.00  0.00     0.056 A 
HETATM    2  C9  UNL     1      27.873 -54.642 -40.361  1.00  0.00     0.054 A 
HETATM    3  C10 UNL     1      27.690 -55.856 -41.012  1.00  0.00     0.036 A 
HETATM    4 CL1  UNL     1      28.886 -56.430 -42.136  1.00  0.00    -0.084 Cl
HETATM    5  C11 UNL     1      26.572 -56.613 -40.776  1.00  0.00     0.025 A 
HETATM    6  C12 UNL     1      25.636 -56.136 -39.878  1.00  0.00     0.027 A 
HETATM    7  C13 UNL     1      25.829 -54.928 -39.238  1.00  0.00     0.071 A 
HETATM    8  C14 UNL     1      24.865 -54.406 -38.293  1.00  0.00     0.102 C 
HETATM    9  N2  UNL     1      24.094 -54.000 -37.520  1.00  0.00    -0.191 NA
ENDROOT
BRANCH   1  10
HETATM   10  N1  UNL     1      27.120 -52.908 -38.785  1.00  0.00    -0.340 N 
ATOM     11  H1  UNL     1      27.058 -52.041 -39.318  1.00  0.00     0.167 HD
BRANCH  10  12
HETATM   12  C7  UNL     1      27.351 -52.851 -37.505  1.00  0.00     0.135 A 
HETATM   13  C6  UNL     1      26.886 -51.748 -36.820  1.00  0.00     0.059 A 
HETATM   14  C5  UNL     1      26.197 -50.724 -37.432  1.00  0.00     0.063 A 
HETATM   15  C20 UNL     1      27.126 -51.668 -35.439  1.00  0.00     0.101 A 
HETATM   16  C3  UNL     1      25.748 -49.642 -36.723  1.00  0.00     0.122 A 
HETATM   17 BR1  UNL     1      25.866 -50.820 -39.295  1.00  0.00    -0.047 Br
HETATM   18  C2  UNL     1      25.996 -49.577 -35.346  1.00  0.00     0.139 A 
HETATM   19  C21 UNL     1      26.683 -50.588 -34.709  1.00  0.00     0.132 A 
HETATM   20  N5  UNL     1      27.800 -52.678 -34.860  1.00  0.00    -0.188 N 
HETATM   21  C15 UNL     1      28.260 -53.758 -35.516  1.00  0.00     0.680 A 
ATOM     22  H5  UNL     1      27.975 -52.620 -33.857  1.00  0.00     0.184 HD
HETATM   23  N3  UNL     1      28.019 -53.820 -36.852  1.00  0.00    -0.176 N 
ATOM     24  H3  UNL     1      28.355 -54.628 -37.377  1.00  0.00     0.186 HD
BRANCH  16  25
HETATM   25  O2  UNL     1      25.064 -48.640 -37.369  1.00  0.00    -0.352 OA
HETATM   26  C4  UNL     1      25.754 -47.789 -38.240  1.00  0.00     0.210 C 
ENDBRANCH  16  25
BRANCH  18  27
HETATM   27  O1  UNL     1      25.539 -48.478 -34.629  1.00  0.00    -0.351 OA
HETATM   28  C1  UNL     1      26.365 -47.382 -34.322  1.00  0.00     0.210 C 
ENDBRANCH  18  27
BRANCH  19  29
HETATM   29  O3  UNL     1      26.912 -50.497 -33.352  1.00  0.00    -0.351 OA
HETATM   30  C22 UNL     1      28.070 -49.995 -32.761  1.00  0.00     0.210 C 
ENDBRANCH  19  29
BRANCH  21  31
HETATM   31  N4  UNL     1      28.897 -54.726 -35.002  1.00  0.00    -0.218 N 
ATOM     32  H4  UNL     1      28.890 -55.595 -35.536  1.00  0.00     0.178 HD
BRANCH  31  33
HETATM   33  C16 UNL     1      29.623 -54.758 -33.774  1.00  0.00     0.036 C 
HETATM   34  C17 UNL     1      28.698 -54.609 -32.580  1.00  0.00     0.038 C 
HETATM   35  C18 UNL     1      30.764 -53.747 -33.724  1.00  0.00     0.038 C 
HETATM   36  C19 UNL     1      30.245 -56.154 -33.664  1.00  0.00     0.038 C 
ENDBRANCH  31  33
ENDBRANCH  21  31
ENDBRANCH  10  12
ENDBRANCH   1  10
TORSDOF 7
ENDMDL
MODEL 4
REMARK VINA RESULT: -6.404010621      3.151      5.987
REMARK  7 active torsions:
REMARK  status: ('A' for Active; 'I' for Inactive)
REMARK    1  A    between atoms: O1_2  and  C2_3 
REMARK    2  A    between atoms: C3_4  and  O2_5 
REMARK    3  A    between atoms: C7_10  and  N1_11 
REMARK    4  A    between atoms: N1_11  and  C8_13 
REMARK    5  A    between atoms: C15_24  and  N4_25 
REMARK    6  A    between atoms: N4_25  and  C16_27 
REMARK    7  A    between atoms: C21_34  and  O3_35 
ROOT
HETATM    1  C8  UNL     1      26.379 -50.331 -35.011  1.00  0.00     0.056 A 
HETATM    2  C9  UNL     1      27.444 -49.476 -35.204  1.00  0.00     0.054 A 
HETATM    3  C10 UNL     1      27.891 -48.620 -34.205  1.00  0.00     0.036 A 
HETATM    4 CL1  UNL     1      29.240 -47.563 -34.504  1.00  0.00    -0.084 Cl
HETATM    5  C11 UNL     1      27.278 -48.596 -32.980  1.00  0.00     0.025 A 
HETATM    6  C12 UNL     1      26.207 -49.444 -32.766  1.00  0.00     0.027 A 
HETATM    7  C13 UNL     1      25.773 -50.291 -33.767  1.00  0.00     0.071 A 
HETATM    8  C14 UNL     1      24.655 -51.189 -33.570  1.00  0.00     0.102 C 
HETATM    9  N2  UNL     1      23.744 -51.896 -33.411  1.00  0.00    -0.191 NA
ENDROOT
BRANCH   1  10
HETATM   10  N1  UNL     1      25.906 -51.215 -36.020  1.00  0.00    -0.340 N 
ATOM     11  H1  UNL     1      25.006 -51.029 -36.460  1.00  0.00     0.167 HD
BRANCH  10  12
HETATM   12  C7  UNL     1      26.592 -52.257 -36.396  1.00  0.00     0.135 A 
HETATM   13  C6  UNL     1      26.516 -52.627 -37.722  1.00  0.00     0.059 A 
HETATM   14  C5  UNL     1      25.755 -51.946 -38.646  1.00  0.00     0.063 A 
HETATM   15  C20 UNL     1      27.249 -53.748 -38.147  1.00  0.00     0.101 A 
HETATM   16  C3  UNL     1      25.701 -52.340 -39.957  1.00  0.00     0.122 A 
HETATM   17 BR1  UNL     1      24.763 -50.432 -38.087  1.00  0.00    -0.047 Br
HETATM   18  C2  UNL     1      26.437 -53.460 -40.364  1.00  0.00     0.139 A 
HETATM   19  C21 UNL     1      27.207 -54.160 -39.459  1.00  0.00     0.132 A 
HETATM   20  N5  UNL     1      27.986 -54.399 -37.229  1.00  0.00    -0.188 N 
HETATM   21  C15 UNL     1      28.068 -54.049 -35.933  1.00  0.00     0.680 A 
ATOM     22  H5  UNL     1      28.518 -55.214 -37.536  1.00  0.00     0.184 HD
HETATM   23  N3  UNL     1      27.353 -52.962 -35.539  1.00  0.00    -0.176 N 
ATOM     24  H3  UNL     1      27.395 -52.672 -34.561  1.00  0.00     0.186 HD
BRANCH  16  25
HETATM   25  O2  UNL     1      24.931 -51.635 -40.849  1.00  0.00    -0.352 OA
HETATM   26  C4  UNL     1      25.540 -50.696 -41.691  1.00  0.00     0.210 C 
ENDBRANCH  16  25
BRANCH  18  27
HETATM   27  O1  UNL     1      26.381 -53.857 -41.694  1.00  0.00    -0.351 OA
HETATM   28  C1  UNL     1      25.667 -54.995 -42.111  1.00  0.00     0.210 C 
ENDBRANCH  18  27
BRANCH  19  29
HETATM   29  O3  UNL     1      27.922 -55.258 -39.889  1.00  0.00    -0.351 OA
HETATM   30  C22 UNL     1      28.954 -55.233 -40.825  1.00  0.00     0.210 C 
ENDBRANCH  19  29
BRANCH  21  31
HETATM   31  N4  UNL     1      28.752 -54.640 -35.044  1.00  0.00    -0.218 N 
ATOM     32  H4  UNL     1      28.845 -55.649 -35.154  1.00  0.00     0.178 HD
BRANCH  31  33
HETATM   33  C16 UNL     1      29.409 -54.076 -33.911  1.00  0.00     0.036 C 
HETATM   34  C17 UNL     1      28.446 -53.878 -32.754  1.00  0.00     0.038 C 
HETATM   35  C18 UNL     1      30.165 -52.791 -34.232  1.00  0.00     0.038 C 
HETATM   36  C19 UNL     1      30.440 -55.106 -33.439  1.00  0.00     0.038 C 
ENDBRANCH  31  33
ENDBRANCH  21  31
ENDBRANCH  10  12
ENDBRANCH   1  10
TORSDOF 7
ENDMDL
MODEL 5
REMARK VINA RESULT: -6.142388145      2.996      6.317
REMARK  7 active torsions:
REMARK  status: ('A' for Active; 'I' for Inactive)
REMARK    1  A    between atoms: O1_2  and  C2_3 
REMARK    2  A    between atoms: C3_4  and  O2_5 
REMARK    3  A    between atoms: C7_10  and  N1_11 
REMARK    4  A    between atoms: N1_11  and  C8_13 
REMARK    5  A    between atoms: C15_24  and  N4_25 
REMARK    6  A    between atoms: N4_25  and  C16_27 
REMARK    7  A    between atoms: C21_34  and  O3_35 
ROOT
HETATM    1  C8  UNL     1      27.691 -53.610 -34.243  1.00  0.00     0.056 A 
HETATM    2  C9  UNL     1      28.938 -54.192 -34.331  1.00  0.00     0.054 A 
HETATM    3  C10 UNL     1      29.784 -54.289 -33.232  1.00  0.00     0.036 A 
HETATM    4 CL1  UNL     1      31.347 -55.032 -33.401  1.00  0.00    -0.084 Cl
HETATM    5  C11 UNL     1      29.400 -53.802 -32.011  1.00  0.00     0.025 A 
HETATM    6  C12 UNL     1      28.154 -53.215 -31.901  1.00  0.00     0.027 A 
HETATM    7  C13 UNL     1      27.322 -53.125 -33.000  1.00  0.00     0.071 A 
HETATM    8  C14 UNL     1      26.012 -52.515 -32.913  1.00  0.00     0.102 C 
HETATM    9  N2  UNL     1      24.967 -52.007 -32.842  1.00  0.00    -0.191 NA
ENDROOT
BRANCH   1  10
HETATM   10  N1  UNL     1      26.810 -53.501 -35.355  1.00  0.00    -0.340 N 
ATOM     11  H1  UNL     1      26.234 -54.302 -35.611  1.00  0.00     0.167 HD
BRANCH  10  12
HETATM   12  C7  UNL     1      26.720 -52.406 -36.054  1.00  0.00     0.135 A 
HETATM   13  C6  UNL     1      26.341 -52.521 -37.375  1.00  0.00     0.059 A 
HETATM   14  C5  UNL     1      26.059 -53.731 -37.970  1.00  0.00     0.063 A 
HETATM   15  C20 UNL     1      26.239 -51.351 -38.146  1.00  0.00     0.101 A 
HETATM   16  C3  UNL     1      25.686 -53.810 -39.285  1.00  0.00     0.122 A 
HETATM   17 BR1  UNL     1      26.193 -55.316 -36.942  1.00  0.00    -0.047 Br
HETATM   18  C2  UNL     1      25.589 -52.634 -40.040  1.00  0.00     0.139 A 
HETATM   19  C21 UNL     1      25.866 -51.410 -39.469  1.00  0.00     0.132 A 
HETATM   20  N5  UNL     1      26.518 -50.179 -37.546  1.00  0.00    -0.188 N 
HETATM   21  C15 UNL     1      26.889 -50.053 -36.260  1.00  0.00     0.680 A 
ATOM     22  H5  UNL     1      26.444 -49.329 -38.105  1.00  0.00     0.184 HD
HETATM   23  N3  UNL     1      26.983 -51.195 -35.528  1.00  0.00    -0.176 N 
ATOM     24  H3  UNL     1      27.262 -51.132 -34.549  1.00  0.00     0.186 HD
BRANCH  16  25
HETATM   25  O2  UNL     1      25.413 -55.036 -39.843  1.00  0.00    -0.352 OA
HETATM   26  C4  UNL     1      26.466 -55.817 -40.333  1.00  0.00     0.210 C 
ENDBRANCH  16  25
BRANCH  18  27
HETATM   27  O1  UNL     1      25.210 -52.718 -41.374  1.00  0.00    -0.351 OA
HETATM   28  C1  UNL     1      26.136 -52.941 -42.408  1.00  0.00     0.210 C 
ENDBRANCH  18  27
BRANCH  19  29
HETATM   29  O3  UNL     1      25.761 -50.269 -40.236  1.00  0.00    -0.351 OA
HETATM   30  C22 UNL     1      26.816 -49.643 -40.899  1.00  0.00     0.210 C 
ENDBRANCH  19  29
BRANCH  21  31
HETATM   31  N4  UNL     1      27.158 -48.967 -35.665  1.00  0.00    -0.218 N 
ATOM     32  H4  UNL     1      27.060 -48.119 -36.224  1.00  0.00     0.178 HD
BRANCH  31  33
HETATM   33  C16 UNL     1      27.581 -48.775 -34.317  1.00  0.00     0.036 C 
HETATM   34  C17 UNL     1      28.558 -49.853 -33.883  1.00  0.00     0.038 C 
HETATM   35  C18 UNL     1      26.420 -48.649 -33.336  1.00  0.00     0.038 C 
HETATM   36  C19 UNL     1      28.355 -47.454 -34.279  1.00  0.00     0.038 C 
ENDBRANCH  31  33
ENDBRANCH  21  31
ENDBRANCH  10  12
ENDBRANCH   1  10
TORSDOF 7
ENDMDL
