MODEL 1
REMARK VINA RESULT: -6.743343020      0.000      0.000
REMARK  6 active torsions:
REMARK  status: ('A' for Active; 'I' for Inactive)
REMARK    1  A    between atoms: N1_1  and  C1_5 
REMARK    2  A    between atoms: C1_5  and  C2_6 
REMARK    3  A    between atoms: C1_5  and  C12_23 
REMARK    4  A    between atoms: C2_6  and  O2_8 
REMARK    5  A    between atoms: O2_8  and  C3_9 
REMARK    6  A    between atoms: C4_11  and  C5_12 
ROOT
HETATM    1  C3  UNL     1      23.188 -20.720 128.086  1.00  0.00     0.138 A 
HETATM    2  S1  UNL     1      23.265 -20.774 129.791  1.00  0.00    -0.064 SA
HETATM    3  C4  UNL     1      24.873 -21.317 129.979  1.00  0.00     0.009 A 
HETATM    4  C10 UNL     1      25.306 -21.441 128.689  1.00  0.00     0.041 A 
HETATM    5  C11 UNL     1      24.436 -21.133 127.712  1.00  0.00     0.053 A 
HETATM    6 BR1  UNL     1      24.877 -21.250 125.822  1.00  0.00    -0.048 Br
ENDROOT
BRANCH   1   7
HETATM    7  O2  UNL     1      22.111 -20.344 127.247  1.00  0.00    -0.268 OA
BRANCH   7   8
HETATM    8  C2  UNL     1      20.837 -20.817 127.494  1.00  0.00     0.295 C 
HETATM    9  O1  UNL     1      20.682 -22.081 127.311  1.00  0.00    -0.262 OA
BRANCH   8  10
HETATM   10  C1  UNL     1      19.689 -20.001 127.935  1.00  0.00     0.286 C 
BRANCH  10  11
HETATM   11  N1  UNL     1      18.515 -20.850 128.190  1.00  0.00    -0.066 N 
ATOM     12  H13 UNL     1      17.668 -20.455 127.783  1.00  0.00     0.275 HD
ATOM     13  H12 UNL     1      18.552 -21.718 127.655  1.00  0.00     0.275 HD
ATOM     14  H11 UNL     1      18.408 -21.026 129.190  1.00  0.00     0.275 HD
ENDBRANCH  10  11
BRANCH  10  15
HETATM   15  C12 UNL     1      19.954 -19.215 129.190  1.00  0.00     0.026 C 
HETATM   16  C13 UNL     1      19.609 -20.069 130.380  1.00  0.00     0.007 C 
HETATM   17  C14 UNL     1      19.258 -19.072 131.465  1.00  0.00     0.000 C 
HETATM   18  C15 UNL     1      18.807 -17.822 130.750  1.00  0.00     0.000 C 
HETATM   19  C16 UNL     1      18.934 -18.098 129.267  1.00  0.00     0.007 C 
ENDBRANCH  10  15
ENDBRANCH   8  10
ENDBRANCH   7   8
ENDBRANCH   1   7
BRANCH   3  20
HETATM   20  C5  UNL     1      25.589 -21.557 131.236  1.00  0.00     0.031 C 
HETATM   21  C6  UNL     1      25.235 -22.486 132.063  1.00  0.00     0.012 C 
HETATM   22  C7  UNL     1      24.112 -23.427 131.914  1.00  0.00     0.064 C 
HETATM   23  C9  UNL     1      25.920 -22.773 133.345  1.00  0.00     0.247 C 
HETATM   24  C8  UNL     1      23.845 -23.818 133.362  1.00  0.00     0.128 C 
HETATM   25  N2  UNL     1      25.159 -23.784 133.988  1.00  0.00    -0.357 N 
ATOM     26  H2  UNL     1      25.476 -24.381 134.752  1.00  0.00     0.162 HD
HETATM   27  O3  UNL     1      26.969 -22.206 133.746  1.00  0.00    -0.268 OA
ENDBRANCH   3  20
TORSDOF 6
ENDMDL
MODEL 2
REMARK VINA RESULT: -6.700234608      2.174      3.042
REMARK  6 active torsions:
REMARK  status: ('A' for Active; 'I' for Inactive)
REMARK    1  A    between atoms: N1_1  and  C1_5 
REMARK    2  A    between atoms: C1_5  and  C2_6 
REMARK    3  A    between atoms: C1_5  and  C12_23 
REMARK    4  A    between atoms: C2_6  and  O2_8 
REMARK    5  A    between atoms: O2_8  and  C3_9 
REMARK    6  A    between atoms: C4_11  and  C5_12 
ROOT
HETATM    1  C3  UNL     1      23.343 -20.823 128.420  1.00  0.00     0.138 A 
HETATM    2  S1  UNL     1      23.409 -20.917 130.123  1.00  0.00    -0.064 SA
HETATM    3  C4  UNL     1      25.050 -21.354 130.312  1.00  0.00     0.009 A 
HETATM    4  C10 UNL     1      25.500 -21.414 129.023  1.00  0.00     0.041 A 
HETATM    5  C11 UNL     1      24.619 -21.140 128.047  1.00  0.00     0.053 A 
HETATM    6 BR1  UNL     1      25.080 -21.176 126.159  1.00  0.00    -0.048 Br
ENDROOT
BRANCH   1   7
HETATM    7  O2  UNL     1      22.248 -20.499 127.581  1.00  0.00    -0.268 OA
BRANCH   7   8
HETATM    8  C2  UNL     1      21.386 -21.485 127.147  1.00  0.00     0.295 C 
HETATM    9  O1  UNL     1      21.539 -21.838 125.919  1.00  0.00    -0.262 OA
BRANCH   8  10
HETATM   10  C1  UNL     1      20.343 -22.135 127.964  1.00  0.00     0.286 C 
BRANCH  10  11
HETATM   11  N1  UNL     1      19.317 -22.748 127.108  1.00  0.00    -0.066 N 
ATOM     12  H13 UNL     1      19.213 -23.745 127.297  1.00  0.00     0.275 HD
ATOM     13  H12 UNL     1      18.378 -22.444 127.366  1.00  0.00     0.275 HD
ATOM     14  H11 UNL     1      19.515 -22.569 126.123  1.00  0.00     0.275 HD
ENDBRANCH  10  11
BRANCH  10  15
HETATM   15  C12 UNL     1      20.871 -23.213 128.871  1.00  0.00     0.026 C 
HETATM   16  C13 UNL     1      21.793 -24.102 128.082  1.00  0.00     0.007 C 
HETATM   17  C14 UNL     1      21.728 -25.436 128.799  1.00  0.00     0.000 C 
HETATM   18  C15 UNL     1      20.395 -25.463 129.505  1.00  0.00     0.000 C 
HETATM   19  C16 UNL     1      19.722 -24.138 129.217  1.00  0.00     0.007 C 
ENDBRANCH  10  15
ENDBRANCH   8  10
ENDBRANCH   7   8
ENDBRANCH   1   7
BRANCH   3  20
HETATM   20  C5  UNL     1      25.770 -21.579 131.569  1.00  0.00     0.031 C 
HETATM   21  C6  UNL     1      25.494 -22.568 132.355  1.00  0.00     0.012 C 
HETATM   22  C7  UNL     1      24.463 -23.600 132.152  1.00  0.00     0.064 C 
HETATM   23  C9  UNL     1      26.188 -22.843 133.634  1.00  0.00     0.247 C 
HETATM   24  C8  UNL     1      24.217 -24.071 133.581  1.00  0.00     0.128 C 
HETATM   25  N2  UNL     1      25.515 -23.944 134.226  1.00  0.00    -0.357 N 
ATOM     26  H2  UNL     1      25.877 -24.540 134.971  1.00  0.00     0.162 HD
HETATM   27  O3  UNL     1      27.177 -22.200 134.072  1.00  0.00    -0.268 OA
ENDBRANCH   3  20
TORSDOF 6
ENDMDL
MODEL 3
REMARK VINA RESULT: -6.682083729      3.736      4.991
REMARK  6 active torsions:
REMARK  status: ('A' for Active; 'I' for Inactive)
REMARK    1  A    between atoms: N1_1  and  C1_5 
REMARK    2  A    between atoms: C1_5  and  C2_6 
REMARK    3  A    between atoms: C1_5  and  C12_23 
REMARK    4  A    between atoms: C2_6  and  O2_8 
REMARK    5  A    between atoms: O2_8  and  C3_9 
REMARK    6  A    between atoms: C4_11  and  C5_12 
ROOT
HETATM    1  C3  UNL     1      24.437 -22.264 129.746  1.00  0.00     0.138 A 
HETATM    2  S1  UNL     1      25.431 -23.151 130.815  1.00  0.00    -0.064 SA
HETATM    3  C4  UNL     1      24.468 -23.066 132.223  1.00  0.00     0.009 A 
HETATM    4  C10 UNL     1      23.387 -22.339 131.810  1.00  0.00     0.041 A 
HETATM    5  C11 UNL     1      23.372 -21.925 130.532  1.00  0.00     0.053 A 
HETATM    6 BR1  UNL     1      21.918 -20.882 129.771  1.00  0.00    -0.048 Br
ENDROOT
BRANCH   1   7
HETATM    7  O2  UNL     1      24.645 -21.947 128.382  1.00  0.00    -0.268 OA
BRANCH   7   8
HETATM    8  C2  UNL     1      25.270 -20.769 128.026  1.00  0.00     0.295 C 
HETATM    9  O1  UNL     1      26.385 -20.543 128.627  1.00  0.00    -0.262 OA
BRANCH   8  10
HETATM   10  C1  UNL     1      24.764 -19.791 127.044  1.00  0.00     0.286 C 
BRANCH  10  11
HETATM   11  N1  UNL     1      25.833 -18.871 126.627  1.00  0.00    -0.066 N 
ATOM     12  H13 UNL     1      26.749 -19.318 126.654  1.00  0.00     0.275 HD
ATOM     13  H12 UNL     1      25.790 -18.670 125.627  1.00  0.00     0.275 HD
ATOM     14  H11 UNL     1      25.812 -18.018 127.185  1.00  0.00     0.275 HD
ENDBRANCH  10  11
BRANCH  10  15
HETATM   15  C12 UNL     1      24.206 -20.422 125.797  1.00  0.00     0.026 C 
HETATM   16  C13 UNL     1      22.797 -20.872 126.069  1.00  0.00     0.007 C 
HETATM   17  C14 UNL     1      22.577 -22.015 125.099  1.00  0.00     0.000 C 
HETATM   18  C15 UNL     1      23.946 -22.571 124.795  1.00  0.00     0.000 C 
HETATM   19  C16 UNL     1      24.940 -21.726 125.564  1.00  0.00     0.007 C 
ENDBRANCH  10  15
ENDBRANCH   8  10
ENDBRANCH   7   8
ENDBRANCH   1   7
BRANCH   3  20
HETATM   20  C5  UNL     1      24.754 -23.661 133.532  1.00  0.00     0.031 C 
HETATM   21  C6  UNL     1      24.109 -24.689 133.978  1.00  0.00     0.012 C 
HETATM   22  C7  UNL     1      23.025 -25.419 133.299  1.00  0.00     0.064 C 
HETATM   23  C9  UNL     1      24.356 -25.330 135.290  1.00  0.00     0.247 C 
HETATM   24  C8  UNL     1      22.309 -26.070 134.476  1.00  0.00     0.128 C 
HETATM   25  N2  UNL     1      23.373 -26.345 135.431  1.00  0.00    -0.357 N 
ATOM     26  H2  UNL     1      23.406 -27.127 136.086  1.00  0.00     0.162 HD
HETATM   27  O3  UNL     1      25.270 -25.006 136.092  1.00  0.00    -0.268 OA
ENDBRANCH   3  20
TORSDOF 6
ENDMDL
MODEL 4
REMARK VINA RESULT: -6.638405930      9.983     12.044
REMARK  6 active torsions:
REMARK  status: ('A' for Active; 'I' for Inactive)
REMARK    1  A    between atoms: N1_1  and  C1_5 
REMARK    2  A    between atoms: C1_5  and  C2_6 
REMARK    3  A    between atoms: C1_5  and  C12_23 
REMARK    4  A    between atoms: C2_6  and  O2_8 
REMARK    5  A    between atoms: O2_8  and  C3_9 
REMARK    6  A    between atoms: C4_11  and  C5_12 
ROOT
HETATM    1  C3  UNL     1      24.719 -26.743 137.762  1.00  0.00     0.138 A 
HETATM    2  S1  UNL     1      25.993 -26.496 138.871  1.00  0.00    -0.064 SA
HETATM    3  C4  UNL     1      26.433 -24.903 138.437  1.00  0.00     0.009 A 
HETATM    4  C10 UNL     1      25.561 -24.611 137.426  1.00  0.00     0.041 A 
HETATM    5  C11 UNL     1      24.677 -25.561 137.078  1.00  0.00     0.053 A 
HETATM    6 BR1  UNL     1      23.363 -25.322 135.665  1.00  0.00    -0.048 Br
ENDROOT
BRANCH   1   7
HETATM    7  O2  UNL     1      23.898 -27.882 137.578  1.00  0.00    -0.268 OA
BRANCH   7   8
HETATM    8  C2  UNL     1      23.413 -28.576 138.669  1.00  0.00     0.295 C 
HETATM    9  O1  UNL     1      23.685 -29.833 138.677  1.00  0.00    -0.262 OA
BRANCH   8  10
HETATM   10  C1  UNL     1      22.636 -27.994 139.780  1.00  0.00     0.286 C 
BRANCH  10  11
HETATM   11  N1  UNL     1      21.434 -28.797 140.052  1.00  0.00    -0.066 N 
ATOM     12  H13 UNL     1      20.743 -28.274 140.589  1.00  0.00     0.275 HD
ATOM     13  H12 UNL     1      20.885 -28.955 139.207  1.00  0.00     0.275 HD
ATOM     14  H11 UNL     1      21.683 -29.674 140.511  1.00  0.00     0.275 HD
ENDBRANCH  10  11
BRANCH  10  15
HETATM   15  C12 UNL     1      23.407 -27.893 141.068  1.00  0.00     0.026 C 
HETATM   16  C13 UNL     1      22.809 -28.846 142.068  1.00  0.00     0.007 C 
HETATM   17  C14 UNL     1      23.146 -28.234 143.413  1.00  0.00     0.000 C 
HETATM   18  C15 UNL     1      23.323 -26.756 143.164  1.00  0.00     0.000 C 
HETATM   19  C16 UNL     1      23.120 -26.536 141.680  1.00  0.00     0.007 C 
ENDBRANCH  10  15
ENDBRANCH   8  10
ENDBRANCH   7   8
ENDBRANCH   1   7
BRANCH   3  20
HETATM   20  C5  UNL     1      27.482 -24.075 139.040  1.00  0.00     0.031 C 
HETATM   21  C6  UNL     1      27.399 -23.632 140.252  1.00  0.00     0.012 C 
HETATM   22  C7  UNL     1      26.300 -23.859 141.206  1.00  0.00     0.064 C 
HETATM   23  C9  UNL     1      28.426 -22.793 140.911  1.00  0.00     0.247 C 
HETATM   24  C8  UNL     1      26.465 -22.675 142.151  1.00  0.00     0.128 C 
HETATM   25  N2  UNL     1      27.902 -22.443 142.183  1.00  0.00    -0.357 N 
ATOM     26  H2  UNL     1      28.436 -22.091 142.978  1.00  0.00     0.162 HD
HETATM   27  O3  UNL     1      29.534 -22.478 140.405  1.00  0.00    -0.268 OA
ENDBRANCH   3  20
TORSDOF 6
ENDMDL
MODEL 5
REMARK VINA RESULT: -6.626253920     10.273     12.318
REMARK  6 active torsions:
REMARK  status: ('A' for Active; 'I' for Inactive)
REMARK    1  A    between atoms: N1_1  and  C1_5 
REMARK    2  A    between atoms: C1_5  and  C2_6 
REMARK    3  A    between atoms: C1_5  and  C12_23 
REMARK    4  A    between atoms: C2_6  and  O2_8 
REMARK    5  A    between atoms: O2_8  and  C3_9 
REMARK    6  A    between atoms: C4_11  and  C5_12 
ROOT
HETATM    1  C3  UNL     1      24.737 -26.919 137.986  1.00  0.00     0.138 A 
HETATM    2  S1  UNL     1      26.005 -26.598 139.084  1.00  0.00    -0.064 SA
HETATM    3  C4  UNL     1      26.380 -25.000 138.613  1.00  0.00     0.009 A 
HETATM    4  C10 UNL     1      25.494 -24.764 137.600  1.00  0.00     0.041 A 
HETATM    5  C11 UNL     1      24.646 -25.755 137.277  1.00  0.00     0.053 A 
HETATM    6 BR1  UNL     1      23.318 -25.599 135.865  1.00  0.00    -0.048 Br
ENDROOT
BRANCH   1   7
HETATM    7  O2  UNL     1      23.960 -28.093 137.832  1.00  0.00    -0.268 OA
BRANCH   7   8
HETATM    8  C2  UNL     1      22.911 -28.354 138.690  1.00  0.00     0.295 C 
HETATM    9  O1  UNL     1      21.832 -27.698 138.443  1.00  0.00    -0.262 OA
BRANCH   8  10
HETATM   10  C1  UNL     1      22.944 -29.296 139.825  1.00  0.00     0.286 C 
BRANCH  10  11
HETATM   11  N1  UNL     1      24.303 -29.825 140.023  1.00  0.00    -0.066 N 
ATOM     12  H13 UNL     1      24.323 -30.843 139.973  1.00  0.00     0.275 HD
ATOM     13  H12 UNL     1      24.907 -29.621 139.226  1.00  0.00     0.275 HD
ATOM     14  H11 UNL     1      24.700 -29.481 140.897  1.00  0.00     0.275 HD
ENDBRANCH  10  11
BRANCH  10  15
HETATM   15  C12 UNL     1      22.509 -28.686 141.130  1.00  0.00     0.026 C 
HETATM   16  C13 UNL     1      23.442 -27.558 141.474  1.00  0.00     0.007 C 
HETATM   17  C14 UNL     1      23.378 -27.469 142.985  1.00  0.00     0.000 C 
HETATM   18  C15 UNL     1      22.972 -28.841 143.465  1.00  0.00     0.000 C 
HETATM   19  C16 UNL     1      22.775 -29.694 142.229  1.00  0.00     0.007 C 
ENDBRANCH  10  15
ENDBRANCH   8  10
ENDBRANCH   7   8
ENDBRANCH   1   7
BRANCH   3  20
HETATM   20  C5  UNL     1      27.398 -24.118 139.193  1.00  0.00     0.031 C 
HETATM   21  C6  UNL     1      27.315 -23.672 140.404  1.00  0.00     0.012 C 
HETATM   22  C7  UNL     1      26.245 -23.945 141.378  1.00  0.00     0.064 C 
HETATM   23  C9  UNL     1      28.312 -22.780 141.040  1.00  0.00     0.247 C 
HETATM   24  C8  UNL     1      26.369 -22.749 142.314  1.00  0.00     0.128 C 
HETATM   25  N2  UNL     1      27.793 -22.447 142.319  1.00  0.00    -0.357 N 
ATOM     26  H2  UNL     1      28.324 -22.065 143.102  1.00  0.00     0.162 HD
HETATM   27  O3  UNL     1      29.395 -22.415 140.513  1.00  0.00    -0.268 OA
ENDBRANCH   3  20
TORSDOF 6
ENDMDL
