MODEL 1
REMARK VINA RESULT: -6.624050939      0.000      0.000
REMARK  7 active torsions:
REMARK  status: ('A' for Active; 'I' for Inactive)
REMARK    1  A    between atoms: C2_2  and  C3_3 
REMARK    2  A    between atoms: C11_12  and  C12_13 
REMARK    3  A    between atoms: C12_13  and  C14_15 
REMARK    4  A    between atoms: C16_18  and  C17_19 
REMARK    5  A    between atoms: C17_19  and  C18_21 
REMARK    6  A    between atoms: C18_21  and  O4_22 
REMARK    7  A    between atoms: C23_28  and  O5_29 
ROOT
HETATM    1  C3  UNL     1      18.411 -26.496 142.417  1.00  0.00     0.043 C 
HETATM    2  C4  UNL     1      17.855 -26.679 141.044  1.00  0.00     0.094 C 
HETATM    3  C5  UNL     1      18.702 -26.193 139.955  1.00  0.00     0.156 C 
HETATM    4  O1  UNL     1      18.079 -25.657 138.971  1.00  0.00    -0.293 OA
HETATM    5  C6  UNL     1      20.176 -26.195 139.756  1.00  0.00    -0.007 C 
HETATM    6  C7  UNL     1      20.518 -25.391 138.802  1.00  0.00    -0.015 C 
HETATM    7  C8  UNL     1      21.902 -25.205 138.404  1.00  0.00     0.033 C 
HETATM    8  C9  UNL     1      22.748 -26.398 138.792  1.00  0.00    -0.005 C 
HETATM    9  C10 UNL     1      24.184 -25.947 138.592  1.00  0.00     0.014 C 
HETATM   10  C11 UNL     1      24.910 -25.753 139.903  1.00  0.00     0.022 C 
HETATM   11  C15 UNL     1      24.904 -26.979 140.757  1.00  0.00     0.022 C 
HETATM   12  C16 UNL     1      23.530 -27.646 140.830  1.00  0.00     0.064 C 
HETATM   13  C19 UNL     1      22.530 -26.770 140.238  1.00  0.00     0.014 C 
HETATM   14  C20 UNL     1      21.082 -27.024 140.566  1.00  0.00    -0.006 C 
HETATM   15  C21 UNL     1      20.669 -28.462 140.327  1.00  0.00     0.021 C 
HETATM   16  C22 UNL     1      20.902 -26.766 142.043  1.00  0.00     0.047 C 
HETATM   17  C23 UNL     1      19.800 -25.857 142.409  1.00  0.00     0.127 C 
ENDROOT
BRANCH  12  18
HETATM   18  C17 UNL     1      23.708 -29.024 140.429  1.00  0.00     0.154 C 
HETATM   19  O3  UNL     1      24.003 -29.270 139.246  1.00  0.00    -0.295 OA
BRANCH  18  20
HETATM   20  C18 UNL     1      23.586 -30.244 141.266  1.00  0.00     0.242 C 
BRANCH  20  21
HETATM   21  O4  UNL     1      24.823 -30.708 141.739  1.00  0.00    -0.394 OA
ATOM     22  H4  UNL     1      24.931 -31.646 141.634  1.00  0.00     0.209 HD
ENDBRANCH  20  21
ENDBRANCH  18  20
ENDBRANCH  12  18
BRANCH  10  23
HETATM   23  C12 UNL     1      26.319 -25.417 139.577  1.00  0.00    -0.026 C 
HETATM   24  C13 UNL     1      26.737 -24.183 139.367  1.00  0.00     0.022 C 
BRANCH  23  25
HETATM   25  C14 UNL     1      27.282 -26.499 139.487  1.00  0.00     0.265 C 
HETATM   26  O2  UNL     1      28.274 -26.437 138.697  1.00  0.00    -0.302 OA
ENDBRANCH  23  25
ENDBRANCH  10  23
BRANCH  17  27
HETATM   27  O5  UNL     1      19.769 -24.654 141.742  1.00  0.00    -0.395 OA
ATOM     28  H5  UNL     1      20.553 -24.548 141.216  1.00  0.00     0.210 HD
ENDBRANCH  17  27
BRANCH   1  29
HETATM   29  C2  UNL     1      18.374 -27.740 143.220  1.00  0.00    -0.029 C 
HETATM   30  C1  UNL     1      17.813 -28.865 142.757  1.00  0.00     0.007 C 
ENDBRANCH   1  29
TORSDOF 7
ENDMDL
MODEL 2
REMARK VINA RESULT: -6.611716381      3.049      4.510
REMARK  7 active torsions:
REMARK  status: ('A' for Active; 'I' for Inactive)
REMARK    1  A    between atoms: C2_2  and  C3_3 
REMARK    2  A    between atoms: C11_12  and  C12_13 
REMARK    3  A    between atoms: C12_13  and  C14_15 
REMARK    4  A    between atoms: C16_18  and  C17_19 
REMARK    5  A    between atoms: C17_19  and  C18_21 
REMARK    6  A    between atoms: C18_21  and  O4_22 
REMARK    7  A    between atoms: C23_28  and  O5_29 
ROOT
HETATM    1  C3  UNL     1      21.080 -26.441 137.106  1.00  0.00     0.043 C 
HETATM    2  C4  UNL     1      22.061 -27.162 136.242  1.00  0.00     0.094 C 
HETATM    3  C5  UNL     1      23.431 -26.654 136.290  1.00  0.00     0.156 C 
HETATM    4  O1  UNL     1      24.065 -26.675 135.177  1.00  0.00    -0.293 OA
HETATM    5  C6  UNL     1      24.256 -26.103 137.399  1.00  0.00    -0.007 C 
HETATM    6  C7  UNL     1      25.298 -25.487 136.943  1.00  0.00    -0.015 C 
HETATM    7  C8  UNL     1      26.271 -24.856 137.817  1.00  0.00     0.033 C 
HETATM    8  C9  UNL     1      26.239 -25.467 139.202  1.00  0.00    -0.005 C 
HETATM    9  C10 UNL     1      27.069 -24.534 140.066  1.00  0.00     0.014 C 
HETATM   10  C11 UNL     1      26.218 -23.749 141.037  1.00  0.00     0.022 C 
HETATM   11  C15 UNL     1      25.395 -24.622 141.925  1.00  0.00     0.022 C 
HETATM   12  C16 UNL     1      24.696 -25.752 141.166  1.00  0.00     0.064 C 
HETATM   13  C19 UNL     1      24.830 -25.532 139.734  1.00  0.00     0.014 C 
HETATM   14  C20 UNL     1      23.889 -26.267 138.814  1.00  0.00    -0.006 C 
HETATM   15  C21 UNL     1      23.857 -27.759 139.075  1.00  0.00     0.021 C 
HETATM   16  C22 UNL     1      22.495 -25.754 139.092  1.00  0.00     0.047 C 
HETATM   17  C23 UNL     1      21.724 -25.314 137.914  1.00  0.00     0.127 C 
ENDROOT
BRANCH  12  18
HETATM   18  C17 UNL     1      25.073 -26.990 141.813  1.00  0.00     0.154 C 
HETATM   19  O3  UNL     1      26.281 -27.273 141.908  1.00  0.00    -0.295 OA
BRANCH  18  20
HETATM   20  C18 UNL     1      24.184 -28.019 142.409  1.00  0.00     0.242 C 
BRANCH  20  21
HETATM   21  O4  UNL     1      24.770 -29.294 142.440  1.00  0.00    -0.394 OA
ATOM     22  H4  UNL     1      24.150 -29.980 142.659  1.00  0.00     0.209 HD
ENDBRANCH  20  21
ENDBRANCH  18  20
ENDBRANCH  12  18
BRANCH  10  23
HETATM   23  C12 UNL     1      27.144 -22.957 141.887  1.00  0.00    -0.026 C 
HETATM   24  C13 UNL     1      28.310 -22.510 141.464  1.00  0.00     0.022 C 
BRANCH  23  25
HETATM   25  C14 UNL     1      26.742 -22.662 143.251  1.00  0.00     0.265 C 
HETATM   26  O2  UNL     1      27.177 -21.635 143.859  1.00  0.00    -0.302 OA
ENDBRANCH  23  25
ENDBRANCH  10  23
BRANCH  17  27
HETATM   27  O5  UNL     1      22.363 -24.430 137.076  1.00  0.00    -0.395 OA
ATOM     28  H5  UNL     1      23.303 -24.569 137.103  1.00  0.00     0.210 HD
ENDBRANCH  17  27
BRANCH   1  29
HETATM   29  C2  UNL     1      20.287 -27.356 137.960  1.00  0.00    -0.029 C 
HETATM   30  C1  UNL     1      20.429 -28.687 137.894  1.00  0.00     0.007 C 
ENDBRANCH   1  29
TORSDOF 7
ENDMDL
MODEL 3
REMARK VINA RESULT: -6.598786111      2.331      6.692
REMARK  7 active torsions:
REMARK  status: ('A' for Active; 'I' for Inactive)
REMARK    1  A    between atoms: C2_2  and  C3_3 
REMARK    2  A    between atoms: C11_12  and  C12_13 
REMARK    3  A    between atoms: C12_13  and  C14_15 
REMARK    4  A    between atoms: C16_18  and  C17_19 
REMARK    5  A    between atoms: C17_19  and  C18_21 
REMARK    6  A    between atoms: C18_21  and  O4_22 
REMARK    7  A    between atoms: C23_28  and  O5_29 
ROOT
HETATM    1  C3  UNL     1      27.094 -24.989 139.531  1.00  0.00     0.043 C 
HETATM    2  C4  UNL     1      26.180 -24.597 138.418  1.00  0.00     0.094 C 
HETATM    3  C5  UNL     1      25.227 -25.624 137.997  1.00  0.00     0.156 C 
HETATM    4  O1  UNL     1      24.990 -25.670 136.739  1.00  0.00    -0.293 OA
HETATM    5  C6  UNL     1      24.461 -26.649 138.755  1.00  0.00    -0.007 C 
HETATM    6  C7  UNL     1      23.977 -27.549 137.962  1.00  0.00    -0.015 C 
HETATM    7  C8  UNL     1      23.187 -28.666 138.447  1.00  0.00     0.033 C 
HETATM    8  C9  UNL     1      22.554 -28.349 139.785  1.00  0.00    -0.005 C 
HETATM    9  C10 UNL     1      22.023 -29.676 140.297  1.00  0.00     0.014 C 
HETATM   10  C11 UNL     1      22.825 -30.198 141.466  1.00  0.00     0.022 C 
HETATM   11  C15 UNL     1      22.888 -29.233 142.604  1.00  0.00     0.022 C 
HETATM   12  C16 UNL     1      23.191 -27.803 142.155  1.00  0.00     0.064 C 
HETATM   13  C19 UNL     1      23.575 -27.804 140.752  1.00  0.00     0.014 C 
HETATM   14  C20 UNL     1      24.305 -26.599 140.217  1.00  0.00    -0.006 C 
HETATM   15  C21 UNL     1      23.594 -25.297 140.524  1.00  0.00     0.021 C 
HETATM   16  C22 UNL     1      25.642 -26.533 140.918  1.00  0.00     0.047 C 
HETATM   17  C23 UNL     1      26.822 -26.403 140.044  1.00  0.00     0.127 C 
ENDROOT
BRANCH  12  18
HETATM   18  C17 UNL     1      22.138 -26.964 142.684  1.00  0.00     0.154 C 
HETATM   19  O3  UNL     1      22.423 -26.120 143.553  1.00  0.00    -0.295 OA
BRANCH  18  20
HETATM   20  C18 UNL     1      20.698 -26.963 142.321  1.00  0.00     0.242 C 
BRANCH  20  21
HETATM   21  O4  UNL     1      20.015 -25.834 142.799  1.00  0.00    -0.394 OA
ATOM     22  H4  UNL     1      19.958 -25.137 142.156  1.00  0.00     0.209 HD
ENDBRANCH  20  21
ENDBRANCH  18  20
ENDBRANCH  12  18
BRANCH  10  23
HETATM   23  C12 UNL     1      22.153 -31.436 141.939  1.00  0.00    -0.026 C 
HETATM   24  C13 UNL     1      22.384 -32.626 141.420  1.00  0.00     0.022 C 
BRANCH  23  25
HETATM   25  C14 UNL     1      21.197 -31.327 143.026  1.00  0.00     0.265 C 
HETATM   26  O2  UNL     1      20.243 -32.157 143.151  1.00  0.00    -0.302 OA
ENDBRANCH  23  25
ENDBRANCH  10  23
BRANCH  17  27
HETATM   27  O5  UNL     1      26.907 -27.311 139.014  1.00  0.00    -0.395 OA
ATOM     28  H5  UNL     1      27.574 -27.961 139.201  1.00  0.00     0.210 HD
ENDBRANCH  17  27
BRANCH   1  29
HETATM   29  C2  UNL     1      27.122 -23.994 140.627  1.00  0.00    -0.029 C 
HETATM   30  C1  UNL     1      27.908 -22.910 140.580  1.00  0.00     0.007 C 
ENDBRANCH   1  29
TORSDOF 7
ENDMDL
MODEL 4
REMARK VINA RESULT: -6.552756546      2.572      5.465
REMARK  7 active torsions:
REMARK  status: ('A' for Active; 'I' for Inactive)
REMARK    1  A    between atoms: C2_2  and  C3_3 
REMARK    2  A    between atoms: C11_12  and  C12_13 
REMARK    3  A    between atoms: C12_13  and  C14_15 
REMARK    4  A    between atoms: C16_18  and  C17_19 
REMARK    5  A    between atoms: C17_19  and  C18_21 
REMARK    6  A    between atoms: C18_21  and  O4_22 
REMARK    7  A    between atoms: C23_28  and  O5_29 
ROOT
HETATM    1  C3  UNL     1      23.448 -29.811 141.687  1.00  0.00     0.043 C 
HETATM    2  C4  UNL     1      24.142 -28.692 142.390  1.00  0.00     0.094 C 
HETATM    3  C5  UNL     1      24.792 -27.712 141.522  1.00  0.00     0.156 C 
HETATM    4  O1  UNL     1      25.904 -27.245 141.956  1.00  0.00    -0.293 OA
HETATM    5  C6  UNL     1      24.413 -27.135 140.204  1.00  0.00    -0.007 C 
HETATM    6  C7  UNL     1      25.419 -26.540 139.649  1.00  0.00    -0.015 C 
HETATM    7  C8  UNL     1      25.318 -25.892 138.354  1.00  0.00     0.033 C 
HETATM    8  C9  UNL     1      23.886 -25.510 138.043  1.00  0.00    -0.005 C 
HETATM    9  C10 UNL     1      23.888 -25.128 136.574  1.00  0.00     0.014 C 
HETATM   10  C11 UNL     1      23.179 -26.151 135.717  1.00  0.00     0.022 C 
HETATM   11  C15 UNL     1      21.770 -26.395 136.150  1.00  0.00     0.022 C 
HETATM   12  C16 UNL     1      21.634 -26.561 137.664  1.00  0.00     0.064 C 
HETATM   13  C19 UNL     1      22.955 -26.676 138.263  1.00  0.00     0.014 C 
HETATM   14  C20 UNL     1      23.055 -27.254 139.651  1.00  0.00    -0.006 C 
HETATM   15  C21 UNL     1      22.132 -26.571 140.639  1.00  0.00     0.021 C 
HETATM   16  C22 UNL     1      22.609 -28.695 139.573  1.00  0.00     0.047 C 
HETATM   17  C23 UNL     1      23.526 -29.686 140.165  1.00  0.00     0.127 C 
ENDROOT
BRANCH  12  18
HETATM   18  C17 UNL     1      20.648 -25.599 138.106  1.00  0.00     0.154 C 
HETATM   19  O3  UNL     1      20.969 -24.399 138.170  1.00  0.00    -0.295 OA
BRANCH  18  20
HETATM   20  C18 UNL     1      19.242 -25.850 138.513  1.00  0.00     0.242 C 
BRANCH  20  21
HETATM   21  O4  UNL     1      18.883 -25.167 139.685  1.00  0.00    -0.394 OA
ATOM     22  H4  UNL     1      19.416 -24.397 139.841  1.00  0.00     0.209 HD
ENDBRANCH  20  21
ENDBRANCH  18  20
ENDBRANCH  12  18
BRANCH  10  23
HETATM   23  C12 UNL     1      23.157 -25.620 134.330  1.00  0.00    -0.026 C 
HETATM   24  C13 UNL     1      22.363 -26.092 133.389  1.00  0.00     0.022 C 
BRANCH  23  25
HETATM   25  C14 UNL     1      24.055 -24.529 133.997  1.00  0.00     0.265 C 
HETATM   26  O2  UNL     1      25.119 -24.729 133.333  1.00  0.00    -0.302 OA
ENDBRANCH  23  25
ENDBRANCH  10  23
BRANCH  17  27
HETATM   27  O5  UNL     1      24.838 -29.606 139.758  1.00  0.00    -0.395 OA
ATOM     28  H5  UNL     1      24.956 -28.874 139.165  1.00  0.00     0.210 HD
ENDBRANCH  17  27
BRANCH   1  29
HETATM   29  C2  UNL     1      22.059 -30.011 142.159  1.00  0.00    -0.029 C 
HETATM   30  C1  UNL     1      21.531 -29.268 143.142  1.00  0.00     0.007 C 
ENDBRANCH   1  29
TORSDOF 7
ENDMDL
MODEL 5
REMARK VINA RESULT: -6.543155710      2.599      5.456
REMARK  7 active torsions:
REMARK  status: ('A' for Active; 'I' for Inactive)
REMARK    1  A    between atoms: C2_2  and  C3_3 
REMARK    2  A    between atoms: C11_12  and  C12_13 
REMARK    3  A    between atoms: C12_13  and  C14_15 
REMARK    4  A    between atoms: C16_18  and  C17_19 
REMARK    5  A    between atoms: C17_19  and  C18_21 
REMARK    6  A    between atoms: C18_21  and  O4_22 
REMARK    7  A    between atoms: C23_28  and  O5_29 
ROOT
HETATM    1  C3  UNL     1      23.365 -30.411 141.630  1.00  0.00     0.043 C 
HETATM    2  C4  UNL     1      23.847 -29.217 142.384  1.00  0.00     0.094 C 
HETATM    3  C5  UNL     1      24.409 -28.143 141.567  1.00  0.00     0.156 C 
HETATM    4  O1  UNL     1      25.413 -27.531 142.077  1.00  0.00    -0.293 OA
HETATM    5  C6  UNL     1      24.040 -27.605 140.230  1.00  0.00    -0.007 C 
HETATM    6  C7  UNL     1      24.986 -26.867 139.747  1.00  0.00    -0.015 C 
HETATM    7  C8  UNL     1      24.881 -26.221 138.451  1.00  0.00     0.033 C 
HETATM    8  C9  UNL     1      23.434 -26.039 138.047  1.00  0.00    -0.005 C 
HETATM    9  C10 UNL     1      23.479 -25.639 136.583  1.00  0.00     0.014 C 
HETATM   10  C11 UNL     1      22.979 -26.738 135.675  1.00  0.00     0.022 C 
HETATM   11  C15 UNL     1      21.593 -27.182 136.010  1.00  0.00     0.022 C 
HETATM   12  C16 UNL     1      21.381 -27.388 137.511  1.00  0.00     0.064 C 
HETATM   13  C19 UNL     1      22.663 -27.327 138.197  1.00  0.00     0.014 C 
HETATM   14  C20 UNL     1      22.751 -27.905 139.585  1.00  0.00    -0.006 C 
HETATM   15  C21 UNL     1      21.679 -27.372 140.513  1.00  0.00     0.021 C 
HETATM   16  C22 UNL     1      22.518 -29.393 139.470  1.00  0.00     0.047 C 
HETATM   17  C23 UNL     1      23.524 -30.255 140.117  1.00  0.00     0.127 C 
ENDROOT
BRANCH  12  18
HETATM   18  C17 UNL     1      20.243 -26.580 137.891  1.00  0.00     0.154 C 
HETATM   19  O3  UNL     1      19.240 -27.143 138.365  1.00  0.00    -0.295 OA
BRANCH  18  20
HETATM   20  C18 UNL     1      20.093 -25.106 137.793  1.00  0.00     0.242 C 
BRANCH  20  21
HETATM   21  O4  UNL     1      20.590 -24.431 138.918  1.00  0.00    -0.394 OA
ATOM     22  H4  UNL     1      21.062 -25.002 139.513  1.00  0.00     0.209 HD
ENDBRANCH  20  21
ENDBRANCH  18  20
ENDBRANCH  12  18
BRANCH  10  23
HETATM   23  C12 UNL     1      22.974 -26.195 134.292  1.00  0.00    -0.026 C 
HETATM   24  C13 UNL     1      22.236 -26.697 133.322  1.00  0.00     0.022 C 
BRANCH  23  25
HETATM   25  C14 UNL     1      23.824 -25.055 133.998  1.00  0.00     0.265 C 
HETATM   26  O2  UNL     1      25.029 -25.209 133.625  1.00  0.00    -0.302 OA
ENDBRANCH  23  25
ENDBRANCH  10  23
BRANCH  17  27
HETATM   27  O5  UNL     1      24.836 -29.986 139.800  1.00  0.00    -0.395 OA
ATOM     28  H5  UNL     1      25.335 -30.793 139.748  1.00  0.00     0.210 HD
ENDBRANCH  17  27
BRANCH   1  29
HETATM   29  C2  UNL     1      21.990 -30.811 142.006  1.00  0.00    -0.029 C 
HETATM   30  C1  UNL     1      21.354 -30.262 143.051  1.00  0.00     0.007 C 
ENDBRANCH   1  29
TORSDOF 7
ENDMDL
