MODEL 1
REMARK VINA RESULT: -6.597769027      0.000      0.000
REMARK  5 active torsions:
REMARK  status: ('A' for Active; 'I' for Inactive)
REMARK    1  A    between atoms: N1_2  and  C2_4 
REMARK    2  A    between atoms: C3_7  and  N3_8 
REMARK    3  A    between atoms: N3_8  and  C4_10 
REMARK    4  A    between atoms: C4_10  and  C5_11 
REMARK       I    between atoms: C5_11  and  N4_13 
REMARK    5  A    between atoms: N4_13  and  N5_15 
ROOT
HETATM    1  C2  UNL     1      56.731 -18.758  -6.318  1.00  0.00     0.728 A 
HETATM    2  N2  UNL     1      55.625 -18.440  -5.624  1.00  0.00    -0.020 N 
ATOM      3  H2  UNL     1      55.289 -17.478  -5.659  1.00  0.00     0.203 HD
HETATM    4  C3  UNL     1      54.942 -19.330  -4.886  1.00  0.00     0.707 A 
HETATM    5  N6  UNL     1      55.387 -20.608  -4.839  1.00  0.00    -0.019 N 
ATOM      6  H6  UNL     1      54.883 -21.302  -4.286  1.00  0.00     0.203 HD
HETATM    7  C6  UNL     1      56.490 -20.965  -5.519  1.00  0.00     0.735 A 
HETATM    8  N7  UNL     1      57.193 -22.117  -5.689  1.00  0.00    -0.161 N 
ATOM      9  H7  UNL     1      56.955 -23.014  -5.265  1.00  0.00     0.187 HD
HETATM   10  C7  UNL     1      58.231 -21.904  -6.486  1.00  0.00     0.209 A 
HETATM   11 CL1  UNL     1      59.390 -23.119  -6.962  1.00  0.00    -0.043 Cl
HETATM   12  N8  UNL     1      58.197 -20.606  -6.831  1.00  0.00    -0.239 N 
ATOM     13  H8  UNL     1      58.870 -20.138  -7.439  1.00  0.00     0.191 HD
HETATM   14  N9  UNL     1      57.156 -20.031  -6.257  1.00  0.00     0.093 N 
ENDROOT
BRANCH   4  15
HETATM   15  N3  UNL     1      53.867 -18.989  -4.222  1.00  0.00    -0.216 N 
ATOM     16  H3  UNL     1      53.971 -18.501  -3.333  1.00  0.00     0.178 HD
BRANCH  15  17
HETATM   17  C4  UNL     1      52.553 -19.279  -4.702  1.00  0.00     0.242 C 
BRANCH  17  18
HETATM   18  C5  UNL     1      52.132 -18.442  -5.828  1.00  0.00     0.253 C 
HETATM   19  O1  UNL     1      51.501 -18.961  -6.785  1.00  0.00    -0.270 OA
HETATM   20  N4  UNL     1      52.429 -17.057  -5.848  1.00  0.00    -0.275 N 
ATOM     21  H4  UNL     1      52.940 -16.640  -5.070  1.00  0.00     0.189 HD
BRANCH  20  22
HETATM   22  N5  UNL     1      52.030 -16.257  -6.919  1.00  0.00    -0.343 N 
ATOM     23  H52 UNL     1      51.561 -15.373  -6.722  1.00  0.00     0.176 HD
ATOM     24  H51 UNL     1      52.202 -16.550  -7.880  1.00  0.00     0.176 HD
ENDBRANCH  20  22
ENDBRANCH  17  18
ENDBRANCH  15  17
ENDBRANCH   4  15
BRANCH   1  25
HETATM   25  N1  UNL     1      57.351 -17.872  -7.009  1.00  0.00    -0.228 N 
HETATM   26  C1  UNL     1      58.441 -17.058  -6.592  1.00  0.00     0.165 C 
ATOM     27  H1  UNL     1      57.024 -17.735  -7.965  1.00  0.00     0.177 HD
ENDBRANCH   1  25
TORSDOF 5
ENDMDL
MODEL 2
REMARK VINA RESULT: -6.527451692      7.016      8.396
REMARK  5 active torsions:
REMARK  status: ('A' for Active; 'I' for Inactive)
REMARK    1  A    between atoms: N1_2  and  C2_4 
REMARK    2  A    between atoms: C3_7  and  N3_8 
REMARK    3  A    between atoms: N3_8  and  C4_10 
REMARK    4  A    between atoms: C4_10  and  C5_11 
REMARK       I    between atoms: C5_11  and  N4_13 
REMARK    5  A    between atoms: N4_13  and  N5_15 
ROOT
HETATM    1  C2  UNL     1      49.542 -23.427  -9.513  1.00  0.00     0.728 A 
HETATM    2  N2  UNL     1      50.284 -22.393  -9.080  1.00  0.00    -0.020 N 
ATOM      3  H2  UNL     1      51.021 -22.035  -9.687  1.00  0.00     0.203 HD
HETATM    4  C3  UNL     1      50.100 -21.810  -7.885  1.00  0.00     0.707 A 
HETATM    5  N6  UNL     1      49.121 -22.284  -7.078  1.00  0.00    -0.019 N 
ATOM      6  H6  UNL     1      48.962 -21.855  -6.165  1.00  0.00     0.203 HD
HETATM    7  C6  UNL     1      48.359 -23.317  -7.475  1.00  0.00     0.735 A 
HETATM    8  N7  UNL     1      47.327 -24.022  -6.938  1.00  0.00    -0.161 N 
ATOM      9  H7  UNL     1      46.916 -23.849  -6.021  1.00  0.00     0.187 HD
HETATM   10  C7  UNL     1      46.933 -24.966  -7.781  1.00  0.00     0.209 A 
HETATM   11 CL1  UNL     1      45.635 -26.094  -7.482  1.00  0.00    -0.043 Cl
HETATM   12  N8  UNL     1      47.717 -24.870  -8.868  1.00  0.00    -0.239 N 
ATOM     13  H8  UNL     1      47.658 -25.465  -9.695  1.00  0.00     0.191 HD
HETATM   14  N9  UNL     1      48.578 -23.882  -8.697  1.00  0.00     0.093 N 
ENDROOT
BRANCH   4  15
HETATM   15  N3  UNL     1      50.838 -20.804  -7.492  1.00  0.00    -0.216 N 
ATOM     16  H3  UNL     1      51.050 -20.706  -6.499  1.00  0.00     0.178 HD
BRANCH  15  17
HETATM   17  C4  UNL     1      51.358 -19.838  -8.408  1.00  0.00     0.242 C 
BRANCH  17  18
HETATM   18  C5  UNL     1      51.689 -18.550  -7.791  1.00  0.00     0.253 C 
HETATM   19  O1  UNL     1      51.770 -17.521  -8.510  1.00  0.00    -0.270 OA
HETATM   20  N4  UNL     1      51.915 -18.456  -6.396  1.00  0.00    -0.275 N 
ATOM     21  H4  UNL     1      51.847 -19.293  -5.817  1.00  0.00     0.189 HD
BRANCH  20  22
HETATM   22  N5  UNL     1      52.230 -17.232  -5.806  1.00  0.00    -0.343 N 
ATOM     23  H52 UNL     1      51.655 -16.419  -6.030  1.00  0.00     0.176 HD
ATOM     24  H51 UNL     1      53.018 -17.150  -5.166  1.00  0.00     0.176 HD
ENDBRANCH  20  22
ENDBRANCH  17  18
ENDBRANCH  15  17
ENDBRANCH   4  15
BRANCH   1  25
HETATM   25  N1  UNL     1      49.756 -23.952 -10.664  1.00  0.00    -0.228 N 
HETATM   26  C1  UNL     1      50.720 -24.947 -10.995  1.00  0.00     0.165 C 
ATOM     27  H1  UNL     1      49.170 -23.619 -11.429  1.00  0.00     0.177 HD
ENDBRANCH   1  25
TORSDOF 5
ENDMDL
MODEL 3
REMARK VINA RESULT: -6.362395822      6.005      7.333
REMARK  5 active torsions:
REMARK  status: ('A' for Active; 'I' for Inactive)
REMARK    1  A    between atoms: N1_2  and  C2_4 
REMARK    2  A    between atoms: C3_7  and  N3_8 
REMARK    3  A    between atoms: N3_8  and  C4_10 
REMARK    4  A    between atoms: C4_10  and  C5_11 
REMARK       I    between atoms: C5_11  and  N4_13 
REMARK    5  A    between atoms: N4_13  and  N5_15 
ROOT
HETATM    1  C2  UNL     1      50.699 -22.036  -9.921  1.00  0.00     0.728 A 
HETATM    2  N2  UNL     1      51.506 -21.083  -9.423  1.00  0.00    -0.020 N 
ATOM      3  H2  UNL     1      52.230 -20.695 -10.027  1.00  0.00     0.203 HD
HETATM    4  C3  UNL     1      51.403 -20.619  -8.168  1.00  0.00     0.707 A 
HETATM    5  N6  UNL     1      50.441 -21.134  -7.365  1.00  0.00    -0.019 N 
ATOM      6  H6  UNL     1      50.343 -20.796  -6.407  1.00  0.00     0.203 HD
HETATM    7  C6  UNL     1      49.615 -22.089  -7.826  1.00  0.00     0.735 A 
HETATM    8  N7  UNL     1      48.578 -22.802  -7.313  1.00  0.00    -0.161 N 
ATOM      9  H7  UNL     1      48.217 -22.708  -6.364  1.00  0.00     0.187 HD
HETATM   10  C7  UNL     1      48.103 -23.638  -8.227  1.00  0.00     0.209 A 
HETATM   11 CL1  UNL     1      46.770 -24.737  -7.979  1.00  0.00    -0.043 Cl
HETATM   12  N8  UNL     1      48.841 -23.462  -9.336  1.00  0.00    -0.239 N 
ATOM     13  H8  UNL     1      48.717 -23.966 -10.215  1.00  0.00     0.191 HD
HETATM   14  N9  UNL     1      49.753 -22.533  -9.109  1.00  0.00     0.093 N 
ENDROOT
BRANCH   4  15
HETATM   15  N3  UNL     1      52.203 -19.690  -7.712  1.00  0.00    -0.216 N 
ATOM     16  H3  UNL     1      53.211 -19.842  -7.756  1.00  0.00     0.178 HD
BRANCH  15  17
HETATM   17  C4  UNL     1      51.713 -18.469  -7.155  1.00  0.00     0.242 C 
BRANCH  17  18
HETATM   18  C5  UNL     1      52.555 -17.304  -7.440  1.00  0.00     0.253 C 
HETATM   19  O1  UNL     1      52.182 -16.163  -7.066  1.00  0.00    -0.270 OA
HETATM   20  N4  UNL     1      53.783 -17.454  -8.129  1.00  0.00    -0.275 N 
ATOM     21  H4  UNL     1      54.083 -18.382  -8.429  1.00  0.00     0.189 HD
BRANCH  20  22
HETATM   22  N5  UNL     1      54.588 -16.347  -8.401  1.00  0.00    -0.343 N 
ATOM     23  H52 UNL     1      55.508 -16.292  -7.964  1.00  0.00     0.176 HD
ATOM     24  H51 UNL     1      54.263 -15.608  -9.024  1.00  0.00     0.176 HD
ENDBRANCH  20  22
ENDBRANCH  17  18
ENDBRANCH  15  17
ENDBRANCH   4  15
BRANCH   1  25
HETATM   25  N1  UNL     1      50.836 -22.448 -11.129  1.00  0.00    -0.228 N 
HETATM   26  C1  UNL     1      51.858 -23.296 -11.642  1.00  0.00     0.165 C 
ATOM     27  H1  UNL     1      50.134 -22.131 -11.797  1.00  0.00     0.177 HD
ENDBRANCH   1  25
TORSDOF 5
ENDMDL
MODEL 4
REMARK VINA RESULT: -6.308003588      2.241      3.435
REMARK  5 active torsions:
REMARK  status: ('A' for Active; 'I' for Inactive)
REMARK    1  A    between atoms: N1_2  and  C2_4 
REMARK    2  A    between atoms: C3_7  and  N3_8 
REMARK    3  A    between atoms: N3_8  and  C4_10 
REMARK    4  A    between atoms: C4_10  and  C5_11 
REMARK       I    between atoms: C5_11  and  N4_13 
REMARK    5  A    between atoms: N4_13  and  N5_15 
ROOT
HETATM    1  C2  UNL     1      56.407 -19.102  -6.518  1.00  0.00     0.728 A 
HETATM    2  N2  UNL     1      55.320 -18.409  -6.138  1.00  0.00    -0.020 N 
ATOM      3  H2  UNL     1      54.912 -18.605  -5.224  1.00  0.00     0.203 HD
HETATM    4  C3  UNL     1      54.746 -17.470  -6.907  1.00  0.00     0.707 A 
HETATM    5  N6  UNL     1      55.286 -17.209  -8.121  1.00  0.00    -0.019 N 
ATOM      6  H6  UNL     1      54.867 -16.498  -8.722  1.00  0.00     0.203 HD
HETATM    7  C6  UNL     1      56.373 -17.882  -8.536  1.00  0.00     0.735 A 
HETATM    8  N7  UNL     1      57.147 -17.876  -9.654  1.00  0.00    -0.161 N 
ATOM      9  H7  UNL     1      56.999 -17.274 -10.464  1.00  0.00     0.187 HD
HETATM   10  C7  UNL     1      58.122 -18.767  -9.538  1.00  0.00     0.209 A 
HETATM   11 CL1  UNL     1      59.339 -19.080 -10.749  1.00  0.00    -0.043 Cl
HETATM   12  N8  UNL     1      57.974 -19.352  -8.337  1.00  0.00    -0.239 N 
ATOM     13  H8  UNL     1      58.575 -20.084  -7.958  1.00  0.00     0.191 HD
HETATM   14  N9  UNL     1      56.927 -18.828  -7.725  1.00  0.00     0.093 N 
ENDROOT
BRANCH   4  15
HETATM   15  N3  UNL     1      53.688 -16.811  -6.509  1.00  0.00    -0.216 N 
ATOM     16  H3  UNL     1      53.803 -16.053  -5.836  1.00  0.00     0.178 HD
BRANCH  15  17
HETATM   17  C4  UNL     1      52.376 -17.117  -6.987  1.00  0.00     0.242 C 
BRANCH  17  18
HETATM   18  C5  UNL     1      51.810 -18.346  -6.427  1.00  0.00     0.253 C 
HETATM   19  O1  UNL     1      51.330 -19.216  -7.199  1.00  0.00    -0.270 OA
HETATM   20  N4  UNL     1      51.801 -18.564  -5.027  1.00  0.00    -0.275 N 
ATOM     21  H4  UNL     1      52.193 -17.857  -4.405  1.00  0.00     0.189 HD
BRANCH  20  22
HETATM   22  N5  UNL     1      51.263 -19.734  -4.491  1.00  0.00    -0.343 N 
ATOM     23  H52 UNL     1      51.714 -20.623  -4.706  1.00  0.00     0.176 HD
ATOM     24  H51 UNL     1      50.436 -19.702  -3.897  1.00  0.00     0.176 HD
ENDBRANCH  20  22
ENDBRANCH  17  18
ENDBRANCH  15  17
ENDBRANCH   4  15
BRANCH   1  25
HETATM   25  N1  UNL     1      56.921 -19.991  -5.747  1.00  0.00    -0.228 N 
HETATM   26  C1  UNL     1      56.311 -21.192  -5.286  1.00  0.00     0.165 C 
ATOM     27  H1  UNL     1      57.874 -19.817  -5.429  1.00  0.00     0.177 HD
ENDBRANCH   1  25
TORSDOF 5
ENDMDL
MODEL 5
REMARK VINA RESULT: -6.287613298      8.005      9.288
REMARK  5 active torsions:
REMARK  status: ('A' for Active; 'I' for Inactive)
REMARK    1  A    between atoms: N1_2  and  C2_4 
REMARK    2  A    between atoms: C3_7  and  N3_8 
REMARK    3  A    between atoms: N3_8  and  C4_10 
REMARK    4  A    between atoms: C4_10  and  C5_11 
REMARK       I    between atoms: C5_11  and  N4_13 
REMARK    5  A    between atoms: N4_13  and  N5_15 
ROOT
HETATM    1  C2  UNL     1      49.369 -22.290  -9.080  1.00  0.00     0.728 A 
HETATM    2  N2  UNL     1      48.321 -23.107  -9.289  1.00  0.00    -0.020 N 
ATOM      3  H2  UNL     1      48.069 -23.338 -10.249  1.00  0.00     0.203 HD
HETATM    4  C3  UNL     1      47.592 -23.631  -8.291  1.00  0.00     0.707 A 
HETATM    5  N6  UNL     1      47.926 -23.325  -7.015  1.00  0.00    -0.019 N 
ATOM      6  H6  UNL     1      47.386 -23.713  -6.241  1.00  0.00     0.203 HD
HETATM    7  C6  UNL     1      48.966 -22.511  -6.766  1.00  0.00     0.735 A 
HETATM    8  N7  UNL     1      49.558 -22.010  -5.649  1.00  0.00    -0.161 N 
ATOM      9  H7  UNL     1      49.260 -22.204  -4.693  1.00  0.00     0.187 HD
HETATM   10  C7  UNL     1      50.580 -21.235  -5.983  1.00  0.00     0.209 A 
HETATM   11 CL1  UNL     1      51.610 -20.396  -4.850  1.00  0.00    -0.043 Cl
HETATM   12  N8  UNL     1      50.647 -21.235  -7.325  1.00  0.00    -0.239 N 
ATOM     13  H8  UNL     1      51.333 -20.726  -7.883  1.00  0.00     0.191 HD
HETATM   14  N9  UNL     1      49.683 -21.998  -7.808  1.00  0.00     0.093 N 
ENDROOT
BRANCH   4  15
HETATM   15  N3  UNL     1      46.578 -24.423  -8.527  1.00  0.00    -0.216 N 
ATOM     16  H3  UNL     1      45.652 -24.015  -8.656  1.00  0.00     0.178 HD
BRANCH  15  17
HETATM   17  C4  UNL     1      46.724 -25.842  -8.610  1.00  0.00     0.242 C 
BRANCH  17  18
HETATM   18  C5  UNL     1      46.312 -26.555  -7.398  1.00  0.00     0.253 C 
HETATM   19  O1  UNL     1      46.951 -27.575  -7.031  1.00  0.00    -0.270 OA
HETATM   20  N4  UNL     1      45.204 -26.106  -6.639  1.00  0.00    -0.275 N 
ATOM     21  H4  UNL     1      44.689 -25.279  -6.940  1.00  0.00     0.189 HD
BRANCH  20  22
HETATM   22  N5  UNL     1      44.809 -26.782  -5.485  1.00  0.00    -0.343 N 
ATOM     23  H52 UNL     1      44.505 -27.753  -5.566  1.00  0.00     0.176 HD
ATOM     24  H51 UNL     1      44.823 -26.317  -4.578  1.00  0.00     0.176 HD
ENDBRANCH  20  22
ENDBRANCH  17  18
ENDBRANCH  15  17
ENDBRANCH   4  15
BRANCH   1  25
HETATM   25  N1  UNL     1      50.036 -21.813 -10.067  1.00  0.00    -0.228 N 
HETATM   26  C1  UNL     1      51.141 -22.413 -10.734  1.00  0.00     0.165 C 
ATOM     27  H1  UNL     1      49.742 -20.899 -10.412  1.00  0.00     0.177 HD
ENDBRANCH   1  25
TORSDOF 5
ENDMDL
