MODEL 1
REMARK VINA RESULT: -7.004717313      0.000      0.000
REMARK  0 active torsions:
REMARK  status: ('A' for Active; 'I' for Inactive)
REMARK       I    between atoms: C1_4  and  N3_6 
REMARK       I    between atoms: C2_8  and  N5_10 
ROOT
HETATM    1  N1  UNL     1      29.771   5.458  54.380  1.00  0.00    -0.373 N 
ATOM      2  H11 UNL     1      30.735   5.751  54.222  1.00  0.00     0.158 HD
ATOM      3  H12 UNL     1      29.138   5.459  53.580  1.00  0.00     0.158 HD
HETATM    4  C1  UNL     1      29.391   5.107  55.543  1.00  0.00     0.188 C 
HETATM    5  N2  UNL     1      28.035   4.695  55.765  1.00  0.00    -0.064 NA
HETATM    6  N3  UNL     1      30.260   5.106  56.642  1.00  0.00    -0.305 N 
ATOM      7  H3  UNL     1      29.954   4.608  57.478  1.00  0.00     0.171 HD
HETATM    8  C2  UNL     1      31.410   5.679  56.687  1.00  0.00     0.194 C 
HETATM    9  N4  UNL     1      31.942   6.406  55.576  1.00  0.00    -0.063 NA
HETATM   10  N5  UNL     1      32.146   5.567  57.893  1.00  0.00    -0.323 N 
HETATM   11  C3  UNL     1      33.158   4.573  58.179  1.00  0.00     0.158 C 
HETATM   12  C4  UNL     1      33.342   4.648  59.679  1.00  0.00     0.295 C 
HETATM   13  N6  UNL     1      32.959   5.980  60.012  1.00  0.00     0.113 N 
HETATM   14  C5  UNL     1      34.003   6.877  60.319  1.00  0.00     0.275 C 
HETATM   15  C6  UNL     1      34.568   7.642  59.168  1.00  0.00     0.030 C 
HETATM   16  C7  UNL     1      33.501   8.323  58.351  1.00  0.00     0.005 C 
HETATM   17  C8  UNL     1      32.116   7.882  58.703  1.00  0.00     0.058 C 
HETATM   18  C9  UNL     1      32.012   6.418  59.036  1.00  0.00     0.326 C 
ENDROOT
TORSDOF 0
ENDMDL
MODEL 2
REMARK VINA RESULT: -5.843189275      1.213      1.435
REMARK  0 active torsions:
REMARK  status: ('A' for Active; 'I' for Inactive)
REMARK       I    between atoms: C1_4  and  N3_6 
REMARK       I    between atoms: C2_8  and  N5_10 
ROOT
HETATM    1  N1  UNL     1      30.770   4.207  55.065  1.00  0.00    -0.373 N 
ATOM      2  H11 UNL     1      31.725   4.000  55.356  1.00  0.00     0.158 HD
ATOM      3  H12 UNL     1      30.487   3.918  54.129  1.00  0.00     0.158 HD
HETATM    4  C1  UNL     1      29.975   4.806  55.857  1.00  0.00     0.188 C 
HETATM    5  N2  UNL     1      28.631   5.097  55.448  1.00  0.00    -0.064 NA
HETATM    6  N3  UNL     1      30.363   5.203  57.143  1.00  0.00    -0.305 N 
ATOM      7  H3  UNL     1      29.623   5.470  57.793  1.00  0.00     0.171 HD
HETATM    8  C2  UNL     1      31.573   5.261  57.575  1.00  0.00     0.194 C 
HETATM    9  N4  UNL     1      32.691   4.911  56.755  1.00  0.00    -0.063 NA
HETATM   10  N5  UNL     1      31.766   5.689  58.912  1.00  0.00    -0.323 N 
HETATM   11  C3  UNL     1      31.896   4.829  60.068  1.00  0.00     0.158 C 
HETATM   12  C4  UNL     1      31.698   5.754  61.248  1.00  0.00     0.295 C 
HETATM   13  N6  UNL     1      32.092   7.034  60.758  1.00  0.00     0.113 N 
HETATM   14  C5  UNL     1      33.341   7.519  61.198  1.00  0.00     0.275 C 
HETATM   15  C6  UNL     1      34.517   7.161  60.351  1.00  0.00     0.030 C 
HETATM   16  C7  UNL     1      34.299   7.487  58.896  1.00  0.00     0.005 C 
HETATM   17  C8  UNL     1      32.883   7.848  58.578  1.00  0.00     0.058 C 
HETATM   18  C9  UNL     1      31.866   7.049  59.348  1.00  0.00     0.326 C 
ENDROOT
TORSDOF 0
ENDMDL
MODEL 3
REMARK VINA RESULT: -5.826176192      1.369      1.435
REMARK  0 active torsions:
REMARK  status: ('A' for Active; 'I' for Inactive)
REMARK       I    between atoms: C1_4  and  N3_6 
REMARK       I    between atoms: C2_8  and  N5_10 
ROOT
HETATM    1  N1  UNL     1      30.805   5.956  54.833  1.00  0.00    -0.373 N 
ATOM      2  H11 UNL     1      31.654   6.519  54.774  1.00  0.00     0.158 HD
ATOM      3  H12 UNL     1      30.279   5.802  53.973  1.00  0.00     0.158 HD
HETATM    4  C1  UNL     1      30.432   5.474  55.950  1.00  0.00     0.188 C 
HETATM    5  N2  UNL     1      29.238   4.683  56.032  1.00  0.00    -0.064 NA
HETATM    6  N3  UNL     1      31.154   5.686  57.132  1.00  0.00    -0.305 N 
ATOM      7  H3  UNL     1      30.926   5.094  57.931  1.00  0.00     0.171 HD
HETATM    8  C2  UNL     1      32.080   6.564  57.295  1.00  0.00     0.194 C 
HETATM    9  N4  UNL     1      32.484   7.448  56.246  1.00  0.00    -0.063 NA
HETATM   10  N5  UNL     1      32.697   6.627  58.569  1.00  0.00    -0.323 N 
HETATM   11  C3  UNL     1      33.921   5.957  58.954  1.00  0.00     0.158 C 
HETATM   12  C4  UNL     1      33.930   6.033  60.465  1.00  0.00     0.295 C 
HETATM   13  N6  UNL     1      33.149   7.188  60.761  1.00  0.00     0.113 N 
HETATM   14  C5  UNL     1      33.855   8.336  61.176  1.00  0.00     0.275 C 
HETATM   15  C6  UNL     1      34.283   9.268  60.091  1.00  0.00     0.030 C 
HETATM   16  C7  UNL     1      33.149   9.641  59.171  1.00  0.00     0.005 C 
HETATM   17  C8  UNL     1      31.924   8.810  59.380  1.00  0.00     0.058 C 
HETATM   18  C9  UNL     1      32.215   7.367  59.695  1.00  0.00     0.326 C 
ENDROOT
TORSDOF 0
ENDMDL
MODEL 4
REMARK VINA RESULT: -5.791655949      1.782      3.309
REMARK  0 active torsions:
REMARK  status: ('A' for Active; 'I' for Inactive)
REMARK       I    between atoms: C1_4  and  N3_6 
REMARK       I    between atoms: C2_8  and  N5_10 
ROOT
HETATM    1  N1  UNL     1      31.277   4.581  56.120  1.00  0.00    -0.373 N 
ATOM      2  H11 UNL     1      31.308   4.029  56.978  1.00  0.00     0.158 HD
ATOM      3  H12 UNL     1      30.767   4.193  55.327  1.00  0.00     0.158 HD
HETATM    4  C1  UNL     1      31.861   5.710  56.063  1.00  0.00     0.188 C 
HETATM    5  N2  UNL     1      31.816   6.485  54.857  1.00  0.00    -0.064 NA
HETATM    6  N3  UNL     1      32.561   6.242  57.154  1.00  0.00    -0.305 N 
ATOM      7  H3  UNL     1      32.807   7.232  57.112  1.00  0.00     0.171 HD
HETATM    8  C2  UNL     1      32.921   5.591  58.202  1.00  0.00     0.194 C 
HETATM    9  N4  UNL     1      32.632   4.200  58.370  1.00  0.00    -0.063 NA
HETATM   10  N5  UNL     1      33.626   6.306  59.202  1.00  0.00    -0.323 N 
HETATM   11  C3  UNL     1      33.041   6.930  60.369  1.00  0.00     0.158 C 
HETATM   12  C4  UNL     1      34.123   7.855  60.881  1.00  0.00     0.295 C 
HETATM   13  N6  UNL     1      35.336   7.263  60.420  1.00  0.00     0.113 N 
HETATM   14  C5  UNL     1      36.117   6.595  61.385  1.00  0.00     0.275 C 
HETATM   15  C6  UNL     1      35.825   5.142  61.571  1.00  0.00     0.030 C 
HETATM   16  C7  UNL     1      35.821   4.385  60.268  1.00  0.00     0.005 C 
HETATM   17  C8  UNL     1      35.848   5.276  59.068  1.00  0.00     0.058 C 
HETATM   18  C9  UNL     1      35.038   6.534  59.228  1.00  0.00     0.326 C 
ENDROOT
TORSDOF 0
ENDMDL
MODEL 5
REMARK VINA RESULT: -5.765385269      1.589      1.673
REMARK  0 active torsions:
REMARK  status: ('A' for Active; 'I' for Inactive)
REMARK       I    between atoms: C1_4  and  N3_6 
REMARK       I    between atoms: C2_8  and  N5_10 
ROOT
HETATM    1  N1  UNL     1      31.153   6.225  54.825  1.00  0.00    -0.373 N 
ATOM      2  H11 UNL     1      31.825   6.938  55.111  1.00  0.00     0.158 HD
ATOM      3  H12 UNL     1      30.638   6.380  53.959  1.00  0.00     0.158 HD
HETATM    4  C1  UNL     1      30.977   5.187  55.540  1.00  0.00     0.188 C 
HETATM    5  N2  UNL     1      30.032   4.186  55.138  1.00  0.00    -0.064 NA
HETATM    6  N3  UNL     1      31.684   4.975  56.731  1.00  0.00    -0.305 N 
ATOM      7  H3  UNL     1      31.659   4.035  57.127  1.00  0.00     0.171 HD
HETATM    8  C2  UNL     1      32.361   5.863  57.368  1.00  0.00     0.194 C 
HETATM    9  N4  UNL     1      32.468   7.213  56.908  1.00  0.00    -0.063 NA
HETATM   10  N5  UNL     1      33.009   5.455  58.561  1.00  0.00    -0.323 N 
HETATM   11  C3  UNL     1      34.382   5.012  58.671  1.00  0.00     0.158 C 
HETATM   12  C4  UNL     1      34.454   4.348  60.028  1.00  0.00     0.295 C 
HETATM   13  N6  UNL     1      33.419   4.978  60.780  1.00  0.00     0.113 N 
HETATM   14  C5  UNL     1      33.829   5.917  61.749  1.00  0.00     0.275 C 
HETATM   15  C6  UNL     1      33.945   7.331  61.283  1.00  0.00     0.030 C 
HETATM   16  C7  UNL     1      32.705   7.804  60.569  1.00  0.00     0.005 C 
HETATM   17  C8  UNL     1      31.747   6.700  60.256  1.00  0.00     0.058 C 
HETATM   18  C9  UNL     1      32.415   5.410  59.862  1.00  0.00     0.326 C 
ENDROOT
TORSDOF 0
ENDMDL
