MODEL 1
REMARK VINA RESULT: -6.768738817      0.000      0.000
REMARK  4 active torsions:
REMARK  status: ('A' for Active; 'I' for Inactive)
REMARK    1  A    between atoms: N1_4  and  O2_5 
REMARK    2  A    between atoms: O2_5  and  C3_6 
REMARK       I    between atoms: C3_6  and  N2_8 
REMARK    3  A    between atoms: N2_8  and  N3_10 
REMARK       I    between atoms: N3_10  and  C4_12 
REMARK    4  A    between atoms: C4_12  and  C5_14 
ROOT
HETATM    1  C3  UNL     1      31.896   5.529  56.954  1.00  0.00     0.401 C 
HETATM    2  O3  UNL     1      31.943   6.543  56.204  1.00  0.00    -0.235 OA
HETATM    3  N2  UNL     1      30.655   4.893  57.194  1.00  0.00    -0.241 N 
ATOM      4  H2  UNL     1      30.615   4.074  57.802  1.00  0.00     0.192 HD
ENDROOT
BRANCH   1   5
HETATM    5  O2  UNL     1      33.052   5.060  57.528  1.00  0.00    -0.178 OA
BRANCH   5   6
HETATM    6  N1  UNL     1      33.325   5.415  58.824  1.00  0.00    -0.253 N 
HETATM    7  C2  UNL     1      32.833   4.547  59.820  1.00  0.00     0.258 C 
HETATM    8  C1  UNL     1      31.650   5.049  60.571  1.00  0.00     0.238 C 
HETATM    9  O1  UNL     1      30.782   4.275  61.060  1.00  0.00    -0.272 OA
HETATM   10  N4  UNL     1      31.531   6.451  60.719  1.00  0.00    -0.355 N 
HETATM   11  C10 UNL     1      32.604   7.281  60.272  1.00  0.00     0.169 C 
ATOM     12  H4  UNL     1      30.696   6.861  61.138  1.00  0.00     0.162 HD
HETATM   13  C9  UNL     1      33.327   6.803  59.075  1.00  0.00     0.110 C 
ENDBRANCH   5   6
ENDBRANCH   1   5
BRANCH   3  14
HETATM   14  N3  UNL     1      29.493   5.373  56.610  1.00  0.00    -0.265 N 
HETATM   15  C4  UNL     1      28.963   4.776  55.450  1.00  0.00     0.240 C 
HETATM   16  O4  UNL     1      29.558   3.793  54.942  1.00  0.00    -0.271 OA
ATOM     17  H3  UNL     1      29.014   6.171  57.028  1.00  0.00     0.190 HD
BRANCH  15  18
HETATM   18  C5  UNL     1      27.722   5.247  54.784  1.00  0.00     0.079 C 
HETATM   19  C6  UNL     1      26.642   4.193  54.876  1.00  0.00     0.014 C 
HETATM   20  C7  UNL     1      26.109   4.904  56.097  1.00  0.00     0.002 C 
HETATM   21  C8  UNL     1      26.893   6.131  55.685  1.00  0.00     0.014 C 
ENDBRANCH  15  18
ENDBRANCH   3  14
TORSDOF 4
ENDMDL
MODEL 2
REMARK VINA RESULT: -6.513521420      1.452      2.495
REMARK  4 active torsions:
REMARK  status: ('A' for Active; 'I' for Inactive)
REMARK    1  A    between atoms: N1_4  and  O2_5 
REMARK    2  A    between atoms: O2_5  and  C3_6 
REMARK       I    between atoms: C3_6  and  N2_8 
REMARK    3  A    between atoms: N2_8  and  N3_10 
REMARK       I    between atoms: N3_10  and  C4_12 
REMARK    4  A    between atoms: C4_12  and  C5_14 
ROOT
HETATM    1  C3  UNL     1      31.914   5.557  56.951  1.00  0.00     0.401 C 
HETATM    2  O3  UNL     1      31.942   6.585  56.221  1.00  0.00    -0.235 OA
HETATM    3  N2  UNL     1      30.685   4.897  57.185  1.00  0.00    -0.241 N 
ATOM      4  H2  UNL     1      30.661   4.066  57.777  1.00  0.00     0.192 HD
ENDROOT
BRANCH   1   5
HETATM    5  O2  UNL     1      33.080   5.094  57.509  1.00  0.00    -0.178 OA
BRANCH   5   6
HETATM    6  N1  UNL     1      33.399   5.500  58.781  1.00  0.00    -0.253 N 
HETATM    7  C2  UNL     1      34.230   6.635  58.877  1.00  0.00     0.258 C 
HETATM    8  C1  UNL     1      35.641   6.356  59.264  1.00  0.00     0.238 C 
HETATM    9  O1  UNL     1      36.600   7.083  58.886  1.00  0.00    -0.272 OA
HETATM   10  N4  UNL     1      35.870   5.227  60.084  1.00  0.00    -0.355 N 
HETATM   11  C10 UNL     1      34.746   4.514  60.601  1.00  0.00     0.169 C 
ATOM     12  H4  UNL     1      36.820   4.928  60.303  1.00  0.00     0.162 HD
HETATM   13  C9  UNL     1      33.563   4.458  59.717  1.00  0.00     0.110 C 
ENDBRANCH   5   6
ENDBRANCH   1   5
BRANCH   3  14
HETATM   14  N3  UNL     1      29.512   5.371  56.617  1.00  0.00    -0.265 N 
HETATM   15  C4  UNL     1      28.980   4.783  55.453  1.00  0.00     0.240 C 
HETATM   16  O4  UNL     1      29.583   3.814  54.926  1.00  0.00    -0.271 OA
ATOM     17  H3  UNL     1      29.027   6.157  57.049  1.00  0.00     0.190 HD
BRANCH  15  18
HETATM   18  C5  UNL     1      27.729   5.248  54.803  1.00  0.00     0.079 C 
HETATM   19  C6  UNL     1      26.659   4.182  54.896  1.00  0.00     0.014 C 
HETATM   20  C7  UNL     1      26.132   4.878  56.129  1.00  0.00     0.002 C 
HETATM   21  C8  UNL     1      26.900   6.116  55.720  1.00  0.00     0.014 C 
ENDBRANCH  15  18
ENDBRANCH   3  14
TORSDOF 4
ENDMDL
MODEL 3
REMARK VINA RESULT: -6.170255713      1.109      1.250
REMARK  4 active torsions:
REMARK  status: ('A' for Active; 'I' for Inactive)
REMARK    1  A    between atoms: N1_4  and  O2_5 
REMARK    2  A    between atoms: O2_5  and  C3_6 
REMARK       I    between atoms: C3_6  and  N2_8 
REMARK    3  A    between atoms: N2_8  and  N3_10 
REMARK       I    between atoms: N3_10  and  C4_12 
REMARK    4  A    between atoms: C4_12  and  C5_14 
ROOT
HETATM    1  C3  UNL     1      31.962   5.388  57.190  1.00  0.00     0.401 C 
HETATM    2  O3  UNL     1      32.025   6.490  56.579  1.00  0.00    -0.235 OA
HETATM    3  N2  UNL     1      30.727   4.703  57.275  1.00  0.00    -0.241 N 
ATOM      4  H2  UNL     1      30.674   3.812  57.770  1.00  0.00     0.192 HD
ENDROOT
BRANCH   1   5
HETATM    5  O2  UNL     1      33.096   4.869  57.765  1.00  0.00    -0.178 OA
BRANCH   5   6
HETATM    6  N1  UNL     1      33.523   5.400  58.956  1.00  0.00    -0.253 N 
HETATM    7  C2  UNL     1      32.524   5.626  59.925  1.00  0.00     0.258 C 
HETATM    8  C1  UNL     1      32.143   7.052  60.121  1.00  0.00     0.238 C 
HETATM    9  O1  UNL     1      30.985   7.398  60.483  1.00  0.00    -0.272 OA
HETATM   10  N4  UNL     1      33.144   8.023  59.882  1.00  0.00    -0.355 N 
HETATM   11  C10 UNL     1      34.475   7.582  59.609  1.00  0.00     0.169 C 
ATOM     12  H4  UNL     1      32.920   9.017  59.905  1.00  0.00     0.162 HD
HETATM   13  C9  UNL     1      34.588   6.318  58.853  1.00  0.00     0.110 C 
ENDBRANCH   5   6
ENDBRANCH   1   5
BRANCH   3  14
HETATM   14  N3  UNL     1      29.586   5.234  56.691  1.00  0.00    -0.265 N 
HETATM   15  C4  UNL     1      29.089   4.725  55.476  1.00  0.00     0.240 C 
HETATM   16  O4  UNL     1      29.695   3.776  54.917  1.00  0.00    -0.271 OA
ATOM     17  H3  UNL     1      29.099   6.004  57.149  1.00  0.00     0.190 HD
BRANCH  15  18
HETATM   18  C5  UNL     1      27.873   5.253  54.806  1.00  0.00     0.079 C 
HETATM   19  C6  UNL     1      26.762   4.228  54.849  1.00  0.00     0.014 C 
HETATM   20  C7  UNL     1      26.231   4.915  56.084  1.00  0.00     0.002 C 
HETATM   21  C8  UNL     1      27.056   6.131  55.723  1.00  0.00     0.014 C 
ENDBRANCH  15  18
ENDBRANCH   3  14
TORSDOF 4
ENDMDL
MODEL 4
REMARK VINA RESULT: -6.079821411      3.447      7.792
REMARK  4 active torsions:
REMARK  status: ('A' for Active; 'I' for Inactive)
REMARK    1  A    between atoms: N1_4  and  O2_5 
REMARK    2  A    between atoms: O2_5  and  C3_6 
REMARK       I    between atoms: C3_6  and  N2_8 
REMARK    3  A    between atoms: N2_8  and  N3_10 
REMARK       I    between atoms: N3_10  and  C4_12 
REMARK    4  A    between atoms: C4_12  and  C5_14 
ROOT
HETATM    1  C3  UNL     1      33.839   4.758  58.945  1.00  0.00     0.401 C 
HETATM    2  O3  UNL     1      33.107   4.787  59.972  1.00  0.00    -0.235 OA
HETATM    3  N2  UNL     1      35.245   4.685  59.088  1.00  0.00    -0.241 N 
ATOM      4  H2  UNL     1      35.837   4.663  58.257  1.00  0.00     0.192 HD
ENDROOT
BRANCH   1   5
HETATM    5  O2  UNL     1      33.258   4.799  57.702  1.00  0.00    -0.178 OA
BRANCH   5   6
HETATM    6  N1  UNL     1      32.057   5.450  57.566  1.00  0.00    -0.253 N 
HETATM    7  C2  UNL     1      31.030   4.725  56.927  1.00  0.00     0.258 C 
HETATM    8  C1  UNL     1      30.729   5.150  55.532  1.00  0.00     0.238 C 
HETATM    9  O1  UNL     1      30.291   4.348  54.662  1.00  0.00    -0.272 OA
HETATM   10  N4  UNL     1      30.954   6.509  55.212  1.00  0.00    -0.355 N 
HETATM   11  C10 UNL     1      31.316   7.410  56.259  1.00  0.00     0.169 C 
ATOM     12  H4  UNL     1      30.859   6.840  54.252  1.00  0.00     0.162 HD
HETATM   13  C9  UNL     1      32.154   6.837  57.334  1.00  0.00     0.110 C 
ENDBRANCH   5   6
ENDBRANCH   1   5
BRANCH   3  14
HETATM   14  N3  UNL     1      35.823   4.643  60.347  1.00  0.00    -0.265 N 
HETATM   15  C4  UNL     1      36.132   3.415  60.964  1.00  0.00     0.240 C 
HETATM   16  O4  UNL     1      35.876   2.345  60.357  1.00  0.00    -0.271 OA
ATOM     17  H3  UNL     1      36.029   5.515  60.835  1.00  0.00     0.190 HD
BRANCH  15  18
HETATM   18  C5  UNL     1      36.753   3.311  62.309  1.00  0.00     0.079 C 
HETATM   19  C6  UNL     1      37.493   1.999  62.447  1.00  0.00     0.014 C 
HETATM   20  C7  UNL     1      38.761   2.720  62.053  1.00  0.00     0.002 C 
HETATM   21  C8  UNL     1      38.078   4.030  62.380  1.00  0.00     0.014 C 
ENDBRANCH  15  18
ENDBRANCH   3  14
TORSDOF 4
ENDMDL
MODEL 5
REMARK VINA RESULT: -5.992944662      3.043      4.134
REMARK  4 active torsions:
REMARK  status: ('A' for Active; 'I' for Inactive)
REMARK    1  A    between atoms: N1_4  and  O2_5 
REMARK    2  A    between atoms: O2_5  and  C3_6 
REMARK       I    between atoms: C3_6  and  N2_8 
REMARK    3  A    between atoms: N2_8  and  N3_10 
REMARK       I    between atoms: N3_10  and  C4_12 
REMARK    4  A    between atoms: C4_12  and  C5_14 
ROOT
HETATM    1  C3  UNL     1      32.685   5.219  60.428  1.00  0.00     0.401 C 
HETATM    2  O3  UNL     1      32.439   6.456  60.401  1.00  0.00    -0.235 OA
HETATM    3  N2  UNL     1      31.980   4.345  59.567  1.00  0.00    -0.241 N 
ATOM      4  H2  UNL     1      32.177   3.345  59.590  1.00  0.00     0.192 HD
ENDROOT
BRANCH   1   5
HETATM    5  O2  UNL     1      33.634   4.739  61.296  1.00  0.00    -0.178 OA
BRANCH   5   6
HETATM    6  N1  UNL     1      34.953   4.814  60.924  1.00  0.00    -0.253 N 
HETATM    7  C2  UNL     1      35.469   3.688  60.249  1.00  0.00     0.258 C 
HETATM    8  C1  UNL     1      36.374   2.825  61.056  1.00  0.00     0.238 C 
HETATM    9  O1  UNL     1      36.480   1.584  60.856  1.00  0.00    -0.272 OA
HETATM   10  N4  UNL     1      37.125   3.457  62.075  1.00  0.00    -0.355 N 
HETATM   11  C10 UNL     1      37.080   4.881  62.176  1.00  0.00     0.169 C 
ATOM     12  H4  UNL     1      37.688   2.907  62.723  1.00  0.00     0.162 HD
HETATM   13  C9  UNL     1      35.789   5.508  61.823  1.00  0.00     0.110 C 
ENDBRANCH   5   6
ENDBRANCH   1   5
BRANCH   3  14
HETATM   14  N3  UNL     1      31.023   4.839  58.693  1.00  0.00    -0.265 N 
HETATM   15  C4  UNL     1      31.366   5.220  57.381  1.00  0.00     0.240 C 
HETATM   16  O4  UNL     1      32.560   5.110  57.005  1.00  0.00    -0.271 OA
ATOM     17  H3  UNL     1      30.056   4.926  59.004  1.00  0.00     0.190 HD
BRANCH  15  18
HETATM   18  C5  UNL     1      30.384   5.753  56.403  1.00  0.00     0.079 C 
HETATM   19  C6  UNL     1      30.849   5.484  54.989  1.00  0.00     0.014 C 
HETATM   20  C7  UNL     1      29.992   4.241  54.988  1.00  0.00     0.002 C 
HETATM   21  C8  UNL     1      29.236   4.800  56.174  1.00  0.00     0.014 C 
ENDBRANCH  15  18
ENDBRANCH   3  14
TORSDOF 4
ENDMDL
