MODEL 1
REMARK VINA RESULT: -7.057467010      0.000      0.000
REMARK  4 active torsions:
REMARK  status: ('A' for Active; 'I' for Inactive)
REMARK    1  A    between atoms: C2_2  and  C3_3 
REMARK    2  A    between atoms: C3_3  and  N1_4 
REMARK    3  A    between atoms: N1_4  and  C4_6 
REMARK    4  A    between atoms: C7_14  and  N4_15 
REMARK       I    between atoms: N4_15  and  C8_17 
ROOT
HETATM    1  C4  UNL     1      30.227   6.208  56.696  1.00  0.00     0.682 A 
HETATM    2  N2  UNL     1      30.943   7.303  56.914  1.00  0.00    -0.154 N 
ATOM      3  H2  UNL     1      30.549   8.183  56.581  1.00  0.00     0.187 HD
HETATM    4  C5  UNL     1      32.120   7.371  57.521  1.00  0.00     0.289 A 
HETATM    5  O1  UNL     1      32.672   8.485  57.651  1.00  0.00    -0.265 OA
HETATM    6  C6  UNL     1      32.712   6.173  58.002  1.00  0.00     0.138 A 
HETATM    7  N3  UNL     1      33.867   6.038  58.625  1.00  0.00    -0.330 N 
ATOM      8  H3  UNL     1      34.453   6.851  58.816  1.00  0.00     0.168 HD
HETATM    9  C7  UNL     1      34.251   4.823  59.000  1.00  0.00     0.153 A 
HETATM   10  S1  UNL     1      32.967   3.833  58.469  1.00  0.00    -0.033 SA
HETATM   11  C10 UNL     1      31.980   5.042  57.780  1.00  0.00     0.126 A 
HETATM   12  N5  UNL     1      30.769   5.047  57.145  1.00  0.00    -0.183 N 
ATOM     13  H5  UNL     1      30.268   4.170  57.006  1.00  0.00     0.185 HD
ENDROOT
BRANCH   1  14
HETATM   14  N1  UNL     1      29.097   6.137  56.115  1.00  0.00    -0.223 N 
ATOM     15  H1  UNL     1      28.585   7.005  55.952  1.00  0.00     0.178 HD
BRANCH  14  16
HETATM   16  C3  UNL     1      28.503   4.912  55.678  1.00  0.00     0.164 C 
BRANCH  16  17
HETATM   17  C2  UNL     1      27.009   4.949  55.835  1.00  0.00    -0.017 C 
HETATM   18  C1  UNL     1      26.184   4.474  54.924  1.00  0.00     0.008 C 
ENDBRANCH  16  17
ENDBRANCH  14  16
ENDBRANCH   1  14
BRANCH   9  19
HETATM   19  N4  UNL     1      35.359   4.484  59.628  1.00  0.00    -0.307 N 
HETATM   20  C8  UNL     1      35.657   4.932  60.916  1.00  0.00     0.219 C 
HETATM   21  C9  UNL     1      36.539   6.065  61.249  1.00  0.00     0.117 C 
HETATM   22  O2  UNL     1      35.122   4.308  61.892  1.00  0.00    -0.274 OA
ATOM     23  H4  UNL     1      36.023   3.871  59.156  1.00  0.00     0.171 HD
ENDBRANCH   9  19
TORSDOF 4
ENDMDL
MODEL 2
REMARK VINA RESULT: -6.855322464      3.266      4.611
REMARK  4 active torsions:
REMARK  status: ('A' for Active; 'I' for Inactive)
REMARK    1  A    between atoms: C2_2  and  C3_3 
REMARK    2  A    between atoms: C3_3  and  N1_4 
REMARK    3  A    between atoms: N1_4  and  C4_6 
REMARK    4  A    between atoms: C7_14  and  N4_15 
REMARK       I    between atoms: N4_15  and  C8_17 
ROOT
HETATM    1  C4  UNL     1      30.153   6.376  56.179  1.00  0.00     0.682 A 
HETATM    2  N2  UNL     1      31.371   6.098  56.623  1.00  0.00    -0.154 N 
ATOM      3  H2  UNL     1      31.836   5.289  56.210  1.00  0.00     0.187 HD
HETATM    4  C5  UNL     1      32.047   6.763  57.549  1.00  0.00     0.289 A 
HETATM    5  O1  UNL     1      33.194   6.373  57.860  1.00  0.00    -0.265 OA
HETATM    6  C6  UNL     1      31.444   7.896  58.155  1.00  0.00     0.138 A 
HETATM    7  N3  UNL     1      31.952   8.679  59.087  1.00  0.00    -0.330 N 
ATOM      8  H3  UNL     1      32.886   8.505  59.460  1.00  0.00     0.168 HD
HETATM    9  C7  UNL     1      31.225   9.698  59.531  1.00  0.00     0.153 A 
HETATM   10  S1  UNL     1      29.785   9.566  58.625  1.00  0.00    -0.033 SA
HETATM   11  C10 UNL     1      30.189   8.189  57.704  1.00  0.00     0.126 A 
HETATM   12  N5  UNL     1      29.550   7.455  56.742  1.00  0.00    -0.183 N 
ATOM     13  H5  UNL     1      28.611   7.720  56.445  1.00  0.00     0.185 HD
ENDROOT
BRANCH   1  14
HETATM   14  N1  UNL     1      29.499   5.742  55.290  1.00  0.00    -0.223 N 
ATOM     15  H1  UNL     1      29.547   6.077  54.328  1.00  0.00     0.178 HD
BRANCH  14  16
HETATM   16  C3  UNL     1      28.703   4.586  55.562  1.00  0.00     0.164 C 
BRANCH  16  17
HETATM   17  C2  UNL     1      27.261   4.959  55.769  1.00  0.00    -0.017 C 
HETATM   18  C1  UNL     1      26.288   4.495  55.011  1.00  0.00     0.008 C 
ENDBRANCH  16  17
ENDBRANCH  14  16
ENDBRANCH   1  14
BRANCH   9  19
HETATM   19  N4  UNL     1      31.553  10.585  60.449  1.00  0.00    -0.307 N 
HETATM   20  C8  UNL     1      31.859  11.910  60.135  1.00  0.00     0.219 C 
HETATM   21  C9  UNL     1      33.216  12.467  59.986  1.00  0.00     0.117 C 
HETATM   22  O2  UNL     1      30.882  12.712  59.962  1.00  0.00    -0.274 OA
ATOM     23  H4  UNL     1      31.584  10.293  61.425  1.00  0.00     0.171 HD
ENDBRANCH   9  19
TORSDOF 4
ENDMDL
MODEL 3
REMARK VINA RESULT: -6.812596359      2.248      2.872
REMARK  4 active torsions:
REMARK  status: ('A' for Active; 'I' for Inactive)
REMARK    1  A    between atoms: C2_2  and  C3_3 
REMARK    2  A    between atoms: C3_3  and  N1_4 
REMARK    3  A    between atoms: N1_4  and  C4_6 
REMARK    4  A    between atoms: C7_14  and  N4_15 
REMARK       I    between atoms: N4_15  and  C8_17 
ROOT
HETATM    1  C4  UNL     1      30.501   5.666  56.233  1.00  0.00     0.682 A 
HETATM    2  N2  UNL     1      31.093   4.641  56.830  1.00  0.00    -0.154 N 
ATOM      3  H2  UNL     1      30.756   3.710  56.585  1.00  0.00     0.187 HD
HETATM    4  C5  UNL     1      32.079   4.702  57.714  1.00  0.00     0.289 A 
HETATM    5  O1  UNL     1      32.534   3.639  58.189  1.00  0.00    -0.265 OA
HETATM    6  C6  UNL     1      32.583   5.975  58.090  1.00  0.00     0.138 A 
HETATM    7  N3  UNL     1      33.551   6.238  58.947  1.00  0.00    -0.330 N 
ATOM      8  H3  UNL     1      34.037   5.483  59.431  1.00  0.00     0.168 HD
HETATM    9  C7  UNL     1      33.881   7.507  59.167  1.00  0.00     0.153 A 
HETATM   10  S1  UNL     1      32.812   8.364  58.151  1.00  0.00    -0.033 SA
HETATM   11  C10 UNL     1      31.977   7.036  57.480  1.00  0.00     0.126 A 
HETATM   12  N5  UNL     1      30.962   6.897  56.574  1.00  0.00    -0.183 N 
ATOM     13  H5  UNL     1      30.546   7.727  56.151  1.00  0.00     0.185 HD
ENDROOT
BRANCH   1  14
HETATM   14  N1  UNL     1      29.555   5.614  55.383  1.00  0.00    -0.223 N 
ATOM     15  H1  UNL     1      29.477   6.370  54.702  1.00  0.00     0.178 HD
BRANCH  14  16
HETATM   16  C3  UNL     1      28.594   4.556  55.328  1.00  0.00     0.164 C 
BRANCH  16  17
HETATM   17  C2  UNL     1      27.200   5.079  55.536  1.00  0.00    -0.017 C 
HETATM   18  C1  UNL     1      26.132   4.475  55.058  1.00  0.00     0.008 C 
ENDBRANCH  16  17
ENDBRANCH  14  16
ENDBRANCH   1  14
BRANCH   9  19
HETATM   19  N4  UNL     1      34.812   7.970  59.977  1.00  0.00    -0.307 N 
HETATM   20  C8  UNL     1      36.011   8.510  59.510  1.00  0.00     0.219 C 
HETATM   21  C9  UNL     1      37.300   7.799  59.427  1.00  0.00     0.117 C 
HETATM   22  O2  UNL     1      35.994   9.725  59.120  1.00  0.00    -0.274 OA
ATOM     23  H4  UNL     1      34.649   7.933  60.983  1.00  0.00     0.171 HD
ENDBRANCH   9  19
TORSDOF 4
ENDMDL
MODEL 4
REMARK VINA RESULT: -6.803903414      1.403      1.430
REMARK  4 active torsions:
REMARK  status: ('A' for Active; 'I' for Inactive)
REMARK    1  A    between atoms: C2_2  and  C3_3 
REMARK    2  A    between atoms: C3_3  and  N1_4 
REMARK    3  A    between atoms: N1_4  and  C4_6 
REMARK    4  A    between atoms: C7_14  and  N4_15 
REMARK       I    between atoms: N4_15  and  C8_17 
ROOT
HETATM    1  C4  UNL     1      30.121   5.626  55.915  1.00  0.00     0.682 A 
HETATM    2  N2  UNL     1      30.161   6.850  56.425  1.00  0.00    -0.154 N 
ATOM      3  H2  UNL     1      29.476   7.517  56.070  1.00  0.00     0.187 HD
HETATM    4  C5  UNL     1      31.000   7.294  57.350  1.00  0.00     0.289 A 
HETATM    5  O1  UNL     1      30.910   8.482  57.730  1.00  0.00    -0.265 OA
HETATM    6  C6  UNL     1      31.974   6.405  57.875  1.00  0.00     0.138 A 
HETATM    7  N3  UNL     1      32.888   6.659  58.792  1.00  0.00    -0.330 N 
ATOM      8  H3  UNL     1      32.958   7.585  59.214  1.00  0.00     0.168 HD
HETATM    9  C7  UNL     1      33.717   5.686  59.154  1.00  0.00     0.153 A 
HETATM   10  S1  UNL     1      33.211   4.372  58.191  1.00  0.00    -0.033 SA
HETATM   11  C10 UNL     1      31.940   5.143  57.354  1.00  0.00     0.126 A 
HETATM   12  N5  UNL     1      31.042   4.753  56.399  1.00  0.00    -0.183 N 
ATOM     13  H5  UNL     1      31.065   3.797  56.046  1.00  0.00     0.185 HD
ENDROOT
BRANCH   1  14
HETATM   14  N1  UNL     1      29.317   5.193  55.029  1.00  0.00    -0.223 N 
ATOM     15  H1  UNL     1      29.432   5.528  54.072  1.00  0.00     0.178 HD
BRANCH  14  16
HETATM   16  C3  UNL     1      28.264   4.264  55.296  1.00  0.00     0.164 C 
BRANCH  16  17
HETATM   17  C2  UNL     1      26.994   4.979  55.666  1.00  0.00    -0.017 C 
HETATM   18  C1  UNL     1      25.803   4.556  55.294  1.00  0.00     0.008 C 
ENDBRANCH  16  17
ENDBRANCH  14  16
ENDBRANCH   1  14
BRANCH   9  19
HETATM   19  N4  UNL     1      34.687   5.740  60.044  1.00  0.00    -0.307 N 
HETATM   20  C8  UNL     1      35.415   6.905  60.289  1.00  0.00     0.219 C 
HETATM   21  C9  UNL     1      36.740   7.226  59.726  1.00  0.00     0.117 C 
HETATM   22  O2  UNL     1      34.892   7.771  61.066  1.00  0.00    -0.274 OA
ATOM     23  H4  UNL     1      34.915   4.899  60.574  1.00  0.00     0.171 HD
ENDBRANCH   9  19
TORSDOF 4
ENDMDL
MODEL 5
REMARK VINA RESULT: -6.793892345      1.325      1.325
REMARK  4 active torsions:
REMARK  status: ('A' for Active; 'I' for Inactive)
REMARK    1  A    between atoms: C2_2  and  C3_3 
REMARK    2  A    between atoms: C3_3  and  N1_4 
REMARK    3  A    between atoms: N1_4  and  C4_6 
REMARK    4  A    between atoms: C7_14  and  N4_15 
REMARK       I    between atoms: N4_15  and  C8_17 
ROOT
HETATM    1  C4  UNL     1      30.427   5.699  55.886  1.00  0.00     0.682 A 
HETATM    2  N2  UNL     1      30.560   6.908  56.417  1.00  0.00    -0.154 N 
ATOM      3  H2  UNL     1      30.040   7.664  55.971  1.00  0.00     0.187 HD
HETATM    4  C5  UNL     1      31.298   7.233  57.468  1.00  0.00     0.289 A 
HETATM    5  O1  UNL     1      31.318   8.424  57.850  1.00  0.00    -0.265 OA
HETATM    6  C6  UNL     1      32.042   6.217  58.123  1.00  0.00     0.138 A 
HETATM    7  N3  UNL     1      32.828   6.343  59.175  1.00  0.00    -0.330 N 
ATOM      8  H3  UNL     1      32.962   7.252  59.619  1.00  0.00     0.168 HD
HETATM    9  C7  UNL     1      33.443   5.264  59.645  1.00  0.00     0.153 A 
HETATM   10  S1  UNL     1      32.914   4.030  58.593  1.00  0.00    -0.033 SA
HETATM   11  C10 UNL     1      31.911   4.970  57.582  1.00  0.00     0.126 A 
HETATM   12  N5  UNL     1      31.128   4.707  56.492  1.00  0.00    -0.183 N 
ATOM     13  H5  UNL     1      31.070   3.755  56.130  1.00  0.00     0.185 HD
ENDROOT
BRANCH   1  14
HETATM   14  N1  UNL     1      29.719   5.381  54.877  1.00  0.00    -0.223 N 
ATOM     15  H1  UNL     1      29.896   5.861  53.995  1.00  0.00     0.178 HD
BRANCH  14  16
HETATM   16  C3  UNL     1      28.689   4.389  54.911  1.00  0.00     0.164 C 
BRANCH  16  17
HETATM   17  C2  UNL     1      27.426   4.941  55.509  1.00  0.00    -0.017 C 
HETATM   18  C1  UNL     1      26.227   4.532  55.148  1.00  0.00     0.008 C 
ENDBRANCH  16  17
ENDBRANCH  14  16
ENDBRANCH   1  14
BRANCH   9  19
HETATM   19  N4  UNL     1      34.260   5.184  60.676  1.00  0.00    -0.307 N 
HETATM   20  C8  UNL     1      33.884   5.572  61.963  1.00  0.00     0.219 C 
HETATM   21  C9  UNL     1      34.193   6.867  62.596  1.00  0.00     0.117 C 
HETATM   22  O2  UNL     1      33.214   4.735  62.654  1.00  0.00    -0.274 OA
ATOM     23  H4  UNL     1      35.204   4.826  60.528  1.00  0.00     0.171 HD
ENDBRANCH   9  19
TORSDOF 4
ENDMDL
