MODEL 1
REMARK VINA RESULT: -5.293920398      0.000      0.000
REMARK  6 active torsions:
REMARK  status: ('A' for Active; 'I' for Inactive)
REMARK    1  A    between atoms: O1_2  and  N1_3 
REMARK    2  A    between atoms: N1_3  and  N2_5 
REMARK    3  A    between atoms: C3_10  and  N4_11 
REMARK    4  A    between atoms: N5_14  and  O2_15 
REMARK    5  A    between atoms: C4_17  and  C5_18 
REMARK    6  A    between atoms: N6_19  and  O3_21 
ROOT
HETATM    1  N2  UNL     1     -15.338 -15.972 -29.888  1.00  0.00    -0.171 N 
HETATM    2  C2  UNL     1     -14.544 -16.057 -28.812  1.00  0.00     0.216 C 
HETATM    3  S1  UNL     1     -15.172 -15.677 -27.348  1.00  0.00    -0.038 SA
HETATM    4  N3  UNL     1     -13.252 -16.419 -28.825  1.00  0.00    -0.162 N 
ATOM      5  H3  UNL     1     -12.872 -16.738 -27.934  1.00  0.00     0.187 HD
HETATM    6  C3  UNL     1     -12.384 -16.416 -29.868  1.00  0.00     0.705 C 
HETATM    7  N5  UNL     1     -12.573 -15.904 -31.118  1.00  0.00    -0.046 N 
HETATM    8  C4  UNL     1     -13.732 -15.579 -31.719  1.00  0.00     0.168 C 
HETATM    9  C6  UNL     1     -15.001 -15.841 -31.205  1.00  0.00     0.301 C 
HETATM   10  O4  UNL     1     -15.891 -15.963 -32.068  1.00  0.00    -0.263 OA
ENDROOT
BRANCH   8  11
HETATM   11  C5  UNL     1     -13.681 -14.900 -33.001  1.00  0.00     0.152 C 
HETATM   12  N6  UNL     1     -13.962 -15.310 -34.144  1.00  0.00    -0.278 N 
ATOM     13  H6  UNL     1     -14.295 -16.259 -34.321  1.00  0.00     0.193 HD
BRANCH  12  14
HETATM   14  O3  UNL     1     -13.785 -14.359 -35.180  1.00  0.00    -0.290 OA
ATOM     15  H3  UNL     1     -13.839 -14.712 -36.060  1.00  0.00     0.244 HD
ENDBRANCH  12  14
ENDBRANCH   8  11
BRANCH   7  16
HETATM   16  O2  UNL     1     -11.464 -15.665 -31.886  1.00  0.00    -0.269 OA
ATOM     17  H2  UNL     1     -11.281 -16.264 -32.601  1.00  0.00     0.245 HD
ENDBRANCH   7  16
BRANCH   6  18
HETATM   18  N4  UNL     1     -11.257 -16.942 -29.671  1.00  0.00    -0.232 N 
ATOM     19  H42 UNL     1     -11.103 -17.297 -28.727  1.00  0.00     0.174 HD
ATOM     20  H41 UNL     1     -10.616 -16.968 -30.464  1.00  0.00     0.174 HD
ENDBRANCH   6  18
BRANCH   1  21
HETATM   21  N1  UNL     1     -16.693 -16.027 -29.616  1.00  0.00    -0.196 N 
ATOM     22  H1  UNL     1     -17.224 -15.177 -29.425  1.00  0.00     0.216 HD
BRANCH  21  23
HETATM   23  O1  UNL     1     -17.287 -17.219 -29.611  1.00  0.00    -0.269 OA
HETATM   24  C1  UNL     1     -18.398 -17.178 -28.791  1.00  0.00     0.239 C 
ENDBRANCH  21  23
ENDBRANCH   1  21
TORSDOF 6
ENDMDL
MODEL 2
REMARK VINA RESULT: -5.230057169      3.922      5.971
REMARK  6 active torsions:
REMARK  status: ('A' for Active; 'I' for Inactive)
REMARK    1  A    between atoms: O1_2  and  N1_3 
REMARK    2  A    between atoms: N1_3  and  N2_5 
REMARK    3  A    between atoms: C3_10  and  N4_11 
REMARK    4  A    between atoms: N5_14  and  O2_15 
REMARK    5  A    between atoms: C4_17  and  C5_18 
REMARK    6  A    between atoms: N6_19  and  O3_21 
ROOT
HETATM    1  N2  UNL     1     -16.309 -12.148 -33.252  1.00  0.00    -0.171 N 
HETATM    2  C2  UNL     1     -17.466 -12.721 -33.608  1.00  0.00     0.216 C 
HETATM    3  S1  UNL     1     -18.857 -12.111 -32.995  1.00  0.00    -0.038 SA
HETATM    4  N3  UNL     1     -17.594 -13.777 -34.425  1.00  0.00    -0.162 N 
ATOM      5  H3  UNL     1     -18.514 -13.903 -34.847  1.00  0.00     0.187 HD
HETATM    6  C3  UNL     1     -16.659 -14.701 -34.765  1.00  0.00     0.705 C 
HETATM    7  N5  UNL     1     -15.410 -14.864 -34.242  1.00  0.00    -0.046 N 
HETATM    8  C4  UNL     1     -14.688 -13.989 -33.519  1.00  0.00     0.168 C 
HETATM    9  C6  UNL     1     -15.044 -12.663 -33.281  1.00  0.00     0.301 C 
HETATM   10  O4  UNL     1     -14.080 -11.901 -33.077  1.00  0.00    -0.263 OA
ENDROOT
BRANCH   8  11
HETATM   11  C5  UNL     1     -13.440 -14.441 -32.932  1.00  0.00     0.152 C 
HETATM   12  N6  UNL     1     -13.217 -15.353 -32.111  1.00  0.00    -0.278 N 
ATOM     13  H6  UNL     1     -13.959 -15.940 -31.728  1.00  0.00     0.193 HD
BRANCH  12  14
HETATM   14  O3  UNL     1     -11.856 -15.512 -31.750  1.00  0.00    -0.290 OA
ATOM     15  H3  UNL     1     -11.673 -16.266 -31.202  1.00  0.00     0.244 HD
ENDBRANCH  12  14
ENDBRANCH   8  11
BRANCH   7  16
HETATM   16  O2  UNL     1     -14.784 -16.065 -34.447  1.00  0.00    -0.269 OA
ATOM     17  H2  UNL     1     -15.244 -16.856 -34.190  1.00  0.00     0.245 HD
ENDBRANCH   7  16
BRANCH   6  18
HETATM   18  N4  UNL     1     -16.972 -15.519 -35.670  1.00  0.00    -0.232 N 
ATOM     19  H42 UNL     1     -17.967 -15.731 -35.738  1.00  0.00     0.174 HD
ATOM     20  H41 UNL     1     -16.211 -15.884 -36.243  1.00  0.00     0.174 HD
ENDBRANCH   6  18
BRANCH   1  21
HETATM   21  N1  UNL     1     -16.419 -10.848 -32.794  1.00  0.00    -0.196 N 
ATOM     22  H1  UNL     1     -16.511 -10.651 -31.797  1.00  0.00     0.216 HD
BRANCH  21  23
HETATM   23  O1  UNL     1     -16.403  -9.861 -33.687  1.00  0.00    -0.269 OA
HETATM   24  C1  UNL     1     -15.857  -8.728 -33.115  1.00  0.00     0.239 C 
ENDBRANCH  21  23
ENDBRANCH   1  21
TORSDOF 6
ENDMDL
MODEL 3
REMARK VINA RESULT: -5.226598234      3.679      5.450
REMARK  6 active torsions:
REMARK  status: ('A' for Active; 'I' for Inactive)
REMARK    1  A    between atoms: O1_2  and  N1_3 
REMARK    2  A    between atoms: N1_3  and  N2_5 
REMARK    3  A    between atoms: C3_10  and  N4_11 
REMARK    4  A    between atoms: N5_14  and  O2_15 
REMARK    5  A    between atoms: C4_17  and  C5_18 
REMARK    6  A    between atoms: N6_19  and  O3_21 
ROOT
HETATM    1  N2  UNL     1     -14.073 -13.200 -32.272  1.00  0.00    -0.171 N 
HETATM    2  C2  UNL     1     -14.682 -12.124 -31.758  1.00  0.00     0.216 C 
HETATM    3  S1  UNL     1     -14.197 -11.580 -30.292  1.00  0.00    -0.038 SA
HETATM    4  N3  UNL     1     -15.682 -11.443 -32.339  1.00  0.00    -0.162 N 
ATOM      5  H3  UNL     1     -15.828 -10.493 -31.999  1.00  0.00     0.187 HD
HETATM    6  C3  UNL     1     -16.524 -11.854 -33.321  1.00  0.00     0.705 C 
HETATM    7  N5  UNL     1     -16.655 -13.105 -33.848  1.00  0.00    -0.046 N 
HETATM    8  C4  UNL     1     -15.796 -14.137 -33.770  1.00  0.00     0.168 C 
HETATM    9  C6  UNL     1     -14.512 -14.069 -33.230  1.00  0.00     0.301 C 
HETATM   10  O4  UNL     1     -13.714 -14.903 -33.697  1.00  0.00    -0.263 OA
ENDROOT
BRANCH   8  11
HETATM   11  C5  UNL     1     -16.218 -15.429 -34.276  1.00  0.00     0.152 C 
HETATM   12  N6  UNL     1     -16.237 -15.873 -35.442  1.00  0.00    -0.278 N 
ATOM     13  H6  UNL     1     -15.926 -15.323 -36.244  1.00  0.00     0.193 HD
BRANCH  12  14
HETATM   14  O3  UNL     1     -16.725 -17.197 -35.568  1.00  0.00    -0.290 OA
ATOM     15  H3  UNL     1     -16.061 -17.853 -35.745  1.00  0.00     0.244 HD
ENDBRANCH  12  14
ENDBRANCH   8  11
BRANCH   7  16
HETATM   16  O2  UNL     1     -17.801 -13.389 -34.543  1.00  0.00    -0.269 OA
ATOM     17  H2  UNL     1     -17.958 -12.917 -35.353  1.00  0.00     0.245 HD
ENDBRANCH   7  16
BRANCH   6  18
HETATM   18  N4  UNL     1     -17.292 -10.984 -33.811  1.00  0.00    -0.232 N 
ATOM     19  H42 UNL     1     -16.984 -10.585 -34.699  1.00  0.00     0.174 HD
ATOM     20  H41 UNL     1     -18.137 -10.766 -33.284  1.00  0.00     0.174 HD
ENDBRANCH   6  18
BRANCH   1  21
HETATM   21  N1  UNL     1     -12.817 -13.462 -31.753  1.00  0.00    -0.196 N 
ATOM     22  H1  UNL     1     -12.009 -12.906 -32.033  1.00  0.00     0.216 HD
BRANCH  21  23
HETATM   23  O1  UNL     1     -12.692 -14.458 -30.879  1.00  0.00    -0.269 OA
HETATM   24  C1  UNL     1     -11.452 -15.050 -31.027  1.00  0.00     0.239 C 
ENDBRANCH  21  23
ENDBRANCH   1  21
TORSDOF 6
ENDMDL
MODEL 4
REMARK VINA RESULT: -5.167507403      3.374      5.018
REMARK  6 active torsions:
REMARK  status: ('A' for Active; 'I' for Inactive)
REMARK    1  A    between atoms: O1_2  and  N1_3 
REMARK    2  A    between atoms: N1_3  and  N2_5 
REMARK    3  A    between atoms: C3_10  and  N4_11 
REMARK    4  A    between atoms: N5_14  and  O2_15 
REMARK    5  A    between atoms: C4_17  and  C5_18 
REMARK    6  A    between atoms: N6_19  and  O3_21 
ROOT
HETATM    1  N2  UNL     1     -13.252 -13.698 -31.880  1.00  0.00    -0.171 N 
HETATM    2  C2  UNL     1     -13.518 -12.514 -31.313  1.00  0.00     0.216 C 
HETATM    3  S1  UNL     1     -12.928 -12.219 -29.814  1.00  0.00    -0.038 SA
HETATM    4  N3  UNL     1     -14.249 -11.533 -31.864  1.00  0.00    -0.162 N 
ATOM      5  H3  UNL     1     -14.108 -10.602 -31.473  1.00  0.00     0.187 HD
HETATM    6  C3  UNL     1     -15.151 -11.617 -32.874  1.00  0.00     0.705 C 
HETATM    7  N5  UNL     1     -15.642 -12.740 -33.471  1.00  0.00    -0.046 N 
HETATM    8  C4  UNL     1     -15.139 -13.988 -33.443  1.00  0.00     0.168 C 
HETATM    9  C6  UNL     1     -13.910 -14.342 -32.889  1.00  0.00     0.301 C 
HETATM   10  O4  UNL     1     -13.391 -15.355 -33.394  1.00  0.00    -0.263 OA
ENDROOT
BRANCH   8  11
HETATM   11  C5  UNL     1     -15.921 -15.063 -34.025  1.00  0.00     0.152 C 
HETATM   12  N6  UNL     1     -15.896 -15.551 -35.172  1.00  0.00    -0.278 N 
ATOM     13  H6  UNL     1     -15.258 -15.218 -35.896  1.00  0.00     0.193 HD
BRANCH  12  14
HETATM   14  O3  UNL     1     -16.819 -16.603 -35.394  1.00  0.00    -0.290 OA
ATOM     15  H3  UNL     1     -16.615 -17.415 -34.944  1.00  0.00     0.244 HD
ENDBRANCH  12  14
ENDBRANCH   8  11
BRANCH   7  16
HETATM   16  O2  UNL     1     -16.802 -12.626 -34.192  1.00  0.00    -0.269 OA
ATOM     17  H2  UNL     1     -17.008 -11.779 -34.571  1.00  0.00     0.245 HD
ENDBRANCH   7  16
BRANCH   6  18
HETATM   18  N4  UNL     1     -15.604 -10.531 -33.322  1.00  0.00    -0.232 N 
ATOM     19  H42 UNL     1     -16.206 -10.617 -34.141  1.00  0.00     0.174 HD
ATOM     20  H41 UNL     1     -15.333  -9.680 -32.828  1.00  0.00     0.174 HD
ENDBRANCH   6  18
BRANCH   1  21
HETATM   21  N1  UNL     1     -12.149 -14.356 -31.365  1.00  0.00    -0.196 N 
ATOM     22  H1  UNL     1     -11.206 -14.003 -31.527  1.00  0.00     0.216 HD
BRANCH  21  23
HETATM   23  O1  UNL     1     -12.352 -15.462 -30.652  1.00  0.00    -0.269 OA
HETATM   24  C1  UNL     1     -11.268 -15.682 -29.823  1.00  0.00     0.239 C 
ENDBRANCH  21  23
ENDBRANCH   1  21
TORSDOF 6
ENDMDL
MODEL 5
REMARK VINA RESULT: -5.013293809      4.784      5.854
REMARK  6 active torsions:
REMARK  status: ('A' for Active; 'I' for Inactive)
REMARK    1  A    between atoms: O1_2  and  N1_3 
REMARK    2  A    between atoms: N1_3  and  N2_5 
REMARK    3  A    between atoms: C3_10  and  N4_11 
REMARK    4  A    between atoms: N5_14  and  O2_15 
REMARK    5  A    between atoms: C4_17  and  C5_18 
REMARK    6  A    between atoms: N6_19  and  O3_21 
ROOT
HETATM    1  N2  UNL     1     -16.448 -11.197 -33.792  1.00  0.00    -0.171 N 
HETATM    2  C2  UNL     1     -15.273 -10.652 -33.451  1.00  0.00     0.216 C 
HETATM    3  S1  UNL     1     -14.903  -9.168 -34.037  1.00  0.00    -0.038 SA
HETATM    4  N3  UNL     1     -14.346 -11.225 -32.667  1.00  0.00    -0.162 N 
ATOM      5  H3  UNL     1     -13.667 -10.590 -32.246  1.00  0.00     0.187 HD
HETATM    6  C3  UNL     1     -14.194 -12.538 -32.362  1.00  0.00     0.705 C 
HETATM    7  N5  UNL     1     -14.851 -13.607 -32.895  1.00  0.00    -0.046 N 
HETATM    8  C4  UNL     1     -16.002 -13.615 -33.591  1.00  0.00     0.168 C 
HETATM    9  C6  UNL     1     -16.828 -12.509 -33.785  1.00  0.00     0.301 C 
HETATM   10  O4  UNL     1     -18.028 -12.788 -33.967  1.00  0.00    -0.263 OA
ENDROOT
BRANCH   8  11
HETATM   11  C5  UNL     1     -16.435 -14.860 -34.198  1.00  0.00     0.152 C 
HETATM   12  N6  UNL     1     -15.909 -15.547 -35.097  1.00  0.00    -0.278 N 
ATOM     13  H6  UNL     1     -15.030 -15.284 -35.545  1.00  0.00     0.193 HD
BRANCH  12  14
HETATM   14  O3  UNL     1     -16.624 -16.719 -35.449  1.00  0.00    -0.290 OA
ATOM     15  H3  UNL     1     -16.569 -16.960 -36.366  1.00  0.00     0.244 HD
ENDBRANCH  12  14
ENDBRANCH   8  11
BRANCH   7  16
HETATM   16  O2  UNL     1     -14.293 -14.848 -32.731  1.00  0.00    -0.269 OA
ATOM     17  H2  UNL     1     -14.017 -15.316 -33.511  1.00  0.00     0.245 HD
ENDBRANCH   7  16
BRANCH   6  18
HETATM   18  N4  UNL     1     -13.337 -12.821 -31.483  1.00  0.00    -0.232 N 
ATOM     19  H42 UNL     1     -12.368 -12.644 -31.749  1.00  0.00     0.174 HD
ATOM     20  H41 UNL     1     -13.689 -13.190 -30.599  1.00  0.00     0.174 HD
ENDBRANCH   6  18
BRANCH   1  21
HETATM   21  N1  UNL     1     -17.410 -10.294 -34.207  1.00  0.00    -0.196 N 
ATOM     22  H1  UNL     1     -17.509 -10.052 -35.193  1.00  0.00     0.216 HD
BRANCH  21  23
HETATM   23  O1  UNL     1     -18.203  -9.750 -33.286  1.00  0.00    -0.269 OA
HETATM   24  C1  UNL     1     -19.438  -9.477 -33.843  1.00  0.00     0.239 C 
ENDBRANCH  21  23
ENDBRANCH   1  21
TORSDOF 6
ENDMDL
