MODEL 1
REMARK VINA RESULT: -6.498880669      0.000      0.000
REMARK  6 active torsions:
REMARK  status: ('A' for Active; 'I' for Inactive)
REMARK    1  A    between atoms: N1_1  and  C1_4 
REMARK    2  A    between atoms: C2_10  and  C3_11 
REMARK    3  A    between atoms: C3_11  and  C4_13 
REMARK    4  A    between atoms: C4_13  and  N4_14 
REMARK    5  A    between atoms: C6_19  and  N6_20 
REMARK    6  A    between atoms: N7_23  and  N8_24 
ROOT
HETATM    1  N4  UNL     1     -16.583 -12.636 -33.610  1.00  0.00    -0.241 N 
HETATM    2  C5  UNL     1     -17.704 -13.283 -34.000  1.00  0.00     0.345 A 
HETATM    3  O3  UNL     1     -18.829 -12.749 -33.772  1.00  0.00    -0.246 OA
HETATM    4  N5  UNL     1     -17.647 -14.476 -34.621  1.00  0.00    -0.139 N 
ATOM      5  H5  UNL     1     -18.500 -14.955 -34.910  1.00  0.00     0.189 HD
HETATM    6  C6  UNL     1     -16.433 -15.027 -34.854  1.00  0.00     0.705 A 
HETATM    7  N7  UNL     1     -15.334 -14.363 -34.456  1.00  0.00    -0.038 N 
HETATM    8  C7  UNL     1     -15.371 -13.174 -33.836  1.00  0.00     0.366 A 
HETATM    9  O4  UNL     1     -14.313 -12.591 -33.483  1.00  0.00    -0.244 OA
ENDROOT
BRANCH   1  10
HETATM   10  C4  UNL     1     -16.732 -11.362 -32.951  1.00  0.00     0.224 C 
BRANCH  10  11
HETATM   11  C3  UNL     1     -16.653 -10.272 -33.937  1.00  0.00     0.200 C 
HETATM   12  O2  UNL     1     -17.624  -9.944 -34.645  1.00  0.00    -0.289 OA
BRANCH  11  13
HETATM   13  C2  UNL     1     -15.395  -9.554 -34.092  1.00  0.00     0.149 A 
HETATM   14  C1  UNL     1     -14.945  -8.832 -35.171  1.00  0.00     0.153 A 
HETATM   15  N2  UNL     1     -13.739  -8.349 -34.864  1.00  0.00    -0.224 N 
HETATM   16  O1  UNL     1     -13.457  -8.748 -33.664  1.00  0.00    -0.155 OA
ATOM     17  H2  UNL     1     -13.148  -7.772 -35.463  1.00  0.00     0.198 HD
HETATM   18  N3  UNL     1     -14.409  -9.465 -33.164  1.00  0.00    -0.234 N 
ATOM     19  H3  UNL     1     -14.418  -9.889 -32.237  1.00  0.00     0.197 HD
BRANCH  14  20
HETATM   20  N1  UNL     1     -15.610  -8.677 -36.270  1.00  0.00    -0.382 N 
ATOM     21  H12 UNL     1     -15.625  -9.356 -37.031  1.00  0.00     0.157 HD
ATOM     22  H11 UNL     1     -16.200  -7.891 -36.543  1.00  0.00     0.157 HD
ENDBRANCH  14  20
ENDBRANCH  11  13
ENDBRANCH  10  11
ENDBRANCH   1  10
BRANCH   7  23
HETATM   23  N8  UNL     1     -14.076 -14.951 -34.707  1.00  0.00    -0.320 N 
ATOM     24  H82 UNL     1     -13.935 -15.436 -35.593  1.00  0.00     0.178 HD
ATOM     25  H81 UNL     1     -13.356 -14.868 -33.990  1.00  0.00     0.178 HD
ENDBRANCH   7  23
BRANCH   6  26
HETATM   26  N6  UNL     1     -16.291 -16.167 -35.443  1.00  0.00    -0.233 N 
ATOM     27  H62 UNL     1     -16.764 -16.982 -35.054  1.00  0.00     0.174 HD
ATOM     28  H61 UNL     1     -15.723 -16.283 -36.283  1.00  0.00     0.174 HD
ENDBRANCH   6  26
TORSDOF 6
ENDMDL
MODEL 2
REMARK VINA RESULT: -6.367434278      3.812      5.990
REMARK  6 active torsions:
REMARK  status: ('A' for Active; 'I' for Inactive)
REMARK    1  A    between atoms: N1_1  and  C1_4 
REMARK    2  A    between atoms: C2_10  and  C3_11 
REMARK    3  A    between atoms: C3_11  and  C4_13 
REMARK    4  A    between atoms: C4_13  and  N4_14 
REMARK    5  A    between atoms: C6_19  and  N6_20 
REMARK    6  A    between atoms: N7_23  and  N8_24 
ROOT
HETATM    1  N4  UNL     1     -14.168 -15.425 -31.486  1.00  0.00    -0.241 N 
HETATM    2  C5  UNL     1     -12.946 -15.984 -31.338  1.00  0.00     0.345 A 
HETATM    3  O3  UNL     1     -11.941 -15.399 -31.838  1.00  0.00    -0.246 OA
HETATM    4  N5  UNL     1     -12.780 -17.144 -30.674  1.00  0.00    -0.139 N 
ATOM      5  H5  UNL     1     -11.853 -17.556 -30.571  1.00  0.00     0.189 HD
HETATM    6  C6  UNL     1     -13.869 -17.750 -30.149  1.00  0.00     0.705 A 
HETATM    7  N7  UNL     1     -15.073 -17.173 -30.309  1.00  0.00    -0.038 N 
HETATM    8  C7  UNL     1     -15.258 -16.019 -30.968  1.00  0.00     0.366 A 
HETATM    9  O4  UNL     1     -16.406 -15.517 -31.091  1.00  0.00    -0.244 OA
ENDROOT
BRANCH   1  10
HETATM   10  C4  UNL     1     -14.260 -14.181 -32.210  1.00  0.00     0.224 C 
BRANCH  10  11
HETATM   11  C3  UNL     1     -14.303 -14.443 -33.658  1.00  0.00     0.200 C 
HETATM   12  O2  UNL     1     -13.308 -14.290 -34.392  1.00  0.00    -0.289 OA
BRANCH  11  13
HETATM   13  C2  UNL     1     -15.553 -14.895 -34.254  1.00  0.00     0.149 A 
HETATM   14  C1  UNL     1     -16.731 -14.204 -34.406  1.00  0.00     0.153 A 
HETATM   15  N2  UNL     1     -17.605 -15.016 -35.006  1.00  0.00    -0.224 N 
HETATM   16  O1  UNL     1     -17.004 -16.145 -35.213  1.00  0.00    -0.155 OA
ATOM     17  H2  UNL     1     -18.568 -14.789 -35.255  1.00  0.00     0.198 HD
HETATM   18  N3  UNL     1     -15.785 -16.121 -34.786  1.00  0.00    -0.234 N 
ATOM     19  H3  UNL     1     -15.116 -16.889 -34.838  1.00  0.00     0.197 HD
BRANCH  14  20
HETATM   20  N1  UNL     1     -16.912 -12.982 -34.020  1.00  0.00    -0.382 N 
ATOM     21  H12 UNL     1     -16.462 -12.174 -34.448  1.00  0.00     0.157 HD
ATOM     22  H11 UNL     1     -17.505 -12.643 -33.262  1.00  0.00     0.157 HD
ENDBRANCH  14  20
ENDBRANCH  11  13
ENDBRANCH  10  11
ENDBRANCH   1  10
BRANCH   7  23
HETATM   23  N8  UNL     1     -16.198 -17.818 -29.755  1.00  0.00    -0.320 N 
ATOM     24  H82 UNL     1     -16.897 -18.206 -30.389  1.00  0.00     0.178 HD
ATOM     25  H81 UNL     1     -16.268 -17.872 -28.738  1.00  0.00     0.178 HD
ENDBRANCH   7  23
BRANCH   6  26
HETATM   26  N6  UNL     1     -13.797 -18.863 -29.499  1.00  0.00    -0.233 N 
ATOM     27  H62 UNL     1     -14.045 -19.729 -29.979  1.00  0.00     0.174 HD
ATOM     28  H61 UNL     1     -13.499 -18.911 -28.524  1.00  0.00     0.174 HD
ENDBRANCH   6  26
TORSDOF 6
ENDMDL
MODEL 3
REMARK VINA RESULT: -6.242659886      3.717      5.811
REMARK  6 active torsions:
REMARK  status: ('A' for Active; 'I' for Inactive)
REMARK    1  A    between atoms: N1_1  and  C1_4 
REMARK    2  A    between atoms: C2_10  and  C3_11 
REMARK    3  A    between atoms: C3_11  and  C4_13 
REMARK    4  A    between atoms: C4_13  and  N4_14 
REMARK    5  A    between atoms: C6_19  and  N6_20 
REMARK    6  A    between atoms: N7_23  and  N8_24 
ROOT
HETATM    1  N4  UNL     1     -14.070 -15.401 -31.393  1.00  0.00    -0.241 N 
HETATM    2  C5  UNL     1     -12.876 -16.018 -31.253  1.00  0.00     0.345 A 
HETATM    3  O3  UNL     1     -11.841 -15.462 -31.722  1.00  0.00    -0.246 OA
HETATM    4  N5  UNL     1     -12.769 -17.206 -30.629  1.00  0.00    -0.139 N 
ATOM      5  H5  UNL     1     -11.862 -17.663 -30.531  1.00  0.00     0.189 HD
HETATM    6  C6  UNL     1     -13.889 -17.782 -30.135  1.00  0.00     0.705 A 
HETATM    7  N7  UNL     1     -15.064 -17.147 -30.286  1.00  0.00    -0.038 N 
HETATM    8  C7  UNL     1     -15.191 -15.963 -30.906  1.00  0.00     0.366 A 
HETATM    9  O4  UNL     1     -16.314 -15.407 -31.022  1.00  0.00    -0.244 OA
ENDROOT
BRANCH   1  10
HETATM   10  C4  UNL     1     -14.099 -14.130 -32.074  1.00  0.00     0.224 C 
BRANCH  10  11
HETATM   11  C3  UNL     1     -14.462 -14.323 -33.487  1.00  0.00     0.200 C 
HETATM   12  O2  UNL     1     -13.629 -14.668 -34.347  1.00  0.00    -0.289 OA
BRANCH  11  13
HETATM   13  C2  UNL     1     -15.843 -14.102 -33.895  1.00  0.00     0.149 A 
HETATM   14  C1  UNL     1     -16.588 -14.797 -34.817  1.00  0.00     0.153 A 
HETATM   15  N2  UNL     1     -17.801 -14.242 -34.862  1.00  0.00    -0.224 N 
HETATM   16  O1  UNL     1     -17.808 -13.259 -34.018  1.00  0.00    -0.155 OA
ATOM     17  H2  UNL     1     -18.579 -14.536 -35.452  1.00  0.00     0.198 HD
HETATM   18  N3  UNL     1     -16.670 -13.137 -33.420  1.00  0.00    -0.234 N 
ATOM     19  H3  UNL     1     -16.434 -12.439 -32.715  1.00  0.00     0.197 HD
BRANCH  14  20
HETATM   20  N1  UNL     1     -16.147 -15.807 -35.496  1.00  0.00    -0.382 N 
ATOM     21  H12 UNL     1     -15.684 -15.729 -36.401  1.00  0.00     0.157 HD
ATOM     22  H11 UNL     1     -16.187 -16.796 -35.250  1.00  0.00     0.157 HD
ENDBRANCH  14  20
ENDBRANCH  11  13
ENDBRANCH  10  11
ENDBRANCH   1  10
BRANCH   7  23
HETATM   23  N8  UNL     1     -16.222 -17.760 -29.765  1.00  0.00    -0.320 N 
ATOM     24  H82 UNL     1     -16.319 -17.835 -28.752  1.00  0.00     0.178 HD
ATOM     25  H81 UNL     1     -16.921 -18.106 -30.424  1.00  0.00     0.178 HD
ENDBRANCH   7  23
BRANCH   6  26
HETATM   26  N6  UNL     1     -13.873 -18.919 -29.524  1.00  0.00    -0.233 N 
ATOM     27  H62 UNL     1     -13.496 -19.732 -30.011  1.00  0.00     0.174 HD
ATOM     28  H61 UNL     1     -14.222 -19.035 -28.572  1.00  0.00     0.174 HD
ENDBRANCH   6  26
TORSDOF 6
ENDMDL
MODEL 4
REMARK VINA RESULT: -6.157536103      3.352      5.120
REMARK  6 active torsions:
REMARK  status: ('A' for Active; 'I' for Inactive)
REMARK    1  A    between atoms: N1_1  and  C1_4 
REMARK    2  A    between atoms: C2_10  and  C3_11 
REMARK    3  A    between atoms: C3_11  and  C4_13 
REMARK    4  A    between atoms: C4_13  and  N4_14 
REMARK    5  A    between atoms: C6_19  and  N6_20 
REMARK    6  A    between atoms: N7_23  and  N8_24 
ROOT
HETATM    1  N4  UNL     1     -14.805 -14.437 -31.299  1.00  0.00    -0.241 N 
HETATM    2  C5  UNL     1     -15.461 -15.572 -30.969  1.00  0.00     0.345 A 
HETATM    3  O3  UNL     1     -16.726 -15.564 -30.950  1.00  0.00    -0.246 OA
HETATM    4  N5  UNL     1     -14.797 -16.702 -30.660  1.00  0.00    -0.139 N 
ATOM      5  H5  UNL     1     -15.304 -17.552 -30.412  1.00  0.00     0.189 HD
HETATM    6  C6  UNL     1     -13.445 -16.687 -30.688  1.00  0.00     0.705 A 
HETATM    7  N7  UNL     1     -12.817 -15.545 -31.020  1.00  0.00    -0.038 N 
HETATM    8  C7  UNL     1     -13.461 -14.409 -31.329  1.00  0.00     0.366 A 
HETATM    9  O4  UNL     1     -12.828 -13.365 -31.635  1.00  0.00    -0.244 OA
ENDROOT
BRANCH   1  10
HETATM   10  C4  UNL     1     -15.590 -13.270 -31.616  1.00  0.00     0.224 C 
BRANCH  10  11
HETATM   11  C3  UNL     1     -15.620 -13.062 -33.073  1.00  0.00     0.200 C 
HETATM   12  O2  UNL     1     -15.278 -11.986 -33.599  1.00  0.00    -0.289 OA
BRANCH  11  13
HETATM   13  C2  UNL     1     -16.068 -14.152 -33.929  1.00  0.00     0.149 A 
HETATM   14  C1  UNL     1     -15.320 -14.968 -34.744  1.00  0.00     0.153 A 
HETATM   15  N2  UNL     1     -16.153 -15.825 -35.338  1.00  0.00    -0.224 N 
HETATM   16  O1  UNL     1     -17.348 -15.558 -34.916  1.00  0.00    -0.155 OA
ATOM     17  H2  UNL     1     -15.896 -16.556 -36.001  1.00  0.00     0.198 HD
HETATM   18  N3  UNL     1     -17.349 -14.574 -34.078  1.00  0.00    -0.234 N 
ATOM     19  H3  UNL     1     -18.167 -14.184 -33.612  1.00  0.00     0.197 HD
BRANCH  14  20
HETATM   20  N1  UNL     1     -14.035 -14.879 -34.878  1.00  0.00    -0.382 N 
ATOM     21  H12 UNL     1     -13.401 -15.676 -34.844  1.00  0.00     0.157 HD
ATOM     22  H11 UNL     1     -13.475 -14.041 -35.033  1.00  0.00     0.157 HD
ENDBRANCH  14  20
ENDBRANCH  11  13
ENDBRANCH  10  11
ENDBRANCH   1  10
BRANCH   7  23
HETATM   23  N8  UNL     1     -11.407 -15.546 -31.044  1.00  0.00    -0.320 N 
ATOM     24  H82 UNL     1     -10.934 -15.953 -31.851  1.00  0.00     0.178 HD
ATOM     25  H81 UNL     1     -10.912 -15.137 -30.250  1.00  0.00     0.178 HD
ENDBRANCH   7  23
BRANCH   6  26
HETATM   26  N6  UNL     1     -12.733 -17.726 -30.406  1.00  0.00    -0.233 N 
ATOM     27  H62 UNL     1     -11.754 -17.742 -30.691  1.00  0.00     0.174 HD
ATOM     28  H61 UNL     1     -13.113 -18.532 -29.907  1.00  0.00     0.174 HD
ENDBRANCH   6  26
TORSDOF 6
ENDMDL
MODEL 5
REMARK VINA RESULT: -6.135878808      3.801      5.992
REMARK  6 active torsions:
REMARK  status: ('A' for Active; 'I' for Inactive)
REMARK    1  A    between atoms: N1_1  and  C1_4 
REMARK    2  A    between atoms: C2_10  and  C3_11 
REMARK    3  A    between atoms: C3_11  and  C4_13 
REMARK    4  A    between atoms: C4_13  and  N4_14 
REMARK    5  A    between atoms: C6_19  and  N6_20 
REMARK    6  A    between atoms: N7_23  and  N8_24 
ROOT
HETATM    1  N4  UNL     1     -13.809 -14.753 -31.076  1.00  0.00    -0.241 N 
HETATM    2  C5  UNL     1     -12.621 -14.259 -30.662  1.00  0.00     0.345 A 
HETATM    3  O3  UNL     1     -12.386 -13.025 -30.812  1.00  0.00    -0.246 OA
HETATM    4  N5  UNL     1     -11.689 -15.051 -30.098  1.00  0.00    -0.139 N 
ATOM      5  H5  UNL     1     -10.796 -14.666 -29.791  1.00  0.00     0.189 HD
HETATM    6  C6  UNL     1     -11.963 -16.367 -29.947  1.00  0.00     0.705 A 
HETATM    7  N7  UNL     1     -13.153 -16.833 -30.367  1.00  0.00    -0.038 N 
HETATM    8  C7  UNL     1     -14.094 -16.060 -30.931  1.00  0.00     0.366 A 
HETATM    9  O4  UNL     1     -15.193 -16.543 -31.307  1.00  0.00    -0.244 OA
ENDROOT
BRANCH   1  10
HETATM   10  C4  UNL     1     -14.752 -13.838 -31.669  1.00  0.00     0.224 C 
BRANCH  10  11
HETATM   11  C3  UNL     1     -14.640 -13.879 -33.136  1.00  0.00     0.200 C 
HETATM   12  O2  UNL     1     -13.698 -13.338 -33.747  1.00  0.00    -0.289 OA
BRANCH  11  13
HETATM   13  C2  UNL     1     -15.666 -14.574 -33.901  1.00  0.00     0.149 A 
HETATM   14  C1  UNL     1     -16.901 -14.118 -34.295  1.00  0.00     0.153 A 
HETATM   15  N2  UNL     1     -17.499 -15.098 -34.976  1.00  0.00    -0.224 N 
HETATM   16  O1  UNL     1     -16.684 -16.105 -35.001  1.00  0.00    -0.155 OA
ATOM     17  H2  UNL     1     -18.427 -15.062 -35.398  1.00  0.00     0.198 HD
HETATM   18  N3  UNL     1     -15.583 -15.842 -34.378  1.00  0.00    -0.234 N 
ATOM     19  H3  UNL     1     -14.792 -16.474 -34.264  1.00  0.00     0.197 HD
BRANCH  14  20
HETATM   20  N1  UNL     1     -17.358 -12.936 -34.030  1.00  0.00    -0.382 N 
ATOM     21  H12 UNL     1     -18.336 -12.665 -34.129  1.00  0.00     0.157 HD
ATOM     22  H11 UNL     1     -16.842 -12.123 -33.694  1.00  0.00     0.157 HD
ENDBRANCH  14  20
ENDBRANCH  11  13
ENDBRANCH  10  11
ENDBRANCH   1  10
BRANCH   7  23
HETATM   23  N8  UNL     1     -13.423 -18.207 -30.202  1.00  0.00    -0.320 N 
ATOM     24  H82 UNL     1     -14.213 -18.481 -29.617  1.00  0.00     0.178 HD
ATOM     25  H81 UNL     1     -12.816 -18.877 -30.676  1.00  0.00     0.178 HD
ENDBRANCH   7  23
BRANCH   6  26
HETATM   26  N6  UNL     1     -11.126 -17.194 -29.417  1.00  0.00    -0.233 N 
ATOM     27  H62 UNL     1     -11.438 -17.778 -28.641  1.00  0.00     0.174 HD
ATOM     28  H61 UNL     1     -10.164 -17.286 -29.746  1.00  0.00     0.174 HD
ENDBRANCH   6  26
TORSDOF 6
ENDMDL
