MODEL 1
REMARK VINA RESULT: -6.190697660      0.000      0.000
REMARK  4 active torsions:
REMARK  status: ('A' for Active; 'I' for Inactive)
REMARK    1  A    between atoms: C1_2  and  C3_9 
REMARK    2  A    between atoms: N2_3  and  N3_5 
REMARK    3  A    between atoms: N3_5  and  C2_7 
REMARK    4  A    between atoms: N4_11  and  C5_12 
ROOT
HETATM    1  C3  UNL     1     -14.176 -15.989 -31.591  1.00  0.00     0.090 A 
HETATM    2  C4  UNL     1     -15.019 -16.708 -30.766  1.00  0.00     0.119 A 
HETATM    3  N4  UNL     1     -14.564 -17.404 -29.690  1.00  0.00    -0.265 N 
HETATM    4  C7  UNL     1     -13.258 -17.357 -29.469  1.00  0.00     0.332 A 
HETATM    5  O2  UNL     1     -12.802 -17.984 -28.489  1.00  0.00    -0.246 OA
HETATM    6  N8  UNL     1     -12.404 -16.672 -30.246  1.00  0.00    -0.274 N 
ATOM      7  H8  UNL     1     -11.411 -16.682 -30.014  1.00  0.00     0.173 HD
HETATM    8  C8  UNL     1     -12.817 -15.969 -31.323  1.00  0.00     0.264 A 
HETATM    9  O3  UNL     1     -12.003 -15.323 -32.053  1.00  0.00    -0.267 OA
ENDROOT
BRANCH   1  10
HETATM   10  C1  UNL     1     -14.701 -15.258 -32.733  1.00  0.00     0.148 C 
HETATM   11  N1  UNL     1     -15.261 -13.975 -32.570  1.00  0.00    -0.080 NA
HETATM   12  N2  UNL     1     -14.662 -15.770 -33.910  1.00  0.00    -0.285 N 
ATOM     13  H2  UNL     1     -14.258 -16.698 -34.034  1.00  0.00     0.188 HD
BRANCH  12  14
HETATM   14  N3  UNL     1     -15.151 -15.101 -35.009  1.00  0.00    -0.276 N 
ATOM     15  H3  UNL     1     -14.582 -14.373 -35.442  1.00  0.00     0.189 HD
BRANCH  14  16
HETATM   16  C2  UNL     1     -16.289 -15.364 -35.497  1.00  0.00     0.368 C 
HETATM   17  O1  UNL     1     -17.397 -15.869 -35.714  1.00  0.00    -0.282 OA
ENDBRANCH  14  16
ENDBRANCH  12  14
ENDBRANCH   1  10
BRANCH   3  18
HETATM   18  C5  UNL     1     -15.532 -18.098 -28.927  1.00  0.00     0.407 C 
HETATM   19  N5  UNL     1     -15.844 -17.461 -27.657  1.00  0.00    -0.024 N 
HETATM   20  C6  UNL     1     -17.180 -17.957 -27.376  1.00  0.00     0.366 C 
ATOM     21  H52 UNL     1     -15.162 -17.624 -26.916  1.00  0.00     0.282 HD
ATOM     22  H51 UNL     1     -15.753 -16.446 -27.653  1.00  0.00     0.282 HD
HETATM   23  N6  UNL     1     -17.486 -18.910 -28.436  1.00  0.00    -0.117 NA
HETATM   24  N7  UNL     1     -16.821 -18.262 -29.519  1.00  0.00    -0.092 NA
ENDBRANCH   3  18
TORSDOF 4
ENDMDL
MODEL 2
REMARK VINA RESULT: -6.148036688      2.698      4.808
REMARK  4 active torsions:
REMARK  status: ('A' for Active; 'I' for Inactive)
REMARK    1  A    between atoms: C1_2  and  C3_9 
REMARK    2  A    between atoms: N2_3  and  N3_5 
REMARK    3  A    between atoms: N3_5  and  C2_7 
REMARK    4  A    between atoms: N4_11  and  C5_12 
ROOT
HETATM    1  C3  UNL     1     -13.034 -15.470 -31.419  1.00  0.00     0.090 A 
HETATM    2  C4  UNL     1     -12.004 -14.777 -30.814  1.00  0.00     0.119 A 
HETATM    3  N4  UNL     1     -11.237 -15.325 -29.834  1.00  0.00    -0.265 N 
HETATM    4  C7  UNL     1     -11.528 -16.569 -29.485  1.00  0.00     0.332 A 
HETATM    5  O2  UNL     1     -10.844 -17.106 -28.587  1.00  0.00    -0.246 OA
HETATM    6  N8  UNL     1     -12.520 -17.278 -30.047  1.00  0.00    -0.274 N 
ATOM      7  H8  UNL     1     -12.686 -18.232 -29.727  1.00  0.00     0.173 HD
HETATM    8  C8  UNL     1     -13.304 -16.770 -31.022  1.00  0.00     0.264 A 
HETATM    9  O3  UNL     1     -14.240 -17.447 -31.550  1.00  0.00    -0.267 OA
ENDROOT
BRANCH   1  10
HETATM   10  C1  UNL     1     -13.833 -14.850 -32.464  1.00  0.00     0.148 C 
HETATM   11  N1  UNL     1     -14.326 -13.539 -32.310  1.00  0.00    -0.080 NA
HETATM   12  N2  UNL     1     -14.102 -15.488 -33.545  1.00  0.00    -0.285 N 
ATOM     13  H2  UNL     1     -13.747 -16.437 -33.662  1.00  0.00     0.188 HD
BRANCH  12  14
HETATM   14  N3  UNL     1     -14.856 -14.927 -34.552  1.00  0.00    -0.276 N 
ATOM     15  H3  UNL     1     -14.492 -14.114 -35.050  1.00  0.00     0.189 HD
BRANCH  14  16
HETATM   16  C2  UNL     1     -15.987 -15.392 -34.875  1.00  0.00     0.368 C 
HETATM   17  O1  UNL     1     -16.941 -16.153 -35.080  1.00  0.00    -0.282 OA
ENDBRANCH  14  16
ENDBRANCH  12  14
ENDBRANCH   1  10
BRANCH   3  18
HETATM   18  C5  UNL     1     -10.215 -14.507 -29.296  1.00  0.00     0.407 C 
HETATM   19  N5  UNL     1      -8.872 -15.000 -29.558  1.00  0.00    -0.024 N 
HETATM   20  C6  UNL     1      -8.071 -13.791 -29.475  1.00  0.00     0.366 C 
ATOM     21  H52 UNL     1      -8.567 -15.759 -28.949  1.00  0.00     0.282 HD
ATOM     22  H51 UNL     1      -8.769 -15.523 -30.427  1.00  0.00     0.282 HD
HETATM   23  N6  UNL     1      -8.985 -12.730 -29.071  1.00  0.00    -0.117 NA
HETATM   24  N7  UNL     1     -10.152 -13.161 -29.770  1.00  0.00    -0.092 NA
ENDBRANCH   3  18
TORSDOF 4
ENDMDL
MODEL 3
REMARK VINA RESULT: -6.067817624      6.462      9.946
REMARK  4 active torsions:
REMARK  status: ('A' for Active; 'I' for Inactive)
REMARK    1  A    between atoms: C1_2  and  C3_9 
REMARK    2  A    between atoms: N2_3  and  N3_5 
REMARK    3  A    between atoms: N3_5  and  C2_7 
REMARK    4  A    between atoms: N4_11  and  C5_12 
ROOT
HETATM    1  C3  UNL     1     -15.871  -9.877 -34.480  1.00  0.00     0.090 A 
HETATM    2  C4  UNL     1     -16.646  -9.219 -35.415  1.00  0.00     0.119 A 
HETATM    3  N4  UNL     1     -16.211  -8.107 -36.066  1.00  0.00    -0.265 N 
HETATM    4  C7  UNL     1     -14.995  -7.683 -35.757  1.00  0.00     0.332 A 
HETATM    5  O2  UNL     1     -14.561  -6.663 -36.335  1.00  0.00    -0.246 OA
HETATM    6  N8  UNL     1     -14.209  -8.292 -34.855  1.00  0.00    -0.274 N 
ATOM      7  H8  UNL     1     -13.283  -7.907 -34.668  1.00  0.00     0.173 HD
HETATM    8  C8  UNL     1     -14.605  -9.397 -34.188  1.00  0.00     0.264 A 
HETATM    9  O3  UNL     1     -13.855  -9.969 -33.336  1.00  0.00    -0.267 OA
ENDROOT
BRANCH   1  10
HETATM   10  C1  UNL     1     -16.371 -11.064 -33.804  1.00  0.00     0.148 C 
HETATM   11  N1  UNL     1     -17.266 -10.951 -32.721  1.00  0.00    -0.080 NA
HETATM   12  N2  UNL     1     -16.005 -12.234 -34.183  1.00  0.00    -0.285 N 
ATOM     13  H2  UNL     1     -15.357 -12.322 -34.967  1.00  0.00     0.188 HD
BRANCH  12  14
HETATM   14  N3  UNL     1     -16.462 -13.375 -33.563  1.00  0.00    -0.276 N 
ATOM     15  H3  UNL     1     -16.389 -13.452 -32.548  1.00  0.00     0.189 HD
BRANCH  14  16
HETATM   16  C2  UNL     1     -16.970 -14.332 -34.217  1.00  0.00     0.368 C 
HETATM   17  O1  UNL     1     -17.269 -15.460 -34.627  1.00  0.00    -0.282 OA
ENDBRANCH  14  16
ENDBRANCH  12  14
ENDBRANCH   1  10
BRANCH   3  18
HETATM   18  C5  UNL     1     -17.104  -7.528 -36.998  1.00  0.00     0.407 C 
HETATM   19  N5  UNL     1     -16.480  -7.174 -38.264  1.00  0.00    -0.024 N 
HETATM   20  C6  UNL     1     -17.604  -7.190 -39.184  1.00  0.00     0.366 C 
ATOM     21  H52 UNL     1     -15.948  -6.303 -38.252  1.00  0.00     0.282 HD
ATOM     22  H51 UNL     1     -15.694  -7.765 -38.535  1.00  0.00     0.282 HD
HETATM   23  N6  UNL     1     -18.787  -7.443 -38.370  1.00  0.00    -0.117 NA
HETATM   24  N7  UNL     1     -18.213  -8.329 -37.411  1.00  0.00    -0.092 NA
ENDBRANCH   3  18
TORSDOF 4
ENDMDL
MODEL 4
REMARK VINA RESULT: -6.038483204      2.418      4.580
REMARK  4 active torsions:
REMARK  status: ('A' for Active; 'I' for Inactive)
REMARK    1  A    between atoms: C1_2  and  C3_9 
REMARK    2  A    between atoms: N2_3  and  N3_5 
REMARK    3  A    between atoms: N3_5  and  C2_7 
REMARK    4  A    between atoms: N4_11  and  C5_12 
ROOT
HETATM    1  C3  UNL     1     -13.806 -15.059 -31.699  1.00  0.00     0.090 A 
HETATM    2  C4  UNL     1     -12.579 -14.668 -31.199  1.00  0.00     0.119 A 
HETATM    3  N4  UNL     1     -12.149 -15.033 -29.962  1.00  0.00    -0.265 N 
HETATM    4  C7  UNL     1     -12.973 -15.788 -29.252  1.00  0.00     0.332 A 
HETATM    5  O2  UNL     1     -12.612 -16.144 -28.108  1.00  0.00    -0.246 OA
HETATM    6  N8  UNL     1     -14.173 -16.190 -29.698  1.00  0.00    -0.274 N 
ATOM      7  H8  UNL     1     -14.755 -16.772 -29.094  1.00  0.00     0.173 HD
HETATM    8  C8  UNL     1     -14.636 -15.849 -30.920  1.00  0.00     0.264 A 
HETATM    9  O3  UNL     1     -15.774 -16.233 -31.337  1.00  0.00    -0.267 OA
ENDROOT
BRANCH   1  10
HETATM   10  C1  UNL     1     -14.232 -14.649 -33.027  1.00  0.00     0.148 C 
HETATM   11  N1  UNL     1     -14.095 -13.310 -33.445  1.00  0.00    -0.080 NA
HETATM   12  N2  UNL     1     -14.739 -15.501 -33.842  1.00  0.00    -0.285 N 
ATOM     13  H2  UNL     1     -14.840 -16.472 -33.545  1.00  0.00     0.188 HD
BRANCH  12  14
HETATM   14  N3  UNL     1     -15.151 -15.142 -35.106  1.00  0.00    -0.276 N 
ATOM     15  H3  UNL     1     -14.481 -14.707 -35.741  1.00  0.00     0.189 HD
BRANCH  14  16
HETATM   16  C2  UNL     1     -16.337 -15.337 -35.501  1.00  0.00     0.368 C 
HETATM   17  O1  UNL     1     -17.435 -15.853 -35.746  1.00  0.00    -0.282 OA
ENDBRANCH  14  16
ENDBRANCH  12  14
ENDBRANCH   1  10
BRANCH   3  18
HETATM   18  C5  UNL     1     -10.872 -14.565 -29.571  1.00  0.00     0.407 C 
HETATM   19  N5  UNL     1      -9.773 -15.200 -30.282  1.00  0.00    -0.024 N 
HETATM   20  C6  UNL     1      -8.718 -14.207 -30.179  1.00  0.00     0.366 C 
ATOM     21  H52 UNL     1      -9.522 -16.129 -29.943  1.00  0.00     0.282 HD
ATOM     22  H51 UNL     1      -9.992 -15.496 -31.232  1.00  0.00     0.282 HD
HETATM   23  N6  UNL     1      -9.248 -13.141 -29.338  1.00  0.00    -0.117 NA
HETATM   24  N7  UNL     1     -10.609 -13.174 -29.765  1.00  0.00    -0.092 NA
ENDBRANCH   3  18
TORSDOF 4
ENDMDL
MODEL 5
REMARK VINA RESULT: -5.890425722      3.049      6.223
REMARK  4 active torsions:
REMARK  status: ('A' for Active; 'I' for Inactive)
REMARK    1  A    between atoms: C1_2  and  C3_9 
REMARK    2  A    between atoms: N2_3  and  N3_5 
REMARK    3  A    between atoms: N3_5  and  C2_7 
REMARK    4  A    between atoms: N4_11  and  C5_12 
ROOT
HETATM    1  C3  UNL     1     -13.043 -14.968 -31.362  1.00  0.00     0.090 A 
HETATM    2  C4  UNL     1     -14.056 -15.117 -32.289  1.00  0.00     0.119 A 
HETATM    3  N4  UNL     1     -14.607 -14.058 -32.940  1.00  0.00    -0.265 N 
HETATM    4  C7  UNL     1     -14.120 -12.864 -32.639  1.00  0.00     0.332 A 
HETATM    5  O2  UNL     1     -14.601 -11.866 -33.217  1.00  0.00    -0.246 OA
HETATM    6  N8  UNL     1     -13.137 -12.674 -31.744  1.00  0.00    -0.274 N 
ATOM      7  H8  UNL     1     -12.812 -11.724 -31.563  1.00  0.00     0.173 HD
HETATM    8  C8  UNL     1     -12.564 -13.699 -31.077  1.00  0.00     0.264 A 
HETATM    9  O3  UNL     1     -11.634 -13.512 -30.232  1.00  0.00    -0.267 OA
ENDROOT
BRANCH   1  10
HETATM   10  C1  UNL     1     -12.479 -16.124 -30.686  1.00  0.00     0.148 C 
HETATM   11  N1  UNL     1     -13.177 -17.349 -30.650  1.00  0.00    -0.080 NA
HETATM   12  N2  UNL     1     -11.334 -16.050 -30.109  1.00  0.00    -0.285 N 
ATOM     13  H2  UNL     1     -10.825 -15.167 -30.131  1.00  0.00     0.188 HD
BRANCH  12  14
HETATM   14  N3  UNL     1     -10.775 -17.129 -29.461  1.00  0.00    -0.276 N 
ATOM     15  H3  UNL     1     -10.794 -18.043 -29.913  1.00  0.00     0.189 HD
BRANCH  14  16
HETATM   16  C2  UNL     1     -10.240 -17.016 -28.320  1.00  0.00     0.368 C 
HETATM   17  O1  UNL     1      -9.923 -17.193 -27.137  1.00  0.00    -0.282 OA
ENDBRANCH  14  16
ENDBRANCH  12  14
ENDBRANCH   1  10
BRANCH   3  18
HETATM   18  C5  UNL     1     -15.637 -14.348 -33.865  1.00  0.00     0.407 C 
HETATM   19  N5  UNL     1     -15.160 -14.926 -35.112  1.00  0.00    -0.024 N 
HETATM   20  C6  UNL     1     -16.325 -15.651 -35.589  1.00  0.00     0.366 C 
ATOM     21  H52 UNL     1     -14.771 -14.255 -35.775  1.00  0.00     0.282 HD
ATOM     22  H51 UNL     1     -14.311 -15.485 -35.028  1.00  0.00     0.282 HD
HETATM   23  N6  UNL     1     -17.398 -15.351 -34.650  1.00  0.00    -0.117 NA
HETATM   24  N7  UNL     1     -16.632 -15.285 -33.448  1.00  0.00    -0.092 NA
ENDBRANCH   3  18
TORSDOF 4
ENDMDL
