MODEL 1
REMARK VINA RESULT: -9.629661338      0.000      0.000
REMARK  10 active torsions:
REMARK  status: ('A' for Active; 'I' for Inactive)
REMARK    1  A    between atoms: C3_4  and  C4_5 
REMARK    2  A    between atoms: C4_5  and  O1_6 
REMARK    3  A    between atoms: C4_5  and  N2_8 
REMARK    4  A    between atoms: N2_8  and  N3_10 
REMARK    5  A    between atoms: N3_10  and  N4_11 
REMARK    6  A    between atoms: N5_14  and  C5_15 
REMARK    7  A    between atoms: C7_19  and  C8_20 
REMARK    8  A    between atoms: C8_20  and  O2_21 
REMARK    9  A    between atoms: C8_20  and  C9_23 
REMARK   10  A    between atoms: C9_23  and  O3_24 
ROOT
HETATM    1  N1  UNL     1     120.630 104.666  10.447  1.00  0.00    -0.191 NA
HETATM    2  C1  UNL     1     121.575 103.999  10.625  1.00  0.00     0.107 C 
HETATM    3  C2  UNL     1     122.742 103.213  10.809  1.00  0.00     0.144 A 
HETATM    4  C3  UNL     1     122.981 102.539  12.018  1.00  0.00     0.140 A 
HETATM    5  N5  UNL     1     124.113 101.844  12.103  1.00  0.00    -0.088 N 
HETATM    6  C10 UNL     1     124.991 101.801  11.056  1.00  0.00     0.348 A 
HETATM    7  O4  UNL     1     126.033 101.136  11.194  1.00  0.00    -0.245 OA
HETATM    8  N9  UNL     1     124.761 102.439   9.917  1.00  0.00    -0.273 N 
ATOM      9  H9  UNL     1     125.442 102.382   9.159  1.00  0.00     0.173 HD
HETATM   10  C11 UNL     1     123.643 103.160   9.750  1.00  0.00     0.272 A 
HETATM   11  O5  UNL     1     123.412 103.774   8.663  1.00  0.00    -0.266 OA
ENDROOT
BRANCH   4  12
HETATM   12  C4  UNL     1     121.986 102.592  13.063  1.00  0.00     0.183 C 
BRANCH  12  13
HETATM   13  O1  UNL     1     121.172 101.554  13.022  1.00  0.00    -0.344 OA
ATOM     14  H1  UNL     1     120.643 101.487  13.809  1.00  0.00     0.219 HD
ENDBRANCH  12  13
BRANCH  12  15
HETATM   15  N2  UNL     1     121.761 103.532  14.057  1.00  0.00    -0.262 N 
ATOM     16  H2  UNL     1     122.348 103.541  14.891  1.00  0.00     0.186 HD
BRANCH  15  17
HETATM   17  N3  UNL     1     120.713 104.484  13.915  1.00  0.00    -0.028 NA
BRANCH  17  18
HETATM   18  N4  UNL     1     119.544 103.911  13.459  1.00  0.00    -0.329 N 
ATOM     19  H42 UNL     1     119.477 103.421  12.566  1.00  0.00     0.174 HD
ATOM     20  H41 UNL     1     118.771 104.036  14.112  1.00  0.00     0.174 HD
ENDBRANCH  17  18
ENDBRANCH  15  17
ENDBRANCH  12  15
ENDBRANCH   4  12
BRANCH   5  21
HETATM   21  C5  UNL     1     124.469 101.070  13.254  1.00  0.00     0.708 A 
HETATM   22  N6  UNL     1     123.728 100.081  13.747  1.00  0.00    -0.198 N 
HETATM   23  C6  UNL     1     124.172  99.395  14.817  1.00  0.00     0.135 A 
ATOM     24  H6  UNL     1     122.833  99.845  13.318  1.00  0.00     0.183 HD
HETATM   25  C7  UNL     1     125.375  99.684  15.421  1.00  0.00     0.073 A 
HETATM   26  N7  UNL     1     126.105 100.701  14.886  1.00  0.00    -0.287 N 
HETATM   27  N8  UNL     1     125.657 101.365  13.838  1.00  0.00    -0.131 N 
ATOM     28  H7  UNL     1     127.005 100.950  15.297  1.00  0.00     0.187 HD
ATOM     29  H8  UNL     1     126.221 102.123  13.454  1.00  0.00     0.205 HD
BRANCH  25  30
HETATM   30  C8  UNL     1     125.871  98.951  16.596  1.00  0.00     0.194 C 
BRANCH  30  31
HETATM   31  O2  UNL     1     127.150  98.446  16.430  1.00  0.00    -0.387 OA
ATOM     32  H2  UNL     1     127.810  99.120  16.319  1.00  0.00     0.210 HD
ENDBRANCH  30  31
BRANCH  30  33
HETATM   33  C9  UNL     1     124.902  97.864  16.979  1.00  0.00     0.202 C 
BRANCH  33  34
HETATM   34  O3  UNL     1     124.651  98.002  18.359  1.00  0.00    -0.398 OA
ATOM     35  H3  UNL     1     124.373  98.899  18.503  1.00  0.00     0.209 HD
ENDBRANCH  33  34
ENDBRANCH  30  33
ENDBRANCH  25  30
ENDBRANCH   5  21
TORSDOF 10
ENDMDL
MODEL 2
REMARK VINA RESULT: -9.402588543      2.336      7.249
REMARK  10 active torsions:
REMARK  status: ('A' for Active; 'I' for Inactive)
REMARK    1  A    between atoms: C3_4  and  C4_5 
REMARK    2  A    between atoms: C4_5  and  O1_6 
REMARK    3  A    between atoms: C4_5  and  N2_8 
REMARK    4  A    between atoms: N2_8  and  N3_10 
REMARK    5  A    between atoms: N3_10  and  N4_11 
REMARK    6  A    between atoms: N5_14  and  C5_15 
REMARK    7  A    between atoms: C7_19  and  C8_20 
REMARK    8  A    between atoms: C8_20  and  O2_21 
REMARK    9  A    between atoms: C8_20  and  C9_23 
REMARK   10  A    between atoms: C9_23  and  O3_24 
ROOT
HETATM    1  N1  UNL     1     125.969  99.190  14.425  1.00  0.00    -0.191 NA
HETATM    2  C1  UNL     1     124.993  99.799  14.210  1.00  0.00     0.107 C 
HETATM    3  C2  UNL     1     123.793 100.524  13.987  1.00  0.00     0.144 A 
HETATM    4  C3  UNL     1     123.763 101.634  13.126  1.00  0.00     0.140 A 
HETATM    5  N5  UNL     1     122.597 102.261  12.998  1.00  0.00    -0.088 N 
HETATM    6  C10 UNL     1     121.491 101.834  13.680  1.00  0.00     0.348 A 
HETATM    7  O4  UNL     1     120.429 102.461  13.520  1.00  0.00    -0.245 OA
HETATM    8  N9  UNL     1     121.524 100.786  14.491  1.00  0.00    -0.273 N 
ATOM      9  H9  UNL     1     120.677 100.501  14.982  1.00  0.00     0.173 HD
HETATM   10  C11 UNL     1     122.660 100.099  14.674  1.00  0.00     0.272 A 
HETATM   11  O5  UNL     1     122.704  99.093  15.448  1.00  0.00    -0.266 OA
ENDROOT
BRANCH   4  12
HETATM   12  C4  UNL     1     124.960 101.997  12.404  1.00  0.00     0.183 C 
BRANCH  12  13
HETATM   13  O1  UNL     1     125.669 102.905  13.049  1.00  0.00    -0.344 OA
ATOM     14  H1  UNL     1     126.590 102.676  13.084  1.00  0.00     0.219 HD
ENDBRANCH  12  13
BRANCH  12  15
HETATM   15  N2  UNL     1     125.454 101.560  11.185  1.00  0.00    -0.262 N 
ATOM     16  H2  UNL     1     125.821 100.613  11.095  1.00  0.00     0.186 HD
BRANCH  15  17
HETATM   17  N3  UNL     1     125.449 102.431  10.060  1.00  0.00    -0.028 NA
BRANCH  17  18
HETATM   18  N4  UNL     1     126.071 103.632  10.325  1.00  0.00    -0.329 N 
ATOM     19  H42 UNL     1     125.680 104.533  10.050  1.00  0.00     0.174 HD
ATOM     20  H41 UNL     1     126.955 103.510  10.820  1.00  0.00     0.174 HD
ENDBRANCH  17  18
ENDBRANCH  15  17
ENDBRANCH  12  15
ENDBRANCH   4  12
BRANCH   5  21
HETATM   21  C5  UNL     1     122.404 103.378  12.122  1.00  0.00     0.708 A 
HETATM   22  N6  UNL     1     122.275 103.277  10.801  1.00  0.00    -0.198 N 
HETATM   23  C6  UNL     1     122.065 104.390  10.073  1.00  0.00     0.135 A 
ATOM     24  H6  UNL     1     122.335 102.366  10.346  1.00  0.00     0.183 HD
HETATM   25  C7  UNL     1     121.976 105.635  10.653  1.00  0.00     0.073 A 
HETATM   26  N7  UNL     1     122.110 105.696  12.007  1.00  0.00    -0.287 N 
HETATM   27  N8  UNL     1     122.317 104.598  12.707  1.00  0.00    -0.131 N 
ATOM     28  H7  UNL     1     122.049 106.596  12.483  1.00  0.00     0.187 HD
ATOM     29  H8  UNL     1     122.414 104.668  13.720  1.00  0.00     0.205 HD
BRANCH  25  30
HETATM   30  C8  UNL     1     121.756 106.863   9.872  1.00  0.00     0.194 C 
BRANCH  30  31
HETATM   31  O2  UNL     1     121.809 106.660   8.504  1.00  0.00    -0.387 OA
ATOM     32  H2  UNL     1     122.172 107.398   8.028  1.00  0.00     0.210 HD
ENDBRANCH  30  31
BRANCH  30  33
HETATM   33  C9  UNL     1     122.723 107.934  10.302  1.00  0.00     0.202 C 
BRANCH  33  34
HETATM   34  O3  UNL     1     122.146 108.592  11.407  1.00  0.00    -0.398 OA
ATOM     35  H3  UNL     1     121.771 109.402  11.084  1.00  0.00     0.209 HD
ENDBRANCH  33  34
ENDBRANCH  30  33
ENDBRANCH  25  30
ENDBRANCH   5  21
TORSDOF 10
ENDMDL
MODEL 3
REMARK VINA RESULT: -9.366784029      3.176      7.474
REMARK  10 active torsions:
REMARK  status: ('A' for Active; 'I' for Inactive)
REMARK    1  A    between atoms: C3_4  and  C4_5 
REMARK    2  A    between atoms: C4_5  and  O1_6 
REMARK    3  A    between atoms: C4_5  and  N2_8 
REMARK    4  A    between atoms: N2_8  and  N3_10 
REMARK    5  A    between atoms: N3_10  and  N4_11 
REMARK    6  A    between atoms: N5_14  and  C5_15 
REMARK    7  A    between atoms: C7_19  and  C8_20 
REMARK    8  A    between atoms: C8_20  and  O2_21 
REMARK    9  A    between atoms: C8_20  and  C9_23 
REMARK   10  A    between atoms: C9_23  and  O3_24 
ROOT
HETATM    1  N1  UNL     1     125.992 101.950  10.563  1.00  0.00    -0.191 NA
HETATM    2  C1  UNL     1     124.976 102.045  11.134  1.00  0.00     0.107 C 
HETATM    3  C2  UNL     1     123.761 102.138  11.862  1.00  0.00     0.144 A 
HETATM    4  C3  UNL     1     122.803 103.120  11.555  1.00  0.00     0.140 A 
HETATM    5  N5  UNL     1     121.706 103.142  12.307  1.00  0.00    -0.088 N 
HETATM    6  C10 UNL     1     121.535 102.247  13.327  1.00  0.00     0.348 A 
HETATM    7  O4  UNL     1     120.489 102.317  13.995  1.00  0.00    -0.245 OA
HETATM    8  N9  UNL     1     122.441 101.323  13.613  1.00  0.00    -0.273 N 
ATOM      9  H9  UNL     1     122.275 100.674  14.382  1.00  0.00     0.173 HD
HETATM   10  C11 UNL     1     123.574 101.232  12.902  1.00  0.00     0.272 A 
HETATM   11  O5  UNL     1     124.449 100.351  13.165  1.00  0.00    -0.266 OA
ENDROOT
BRANCH   4  12
HETATM   12  C4  UNL     1     123.033 104.001  10.434  1.00  0.00     0.183 C 
BRANCH  12  13
HETATM   13  O1  UNL     1     123.477 105.182  10.818  1.00  0.00    -0.344 OA
ATOM     14  H1  UNL     1     123.659 105.751  10.079  1.00  0.00     0.219 HD
ENDBRANCH  12  13
BRANCH  12  15
HETATM   15  N2  UNL     1     122.859 103.804   9.073  1.00  0.00    -0.262 N 
ATOM     16  H2  UNL     1     121.919 103.787   8.678  1.00  0.00     0.186 HD
BRANCH  15  17
HETATM   17  N3  UNL     1     123.989 103.626   8.228  1.00  0.00    -0.028 NA
BRANCH  17  18
HETATM   18  N4  UNL     1     125.015 104.495   8.537  1.00  0.00    -0.329 N 
ATOM     19  H42 UNL     1     125.461 104.524   9.454  1.00  0.00     0.174 HD
ATOM     20  H41 UNL     1     125.267 105.092   7.750  1.00  0.00     0.174 HD
ENDBRANCH  17  18
ENDBRANCH  15  17
ENDBRANCH  12  15
ENDBRANCH   4  12
BRANCH   5  21
HETATM   21  C5  UNL     1     120.625 104.054  12.083  1.00  0.00     0.708 A 
HETATM   22  N6  UNL     1     119.576 103.792  11.308  1.00  0.00    -0.198 N 
HETATM   23  C6  UNL     1     118.597 104.710  11.192  1.00  0.00     0.135 A 
ATOM     24  H6  UNL     1     119.513 102.906  10.807  1.00  0.00     0.183 HD
HETATM   25  C7  UNL     1     118.646 105.917  11.853  1.00  0.00     0.073 A 
HETATM   26  N7  UNL     1     119.734 106.145  12.639  1.00  0.00    -0.287 N 
HETATM   27  N8  UNL     1     120.686 105.238  12.742  1.00  0.00    -0.131 N 
ATOM     28  H7  UNL     1     119.814 107.024  13.151  1.00  0.00     0.187 HD
ATOM     29  H8  UNL     1     121.492 105.431  13.337  1.00  0.00     0.205 HD
BRANCH  25  30
HETATM   30  C8  UNL     1     117.591 106.935  11.730  1.00  0.00     0.194 C 
BRANCH  30  31
HETATM   31  O2  UNL     1     118.081 108.226  11.631  1.00  0.00    -0.387 OA
ATOM     32  H2  UNL     1     118.235 108.502  10.736  1.00  0.00     0.210 HD
ENDBRANCH  30  31
BRANCH  30  33
HETATM   33  C9  UNL     1     116.612 106.810  12.868  1.00  0.00     0.202 C 
BRANCH  33  34
HETATM   34  O3  UNL     1     115.566 105.978  12.423  1.00  0.00    -0.398 OA
ATOM     35  H3  UNL     1     115.212 106.372  11.634  1.00  0.00     0.209 HD
ENDBRANCH  33  34
ENDBRANCH  30  33
ENDBRANCH  25  30
ENDBRANCH   5  21
TORSDOF 10
ENDMDL
MODEL 4
REMARK VINA RESULT: -9.333302558      2.624      7.348
REMARK  10 active torsions:
REMARK  status: ('A' for Active; 'I' for Inactive)
REMARK    1  A    between atoms: C3_4  and  C4_5 
REMARK    2  A    between atoms: C4_5  and  O1_6 
REMARK    3  A    between atoms: C4_5  and  N2_8 
REMARK    4  A    between atoms: N2_8  and  N3_10 
REMARK    5  A    between atoms: N3_10  and  N4_11 
REMARK    6  A    between atoms: N5_14  and  C5_15 
REMARK    7  A    between atoms: C7_19  and  C8_20 
REMARK    8  A    between atoms: C8_20  and  O2_21 
REMARK    9  A    between atoms: C8_20  and  C9_23 
REMARK   10  A    between atoms: C9_23  and  O3_24 
ROOT
HETATM    1  N1  UNL     1     126.256  99.826  12.819  1.00  0.00    -0.191 NA
HETATM    2  C1  UNL     1     125.208 100.319  12.982  1.00  0.00     0.107 C 
HETATM    3  C2  UNL     1     123.933 100.896  13.220  1.00  0.00     0.144 A 
HETATM    4  C3  UNL     1     123.537 102.076  12.568  1.00  0.00     0.140 A 
HETATM    5  N5  UNL     1     122.332 102.552  12.872  1.00  0.00    -0.088 N 
HETATM    6  C10 UNL     1     121.532 101.913  13.778  1.00  0.00     0.348 A 
HETATM    7  O4  UNL     1     120.417 102.406  14.022  1.00  0.00    -0.245 OA
HETATM    8  N9  UNL     1     121.910 100.800  14.391  1.00  0.00    -0.273 N 
ATOM      9  H9  UNL     1     121.284 100.354  15.061  1.00  0.00     0.173 HD
HETATM   10  C11 UNL     1     123.109 100.254  14.139  1.00  0.00     0.272 A 
HETATM   11  O5  UNL     1     123.482  99.188  14.719  1.00  0.00    -0.266 OA
ENDROOT
BRANCH   4  12
HETATM   12  C4  UNL     1     124.417 102.669  11.589  1.00  0.00     0.183 C 
BRANCH  12  13
HETATM   13  O1  UNL     1     125.334 103.434  12.149  1.00  0.00    -0.344 OA
ATOM     14  H1  UNL     1     125.081 104.350  12.149  1.00  0.00     0.219 HD
ENDBRANCH  12  13
BRANCH  12  15
HETATM   15  N2  UNL     1     124.439 102.566  10.207  1.00  0.00    -0.262 N 
ATOM     16  H2  UNL     1     123.566 102.575   9.681  1.00  0.00     0.186 HD
BRANCH  15  17
HETATM   17  N3  UNL     1     125.680 102.447   9.521  1.00  0.00    -0.028 NA
BRANCH  17  18
HETATM   18  N4  UNL     1     126.313 103.663   9.369  1.00  0.00    -0.329 N 
ATOM     19  H42 UNL     1     127.111 103.949   9.936  1.00  0.00     0.174 HD
ATOM     20  H41 UNL     1     125.891 104.229   8.633  1.00  0.00     0.174 HD
ENDBRANCH  17  18
ENDBRANCH  15  17
ENDBRANCH  12  15
ENDBRANCH   4  12
BRANCH   5  21
HETATM   21  C5  UNL     1     121.776 103.718  12.254  1.00  0.00     0.708 A 
HETATM   22  N6  UNL     1     121.078 103.702  11.121  1.00  0.00    -0.198 N 
HETATM   23  C6  UNL     1     120.572 104.855  10.643  1.00  0.00     0.135 A 
ATOM     24  H6  UNL     1     120.930 102.826  10.620  1.00  0.00     0.183 HD
HETATM   25  C7  UNL     1     120.751 106.056  11.292  1.00  0.00     0.073 A 
HETATM   26  N7  UNL     1     121.467 106.030  12.450  1.00  0.00    -0.287 N 
HETATM   27  N8  UNL     1     121.958 104.894  12.906  1.00  0.00    -0.131 N 
ATOM     28  H7  UNL     1     121.624 106.894  12.969  1.00  0.00     0.187 HD
ATOM     29  H8  UNL     1     122.492 104.899  13.775  1.00  0.00     0.205 HD
BRANCH  25  30
HETATM   30  C8  UNL     1     120.212 107.325  10.780  1.00  0.00     0.194 C 
BRANCH  30  31
HETATM   31  O2  UNL     1     120.704 107.667   9.531  1.00  0.00    -0.387 OA
ATOM     32  H2  UNL     1     120.767 108.605   9.395  1.00  0.00     0.210 HD
ENDBRANCH  30  31
BRANCH  30  33
HETATM   33  C9  UNL     1     120.443 108.429  11.777  1.00  0.00     0.202 C 
BRANCH  33  34
HETATM   34  O3  UNL     1     119.418 108.337  12.739  1.00  0.00    -0.398 OA
ATOM     35  H3  UNL     1     119.702 108.834  13.497  1.00  0.00     0.209 HD
ENDBRANCH  33  34
ENDBRANCH  30  33
ENDBRANCH  25  30
ENDBRANCH   5  21
TORSDOF 10
ENDMDL
MODEL 5
REMARK VINA RESULT: -9.312529258      3.357      7.523
REMARK  10 active torsions:
REMARK  status: ('A' for Active; 'I' for Inactive)
REMARK    1  A    between atoms: C3_4  and  C4_5 
REMARK    2  A    between atoms: C4_5  and  O1_6 
REMARK    3  A    between atoms: C4_5  and  N2_8 
REMARK    4  A    between atoms: N2_8  and  N3_10 
REMARK    5  A    between atoms: N3_10  and  N4_11 
REMARK    6  A    between atoms: N5_14  and  C5_15 
REMARK    7  A    between atoms: C7_19  and  C8_20 
REMARK    8  A    between atoms: C8_20  and  O2_21 
REMARK    9  A    between atoms: C8_20  and  C9_23 
REMARK   10  A    between atoms: C9_23  and  O3_24 
ROOT
HETATM    1  N1  UNL     1     125.885 102.618  10.000  1.00  0.00    -0.191 NA
HETATM    2  C1  UNL     1     124.932 102.558  10.675  1.00  0.00     0.107 C 
HETATM    3  C2  UNL     1     123.800 102.462  11.525  1.00  0.00     0.144 A 
HETATM    4  C3  UNL     1     122.736 103.376  11.425  1.00  0.00     0.140 A 
HETATM    5  N5  UNL     1     121.729 103.217  12.279  1.00  0.00    -0.088 N 
HETATM    6  C10 UNL     1     121.744 102.211  13.205  1.00  0.00     0.348 A 
HETATM    7  O4  UNL     1     120.774 102.114  13.977  1.00  0.00    -0.245 OA
HETATM    8  N9  UNL     1     122.749 101.352  13.296  1.00  0.00    -0.273 N 
ATOM      9  H9  UNL     1     122.722 100.616  14.001  1.00  0.00     0.173 HD
HETATM   10  C11 UNL     1     123.802 101.442  12.471  1.00  0.00     0.272 A 
HETATM   11  O5  UNL     1     124.771 100.625  12.548  1.00  0.00    -0.266 OA
ENDROOT
BRANCH   4  12
HETATM   12  C4  UNL     1     122.769 104.383  10.391  1.00  0.00     0.183 C 
BRANCH  12  13
HETATM   13  O1  UNL     1     122.058 104.031   9.337  1.00  0.00    -0.344 OA
ATOM     14  H1  UNL     1     121.895 103.095   9.316  1.00  0.00     0.219 HD
ENDBRANCH  12  13
BRANCH  12  15
HETATM   15  N2  UNL     1     123.411 105.611  10.338  1.00  0.00    -0.262 N 
ATOM     16  H2  UNL     1     123.546 106.152  11.192  1.00  0.00     0.186 HD
BRANCH  15  17
HETATM   17  N3  UNL     1     123.882 106.116   9.094  1.00  0.00    -0.028 NA
BRANCH  17  18
HETATM   18  N4  UNL     1     124.688 105.212   8.434  1.00  0.00    -0.329 N 
ATOM     19  H42 UNL     1     124.589 104.202   8.535  1.00  0.00     0.174 HD
ATOM     20  H41 UNL     1     125.381 105.672   7.844  1.00  0.00     0.174 HD
ENDBRANCH  17  18
ENDBRANCH  15  17
ENDBRANCH  12  15
ENDBRANCH   4  12
BRANCH   5  21
HETATM   21  C5  UNL     1     120.557 104.042  12.265  1.00  0.00     0.708 A 
HETATM   22  N6  UNL     1     120.436 105.178  12.947  1.00  0.00    -0.198 N 
HETATM   23  C6  UNL     1     119.301 105.894  12.837  1.00  0.00     0.135 A 
ATOM     24  H6  UNL     1     121.195 105.502  13.547  1.00  0.00     0.183 HD
HETATM   25  C7  UNL     1     118.257 105.488  12.037  1.00  0.00     0.073 A 
HETATM   26  N7  UNL     1     118.421 104.322  11.353  1.00  0.00    -0.287 N 
HETATM   27  N8  UNL     1     119.538 103.631  11.471  1.00  0.00    -0.131 N 
ATOM     28  H7  UNL     1     117.676 103.982  10.745  1.00  0.00     0.187 HD
ATOM     29  H8  UNL     1     119.638 102.760  10.949  1.00  0.00     0.205 HD
BRANCH  25  30
HETATM   30  C8  UNL     1     117.006 106.253  11.912  1.00  0.00     0.194 C 
BRANCH  30  31
HETATM   31  O2  UNL     1     116.683 106.570  10.603  1.00  0.00    -0.387 OA
ATOM     32  H2  UNL     1     116.925 107.456  10.360  1.00  0.00     0.210 HD
ENDBRANCH  30  31
BRANCH  30  33
HETATM   33  C9  UNL     1     117.063 107.487  12.773  1.00  0.00     0.202 C 
BRANCH  33  34
HETATM   34  O3  UNL     1     116.797 108.588  11.934  1.00  0.00    -0.398 OA
ATOM     35  H3  UNL     1     117.378 109.290  12.204  1.00  0.00     0.209 HD
ENDBRANCH  33  34
ENDBRANCH  30  33
ENDBRANCH  25  30
ENDBRANCH   5  21
TORSDOF 10
ENDMDL
