MODEL 1
REMARK VINA RESULT: -6.077331047      0.000      0.000
REMARK  5 active torsions:
REMARK  status: ('A' for Active; 'I' for Inactive)
REMARK    1  A    between atoms: C3_3  and  C4_4 
REMARK    2  A    between atoms: C4_4  and  N1_5 
REMARK    3  A    between atoms: N1_5  and  C5_7 
REMARK    4  A    between atoms: C5_7  and  C6_9 
REMARK    5  A    between atoms: C6_9  and  N2_10 
ROOT
HETATM    1  C1  UNL     1       9.533   9.125  12.861  1.00  0.00     0.012 C 
HETATM    2  C2  UNL     1       9.733   9.963  13.706  1.00  0.00    -0.116 C 
HETATM    3  C3  UNL     1       9.975  10.986  14.758  1.00  0.00     0.112 C 
ENDROOT
BRANCH   3   4
HETATM    4  C4  UNL     1       8.682  11.110  15.519  1.00  0.00     0.132 C 
BRANCH   4   5
HETATM    5  N1  UNL     1       8.683  12.364  16.228  1.00  0.00    -0.382 N 
ATOM      6  H1  UNL     1       8.785  12.331  17.243  1.00  0.00     0.160 HD
BRANCH   5   7
HETATM    7  C5  UNL     1       8.554  13.632  15.630  1.00  0.00     0.091 C 
HETATM    8  S1  UNL     1       9.523  14.858  16.073  1.00  0.00    -0.064 SA
BRANCH   7   9
HETATM    9  C6  UNL     1       7.534  13.866  14.559  1.00  0.00     0.191 C 
BRANCH   9  10
HETATM   10  N2  UNL     1       8.135  14.378  13.363  1.00  0.00    -0.360 N 
HETATM   11  C7  UNL     1       7.925  15.479  12.778  1.00  0.00     0.197 C 
HETATM   12  N3  UNL     1       8.625  15.840  11.571  1.00  0.00    -0.067 NA
HETATM   13  N4  UNL     1       6.987  16.401  13.291  1.00  0.00    -0.067 NA
ATOM     14  H2  UNL     1       8.827  13.771  12.924  1.00  0.00     0.162 HD
ENDBRANCH   9  10
ENDBRANCH   7   9
ENDBRANCH   5   7
ENDBRANCH   4   5
ENDBRANCH   3   4
TORSDOF 5
ENDMDL
MODEL 2
REMARK VINA RESULT: -5.962495187      1.248      1.737
REMARK  5 active torsions:
REMARK  status: ('A' for Active; 'I' for Inactive)
REMARK    1  A    between atoms: C3_3  and  C4_4 
REMARK    2  A    between atoms: C4_4  and  N1_5 
REMARK    3  A    between atoms: N1_5  and  C5_7 
REMARK    4  A    between atoms: C5_7  and  C6_9 
REMARK    5  A    between atoms: C6_9  and  N2_10 
ROOT
HETATM    1  C1  UNL     1       9.494   9.165  13.055  1.00  0.00     0.012 C 
HETATM    2  C2  UNL     1       9.730  10.166  13.687  1.00  0.00    -0.116 C 
HETATM    3  C3  UNL     1      10.010  11.395  14.475  1.00  0.00     0.112 C 
ENDROOT
BRANCH   3   4
HETATM    4  C4  UNL     1       8.726  12.179  14.488  1.00  0.00     0.132 C 
BRANCH   4   5
HETATM    5  N1  UNL     1       9.002  13.524  14.049  1.00  0.00    -0.382 N 
ATOM      6  H1  UNL     1       9.130  13.676  13.048  1.00  0.00     0.160 HD
BRANCH   5   7
HETATM    7  C5  UNL     1       9.110  14.645  14.895  1.00  0.00     0.091 C 
HETATM    8  S1  UNL     1       9.049  14.470  16.509  1.00  0.00    -0.064 SA
BRANCH   7   9
HETATM    9  C6  UNL     1       9.305  16.013  14.321  1.00  0.00     0.191 C 
BRANCH   9  10
HETATM   10  N2  UNL     1       8.115  16.489  13.680  1.00  0.00    -0.360 N 
HETATM   11  C7  UNL     1       7.747  16.345  12.479  1.00  0.00     0.197 C 
HETATM   12  N3  UNL     1       6.506  16.893  11.995  1.00  0.00    -0.067 NA
HETATM   13  N4  UNL     1       8.551  15.634  11.560  1.00  0.00    -0.067 NA
ATOM     14  H2  UNL     1       7.476  17.016  14.275  1.00  0.00     0.162 HD
ENDBRANCH   9  10
ENDBRANCH   7   9
ENDBRANCH   5   7
ENDBRANCH   4   5
ENDBRANCH   3   4
TORSDOF 5
ENDMDL
MODEL 3
REMARK VINA RESULT: -5.818634520      1.355      1.843
REMARK  5 active torsions:
REMARK  status: ('A' for Active; 'I' for Inactive)
REMARK    1  A    between atoms: C3_3  and  C4_4 
REMARK    2  A    between atoms: C4_4  and  N1_5 
REMARK    3  A    between atoms: N1_5  and  C5_7 
REMARK    4  A    between atoms: C5_7  and  C6_9 
REMARK    5  A    between atoms: C6_9  and  N2_10 
ROOT
HETATM    1  C1  UNL     1       9.443   9.852  14.350  1.00  0.00     0.012 C 
HETATM    2  C2  UNL     1       9.281  10.830  15.039  1.00  0.00    -0.116 C 
HETATM    3  C3  UNL     1       9.066  12.033  15.885  1.00  0.00     0.112 C 
ENDROOT
BRANCH   3   4
HETATM    4  C4  UNL     1       8.443  13.065  14.983  1.00  0.00     0.132 C 
BRANCH   4   5
HETATM    5  N1  UNL     1       9.442  14.049  14.650  1.00  0.00    -0.382 N 
ATOM      6  H1  UNL     1      10.239  13.741  14.093  1.00  0.00     0.160 HD
BRANCH   5   7
HETATM    7  C5  UNL     1       9.403  15.404  15.033  1.00  0.00     0.091 C 
HETATM    8  S1  UNL     1      10.147  15.901  16.388  1.00  0.00    -0.064 SA
BRANCH   7   9
HETATM    9  C6  UNL     1       8.692  16.413  14.185  1.00  0.00     0.191 C 
BRANCH   9  10
HETATM   10  N2  UNL     1       8.886  16.156  12.788  1.00  0.00    -0.360 N 
HETATM   11  C7  UNL     1       8.044  16.208  11.846  1.00  0.00     0.197 C 
HETATM   12  N3  UNL     1       8.413  15.917  10.484  1.00  0.00    -0.067 NA
HETATM   13  N4  UNL     1       6.699  16.556  12.101  1.00  0.00    -0.067 NA
ATOM     14  H2  UNL     1       9.834  15.896  12.517  1.00  0.00     0.162 HD
ENDBRANCH   9  10
ENDBRANCH   7   9
ENDBRANCH   5   7
ENDBRANCH   4   5
ENDBRANCH   3   4
TORSDOF 5
ENDMDL
MODEL 4
REMARK VINA RESULT: -5.455069385      2.663      3.273
REMARK  5 active torsions:
REMARK  status: ('A' for Active; 'I' for Inactive)
REMARK    1  A    between atoms: C3_3  and  C4_4 
REMARK    2  A    between atoms: C4_4  and  N1_5 
REMARK    3  A    between atoms: N1_5  and  C5_7 
REMARK    4  A    between atoms: C5_7  and  C6_9 
REMARK    5  A    between atoms: C6_9  and  N2_10 
ROOT
HETATM    1  C1  UNL     1       9.500   9.200  12.943  1.00  0.00     0.012 C 
HETATM    2  C2  UNL     1       9.729   9.901  13.898  1.00  0.00    -0.116 C 
HETATM    3  C3  UNL     1      10.004  10.755  15.084  1.00  0.00     0.112 C 
ENDROOT
BRANCH   3   4
HETATM    4  C4  UNL     1       8.657  11.155  15.625  1.00  0.00     0.132 C 
BRANCH   4   5
HETATM    5  N1  UNL     1       8.743  12.506  16.121  1.00  0.00    -0.382 N 
ATOM      6  H1  UNL     1       9.002  12.633  17.099  1.00  0.00     0.160 HD
BRANCH   5   7
HETATM    7  C5  UNL     1       8.495  13.664  15.359  1.00  0.00     0.091 C 
HETATM    8  S1  UNL     1       7.124  13.811  14.501  1.00  0.00    -0.064 SA
BRANCH   7   9
HETATM    9  C6  UNL     1       9.484  14.789  15.344  1.00  0.00     0.191 C 
BRANCH   9  10
HETATM   10  N2  UNL     1       9.641  15.368  16.646  1.00  0.00    -0.360 N 
HETATM   11  C7  UNL     1      10.341  16.360  16.994  1.00  0.00     0.197 C 
HETATM   12  N3  UNL     1      10.384  16.814  18.361  1.00  0.00    -0.067 NA
HETATM   13  N4  UNL     1      11.114  17.065  16.045  1.00  0.00    -0.067 NA
ATOM     14  H2  UNL     1       9.114  14.916  17.394  1.00  0.00     0.162 HD
ENDBRANCH   9  10
ENDBRANCH   7   9
ENDBRANCH   5   7
ENDBRANCH   4   5
ENDBRANCH   3   4
TORSDOF 5
ENDMDL
MODEL 5
REMARK VINA RESULT: -5.454830953      2.562      2.890
REMARK  5 active torsions:
REMARK  status: ('A' for Active; 'I' for Inactive)
REMARK    1  A    between atoms: C3_3  and  C4_4 
REMARK    2  A    between atoms: C4_4  and  N1_5 
REMARK    3  A    between atoms: N1_5  and  C5_7 
REMARK    4  A    between atoms: C5_7  and  C6_9 
REMARK    5  A    between atoms: C6_9  and  N2_10 
ROOT
HETATM    1  C1  UNL     1       9.764   9.133  12.813  1.00  0.00     0.012 C 
HETATM    2  C2  UNL     1       9.363   9.461  13.903  1.00  0.00    -0.116 C 
HETATM    3  C3  UNL     1       8.861   9.878  15.239  1.00  0.00     0.112 C 
ENDROOT
BRANCH   3   4
HETATM    4  C4  UNL     1       9.399  11.265  15.468  1.00  0.00     0.132 C 
BRANCH   4   5
HETATM    5  N1  UNL     1       8.289  12.168  15.634  1.00  0.00    -0.382 N 
ATOM      6  H1  UNL     1       7.400  11.771  15.939  1.00  0.00     0.160 HD
BRANCH   5   7
HETATM    7  C5  UNL     1       8.335  13.558  15.407  1.00  0.00     0.091 C 
HETATM    8  S1  UNL     1       7.588  14.210  14.122  1.00  0.00    -0.064 SA
BRANCH   7   9
HETATM    9  C6  UNL     1       9.057  14.459  16.361  1.00  0.00     0.191 C 
BRANCH   9  10
HETATM   10  N2  UNL     1       9.772  15.491  15.670  1.00  0.00    -0.360 N 
HETATM   11  C7  UNL     1      10.470  16.430  16.148  1.00  0.00     0.197 C 
HETATM   12  N3  UNL     1      11.128  17.392  15.300  1.00  0.00    -0.067 NA
HETATM   13  N4  UNL     1      10.629  16.571  17.544  1.00  0.00    -0.067 NA
ATOM     14  H2  UNL     1       9.709  15.464  14.652  1.00  0.00     0.162 HD
ENDBRANCH   9  10
ENDBRANCH   7   9
ENDBRANCH   5   7
ENDBRANCH   4   5
ENDBRANCH   3   4
TORSDOF 5
ENDMDL
