MODEL 1
REMARK VINA RESULT: -7.663298308      0.000      0.000
REMARK  9 active torsions:
REMARK  status: ('A' for Active; 'I' for Inactive)
REMARK    1  A    between atoms: C6_7  and  C7_8 
REMARK    2  A    between atoms: C7_8  and  N1_9 
REMARK    3  A    between atoms: N1_9  and  C8_10 
REMARK    4  A    between atoms: C9_13  and  N3_14 
REMARK    5  A    between atoms: N3_14  and  C10_16 
REMARK    6  A    between atoms: C10_16  and  C11_17 
REMARK    7  A    between atoms: N4_20  and  C14_21 
REMARK    8  A    between atoms: C14_21  and  C15_22 
REMARK    9  A    between atoms: N6_32  and  C23_34 
ROOT
HETATM    1  C8  UNL     1       8.072  -1.826 -13.635  1.00  0.00     0.287 A 
HETATM    2  N2  UNL     1       9.176  -2.482 -14.132  1.00  0.00    -0.148 N 
ATOM      3  H2  UNL     1       9.645  -3.177 -13.552  1.00  0.00     0.188 HD
HETATM    4  C9  UNL     1       9.646  -2.229 -15.359  1.00  0.00     0.696 A 
HETATM    5  N5  UNL     1       9.016  -1.327 -16.100  1.00  0.00    -0.022 N 
ATOM      6  H5  UNL     1       9.384  -1.145 -17.034  1.00  0.00     0.203 HD
HETATM    7  C22 UNL     1       7.935  -0.639 -15.718  1.00  0.00     0.696 A 
HETATM    8  N6  UNL     1       7.133  -0.036 -16.456  1.00  0.00    -0.221 N 
ATOM      9  H6  UNL     1       6.394   0.451 -15.952  1.00  0.00     0.178 HD
HETATM   10  N7  UNL     1       7.486  -0.926 -14.419  1.00  0.00    -0.148 N 
ATOM     11  H7  UNL     1       6.675  -0.423 -14.061  1.00  0.00     0.188 HD
ENDROOT
BRANCH   4  12
HETATM   12  N3  UNL     1      10.692  -2.889 -15.624  1.00  0.00    -0.225 N 
ATOM     13  H3  UNL     1      11.385  -2.394 -16.184  1.00  0.00     0.177 HD
BRANCH  12  14
HETATM   14  C10 UNL     1      11.039  -4.188 -15.268  1.00  0.00     0.143 C 
BRANCH  14  15
HETATM   15  C11 UNL     1      12.445  -4.102 -14.643  1.00  0.00     0.010 C 
HETATM   16  C12 UNL     1      13.439  -4.914 -15.363  1.00  0.00     0.051 C 
HETATM   17  C13 UNL     1      14.011  -6.040 -14.538  1.00  0.00     0.063 C 
HETATM   18  N4  UNL     1      14.310  -5.719 -13.203  1.00  0.00    -0.373 N 
HETATM   19  C20 UNL     1      13.708  -4.544 -12.658  1.00  0.00     0.127 C 
HETATM   20  C21 UNL     1      12.302  -4.491 -13.202  1.00  0.00     0.027 C 
BRANCH  18  21
HETATM   21  C14 UNL     1      15.464  -6.187 -12.584  1.00  0.00     0.067 C 
BRANCH  21  22
HETATM   22  C15 UNL     1      15.474  -7.683 -12.384  1.00  0.00     0.024 C 
HETATM   23  C16 UNL     1      16.549  -8.017 -11.341  1.00  0.00     0.010 C 
HETATM   24  C17 UNL     1      15.910  -7.814  -9.996  1.00  0.00     0.001 C 
HETATM   25  C18 UNL     1      14.443  -7.626 -10.208  1.00  0.00     0.001 C 
HETATM   26  C19 UNL     1      14.222  -8.068 -11.642  1.00  0.00     0.010 C 
ENDBRANCH  21  22
ENDBRANCH  18  21
ENDBRANCH  14  15
ENDBRANCH  12  14
ENDBRANCH   4  12
BRANCH   1  27
HETATM   27  N1  UNL     1       7.664  -2.227 -12.573  1.00  0.00    -0.382 NA
BRANCH  27  28
HETATM   28  C7  UNL     1       7.187  -2.664 -11.372  1.00  0.00     0.201 C 
BRANCH  28  29
HETATM   29  C6  UNL     1       8.270  -3.645 -10.933  1.00  0.00     0.031 A 
HETATM   30  C1  UNL     1       9.133  -3.252  -9.987  1.00  0.00     0.129 A 
HETATM   31  F1  UNL     1       8.965  -2.068  -9.374  1.00  0.00    -0.205 F 
HETATM   32  C2  UNL     1      10.201  -4.099  -9.675  1.00  0.00     0.043 A 
HETATM   33  C3  UNL     1      10.310  -5.301 -10.362  1.00  0.00     0.003 A 
HETATM   34  C4  UNL     1       9.417  -5.683 -11.311  1.00  0.00     0.001 A 
HETATM   35  C5  UNL     1       8.330  -4.803 -11.619  1.00  0.00     0.017 A 
ENDBRANCH  28  29
ENDBRANCH  27  28
ENDBRANCH   1  27
BRANCH   8  36
HETATM   36  C23 UNL     1       7.052   0.103 -17.897  1.00  0.00     0.099 C 
HETATM   37  C24 UNL     1       8.439   0.352 -18.392  1.00  0.00     0.026 C 
HETATM   38  C25 UNL     1       8.748   1.737 -18.860  1.00  0.00     0.002 C 
HETATM   39  C26 UNL     1       7.656   2.326 -19.744  1.00  0.00     0.000 C 
HETATM   40  C27 UNL     1       6.332   2.293 -19.078  1.00  0.00     0.002 C 
HETATM   41  C28 UNL     1       6.158   1.341 -18.021  1.00  0.00     0.026 C 
ENDBRANCH   8  36
TORSDOF 9
ENDMDL
MODEL 2
REMARK VINA RESULT: -7.626343204      1.668      2.290
REMARK  9 active torsions:
REMARK  status: ('A' for Active; 'I' for Inactive)
REMARK    1  A    between atoms: C6_7  and  C7_8 
REMARK    2  A    between atoms: C7_8  and  N1_9 
REMARK    3  A    between atoms: N1_9  and  C8_10 
REMARK    4  A    between atoms: C9_13  and  N3_14 
REMARK    5  A    between atoms: N3_14  and  C10_16 
REMARK    6  A    between atoms: C10_16  and  C11_17 
REMARK    7  A    between atoms: N4_20  and  C14_21 
REMARK    8  A    between atoms: C14_21  and  C15_22 
REMARK    9  A    between atoms: N6_32  and  C23_34 
ROOT
HETATM    1  C8  UNL     1       8.243  -2.769 -14.208  1.00  0.00     0.287 A 
HETATM    2  N2  UNL     1       9.553  -3.093 -14.478  1.00  0.00    -0.148 N 
ATOM      3  H2  UNL     1      10.023  -3.789 -13.899  1.00  0.00     0.188 HD
HETATM    4  C9  UNL     1      10.224  -2.516 -15.482  1.00  0.00     0.696 A 
HETATM    5  N5  UNL     1       9.591  -1.620 -16.228  1.00  0.00    -0.022 N 
ATOM      6  H5  UNL     1      10.113  -1.189 -16.991  1.00  0.00     0.203 HD
HETATM    7  C22 UNL     1       8.322  -1.237 -16.056  1.00  0.00     0.696 A 
HETATM    8  N6  UNL     1       7.596  -0.662 -16.889  1.00  0.00    -0.221 N 
ATOM      9  H6  UNL     1       6.666  -0.433 -16.538  1.00  0.00     0.178 HD
HETATM   10  N7  UNL     1       7.662  -1.857 -14.983  1.00  0.00    -0.148 N 
ATOM     11  H7  UNL     1       6.696  -1.597 -14.789  1.00  0.00     0.188 HD
ENDROOT
BRANCH   4  12
HETATM   12  N3  UNL     1      11.427  -2.901 -15.547  1.00  0.00    -0.225 N 
ATOM     13  H3  UNL     1      12.107  -2.270 -15.124  1.00  0.00     0.177 HD
BRANCH  12  14
HETATM   14  C10 UNL     1      11.962  -4.056 -16.110  1.00  0.00     0.143 C 
BRANCH  14  15
HETATM   15  C11 UNL     1      12.625  -4.829 -14.954  1.00  0.00     0.010 C 
HETATM   16  C12 UNL     1      11.788  -5.930 -14.449  1.00  0.00     0.051 C 
HETATM   17  C13 UNL     1      11.348  -5.747 -13.018  1.00  0.00     0.063 C 
HETATM   18  N4  UNL     1      12.332  -5.254 -12.143  1.00  0.00    -0.373 N 
HETATM   19  C20 UNL     1      13.473  -4.622 -12.724  1.00  0.00     0.127 C 
HETATM   20  C21 UNL     1      12.967  -3.821 -13.898  1.00  0.00     0.027 C 
BRANCH  18  21
HETATM   21  C14 UNL     1      12.470  -5.751 -10.852  1.00  0.00     0.067 C 
BRANCH  21  22
HETATM   22  C15 UNL     1      11.847  -7.113 -10.662  1.00  0.00     0.024 C 
HETATM   23  C16 UNL     1      12.894  -8.031 -10.016  1.00  0.00     0.010 C 
HETATM   24  C17 UNL     1      12.834  -7.766  -8.538  1.00  0.00     0.001 C 
HETATM   25  C18 UNL     1      11.626  -6.927  -8.270  1.00  0.00     0.001 C 
HETATM   26  C19 UNL     1      10.828  -7.016  -9.557  1.00  0.00     0.010 C 
ENDBRANCH  21  22
ENDBRANCH  18  21
ENDBRANCH  14  15
ENDBRANCH  12  14
ENDBRANCH   4  12
BRANCH   1  27
HETATM   27  N1  UNL     1       7.704  -3.442 -13.365  1.00  0.00    -0.382 NA
BRANCH  27  28
HETATM   28  C7  UNL     1       7.097  -4.188 -12.397  1.00  0.00     0.201 C 
BRANCH  28  29
HETATM   29  C6  UNL     1       7.735  -3.641 -11.123  1.00  0.00     0.031 A 
HETATM   30  C1  UNL     1       7.076  -2.694 -10.444  1.00  0.00     0.129 A 
HETATM   31  F1  UNL     1       5.840  -2.329 -10.825  1.00  0.00    -0.205 F 
HETATM   32  C2  UNL     1       7.715  -2.102  -9.349  1.00  0.00     0.043 A 
HETATM   33  C3  UNL     1       8.996  -2.528  -9.026  1.00  0.00     0.003 A 
HETATM   34  C4  UNL     1       9.641  -3.497  -9.724  1.00  0.00     0.001 A 
HETATM   35  C5  UNL     1       8.973  -4.092 -10.842  1.00  0.00     0.017 A 
ENDBRANCH  28  29
ENDBRANCH  27  28
ENDBRANCH   1  27
BRANCH   8  36
HETATM   36  C23 UNL     1       7.822  -0.255 -18.262  1.00  0.00     0.099 C 
HETATM   37  C24 UNL     1       7.848   1.237 -18.278  1.00  0.00     0.026 C 
HETATM   38  C25 UNL     1       6.667   1.926 -18.882  1.00  0.00     0.002 C 
HETATM   39  C26 UNL     1       6.217   1.296 -20.195  1.00  0.00     0.000 C 
HETATM   40  C27 UNL     1       5.945  -0.154 -20.044  1.00  0.00     0.002 C 
HETATM   41  C28 UNL     1       6.574  -0.823 -18.944  1.00  0.00     0.026 C 
ENDBRANCH   8  36
TORSDOF 9
ENDMDL
MODEL 3
REMARK VINA RESULT: -7.579349705      0.890      1.410
REMARK  9 active torsions:
REMARK  status: ('A' for Active; 'I' for Inactive)
REMARK    1  A    between atoms: C6_7  and  C7_8 
REMARK    2  A    between atoms: C7_8  and  N1_9 
REMARK    3  A    between atoms: N1_9  and  C8_10 
REMARK    4  A    between atoms: C9_13  and  N3_14 
REMARK    5  A    between atoms: N3_14  and  C10_16 
REMARK    6  A    between atoms: C10_16  and  C11_17 
REMARK    7  A    between atoms: N4_20  and  C14_21 
REMARK    8  A    between atoms: C14_21  and  C15_22 
REMARK    9  A    between atoms: N6_32  and  C23_34 
ROOT
HETATM    1  C8  UNL     1       8.632  -2.539 -13.373  1.00  0.00     0.287 A 
HETATM    2  N2  UNL     1       9.626  -3.310 -13.932  1.00  0.00    -0.148 N 
ATOM      3  H2  UNL     1      10.038  -4.065 -13.384  1.00  0.00     0.188 HD
HETATM    4  C9  UNL     1      10.063  -3.092 -15.178  1.00  0.00     0.696 A 
HETATM    5  N5  UNL     1       9.506  -2.112 -15.877  1.00  0.00    -0.022 N 
ATOM      6  H5  UNL     1       9.847  -1.958 -16.825  1.00  0.00     0.203 HD
HETATM    7  C22 UNL     1       8.533  -1.309 -15.433  1.00  0.00     0.696 A 
HETATM    8  N6  UNL     1       7.771  -0.606 -16.123  1.00  0.00    -0.221 N 
ATOM      9  H6  UNL     1       7.119  -0.045 -15.577  1.00  0.00     0.178 HD
HETATM   10  N7  UNL     1       8.117  -1.565 -14.116  1.00  0.00    -0.148 N 
ATOM     11  H7  UNL     1       7.388  -0.977 -13.713  1.00  0.00     0.188 HD
ENDROOT
BRANCH   4  12
HETATM   12  N3  UNL     1      11.010  -3.864 -15.503  1.00  0.00    -0.225 N 
ATOM     13  H3  UNL     1      10.724  -4.783 -15.838  1.00  0.00     0.177 HD
BRANCH  12  14
HETATM   14  C10 UNL     1      12.385  -3.647 -15.472  1.00  0.00     0.143 C 
BRANCH  14  15
HETATM   15  C11 UNL     1      13.015  -4.956 -14.959  1.00  0.00     0.010 C 
HETATM   16  C12 UNL     1      12.590  -5.296 -13.591  1.00  0.00     0.051 C 
HETATM   17  C13 UNL     1      13.717  -5.294 -12.590  1.00  0.00     0.063 C 
HETATM   18  N4  UNL     1      14.921  -5.869 -13.035  1.00  0.00    -0.373 N 
HETATM   19  C20 UNL     1      15.092  -6.029 -14.443  1.00  0.00     0.127 C 
HETATM   20  C21 UNL     1      14.500  -4.801 -15.089  1.00  0.00     0.027 C 
BRANCH  18  21
HETATM   21  C14 UNL     1      15.690  -6.677 -12.205  1.00  0.00     0.067 C 
BRANCH  21  22
HETATM   22  C15 UNL     1      14.885  -7.391 -11.146  1.00  0.00     0.024 C 
HETATM   23  C16 UNL     1      14.515  -8.779 -11.683  1.00  0.00     0.010 C 
HETATM   24  C17 UNL     1      15.700  -9.664 -11.419  1.00  0.00     0.001 C 
HETATM   25  C18 UNL     1      16.638  -8.921 -10.524  1.00  0.00     0.001 C 
HETATM   26  C19 UNL     1      15.811  -7.756 -10.015  1.00  0.00     0.010 C 
ENDBRANCH  21  22
ENDBRANCH  18  21
ENDBRANCH  14  15
ENDBRANCH  12  14
ENDBRANCH   4  12
BRANCH   1  27
HETATM   27  N1  UNL     1       8.232  -2.908 -12.296  1.00  0.00    -0.382 NA
BRANCH  27  28
HETATM   28  C7  UNL     1       7.785  -3.346 -11.084  1.00  0.00     0.201 C 
BRANCH  28  29
HETATM   29  C6  UNL     1       8.988  -4.125 -10.559  1.00  0.00     0.031 A 
HETATM   30  C1  UNL     1       9.855  -3.487  -9.762  1.00  0.00     0.129 A 
HETATM   31  F1  UNL     1       9.596  -2.233  -9.354  1.00  0.00    -0.205 F 
HETATM   32  C2  UNL     1      11.021  -4.160  -9.384  1.00  0.00     0.043 A 
HETATM   33  C3  UNL     1      11.219  -5.450  -9.857  1.00  0.00     0.003 A 
HETATM   34  C4  UNL     1      10.321  -6.080 -10.657  1.00  0.00     0.001 A 
HETATM   35  C5  UNL     1       9.133  -5.377 -11.035  1.00  0.00     0.017 A 
ENDBRANCH  28  29
ENDBRANCH  27  28
ENDBRANCH   1  27
BRANCH   8  36
HETATM   36  C23 UNL     1       7.636  -0.433 -17.557  1.00  0.00     0.099 C 
HETATM   37  C24 UNL     1       8.898   0.202 -18.041  1.00  0.00     0.026 C 
HETATM   38  C25 UNL     1       8.816   1.638 -18.449  1.00  0.00     0.002 C 
HETATM   39  C26 UNL     1       7.594   1.945 -19.305  1.00  0.00     0.000 C 
HETATM   40  C27 UNL     1       6.336   1.527 -18.639  1.00  0.00     0.002 C 
HETATM   41  C28 UNL     1       6.441   0.520 -17.625  1.00  0.00     0.026 C 
ENDBRANCH   8  36
TORSDOF 9
ENDMDL
MODEL 4
REMARK VINA RESULT: -7.562120924      1.376      2.005
REMARK  9 active torsions:
REMARK  status: ('A' for Active; 'I' for Inactive)
REMARK    1  A    between atoms: C6_7  and  C7_8 
REMARK    2  A    between atoms: C7_8  and  N1_9 
REMARK    3  A    between atoms: N1_9  and  C8_10 
REMARK    4  A    between atoms: C9_13  and  N3_14 
REMARK    5  A    between atoms: N3_14  and  C10_16 
REMARK    6  A    between atoms: C10_16  and  C11_17 
REMARK    7  A    between atoms: N4_20  and  C14_21 
REMARK    8  A    between atoms: C14_21  and  C15_22 
REMARK    9  A    between atoms: N6_32  and  C23_34 
ROOT
HETATM    1  C8  UNL     1       8.083  -1.869 -13.607  1.00  0.00     0.287 A 
HETATM    2  N2  UNL     1       9.187  -2.523 -14.103  1.00  0.00    -0.148 N 
ATOM      3  H2  UNL     1       9.657  -3.217 -13.523  1.00  0.00     0.188 HD
HETATM    4  C9  UNL     1       9.657  -2.271 -15.331  1.00  0.00     0.696 A 
HETATM    5  N5  UNL     1       9.025  -1.371 -16.073  1.00  0.00    -0.022 N 
ATOM      6  H5  UNL     1       9.392  -1.190 -17.007  1.00  0.00     0.203 HD
HETATM    7  C22 UNL     1       7.943  -0.684 -15.691  1.00  0.00     0.696 A 
HETATM    8  N6  UNL     1       7.140  -0.084 -16.430  1.00  0.00    -0.221 N 
ATOM      9  H6  UNL     1       6.399   0.403 -15.926  1.00  0.00     0.178 HD
HETATM   10  N7  UNL     1       7.495  -0.971 -14.392  1.00  0.00    -0.148 N 
ATOM     11  H7  UNL     1       6.683  -0.468 -14.035  1.00  0.00     0.188 HD
ENDROOT
BRANCH   4  12
HETATM   12  N3  UNL     1      10.704  -2.929 -15.596  1.00  0.00    -0.225 N 
ATOM     13  H3  UNL     1      11.286  -2.537 -16.335  1.00  0.00     0.177 HD
BRANCH  12  14
HETATM   14  C10 UNL     1      11.180  -4.108 -15.031  1.00  0.00     0.143 C 
BRANCH  14  15
HETATM   15  C11 UNL     1      12.686  -3.890 -14.786  1.00  0.00     0.010 C 
HETATM   16  C12 UNL     1      13.531  -4.783 -15.594  1.00  0.00     0.051 C 
HETATM   17  C13 UNL     1      14.349  -5.748 -14.773  1.00  0.00     0.063 C 
HETATM   18  N4  UNL     1      14.934  -5.209 -13.613  1.00  0.00    -0.373 N 
HETATM   19  C20 UNL     1      14.406  -3.976 -13.122  1.00  0.00     0.127 C 
HETATM   20  C21 UNL     1      12.911  -4.045 -13.311  1.00  0.00     0.027 C 
BRANCH  18  21
HETATM   21  C14 UNL     1      16.227  -5.544 -13.229  1.00  0.00     0.067 C 
BRANCH  21  22
HETATM   22  C15 UNL     1      17.235  -4.452 -13.495  1.00  0.00     0.024 C 
HETATM   23  C16 UNL     1      18.553  -4.843 -12.813  1.00  0.00     0.010 C 
HETATM   24  C17 UNL     1      19.262  -5.767 -13.763  1.00  0.00     0.001 C 
HETATM   25  C18 UNL     1      18.538  -5.727 -15.070  1.00  0.00     0.001 C 
HETATM   26  C19 UNL     1      17.631  -4.518 -14.947  1.00  0.00     0.010 C 
ENDBRANCH  21  22
ENDBRANCH  18  21
ENDBRANCH  14  15
ENDBRANCH  12  14
ENDBRANCH   4  12
BRANCH   1  27
HETATM   27  N1  UNL     1       7.676  -2.269 -12.544  1.00  0.00    -0.382 NA
BRANCH  27  28
HETATM   28  C7  UNL     1       7.237  -2.720 -11.334  1.00  0.00     0.201 C 
BRANCH  28  29
HETATM   29  C6  UNL     1       8.397  -3.600 -10.878  1.00  0.00     0.031 A 
HETATM   30  C1  UNL     1       9.202  -3.135  -9.914  1.00  0.00     0.129 A 
HETATM   31  F1  UNL     1       8.914  -1.975  -9.299  1.00  0.00    -0.205 F 
HETATM   32  C2  UNL     1      10.337  -3.882  -9.585  1.00  0.00     0.043 A 
HETATM   33  C3  UNL     1      10.569  -5.064 -10.274  1.00  0.00     0.003 A 
HETATM   34  C4  UNL     1       9.734  -5.521 -11.242  1.00  0.00     0.001 A 
HETATM   35  C5  UNL     1       8.576  -4.744 -11.568  1.00  0.00     0.017 A 
ENDBRANCH  28  29
ENDBRANCH  27  28
ENDBRANCH   1  27
BRANCH   8  36
HETATM   36  C23 UNL     1       7.057   0.053 -17.871  1.00  0.00     0.099 C 
HETATM   37  C24 UNL     1       8.442   0.315 -18.365  1.00  0.00     0.026 C 
HETATM   38  C25 UNL     1       8.739   1.703 -18.835  1.00  0.00     0.002 C 
HETATM   39  C26 UNL     1       7.641   2.280 -19.720  1.00  0.00     0.000 C 
HETATM   40  C27 UNL     1       6.317   2.235 -19.054  1.00  0.00     0.002 C 
HETATM   41  C28 UNL     1       6.152   1.282 -17.996  1.00  0.00     0.026 C 
ENDBRANCH   8  36
TORSDOF 9
ENDMDL
MODEL 5
REMARK VINA RESULT: -7.527972463      1.148      1.538
REMARK  9 active torsions:
REMARK  status: ('A' for Active; 'I' for Inactive)
REMARK    1  A    between atoms: C6_7  and  C7_8 
REMARK    2  A    between atoms: C7_8  and  N1_9 
REMARK    3  A    between atoms: N1_9  and  C8_10 
REMARK    4  A    between atoms: C9_13  and  N3_14 
REMARK    5  A    between atoms: N3_14  and  C10_16 
REMARK    6  A    between atoms: C10_16  and  C11_17 
REMARK    7  A    between atoms: N4_20  and  C14_21 
REMARK    8  A    between atoms: C14_21  and  C15_22 
REMARK    9  A    between atoms: N6_32  and  C23_34 
ROOT
HETATM    1  C8  UNL     1       8.143  -2.019 -13.736  1.00  0.00     0.287 A 
HETATM    2  N2  UNL     1       9.041  -2.894 -14.304  1.00  0.00    -0.148 N 
ATOM      3  H2  UNL     1       9.399  -3.671 -13.749  1.00  0.00     0.188 HD
HETATM    4  C9  UNL     1       9.454  -2.750 -15.569  1.00  0.00     0.696 A 
HETATM    5  N5  UNL     1       8.969  -1.738 -16.277  1.00  0.00    -0.022 N 
ATOM      6  H5  UNL     1       9.290  -1.640 -17.240  1.00  0.00     0.203 HD
HETATM    7  C22 UNL     1       8.091  -0.836 -15.825  1.00  0.00     0.696 A 
HETATM    8  N6  UNL     1       7.376  -0.081 -16.510  1.00  0.00    -0.221 N 
ATOM      9  H6  UNL     1       6.798   0.553 -15.959  1.00  0.00     0.178 HD
HETATM   10  N7  UNL     1       7.697  -1.019 -14.489  1.00  0.00    -0.148 N 
ATOM     11  H7  UNL     1       7.041  -0.355 -14.079  1.00  0.00     0.188 HD
ENDROOT
BRANCH   4  12
HETATM   12  N3  UNL     1      10.313  -3.615 -15.902  1.00  0.00    -0.225 N 
ATOM     13  H3  UNL     1      10.030  -4.584 -15.757  1.00  0.00     0.177 HD
BRANCH  12  14
HETATM   14  C10 UNL     1      11.587  -3.446 -16.436  1.00  0.00     0.143 C 
BRANCH  14  15
HETATM   15  C11 UNL     1      12.553  -4.180 -15.487  1.00  0.00     0.010 C 
HETATM   16  C12 UNL     1      12.106  -5.545 -15.162  1.00  0.00     0.051 C 
HETATM   17  C13 UNL     1      11.785  -5.743 -13.702  1.00  0.00     0.063 C 
HETATM   18  N4  UNL     1      12.682  -5.144 -12.800  1.00  0.00    -0.373 N 
HETATM   19  C20 UNL     1      13.539  -4.121 -13.306  1.00  0.00     0.127 C 
HETATM   20  C21 UNL     1      12.713  -3.312 -14.276  1.00  0.00     0.027 C 
BRANCH  18  21
HETATM   21  C14 UNL     1      13.084  -5.793 -11.638  1.00  0.00     0.067 C 
BRANCH  21  22
HETATM   22  C15 UNL     1      13.263  -7.282 -11.811  1.00  0.00     0.024 C 
HETATM   23  C16 UNL     1      14.737  -7.619 -11.555  1.00  0.00     0.010 C 
HETATM   24  C17 UNL     1      14.890  -7.745 -10.066  1.00  0.00     0.001 C 
HETATM   25  C18 UNL     1      13.522  -7.751  -9.462  1.00  0.00     0.001 C 
HETATM   26  C19 UNL     1      12.602  -7.975 -10.647  1.00  0.00     0.010 C 
ENDBRANCH  21  22
ENDBRANCH  18  21
ENDBRANCH  14  15
ENDBRANCH  12  14
ENDBRANCH   4  12
BRANCH   1  27
HETATM   27  N1  UNL     1       7.747  -2.322 -12.637  1.00  0.00    -0.382 NA
BRANCH  27  28
HETATM   28  C7  UNL     1       7.301  -2.686 -11.400  1.00  0.00     0.201 C 
BRANCH  28  29
HETATM   29  C6  UNL     1       8.419  -3.603 -10.912  1.00  0.00     0.031 A 
HETATM   30  C1  UNL     1       8.424  -4.873 -11.335  1.00  0.00     0.129 A 
HETATM   31  F1  UNL     1       7.529  -5.280 -12.251  1.00  0.00    -0.205 F 
HETATM   32  C2  UNL     1       9.371  -5.746 -10.790  1.00  0.00     0.043 A 
HETATM   33  C3  UNL     1      10.254  -5.250  -9.841  1.00  0.00     0.003 A 
HETATM   34  C4  UNL     1      10.236  -3.955  -9.434  1.00  0.00     0.001 A 
HETATM   35  C5  UNL     1       9.260  -3.074 -10.001  1.00  0.00     0.017 A 
ENDBRANCH  28  29
ENDBRANCH  27  28
ENDBRANCH   1  27
BRANCH   8  36
HETATM   36  C23 UNL     1       7.209   0.068 -17.943  1.00  0.00     0.099 C 
HETATM   37  C24 UNL     1       8.551   0.404 -18.506  1.00  0.00     0.026 C 
HETATM   38  C25 UNL     1       8.753   1.810 -18.972  1.00  0.00     0.002 C 
HETATM   39  C26 UNL     1       7.582   2.341 -19.789  1.00  0.00     0.000 C 
HETATM   40  C27 UNL     1       6.299   2.223 -19.054  1.00  0.00     0.002 C 
HETATM   41  C28 UNL     1       6.239   1.251 -18.002  1.00  0.00     0.026 C 
ENDBRANCH   8  36
TORSDOF 9
ENDMDL
