MODEL 1
REMARK VINA RESULT: -9.034140899      0.000      0.000
REMARK  5 active torsions:
REMARK  status: ('A' for Active; 'I' for Inactive)
REMARK    1  A    between atoms: C6_6  and  N1_7 
REMARK    2  A    between atoms: N1_7  and  C7_9 
REMARK    3  A    between atoms: C7_9  and  C8_10 
REMARK    4  A    between atoms: C8_10  and  C9_11 
REMARK    5  A    between atoms: C9_11  and  C10_12 
ROOT
HETATM    1  C9  UNL     1      67.120  45.830  33.553  1.00  0.00     0.014 C 
ENDROOT
BRANCH   1   2
HETATM    2  C8  UNL     1      68.005  46.211  32.448  1.00  0.00     0.045 C 
BRANCH   2   3
HETATM    3  C7  UNL     1      67.709  45.748  31.063  1.00  0.00     0.056 C 
BRANCH   3   4
HETATM    4  N1  UNL     1      67.155  46.751  30.263  1.00  0.00    -0.398 N 
ATOM      5  H1  UNL     1      67.722  47.589  30.133  1.00  0.00     0.159 HD
BRANCH   4   6
HETATM    6  C6  UNL     1      65.939  46.738  29.633  1.00  0.00     0.081 C 
HETATM    7  C5  UNL     1      65.254  45.372  29.529  1.00  0.00     0.025 C 
HETATM    8  C4  UNL     1      64.394  45.418  28.282  1.00  0.00     0.002 C 
HETATM    9  C3  UNL     1      64.133  46.784  27.751  1.00  0.00     0.004 C 
HETATM   10  C2  UNL     1      63.967  47.865  28.763  1.00  0.00    -0.017 C 
HETATM   11  C1  UNL     1      62.494  47.937  29.160  1.00  0.00     0.010 C 
HETATM   12  C21 UNL     1      64.872  47.716  29.979  1.00  0.00     0.029 C 
ENDBRANCH   4   6
ENDBRANCH   3   4
ENDBRANCH   2   3
ENDBRANCH   1   2
BRANCH   1  13
HETATM   13  C10 UNL     1      66.055  46.734  34.036  1.00  0.00    -0.039 C 
HETATM   14  C11 UNL     1      65.986  46.887  35.514  1.00  0.00     0.014 C 
HETATM   15  C12 UNL     1      64.874  47.800  35.918  1.00  0.00    -0.013 C 
HETATM   16  C13 UNL     1      65.271  49.217  35.530  1.00  0.00     0.009 C 
HETATM   17  C18 UNL     1      63.590  47.370  35.262  1.00  0.00     0.014 C 
HETATM   18  C14 UNL     1      65.504  49.180  34.034  1.00  0.00    -0.013 C 
HETATM   19  C15 UNL     1      64.139  48.943  33.410  1.00  0.00     0.014 C 
HETATM   20  C20 UNL     1      66.508  48.197  33.577  1.00  0.00     0.014 C 
HETATM   21  C16 UNL     1      63.701  47.542  33.782  1.00  0.00    -0.043 C 
HETATM   22  C17 UNL     1      62.434  47.214  33.056  1.00  0.00     0.015 C 
HETATM   23  C19 UNL     1      64.780  46.560  33.294  1.00  0.00     0.018 C 
ENDBRANCH   1  13
TORSDOF 5
ENDMDL
MODEL 2
REMARK VINA RESULT: -8.898137046      3.068      4.803
REMARK  5 active torsions:
REMARK  status: ('A' for Active; 'I' for Inactive)
REMARK    1  A    between atoms: C6_6  and  N1_7 
REMARK    2  A    between atoms: N1_7  and  C7_9 
REMARK    3  A    between atoms: C7_9  and  C8_10 
REMARK    4  A    between atoms: C8_10  and  C9_11 
REMARK    5  A    between atoms: C9_11  and  C10_12 
ROOT
HETATM    1  C9  UNL     1      63.841  47.815  31.022  1.00  0.00     0.014 C 
ENDROOT
BRANCH   1   2
HETATM    2  C8  UNL     1      62.472  47.539  30.573  1.00  0.00     0.045 C 
BRANCH   2   3
HETATM    3  C7  UNL     1      62.242  46.717  29.351  1.00  0.00     0.056 C 
BRANCH   3   4
HETATM    4  N1  UNL     1      61.179  45.820  29.494  1.00  0.00    -0.398 N 
ATOM      5  H1  UNL     1      61.429  44.833  29.564  1.00  0.00     0.159 HD
BRANCH   4   6
HETATM    6  C6  UNL     1      59.843  46.113  29.550  1.00  0.00     0.081 C 
HETATM    7  C5  UNL     1      59.247  46.249  30.955  1.00  0.00     0.025 C 
HETATM    8  C4  UNL     1      57.787  45.858  30.841  1.00  0.00     0.002 C 
HETATM    9  C3  UNL     1      57.250  45.844  29.452  1.00  0.00     0.004 C 
HETATM   10  C2  UNL     1      57.776  46.889  28.529  1.00  0.00    -0.017 C 
HETATM   11  C1  UNL     1      56.902  48.135  28.658  1.00  0.00     0.010 C 
HETATM   12  C21 UNL     1      59.250  47.210  28.738  1.00  0.00     0.029 C 
ENDBRANCH   4   6
ENDBRANCH   3   4
ENDBRANCH   2   3
ENDBRANCH   1   2
BRANCH   1  13
HETATM   13  C10 UNL     1      64.159  48.010  32.452  1.00  0.00    -0.039 C 
HETATM   14  C11 UNL     1      64.173  49.427  32.903  1.00  0.00     0.014 C 
HETATM   15  C12 UNL     1      64.521  49.536  34.353  1.00  0.00    -0.013 C 
HETATM   16  C13 UNL     1      63.334  49.021  35.155  1.00  0.00     0.009 C 
HETATM   17  C18 UNL     1      65.779  48.764  34.641  1.00  0.00     0.014 C 
HETATM   18  C14 UNL     1      63.119  47.595  34.695  1.00  0.00    -0.013 C 
HETATM   19  C15 UNL     1      64.326  46.816  35.188  1.00  0.00     0.014 C 
HETATM   20  C20 UNL     1      62.898  47.427  33.244  1.00  0.00     0.014 C 
HETATM   21  C16 UNL     1      65.535  47.306  34.419  1.00  0.00    -0.043 C 
HETATM   22  C17 UNL     1      66.716  46.454  34.764  1.00  0.00     0.015 C 
HETATM   23  C19 UNL     1      65.252  47.120  32.919  1.00  0.00     0.018 C 
ENDBRANCH   1  13
TORSDOF 5
ENDMDL
MODEL 3
REMARK VINA RESULT: -8.737854270      0.913      1.452
REMARK  5 active torsions:
REMARK  status: ('A' for Active; 'I' for Inactive)
REMARK    1  A    between atoms: C6_6  and  N1_7 
REMARK    2  A    between atoms: N1_7  and  C7_9 
REMARK    3  A    between atoms: C7_9  and  C8_10 
REMARK    4  A    between atoms: C8_10  and  C9_11 
REMARK    5  A    between atoms: C9_11  and  C10_12 
ROOT
HETATM    1  C9  UNL     1      67.057  45.761  33.108  1.00  0.00     0.014 C 
ENDROOT
BRANCH   1   2
HETATM    2  C8  UNL     1      66.643  44.783  32.097  1.00  0.00     0.045 C 
BRANCH   2   3
HETATM    3  C7  UNL     1      66.946  45.025  30.658  1.00  0.00     0.056 C 
BRANCH   3   4
HETATM    4  N1  UNL     1      65.804  45.006  29.853  1.00  0.00    -0.398 N 
ATOM      5  H1  UNL     1      65.555  44.105  29.444  1.00  0.00     0.159 HD
BRANCH   4   6
HETATM    6  C6  UNL     1      64.981  46.057  29.549  1.00  0.00     0.081 C 
HETATM    7  C5  UNL     1      65.594  47.453  29.700  1.00  0.00     0.025 C 
HETATM    8  C4  UNL     1      64.449  48.391  30.025  1.00  0.00     0.002 C 
HETATM    9  C3  UNL     1      63.093  47.849  29.733  1.00  0.00     0.004 C 
HETATM   10  C2  UNL     1      62.975  46.980  28.528  1.00  0.00    -0.017 C 
HETATM   11  C1  UNL     1      62.680  47.864  27.319  1.00  0.00     0.010 C 
HETATM   12  C21 UNL     1      64.185  46.085  28.292  1.00  0.00     0.029 C 
ENDBRANCH   4   6
ENDBRANCH   3   4
ENDBRANCH   2   3
ENDBRANCH   1   2
BRANCH   1  13
HETATM   13  C10 UNL     1      66.076  46.635  33.786  1.00  0.00    -0.039 C 
HETATM   14  C11 UNL     1      66.187  46.667  35.269  1.00  0.00     0.014 C 
HETATM   15  C12 UNL     1      65.150  47.557  35.875  1.00  0.00    -0.013 C 
HETATM   16  C13 UNL     1      65.528  48.996  35.556  1.00  0.00     0.009 C 
HETATM   17  C18 UNL     1      63.789  47.197  35.346  1.00  0.00     0.014 C 
HETATM   18  C14 UNL     1      65.581  49.079  34.045  1.00  0.00    -0.013 C 
HETATM   19  C15 UNL     1      64.148  48.909  33.572  1.00  0.00     0.014 C 
HETATM   20  C20 UNL     1      66.502  48.125  33.394  1.00  0.00     0.014 C 
HETATM   21  C16 UNL     1      63.727  47.487  33.881  1.00  0.00    -0.043 C 
HETATM   22  C17 UNL     1      62.376  47.235  33.289  1.00  0.00     0.015 C 
HETATM   23  C19 UNL     1      64.719  46.537  33.191  1.00  0.00     0.018 C 
ENDBRANCH   1  13
TORSDOF 5
ENDMDL
MODEL 4
REMARK VINA RESULT: -8.613749335      2.258      4.084
REMARK  5 active torsions:
REMARK  status: ('A' for Active; 'I' for Inactive)
REMARK    1  A    between atoms: C6_6  and  N1_7 
REMARK    2  A    between atoms: N1_7  and  C7_9 
REMARK    3  A    between atoms: C7_9  and  C8_10 
REMARK    4  A    between atoms: C8_10  and  C9_11 
REMARK    5  A    between atoms: C9_11  and  C10_12 
ROOT
HETATM    1  C9  UNL     1      65.780  45.216  30.132  1.00  0.00     0.014 C 
ENDROOT
BRANCH   1   2
HETATM    2  C8  UNL     1      65.127  46.130  29.189  1.00  0.00     0.045 C 
BRANCH   2   3
HETATM    3  C7  UNL     1      63.750  45.838  28.702  1.00  0.00     0.056 C 
BRANCH   3   4
HETATM    4  N1  UNL     1      62.836  46.846  29.023  1.00  0.00    -0.398 N 
ATOM      5  H1  UNL     1      63.206  47.796  29.055  1.00  0.00     0.159 HD
BRANCH   4   6
HETATM    6  C6  UNL     1      61.503  46.705  29.298  1.00  0.00     0.081 C 
HETATM    7  C5  UNL     1      61.111  46.800  30.776  1.00  0.00     0.025 C 
HETATM    8  C4  UNL     1      59.862  45.958  30.944  1.00  0.00     0.002 C 
HETATM    9  C3  UNL     1      59.160  45.621  29.675  1.00  0.00     0.004 C 
HETATM   10  C2  UNL     1      59.168  46.670  28.616  1.00  0.00    -0.017 C 
HETATM   11  C1  UNL     1      57.961  47.582  28.827  1.00  0.00     0.010 C 
HETATM   12  C21 UNL     1      60.467  47.462  28.543  1.00  0.00     0.029 C 
ENDBRANCH   4   6
ENDBRANCH   3   4
ENDBRANCH   2   3
ENDBRANCH   1   2
BRANCH   1  13
HETATM   13  C10 UNL     1      66.251  45.678  31.455  1.00  0.00    -0.039 C 
HETATM   14  C11 UNL     1      66.645  44.592  32.393  1.00  0.00     0.014 C 
HETATM   15  C12 UNL     1      67.090  45.143  33.709  1.00  0.00    -0.013 C 
HETATM   16  C13 UNL     1      68.442  45.809  33.502  1.00  0.00     0.009 C 
HETATM   17  C18 UNL     1      66.060  46.101  34.242  1.00  0.00     0.014 C 
HETATM   18  C14 UNL     1      68.215  46.876  32.452  1.00  0.00    -0.013 C 
HETATM   19  C15 UNL     1      67.331  47.921  33.111  1.00  0.00     0.014 C 
HETATM   20  C20 UNL     1      67.653  46.392  31.174  1.00  0.00     0.014 C 
HETATM   21  C16 UNL     1      65.972  47.293  33.345  1.00  0.00    -0.043 C 
HETATM   22  C17 UNL     1      65.028  48.339  33.848  1.00  0.00     0.015 C 
HETATM   23  C19 UNL     1      65.437  46.799  31.990  1.00  0.00     0.018 C 
ENDBRANCH   1  13
TORSDOF 5
ENDMDL
MODEL 5
REMARK VINA RESULT: -8.558897754      2.385      4.425
REMARK  5 active torsions:
REMARK  status: ('A' for Active; 'I' for Inactive)
REMARK    1  A    between atoms: C6_6  and  N1_7 
REMARK    2  A    between atoms: N1_7  and  C7_9 
REMARK    3  A    between atoms: C7_9  and  C8_10 
REMARK    4  A    between atoms: C8_10  and  C9_11 
REMARK    5  A    between atoms: C9_11  and  C10_12 
ROOT
HETATM    1  C9  UNL     1      65.720  45.349  29.888  1.00  0.00     0.014 C 
ENDROOT
BRANCH   1   2
HETATM    2  C8  UNL     1      64.990  46.295  29.040  1.00  0.00     0.045 C 
BRANCH   2   3
HETATM    3  C7  UNL     1      63.573  46.021  28.667  1.00  0.00     0.056 C 
BRANCH   3   4
HETATM    4  N1  UNL     1      62.673  46.902  29.273  1.00  0.00    -0.398 N 
ATOM      5  H1  UNL     1      63.070  47.761  29.653  1.00  0.00     0.159 HD
BRANCH   4   6
HETATM    6  C6  UNL     1      61.321  46.744  29.415  1.00  0.00     0.081 C 
HETATM    7  C5  UNL     1      60.800  46.699  30.855  1.00  0.00     0.025 C 
HETATM    8  C4  UNL     1      59.543  45.853  30.830  1.00  0.00     0.002 C 
HETATM    9  C3  UNL     1      58.956  45.644  29.478  1.00  0.00     0.004 C 
HETATM   10  C2  UNL     1      59.055  46.790  28.530  1.00  0.00    -0.017 C 
HETATM   11  C1  UNL     1      57.833  47.685  28.721  1.00  0.00     0.010 C 
HETATM   12  C21 UNL     1      60.354  47.576  28.648  1.00  0.00     0.029 C 
ENDBRANCH   4   6
ENDBRANCH   3   4
ENDBRANCH   2   3
ENDBRANCH   1   2
BRANCH   1  13
HETATM   13  C10 UNL     1      66.335  45.771  31.165  1.00  0.00    -0.039 C 
HETATM   14  C11 UNL     1      67.575  46.581  31.024  1.00  0.00     0.014 C 
HETATM   15  C12 UNL     1      68.140  46.950  32.358  1.00  0.00    -0.013 C 
HETATM   16  C13 UNL     1      67.221  47.991  32.981  1.00  0.00     0.009 C 
HETATM   17  C18 UNL     1      68.275  45.723  33.218  1.00  0.00     0.014 C 
HETATM   18  C14 UNL     1      65.860  47.333  33.067  1.00  0.00    -0.013 C 
HETATM   19  C15 UNL     1      66.001  46.228  34.101  1.00  0.00     0.014 C 
HETATM   20  C20 UNL     1      65.318  46.836  31.786  1.00  0.00     0.014 C 
HETATM   21  C16 UNL     1      66.920  45.172  33.522  1.00  0.00    -0.043 C 
HETATM   22  C17 UNL     1      66.958  43.995  34.445  1.00  0.00     0.015 C 
HETATM   23  C19 UNL     1      66.318  44.696  32.189  1.00  0.00     0.018 C 
ENDBRANCH   1  13
TORSDOF 5
ENDMDL
