MODEL 1
REMARK VINA RESULT: -9.178149636      0.000      0.000
REMARK  6 active torsions:
REMARK  status: ('A' for Active; 'I' for Inactive)
REMARK    1  A    between atoms: C1_4  and  N2_5 
REMARK    2  A    between atoms: C1_4  and  C7_15 
REMARK    3  A    between atoms: N2_5  and  O1_7 
REMARK    4  A    between atoms: O1_7  and  C2_8 
REMARK    5  A    between atoms: C2_8  and  C3_10 
REMARK    6  A    between atoms: C12_20  and  C13_21 
ROOT
HETATM    1  N1  UNL     1      18.347   7.252  44.179  1.00  0.00    -0.383 N 
ATOM      2  H11 UNL     1      18.971   6.556  43.771  1.00  0.00     0.157 HD
ATOM      3  H12 UNL     1      17.717   7.765  43.563  1.00  0.00     0.157 HD
HETATM    4  C1  UNL     1      18.384   7.447  45.444  1.00  0.00     0.130 C 
ENDROOT
BRANCH   4   5
HETATM    5  N2  UNL     1      17.505   8.425  46.018  1.00  0.00    -0.241 N 
ATOM      6  H2  UNL     1      17.289   8.347  47.012  1.00  0.00     0.196 HD
BRANCH   5   7
HETATM    7  O1  UNL     1      16.945   9.443  45.328  1.00  0.00    -0.192 OA
BRANCH   7   8
HETATM    8  C2  UNL     1      15.958   9.318  44.368  1.00  0.00     0.339 C 
HETATM    9  O2  UNL     1      15.331   8.229  44.321  1.00  0.00    -0.255 OA
BRANCH   8  10
HETATM   10  C3  UNL     1      15.658  10.408  43.445  1.00  0.00     0.151 A 
HETATM   11  C4  UNL     1      16.034  11.730  43.521  1.00  0.00     0.045 A 
HETATM   12  C5  UNL     1      15.516  12.378  42.425  1.00  0.00     0.027 A 
HETATM   13  C6  UNL     1      14.840  11.420  41.716  1.00  0.00     0.143 A 
HETATM   14  O3  UNL     1      14.947  10.282  42.348  1.00  0.00    -0.317 OA
ENDBRANCH   8  10
ENDBRANCH   7   8
ENDBRANCH   5   7
ENDBRANCH   4   5
BRANCH   4  15
HETATM   15  C7  UNL     1      19.277   6.719  46.318  1.00  0.00     0.022 A 
HETATM   16  C8  UNL     1      20.379   6.105  45.704  1.00  0.00     0.016 A 
HETATM   17  C9  UNL     1      21.310   5.381  46.401  1.00  0.00     0.001 A 
HETATM   18  C10 UNL     1      21.176   5.245  47.738  1.00  0.00     0.001 A 
HETATM   19  C11 UNL     1      20.112   5.830  48.377  1.00  0.00     0.015 A 
HETATM   20  C12 UNL     1      19.140   6.580  47.679  1.00  0.00     0.015 A 
BRANCH  20  21
HETATM   21  C13 UNL     1      18.041   7.173  48.404  1.00  0.00     0.271 C 
HETATM   22  O4  UNL     1      18.330   8.186  49.138  1.00  0.00    -0.301 OA
ENDBRANCH  20  21
ENDBRANCH   4  15
TORSDOF 6
ENDMDL
MODEL 2
REMARK VINA RESULT: -9.088209558      1.292      2.201
REMARK  6 active torsions:
REMARK  status: ('A' for Active; 'I' for Inactive)
REMARK    1  A    between atoms: C1_4  and  N2_5 
REMARK    2  A    between atoms: C1_4  and  C7_15 
REMARK    3  A    between atoms: N2_5  and  O1_7 
REMARK    4  A    between atoms: O1_7  and  C2_8 
REMARK    5  A    between atoms: C2_8  and  C3_10 
REMARK    6  A    between atoms: C12_20  and  C13_21 
ROOT
HETATM    1  N1  UNL     1      17.307   8.219  48.062  1.00  0.00    -0.383 N 
ATOM      2  H11 UNL     1      17.563   7.672  48.884  1.00  0.00     0.157 HD
ATOM      3  H12 UNL     1      16.548   8.895  48.141  1.00  0.00     0.157 HD
HETATM    4  C1  UNL     1      17.952   8.031  46.971  1.00  0.00     0.130 C 
ENDROOT
BRANCH   4   5
HETATM    5  N2  UNL     1      17.592   8.801  45.816  1.00  0.00    -0.241 N 
ATOM      6  H2  UNL     1      18.336   9.065  45.169  1.00  0.00     0.196 HD
BRANCH   5   7
HETATM    7  O1  UNL     1      16.334   9.199  45.527  1.00  0.00    -0.192 OA
BRANCH   7   8
HETATM    8  C2  UNL     1      15.723   9.103  44.290  1.00  0.00     0.339 C 
HETATM    9  O2  UNL     1      15.314   7.968  43.934  1.00  0.00    -0.255 OA
BRANCH   8  10
HETATM   10  C3  UNL     1      15.559  10.274  43.435  1.00  0.00     0.151 A 
HETATM   11  C4  UNL     1      16.038  11.551  43.619  1.00  0.00     0.045 A 
HETATM   12  C5  UNL     1      15.629  12.312  42.549  1.00  0.00     0.027 A 
HETATM   13  C6  UNL     1      14.911  11.464  41.747  1.00  0.00     0.143 A 
HETATM   14  O3  UNL     1      14.894  10.282  42.302  1.00  0.00    -0.317 OA
ENDBRANCH   8  10
ENDBRANCH   7   8
ENDBRANCH   5   7
ENDBRANCH   4   5
BRANCH   4  15
HETATM   15  C7  UNL     1      19.029   7.073  46.859  1.00  0.00     0.022 A 
HETATM   16  C8  UNL     1      19.570   6.607  48.067  1.00  0.00     0.016 A 
HETATM   17  C9  UNL     1      20.593   5.698  48.121  1.00  0.00     0.001 A 
HETATM   18  C10 UNL     1      21.115   5.220  46.970  1.00  0.00     0.001 A 
HETATM   19  C11 UNL     1      20.614   5.651  45.768  1.00  0.00     0.015 A 
HETATM   20  C12 UNL     1      19.560   6.586  45.688  1.00  0.00     0.015 A 
BRANCH  20  21
HETATM   21  C13 UNL     1      19.072   7.004  44.394  1.00  0.00     0.271 C 
HETATM   22  O4  UNL     1      19.825   7.814  43.742  1.00  0.00    -0.301 OA
ENDBRANCH  20  21
ENDBRANCH   4  15
TORSDOF 6
ENDMDL
MODEL 3
REMARK VINA RESULT: -9.002435210      1.554      2.393
REMARK  6 active torsions:
REMARK  status: ('A' for Active; 'I' for Inactive)
REMARK    1  A    between atoms: C1_4  and  N2_5 
REMARK    2  A    between atoms: C1_4  and  C7_15 
REMARK    3  A    between atoms: N2_5  and  O1_7 
REMARK    4  A    between atoms: O1_7  and  C2_8 
REMARK    5  A    between atoms: C2_8  and  C3_10 
REMARK    6  A    between atoms: C12_20  and  C13_21 
ROOT
HETATM    1  N1  UNL     1      18.876   8.255  43.782  1.00  0.00    -0.383 N 
ATOM      2  H11 UNL     1      19.866   8.381  43.995  1.00  0.00     0.157 HD
ATOM      3  H12 UNL     1      18.533   8.541  42.866  1.00  0.00     0.157 HD
HETATM    4  C1  UNL     1      18.114   7.744  44.675  1.00  0.00     0.130 C 
ENDROOT
BRANCH   4   5
HETATM    5  N2  UNL     1      16.723   7.567  44.376  1.00  0.00    -0.241 N 
ATOM      6  H2  UNL     1      16.412   6.640  44.085  1.00  0.00     0.196 HD
BRANCH   5   7
HETATM    7  O1  UNL     1      15.796   8.547  44.454  1.00  0.00    -0.192 OA
BRANCH   7   8
HETATM    8  C2  UNL     1      16.048   9.904  44.359  1.00  0.00     0.339 C 
HETATM    9  O2  UNL     1      16.686  10.441  45.301  1.00  0.00    -0.255 OA
BRANCH   8  10
HETATM   10  C3  UNL     1      15.591  10.680  43.211  1.00  0.00     0.151 A 
HETATM   11  C4  UNL     1      15.898  11.977  42.868  1.00  0.00     0.045 A 
HETATM   12  C5  UNL     1      15.231  12.275  41.704  1.00  0.00     0.027 A 
HETATM   13  C6  UNL     1      14.537  11.139  41.377  1.00  0.00     0.143 A 
HETATM   14  O3  UNL     1      14.775  10.230  42.285  1.00  0.00    -0.317 OA
ENDBRANCH   8  10
ENDBRANCH   7   8
ENDBRANCH   5   7
ENDBRANCH   4   5
BRANCH   4  15
HETATM   15  C7  UNL     1      18.601   7.339  45.975  1.00  0.00     0.022 A 
HETATM   16  C8  UNL     1      17.930   7.879  47.083  1.00  0.00     0.016 A 
HETATM   17  C9  UNL     1      18.277   7.588  48.376  1.00  0.00     0.001 A 
HETATM   18  C10 UNL     1      19.307   6.745  48.611  1.00  0.00     0.001 A 
HETATM   19  C11 UNL     1      19.988   6.196  47.554  1.00  0.00     0.015 A 
HETATM   20  C12 UNL     1      19.649   6.481  46.214  1.00  0.00     0.015 A 
BRANCH  20  21
HETATM   21  C13 UNL     1      20.403   5.874  45.142  1.00  0.00     0.271 C 
HETATM   22  O4  UNL     1      21.064   4.817  45.446  1.00  0.00    -0.301 OA
ENDBRANCH  20  21
ENDBRANCH   4  15
TORSDOF 6
ENDMDL
MODEL 4
REMARK VINA RESULT: -8.668682529      1.236      1.833
REMARK  6 active torsions:
REMARK  status: ('A' for Active; 'I' for Inactive)
REMARK    1  A    between atoms: C1_4  and  N2_5 
REMARK    2  A    between atoms: C1_4  and  C7_15 
REMARK    3  A    between atoms: N2_5  and  O1_7 
REMARK    4  A    between atoms: O1_7  and  C2_8 
REMARK    5  A    between atoms: C2_8  and  C3_10 
REMARK    6  A    between atoms: C12_20  and  C13_21 
ROOT
HETATM    1  N1  UNL     1      17.369   8.327  48.108  1.00  0.00    -0.383 N 
ATOM      2  H11 UNL     1      17.792   7.605  48.692  1.00  0.00     0.157 HD
ATOM      3  H12 UNL     1      16.692   8.962  48.530  1.00  0.00     0.157 HD
HETATM    4  C1  UNL     1      17.708   8.399  46.876  1.00  0.00     0.130 C 
ENDROOT
BRANCH   4   5
HETATM    5  N2  UNL     1      17.113   9.413  46.055  1.00  0.00    -0.241 N 
ATOM      6  H2  UNL     1      17.662  10.250  45.858  1.00  0.00     0.196 HD
BRANCH   5   7
HETATM    7  O1  UNL     1      15.873   9.334  45.524  1.00  0.00    -0.192 OA
BRANCH   7   8
HETATM    8  C2  UNL     1      15.580   9.190  44.180  1.00  0.00     0.339 C 
HETATM    9  O2  UNL     1      15.410   8.021  43.747  1.00  0.00    -0.255 OA
BRANCH   8  10
HETATM   10  C3  UNL     1      15.471  10.349  43.301  1.00  0.00     0.151 A 
HETATM   11  C4  UNL     1      16.021  11.602  43.453  1.00  0.00     0.045 A 
HETATM   12  C5  UNL     1      15.643  12.362  42.372  1.00  0.00     0.027 A 
HETATM   13  C6  UNL     1      14.871  11.539  41.595  1.00  0.00     0.143 A 
HETATM   14  O3  UNL     1      14.795  10.371  42.175  1.00  0.00    -0.317 OA
ENDBRANCH   8  10
ENDBRANCH   7   8
ENDBRANCH   5   7
ENDBRANCH   4   5
BRANCH   4  15
HETATM   15  C7  UNL     1      18.668   7.497  46.278  1.00  0.00     0.022 A 
HETATM   16  C8  UNL     1      18.758   7.529  44.878  1.00  0.00     0.016 A 
HETATM   17  C9  UNL     1      19.620   6.734  44.171  1.00  0.00     0.001 A 
HETATM   18  C10 UNL     1      20.425   5.877  44.836  1.00  0.00     0.001 A 
HETATM   19  C11 UNL     1      20.368   5.816  46.205  1.00  0.00     0.015 A 
HETATM   20  C12 UNL     1      19.488   6.625  46.955  1.00  0.00     0.015 A 
BRANCH  20  21
HETATM   21  C13 UNL     1      19.470   6.517  48.395  1.00  0.00     0.271 C 
HETATM   22  O4  UNL     1      18.648   5.663  48.887  1.00  0.00    -0.301 OA
ENDBRANCH  20  21
ENDBRANCH   4  15
TORSDOF 6
ENDMDL
MODEL 5
REMARK VINA RESULT: -8.648907992      2.838      4.261
REMARK  6 active torsions:
REMARK  status: ('A' for Active; 'I' for Inactive)
REMARK    1  A    between atoms: C1_4  and  N2_5 
REMARK    2  A    between atoms: C1_4  and  C7_15 
REMARK    3  A    between atoms: N2_5  and  O1_7 
REMARK    4  A    between atoms: O1_7  and  C2_8 
REMARK    5  A    between atoms: C2_8  and  C3_10 
REMARK    6  A    between atoms: C12_20  and  C13_21 
ROOT
HETATM    1  N1  UNL     1      19.417   6.663  48.483  1.00  0.00    -0.383 N 
ATOM      2  H11 UNL     1      19.256   6.604  49.489  1.00  0.00     0.157 HD
ATOM      3  H12 UNL     1      18.783   7.229  47.919  1.00  0.00     0.157 HD
HETATM    4  C1  UNL     1      20.405   6.025  47.979  1.00  0.00     0.130 C 
ENDROOT
BRANCH   4   5
HETATM    5  N2  UNL     1      20.631   6.108  46.565  1.00  0.00    -0.241 N 
ATOM      6  H2  UNL     1      21.575   6.328  46.245  1.00  0.00     0.196 HD
BRANCH   5   7
HETATM    7  O1  UNL     1      19.677   5.914  45.628  1.00  0.00    -0.192 OA
BRANCH   7   8
HETATM    8  C2  UNL     1      19.198   6.874  44.756  1.00  0.00     0.339 C 
HETATM    9  O2  UNL     1      19.571   6.804  43.557  1.00  0.00    -0.255 OA
BRANCH   8  10
HETATM   10  C3  UNL     1      18.296   7.927  45.211  1.00  0.00     0.151 A 
HETATM   11  C4  UNL     1      17.571   8.826  44.462  1.00  0.00     0.045 A 
HETATM   12  C5  UNL     1      16.865   9.625  45.331  1.00  0.00     0.027 A 
HETATM   13  C6  UNL     1      17.188   9.179  46.586  1.00  0.00     0.143 A 
HETATM   14  O3  UNL     1      18.027   8.185  46.471  1.00  0.00    -0.317 OA
ENDBRANCH   8  10
ENDBRANCH   7   8
ENDBRANCH   5   7
ENDBRANCH   4   5
BRANCH   4  15
HETATM   15  C7  UNL     1      21.304   5.222  48.779  1.00  0.00     0.022 A 
HETATM   16  C8  UNL     1      20.948   3.875  48.945  1.00  0.00     0.016 A 
HETATM   17  C9  UNL     1      21.700   2.993  49.675  1.00  0.00     0.001 A 
HETATM   18  C10 UNL     1      22.835   3.424  50.268  1.00  0.00     0.001 A 
HETATM   19  C11 UNL     1      23.217   4.734  50.129  1.00  0.00     0.015 A 
HETATM   20  C12 UNL     1      22.459   5.661  49.382  1.00  0.00     0.015 A 
BRANCH  20  21
HETATM   21  C13 UNL     1      22.910   7.028  49.271  1.00  0.00     0.271 C 
HETATM   22  O4  UNL     1      22.491   7.836  50.176  1.00  0.00    -0.301 OA
ENDBRANCH  20  21
ENDBRANCH   4  15
TORSDOF 6
ENDMDL
