MODEL 1
REMARK VINA RESULT: -6.910148084      0.000      0.000
REMARK  5 active torsions:
REMARK  status: ('A' for Active; 'I' for Inactive)
REMARK    1  A    between atoms: O1_1  and  N1_3 
REMARK    2  A    between atoms: N1_3  and  C1_5 
REMARK    3  A    between atoms: C5_9  and  C6_10 
REMARK    4  A    between atoms: N2_11  and  N3_13 
REMARK    5  A    between atoms: N3_13  and  C7_15 
ROOT
HETATM    1  C1  UNL     1      19.153   6.844  46.443  1.00  0.00     0.071 A 
HETATM    2  C2  UNL     1      20.009   6.576  45.394  1.00  0.00     0.033 A 
HETATM    3  C3  UNL     1      19.826   7.127  44.163  1.00  0.00     0.003 A 
HETATM    4  C4  UNL     1      18.739   7.985  43.960  1.00  0.00     0.013 A 
HETATM    5  C5  UNL     1      17.860   8.277  44.982  1.00  0.00    -0.017 A 
HETATM    6  C8  UNL     1      18.105   7.687  46.201  1.00  0.00     0.045 A 
ENDROOT
BRANCH   5   7
HETATM    7  C6  UNL     1      16.730   9.171  44.768  1.00  0.00     0.118 C 
HETATM    8  N2  UNL     1      16.086   9.187  43.666  1.00  0.00    -0.310 N 
ATOM      9  H2  UNL     1      16.389   8.549  42.930  1.00  0.00     0.186 HD
BRANCH   8  10
HETATM   10  N3  UNL     1      15.005  10.010  43.398  1.00  0.00    -0.284 N 
ATOM     11  H3  UNL     1      14.092   9.766  43.782  1.00  0.00     0.188 HD
BRANCH  10  12
HETATM   12  C7  UNL     1      15.127  11.179  42.610  1.00  0.00     0.164 C 
HETATM   13  S2  UNL     1      14.483  11.207  41.091  1.00  0.00    -0.050 SA
HETATM   14  S3  UNL     1      15.958  12.644  43.194  1.00  0.00    -0.019 SA
ENDBRANCH  10  12
ENDBRANCH   8  10
ENDBRANCH   5   7
BRANCH   1  15
HETATM   15  N1  UNL     1      19.363   6.258  47.721  1.00  0.00    -0.185 N 
HETATM   16  S1  UNL     1      20.829   5.811  48.214  1.00  0.00     0.075 SA
BRANCH  15  17
HETATM   17  O1  UNL     1      18.309   6.059  48.577  1.00  0.00    -0.276 OA
ATOM     18  H1  UNL     1      17.510   6.548  48.421  1.00  0.00     0.246 HD
ENDBRANCH  15  17
ENDBRANCH   1  15
TORSDOF 5
ENDMDL
MODEL 2
REMARK VINA RESULT: -6.864755591      2.823      7.433
REMARK  5 active torsions:
REMARK  status: ('A' for Active; 'I' for Inactive)
REMARK    1  A    between atoms: O1_1  and  N1_3 
REMARK    2  A    between atoms: N1_3  and  C1_5 
REMARK    3  A    between atoms: C5_9  and  C6_10 
REMARK    4  A    between atoms: N2_11  and  N3_13 
REMARK    5  A    between atoms: N3_13  and  C7_15 
ROOT
HETATM    1  C1  UNL     1      18.380   7.734  45.533  1.00  0.00     0.071 A 
HETATM    2  C2  UNL     1      18.939   7.376  44.323  1.00  0.00     0.033 A 
HETATM    3  C3  UNL     1      19.962   6.483  44.245  1.00  0.00     0.003 A 
HETATM    4  C4  UNL     1      20.459   5.916  45.424  1.00  0.00     0.013 A 
HETATM    5  C5  UNL     1      19.928   6.249  46.653  1.00  0.00    -0.017 A 
HETATM    6  C8  UNL     1      18.895   7.158  46.660  1.00  0.00     0.045 A 
ENDROOT
BRANCH   5   7
HETATM    7  C6  UNL     1      20.446   5.657  47.880  1.00  0.00     0.118 C 
HETATM    8  N2  UNL     1      21.666   5.293  47.986  1.00  0.00    -0.310 N 
ATOM      9  H2  UNL     1      22.274   5.429  47.179  1.00  0.00     0.186 HD
BRANCH   8  10
HETATM   10  N3  UNL     1      22.221   4.725  49.121  1.00  0.00    -0.284 N 
ATOM     11  H3  UNL     1      21.938   3.783  49.389  1.00  0.00     0.188 HD
BRANCH  10  12
HETATM   12  C7  UNL     1      23.166   5.410  49.919  1.00  0.00     0.164 C 
HETATM   13  S2  UNL     1      24.277   4.551  50.784  1.00  0.00    -0.050 SA
HETATM   14  S3  UNL     1      23.211   7.189  50.033  1.00  0.00    -0.019 SA
ENDBRANCH  10  12
ENDBRANCH   8  10
ENDBRANCH   5   7
BRANCH   1  15
HETATM   15  N1  UNL     1      17.311   8.670  45.593  1.00  0.00    -0.185 N 
HETATM   16  S1  UNL     1      16.917   9.583  44.327  1.00  0.00     0.075 SA
BRANCH  15  17
HETATM   17  O1  UNL     1      16.579   8.818  46.745  1.00  0.00    -0.276 OA
ATOM     18  H1  UNL     1      16.808   8.276  47.490  1.00  0.00     0.246 HD
ENDBRANCH  15  17
ENDBRANCH   1  15
TORSDOF 5
ENDMDL
MODEL 3
REMARK VINA RESULT: -6.848087916      0.091      1.078
REMARK  5 active torsions:
REMARK  status: ('A' for Active; 'I' for Inactive)
REMARK    1  A    between atoms: O1_1  and  N1_3 
REMARK    2  A    between atoms: N1_3  and  C1_5 
REMARK    3  A    between atoms: C5_9  and  C6_10 
REMARK    4  A    between atoms: N2_11  and  N3_13 
REMARK    5  A    between atoms: N3_13  and  C7_15 
ROOT
HETATM    1  C1  UNL     1      19.210   6.802  46.460  1.00  0.00     0.071 A 
HETATM    2  C2  UNL     1      20.063   6.563  45.402  1.00  0.00     0.033 A 
HETATM    3  C3  UNL     1      19.857   7.121  44.178  1.00  0.00     0.003 A 
HETATM    4  C4  UNL     1      18.751   7.957  43.991  1.00  0.00     0.013 A 
HETATM    5  C5  UNL     1      17.874   8.220  45.024  1.00  0.00    -0.017 A 
HETATM    6  C8  UNL     1      18.141   7.624  46.235  1.00  0.00     0.045 A 
ENDROOT
BRANCH   5   7
HETATM    7  C6  UNL     1      16.722   9.091  44.827  1.00  0.00     0.118 C 
HETATM    8  N2  UNL     1      16.175   9.233  43.682  1.00  0.00    -0.310 N 
ATOM      9  H2  UNL     1      16.572   8.712  42.900  1.00  0.00     0.186 HD
BRANCH   8  10
HETATM   10  N3  UNL     1      15.082  10.043  43.428  1.00  0.00    -0.284 N 
ATOM     11  H3  UNL     1      14.186   9.812  43.860  1.00  0.00     0.188 HD
BRANCH  10  12
HETATM   12  C7  UNL     1      15.165  11.179  42.589  1.00  0.00     0.164 C 
HETATM   13  S2  UNL     1      15.964  12.523  43.115  1.00  0.00    -0.050 SA
HETATM   14  S3  UNL     1      14.435  11.221  40.963  1.00  0.00    -0.019 SA
ENDBRANCH  10  12
ENDBRANCH   8  10
ENDBRANCH   5   7
BRANCH   1  15
HETATM   15  N1  UNL     1      19.443   6.210  47.731  1.00  0.00    -0.185 N 
HETATM   16  S1  UNL     1      20.920   5.771  48.199  1.00  0.00     0.075 SA
BRANCH  15  17
HETATM   17  O1  UNL     1      18.403   5.995  48.601  1.00  0.00    -0.276 OA
ATOM     18  H1  UNL     1      17.547   5.811  48.233  1.00  0.00     0.246 HD
ENDBRANCH  15  17
ENDBRANCH   1  15
TORSDOF 5
ENDMDL
MODEL 4
REMARK VINA RESULT: -6.844594632      3.321      6.853
REMARK  5 active torsions:
REMARK  status: ('A' for Active; 'I' for Inactive)
REMARK    1  A    between atoms: O1_1  and  N1_3 
REMARK    2  A    between atoms: N1_3  and  C1_5 
REMARK    3  A    between atoms: C5_9  and  C6_10 
REMARK    4  A    between atoms: N2_11  and  N3_13 
REMARK    5  A    between atoms: N3_13  and  C7_15 
ROOT
HETATM    1  C1  UNL     1      15.882  11.464  43.506  1.00  0.00     0.071 A 
HETATM    2  C2  UNL     1      15.017  10.629  42.829  1.00  0.00     0.033 A 
HETATM    3  C3  UNL     1      14.854   9.326  43.187  1.00  0.00     0.003 A 
HETATM    4  C4  UNL     1      15.586   8.825  44.269  1.00  0.00     0.013 A 
HETATM    5  C5  UNL     1      16.463   9.627  44.970  1.00  0.00    -0.017 A 
HETATM    6  C8  UNL     1      16.578  10.934  44.556  1.00  0.00     0.045 A 
ENDROOT
BRANCH   5   7
HETATM    7  C6  UNL     1      17.224   9.102  46.097  1.00  0.00     0.118 C 
HETATM    8  N2  UNL     1      17.699   7.917  46.092  1.00  0.00    -0.310 N 
ATOM      9  H2  UNL     1      17.529   7.341  45.268  1.00  0.00     0.186 HD
BRANCH   8  10
HETATM   10  N3  UNL     1      18.429   7.359  47.128  1.00  0.00    -0.284 N 
ATOM     11  H3  UNL     1      18.126   7.522  48.088  1.00  0.00     0.188 HD
BRANCH  10  12
HETATM   12  C7  UNL     1      19.581   6.571  46.897  1.00  0.00     0.164 C 
HETATM   13  S2  UNL     1      20.073   6.281  45.349  1.00  0.00    -0.050 SA
HETATM   14  S3  UNL     1      20.538   5.866  48.225  1.00  0.00    -0.019 SA
ENDBRANCH  10  12
ENDBRANCH   8  10
ENDBRANCH   5   7
BRANCH   1  15
HETATM   15  N1  UNL     1      16.037  12.823  43.115  1.00  0.00    -0.185 N 
HETATM   16  S1  UNL     1      15.615  14.033  44.088  1.00  0.00     0.075 SA
BRANCH  15  17
HETATM   17  O1  UNL     1      16.557  13.139  41.885  1.00  0.00    -0.276 OA
ATOM     18  H1  UNL     1      17.115  12.498  41.460  1.00  0.00     0.246 HD
ENDBRANCH  15  17
ENDBRANCH   1  15
TORSDOF 5
ENDMDL
MODEL 5
REMARK VINA RESULT: -6.825956767      2.825      7.453
REMARK  5 active torsions:
REMARK  status: ('A' for Active; 'I' for Inactive)
REMARK    1  A    between atoms: O1_1  and  N1_3 
REMARK    2  A    between atoms: N1_3  and  C1_5 
REMARK    3  A    between atoms: C5_9  and  C6_10 
REMARK    4  A    between atoms: N2_11  and  N3_13 
REMARK    5  A    between atoms: N3_13  and  C7_15 
ROOT
HETATM    1  C1  UNL     1      18.390   7.746  45.509  1.00  0.00     0.071 A 
HETATM    2  C2  UNL     1      18.965   7.390  44.306  1.00  0.00     0.033 A 
HETATM    3  C3  UNL     1      19.988   6.495  44.240  1.00  0.00     0.003 A 
HETATM    4  C4  UNL     1      20.466   5.923  45.424  1.00  0.00     0.013 A 
HETATM    5  C5  UNL     1      19.919   6.254  46.647  1.00  0.00    -0.017 A 
HETATM    6  C8  UNL     1      18.887   7.165  46.641  1.00  0.00     0.045 A 
ENDROOT
BRANCH   5   7
HETATM    7  C6  UNL     1      20.418   5.657  47.879  1.00  0.00     0.118 C 
HETATM    8  N2  UNL     1      21.640   5.311  48.010  1.00  0.00    -0.310 N 
ATOM      9  H2  UNL     1      22.264   5.465  47.217  1.00  0.00     0.186 HD
BRANCH   8  10
HETATM   10  N3  UNL     1      22.178   4.740  49.150  1.00  0.00    -0.284 N 
ATOM     11  H3  UNL     1      21.857   3.815  49.437  1.00  0.00     0.188 HD
BRANCH  10  12
HETATM   12  C7  UNL     1      23.157   5.398  49.931  1.00  0.00     0.164 C 
HETATM   13  S2  UNL     1      23.226   7.046  49.932  1.00  0.00    -0.050 SA
HETATM   14  S3  UNL     1      24.339   4.510  50.929  1.00  0.00    -0.019 SA
ENDBRANCH  10  12
ENDBRANCH   8  10
ENDBRANCH   5   7
BRANCH   1  15
HETATM   15  N1  UNL     1      17.322   8.683  45.556  1.00  0.00    -0.185 N 
HETATM   16  S1  UNL     1      16.955   9.608  44.290  1.00  0.00     0.075 SA
BRANCH  15  17
HETATM   17  O1  UNL     1      16.569   8.824  46.695  1.00  0.00    -0.276 OA
ATOM     18  H1  UNL     1      15.625   8.756  46.615  1.00  0.00     0.246 HD
ENDBRANCH  15  17
ENDBRANCH   1  15
TORSDOF 5
ENDMDL
