MODEL 1
REMARK VINA RESULT: -7.928297722      0.000      0.000
REMARK  4 active torsions:
REMARK  status: ('A' for Active; 'I' for Inactive)
REMARK    1  A    between atoms: C2_2  and  C3_3 
REMARK    2  A    between atoms: C3_3  and  C4_4 
REMARK    3  A    between atoms: C4_4  and  C5_5 
REMARK    4  A    between atoms: C19_19  and  N1_20 
ROOT
HETATM    1  C5  UNL     1      66.445  46.996  30.409  1.00  0.00    -0.034 C 
HETATM    2  C6  UNL     1      67.621  47.297  31.233  1.00  0.00     0.010 C 
HETATM    3  C7  UNL     1      67.425  47.457  32.705  1.00  0.00     0.006 C 
HETATM    4  C8  UNL     1      66.016  47.543  33.140  1.00  0.00    -0.005 C 
HETATM    5  C9  UNL     1      65.675  48.382  34.283  1.00  0.00    -0.006 C 
HETATM    6  C10 UNL     1      65.654  47.821  35.644  1.00  0.00     0.005 C 
HETATM    7  C11 UNL     1      64.584  48.697  36.322  1.00  0.00     0.001 C 
HETATM    8  C12 UNL     1      63.781  49.323  35.166  1.00  0.00     0.005 C 
HETATM    9  C13 UNL     1      64.142  48.440  34.055  1.00  0.00    -0.006 C 
HETATM   10  C14 UNL     1      64.059  48.896  32.670  1.00  0.00    -0.009 C 
HETATM   11  C15 UNL     1      64.008  50.388  32.515  1.00  0.00     0.011 C 
HETATM   12  C16 UNL     1      65.304  48.360  32.034  1.00  0.00    -0.001 C 
HETATM   13  C17 UNL     1      65.114  47.356  30.956  1.00  0.00     0.001 C 
HETATM   14  C18 UNL     1      64.214  47.780  29.849  1.00  0.00     0.038 C 
HETATM   15  C19 UNL     1      65.147  48.298  28.813  1.00  0.00     0.186 C 
HETATM   16  C21 UNL     1      66.529  47.869  29.147  1.00  0.00     0.043 C 
ENDROOT
BRANCH   1  17
HETATM   17  C4  UNL     1      66.389  45.571  29.899  1.00  0.00     0.010 C 
BRANCH  17  18
HETATM   18  C3  UNL     1      67.386  44.660  30.524  1.00  0.00     0.000 C 
BRANCH  18  19
HETATM   19  C2  UNL     1      66.632  43.814  31.552  1.00  0.00    -0.005 C 
HETATM   20  C1  UNL     1      67.115  44.102  32.950  1.00  0.00     0.005 C 
ENDBRANCH  18  19
ENDBRANCH  17  18
ENDBRANCH   1  17
BRANCH  15  21
HETATM   21  N1  UNL     1      64.742  47.911  27.470  1.00  0.00    -0.075 N 
HETATM   22  C20 UNL     1      63.317  48.187  27.328  1.00  0.00     0.267 C 
ATOM     23  H12 UNL     1      65.304  48.358  26.745  1.00  0.00     0.277 HD
ATOM     24  H11 UNL     1      64.980  46.943  27.251  1.00  0.00     0.277 HD
ENDBRANCH  15  21
TORSDOF 4
ENDMDL
MODEL 2
REMARK VINA RESULT: -7.804077843      2.060      5.759
REMARK  4 active torsions:
REMARK  status: ('A' for Active; 'I' for Inactive)
REMARK    1  A    between atoms: C2_2  and  C3_3 
REMARK    2  A    between atoms: C3_3  and  C4_4 
REMARK    3  A    between atoms: C4_4  and  C5_5 
REMARK    4  A    between atoms: C19_19  and  N1_20 
ROOT
HETATM    1  C5  UNL     1      65.208  47.935  32.946  1.00  0.00    -0.034 C 
HETATM    2  C6  UNL     1      64.699  49.298  32.758  1.00  0.00     0.010 C 
HETATM    3  C7  UNL     1      63.861  49.575  31.554  1.00  0.00     0.006 C 
HETATM    4  C8  UNL     1      63.846  48.496  30.544  1.00  0.00    -0.005 C 
HETATM    5  C9  UNL     1      63.744  48.846  29.132  1.00  0.00    -0.006 C 
HETATM    6  C10 UNL     1      62.429  48.945  28.477  1.00  0.00     0.005 C 
HETATM    7  C11 UNL     1      62.775  48.555  27.029  1.00  0.00     0.001 C 
HETATM    8  C12 UNL     1      64.124  47.819  27.119  1.00  0.00     0.005 C 
HETATM    9  C13 UNL     1      64.170  47.476  28.542  1.00  0.00    -0.006 C 
HETATM   10  C14 UNL     1      65.441  47.236  29.221  1.00  0.00    -0.009 C 
HETATM   11  C15 UNL     1      66.638  47.776  28.495  1.00  0.00     0.011 C 
HETATM   12  C16 UNL     1      65.287  47.932  30.538  1.00  0.00    -0.001 C 
HETATM   13  C17 UNL     1      65.306  47.068  31.746  1.00  0.00     0.001 C 
HETATM   14  C18 UNL     1      66.491  46.176  31.867  1.00  0.00     0.038 C 
HETATM   15  C19 UNL     1      67.420  46.936  32.744  1.00  0.00     0.186 C 
HETATM   16  C21 UNL     1      66.676  48.047  33.391  1.00  0.00     0.043 C 
ENDROOT
BRANCH   1  17
HETATM   17  C4  UNL     1      64.520  47.158  34.049  1.00  0.00     0.010 C 
BRANCH  17  18
HETATM   18  C3  UNL     1      63.223  47.740  34.487  1.00  0.00     0.000 C 
BRANCH  18  19
HETATM   19  C2  UNL     1      63.353  48.044  35.980  1.00  0.00    -0.005 C 
HETATM   20  C1  UNL     1      63.239  49.523  36.245  1.00  0.00     0.005 C 
ENDBRANCH  18  19
ENDBRANCH  17  18
ENDBRANCH   1  17
BRANCH  15  21
HETATM   21  N1  UNL     1      68.097  46.074  33.701  1.00  0.00    -0.075 N 
HETATM   22  C20 UNL     1      67.561  44.726  33.557  1.00  0.00     0.267 C 
ATOM     23  H12 UNL     1      69.112  46.106  33.610  1.00  0.00     0.277 HD
ATOM     24  H11 UNL     1      68.034  46.423  34.658  1.00  0.00     0.277 HD
ENDBRANCH  15  21
TORSDOF 4
ENDMDL
MODEL 3
REMARK VINA RESULT: -7.655576393      0.910      1.080
REMARK  4 active torsions:
REMARK  status: ('A' for Active; 'I' for Inactive)
REMARK    1  A    between atoms: C2_2  and  C3_3 
REMARK    2  A    between atoms: C3_3  and  C4_4 
REMARK    3  A    between atoms: C4_4  and  C5_5 
REMARK    4  A    between atoms: C19_19  and  N1_20 
ROOT
HETATM    1  C5  UNL     1      66.093  47.245  30.056  1.00  0.00    -0.034 C 
HETATM    2  C6  UNL     1      67.414  47.435  30.663  1.00  0.00     0.010 C 
HETATM    3  C7  UNL     1      67.547  47.225  32.136  1.00  0.00     0.006 C 
HETATM    4  C8  UNL     1      66.268  47.093  32.864  1.00  0.00    -0.005 C 
HETATM    5  C9  UNL     1      66.169  47.607  34.226  1.00  0.00    -0.006 C 
HETATM    6  C10 UNL     1      66.465  46.739  35.377  1.00  0.00     0.005 C 
HETATM    7  C11 UNL     1      65.551  47.341  36.460  1.00  0.00     0.001 C 
HETATM    8  C12 UNL     1      64.495  48.157  35.691  1.00  0.00     0.005 C 
HETATM    9  C13 UNL     1      64.622  47.595  34.345  1.00  0.00    -0.006 C 
HETATM   10  C14 UNL     1      64.221  48.358  33.166  1.00  0.00    -0.009 C 
HETATM   11  C15 UNL     1      64.098  49.835  33.402  1.00  0.00     0.011 C 
HETATM   12  C16 UNL     1      65.307  48.090  32.171  1.00  0.00    -0.001 C 
HETATM   13  C17 UNL     1      64.907  47.358  30.942  1.00  0.00     0.001 C 
HETATM   14  C18 UNL     1      63.774  47.960  30.188  1.00  0.00     0.038 C 
HETATM   15  C19 UNL     1      64.439  48.781  29.142  1.00  0.00     0.186 C 
HETATM   16  C21 UNL     1      65.871  48.397  29.062  1.00  0.00     0.043 C 
ENDROOT
BRANCH   1  17
HETATM   17  C4  UNL     1      65.961  45.982  29.231  1.00  0.00     0.010 C 
BRANCH  17  18
HETATM   18  C3  UNL     1      65.611  44.771  30.021  1.00  0.00     0.000 C 
BRANCH  18  19
HETATM   19  C2  UNL     1      66.926  44.176  30.528  1.00  0.00    -0.005 C 
HETATM   20  C1  UNL     1      66.804  43.735  31.964  1.00  0.00     0.005 C 
ENDBRANCH  18  19
ENDBRANCH  17  18
ENDBRANCH   1  17
BRANCH  15  21
HETATM   21  N1  UNL     1      63.755  48.692  27.861  1.00  0.00    -0.075 N 
HETATM   22  C20 UNL     1      64.400  49.618  26.936  1.00  0.00     0.267 C 
ATOM     23  H12 UNL     1      63.716  47.739  27.501  1.00  0.00     0.277 HD
ATOM     24  H11 UNL     1      62.750  48.851  27.939  1.00  0.00     0.277 HD
ENDBRANCH  15  21
TORSDOF 4
ENDMDL
MODEL 4
REMARK VINA RESULT: -7.404732520      2.023      4.306
REMARK  4 active torsions:
REMARK  status: ('A' for Active; 'I' for Inactive)
REMARK    1  A    between atoms: C2_2  and  C3_3 
REMARK    2  A    between atoms: C3_3  and  C4_4 
REMARK    3  A    between atoms: C4_4  and  C5_5 
REMARK    4  A    between atoms: C19_19  and  N1_20 
ROOT
HETATM    1  C5  UNL     1      62.564  47.505  29.998  1.00  0.00    -0.034 C 
HETATM    2  C6  UNL     1      61.779  46.712  30.951  1.00  0.00     0.010 C 
HETATM    3  C7  UNL     1      61.833  47.094  32.394  1.00  0.00     0.006 C 
HETATM    4  C8  UNL     1      62.878  48.080  32.738  1.00  0.00    -0.005 C 
HETATM    5  C9  UNL     1      63.530  47.999  34.041  1.00  0.00    -0.006 C 
HETATM    6  C10 UNL     1      62.996  48.744  35.193  1.00  0.00     0.005 C 
HETATM    7  C11 UNL     1      64.275  49.008  36.008  1.00  0.00     0.001 C 
HETATM    8  C12 UNL     1      65.436  48.818  35.014  1.00  0.00     0.005 C 
HETATM    9  C13 UNL     1      64.736  48.924  33.732  1.00  0.00    -0.006 C 
HETATM   10  C14 UNL     1      65.282  48.317  32.521  1.00  0.00    -0.009 C 
HETATM   11  C15 UNL     1      66.320  47.264  32.775  1.00  0.00     0.011 C 
HETATM   12  C16 UNL     1      64.090  47.707  31.851  1.00  0.00    -0.001 C 
HETATM   13  C17 UNL     1      63.716  48.274  30.530  1.00  0.00     0.001 C 
HETATM   14  C18 UNL     1      64.809  48.302  29.521  1.00  0.00     0.038 C 
HETATM   15  C19 UNL     1      64.595  47.060  28.731  1.00  0.00     0.186 C 
HETATM   16  C21 UNL     1      63.243  46.523  29.030  1.00  0.00     0.043 C 
ENDROOT
BRANCH   1  17
HETATM   17  C4  UNL     1      61.737  48.419  29.117  1.00  0.00     0.010 C 
BRANCH  17  18
HETATM   18  C3  UNL     1      60.947  47.710  28.075  1.00  0.00     0.000 C 
BRANCH  18  19
HETATM   19  C2  UNL     1      59.471  47.932  28.408  1.00  0.00    -0.005 C 
HETATM   20  C1  UNL     1      58.783  46.628  28.720  1.00  0.00     0.005 C 
ENDBRANCH  18  19
ENDBRANCH  17  18
ENDBRANCH   1  17
BRANCH  15  21
HETATM   21  N1  UNL     1      64.820  47.271  27.309  1.00  0.00    -0.075 N 
HETATM   22  C20 UNL     1      64.834  48.708  27.059  1.00  0.00     0.267 C 
ATOM     23  H12 UNL     1      65.661  46.805  26.970  1.00  0.00     0.277 HD
ATOM     24  H11 UNL     1      64.144  46.776  26.726  1.00  0.00     0.277 HD
ENDBRANCH  15  21
TORSDOF 4
ENDMDL
MODEL 5
REMARK VINA RESULT: -7.381188389      2.244      6.029
REMARK  4 active torsions:
REMARK  status: ('A' for Active; 'I' for Inactive)
REMARK    1  A    between atoms: C2_2  and  C3_3 
REMARK    2  A    between atoms: C3_3  and  C4_4 
REMARK    3  A    between atoms: C4_4  and  C5_5 
REMARK    4  A    between atoms: C19_19  and  N1_20 
ROOT
HETATM    1  C5  UNL     1      64.587  48.614  33.276  1.00  0.00    -0.034 C 
HETATM    2  C6  UNL     1      64.445  49.961  32.713  1.00  0.00     0.010 C 
HETATM    3  C7  UNL     1      63.983  50.086  31.298  1.00  0.00     0.006 C 
HETATM    4  C8  UNL     1      63.961  48.820  30.536  1.00  0.00    -0.005 C 
HETATM    5  C9  UNL     1      64.261  48.844  29.109  1.00  0.00    -0.006 C 
HETATM    6  C10 UNL     1      63.182  49.005  28.120  1.00  0.00     0.005 C 
HETATM    7  C11 UNL     1      63.754  48.237  26.914  1.00  0.00     0.001 C 
HETATM    8  C12 UNL     1      64.852  47.329  27.495  1.00  0.00     0.005 C 
HETATM    9  C13 UNL     1      64.499  47.323  28.916  1.00  0.00    -0.006 C 
HETATM   10  C14 UNL     1      65.498  47.040  29.943  1.00  0.00    -0.009 C 
HETATM   11  C15 UNL     1      66.917  47.190  29.478  1.00  0.00     0.011 C 
HETATM   12  C16 UNL     1      65.207  48.038  31.020  1.00  0.00    -0.001 C 
HETATM   13  C17 UNL     1      64.761  47.488  32.325  1.00  0.00     0.001 C 
HETATM   14  C18 UNL     1      65.663  46.464  32.921  1.00  0.00     0.038 C 
HETATM   15  C19 UNL     1      66.512  47.243  33.861  1.00  0.00     0.186 C 
HETATM   16  C21 UNL     1      65.903  48.581  34.070  1.00  0.00     0.043 C 
ENDROOT
BRANCH   1  17
HETATM   17  C4  UNL     1      63.513  48.240  34.277  1.00  0.00     0.010 C 
BRANCH  17  18
HETATM   18  C3  UNL     1      63.255  49.279  35.310  1.00  0.00     0.000 C 
BRANCH  18  19
HETATM   19  C2  UNL     1      63.128  48.552  36.650  1.00  0.00    -0.005 C 
HETATM   20  C1  UNL     1      63.113  47.058  36.458  1.00  0.00     0.005 C 
ENDBRANCH  18  19
ENDBRANCH  17  18
ENDBRANCH   1  17
BRANCH  15  21
HETATM   21  N1  UNL     1      66.749  46.526  35.105  1.00  0.00    -0.075 N 
HETATM   22  C20 UNL     1      66.500  47.443  36.212  1.00  0.00     0.267 C 
ATOM     23  H12 UNL     1      66.203  45.668  35.175  1.00  0.00     0.277 HD
ATOM     24  H11 UNL     1      67.676  46.103  35.145  1.00  0.00     0.277 HD
ENDBRANCH  15  21
TORSDOF 4
ENDMDL
