MODEL 1
REMARK VINA RESULT: -9.440695026      0.000      0.000
REMARK  5 active torsions:
REMARK  status: ('A' for Active; 'I' for Inactive)
REMARK    1  A    between atoms: C14_14  and  C15_15 
REMARK    2  A    between atoms: C15_15  and  C16_16 
REMARK    3  A    between atoms: C16_16  and  C17_17 
REMARK    4  A    between atoms: C17_17  and  C18_18 
REMARK    5  A    between atoms: C18_18  and  O1_19 
ROOT
HETATM    1  C1  UNL     1      66.687  46.274  33.446  1.00  0.00     0.015 C 
HETATM    2  C2  UNL     1      66.395  47.570  32.682  1.00  0.00    -0.048 C 
HETATM    3  C3  UNL     1      67.023  48.691  33.504  1.00  0.00     0.015 C 
HETATM    4  C4  UNL     1      64.943  47.848  32.566  1.00  0.00     0.009 C 
HETATM    5  C5  UNL     1      64.546  48.563  31.277  1.00  0.00     0.007 C 
HETATM    6  C6  UNL     1      64.277  47.511  30.268  1.00  0.00     0.003 C 
HETATM    7  C7  UNL     1      65.546  47.109  29.505  1.00  0.00    -0.035 C 
HETATM    8  C8  UNL     1      66.573  46.505  30.414  1.00  0.00     0.011 C 
HETATM    9  C9  UNL     1      67.140  47.479  31.383  1.00  0.00     0.009 C 
HETATM   10  C10 UNL     1      66.118  48.199  28.679  1.00  0.00     0.014 C 
HETATM   11  C11 UNL     1      65.293  48.654  27.531  1.00  0.00    -0.013 C 
HETATM   12  C12 UNL     1      64.351  49.750  27.979  1.00  0.00     0.005 C 
HETATM   13  C13 UNL     1      63.195  49.206  28.765  1.00  0.00     0.011 C 
HETATM   14  C14 UNL     1      63.323  47.788  29.182  1.00  0.00    -0.032 C 
HETATM   15  C19 UNL     1      63.773  46.857  28.064  1.00  0.00    -0.005 C 
HETATM   16  C20 UNL     1      64.418  47.597  26.927  1.00  0.00     0.010 C 
HETATM   17  C21 UNL     1      64.892  46.019  28.657  1.00  0.00     0.015 C 
ENDROOT
BRANCH  14  18
HETATM   18  C15 UNL     1      61.916  47.268  29.529  1.00  0.00     0.010 C 
BRANCH  18  19
HETATM   19  C16 UNL     1      60.859  47.739  28.634  1.00  0.00     0.003 C 
BRANCH  19  20
HETATM   20  C17 UNL     1      59.471  47.220  28.866  1.00  0.00     0.026 C 
BRANCH  20  21
HETATM   21  C18 UNL     1      58.393  47.797  28.002  1.00  0.00     0.164 C 
BRANCH  21  22
HETATM   22  O1  UNL     1      57.720  48.865  28.557  1.00  0.00    -0.401 OA
ATOM     23  H1  UNL     1      57.320  49.453  27.927  1.00  0.00     0.209 HD
ENDBRANCH  21  22
ENDBRANCH  20  21
ENDBRANCH  19  20
ENDBRANCH  18  19
ENDBRANCH  14  18
TORSDOF 5
ENDMDL
MODEL 2
REMARK VINA RESULT: -8.635998194      2.655      6.073
REMARK  5 active torsions:
REMARK  status: ('A' for Active; 'I' for Inactive)
REMARK    1  A    between atoms: C14_14  and  C15_15 
REMARK    2  A    between atoms: C15_15  and  C16_16 
REMARK    3  A    between atoms: C16_16  and  C17_17 
REMARK    4  A    between atoms: C17_17  and  C18_18 
REMARK    5  A    between atoms: C18_18  and  O1_19 
ROOT
HETATM    1  C1  UNL     1      64.808  49.024  28.417  1.00  0.00     0.015 C 
HETATM    2  C2  UNL     1      64.531  47.963  29.489  1.00  0.00    -0.048 C 
HETATM    3  C3  UNL     1      63.202  47.321  29.108  1.00  0.00     0.015 C 
HETATM    4  C4  UNL     1      64.384  48.549  30.844  1.00  0.00     0.009 C 
HETATM    5  C5  UNL     1      64.879  47.646  31.970  1.00  0.00     0.007 C 
HETATM    6  C6  UNL     1      66.318  47.943  32.158  1.00  0.00     0.003 C 
HETATM    7  C7  UNL     1      67.206  47.083  31.249  1.00  0.00    -0.035 C 
HETATM    8  C8  UNL     1      66.950  47.361  29.798  1.00  0.00     0.011 C 
HETATM    9  C9  UNL     1      65.602  46.922  29.349  1.00  0.00     0.009 C 
HETATM   10  C10 UNL     1      67.142  45.633  31.549  1.00  0.00     0.014 C 
HETATM   11  C11 UNL     1      67.685  45.211  32.866  1.00  0.00    -0.013 C 
HETATM   12  C12 UNL     1      66.595  45.279  33.913  1.00  0.00     0.005 C 
HETATM   13  C13 UNL     1      66.312  46.691  34.334  1.00  0.00     0.011 C 
HETATM   14  C14 UNL     1      66.925  47.741  33.483  1.00  0.00    -0.032 C 
HETATM   15  C19 UNL     1      68.395  47.498  33.172  1.00  0.00    -0.005 C 
HETATM   16  C20 UNL     1      68.798  46.067  33.390  1.00  0.00     0.010 C 
HETATM   17  C21 UNL     1      68.534  47.707  31.674  1.00  0.00     0.015 C 
ENDROOT
BRANCH  14  18
HETATM   18  C15 UNL     1      66.948  49.050  34.292  1.00  0.00     0.010 C 
BRANCH  18  19
HETATM   19  C16 UNL     1      65.877  49.170  35.281  1.00  0.00     0.003 C 
BRANCH  19  20
HETATM   20  C17 UNL     1      64.601  49.828  34.845  1.00  0.00     0.026 C 
BRANCH  20  21
HETATM   21  C18 UNL     1      63.336  49.267  35.417  1.00  0.00     0.164 C 
BRANCH  21  22
HETATM   22  O1  UNL     1      62.756  50.040  36.401  1.00  0.00    -0.401 OA
ATOM     23  H1  UNL     1      63.367  50.558  36.911  1.00  0.00     0.209 HD
ENDBRANCH  21  22
ENDBRANCH  20  21
ENDBRANCH  19  20
ENDBRANCH  18  19
ENDBRANCH  14  18
TORSDOF 5
ENDMDL
MODEL 3
REMARK VINA RESULT: -8.400132017      3.220      6.455
REMARK  5 active torsions:
REMARK  status: ('A' for Active; 'I' for Inactive)
REMARK    1  A    between atoms: C14_14  and  C15_15 
REMARK    2  A    between atoms: C15_15  and  C16_16 
REMARK    3  A    between atoms: C16_16  and  C17_17 
REMARK    4  A    between atoms: C17_17  and  C18_18 
REMARK    5  A    between atoms: C18_18  and  O1_19 
ROOT
HETATM    1  C1  UNL     1      64.654  46.664  28.729  1.00  0.00     0.015 C 
HETATM    2  C2  UNL     1      65.442  47.710  29.527  1.00  0.00    -0.048 C 
HETATM    3  C3  UNL     1      66.310  48.444  28.510  1.00  0.00     0.015 C 
HETATM    4  C4  UNL     1      66.340  47.097  30.536  1.00  0.00     0.009 C 
HETATM    5  C5  UNL     1      66.524  47.937  31.797  1.00  0.00     0.007 C 
HETATM    6  C6  UNL     1      65.444  47.545  32.735  1.00  0.00     0.003 C 
HETATM    7  C7  UNL     1      64.170  48.373  32.522  1.00  0.00    -0.035 C 
HETATM    8  C8  UNL     1      63.585  48.151  31.159  1.00  0.00     0.011 C 
HETATM    9  C9  UNL     1      64.437  48.685  30.064  1.00  0.00     0.009 C 
HETATM   10  C10 UNL     1      64.337  49.815  32.819  1.00  0.00     0.014 C 
HETATM   11  C11 UNL     1      64.605  50.165  34.237  1.00  0.00    -0.013 C 
HETATM   12  C12 UNL     1      66.095  50.137  34.499  1.00  0.00     0.005 C 
HETATM   13  C13 UNL     1      66.616  48.734  34.609  1.00  0.00     0.011 C 
HETATM   14  C14 UNL     1      65.672  47.672  34.183  1.00  0.00    -0.032 C 
HETATM   15  C19 UNL     1      64.269  47.832  34.753  1.00  0.00    -0.005 C 
HETATM   16  C20 UNL     1      64.004  49.228  35.241  1.00  0.00     0.010 C 
HETATM   17  C21 UNL     1      63.327  47.655  33.575  1.00  0.00     0.015 C 
ENDROOT
BRANCH  14  18
HETATM   18  C15 UNL     1      66.150  46.342  34.792  1.00  0.00     0.010 C 
BRANCH  18  19
HETATM   19  C16 UNL     1      67.578  46.075  34.616  1.00  0.00     0.003 C 
BRANCH  19  20
HETATM   20  C17 UNL     1      67.967  44.994  33.650  1.00  0.00     0.026 C 
BRANCH  20  21
HETATM   21  C18 UNL     1      66.849  44.172  33.088  1.00  0.00     0.164 C 
BRANCH  21  22
HETATM   22  O1  UNL     1      66.925  43.948  31.729  1.00  0.00    -0.401 OA
ATOM     23  H1  UNL     1      67.707  43.488  31.445  1.00  0.00     0.209 HD
ENDBRANCH  21  22
ENDBRANCH  20  21
ENDBRANCH  19  20
ENDBRANCH  18  19
ENDBRANCH  14  18
TORSDOF 5
ENDMDL
MODEL 4
REMARK VINA RESULT: -7.582378593      2.390      5.705
REMARK  5 active torsions:
REMARK  status: ('A' for Active; 'I' for Inactive)
REMARK    1  A    between atoms: C14_14  and  C15_15 
REMARK    2  A    between atoms: C15_15  and  C16_16 
REMARK    3  A    between atoms: C16_16  and  C17_17 
REMARK    4  A    between atoms: C17_17  and  C18_18 
REMARK    5  A    between atoms: C18_18  and  O1_19 
ROOT
HETATM    1  C1  UNL     1      62.791  49.048  28.519  1.00  0.00     0.015 C 
HETATM    2  C2  UNL     1      62.975  47.866  29.479  1.00  0.00    -0.048 C 
HETATM    3  C3  UNL     1      61.610  47.195  29.582  1.00  0.00     0.015 C 
HETATM    4  C4  UNL     1      63.377  48.296  30.840  1.00  0.00     0.009 C 
HETATM    5  C5  UNL     1      64.288  47.307  31.562  1.00  0.00     0.007 C 
HETATM    6  C6  UNL     1      65.680  47.662  31.199  1.00  0.00     0.003 C 
HETATM    7  C7  UNL     1      66.138  46.953  29.917  1.00  0.00    -0.035 C 
HETATM    8  C8  UNL     1      65.321  47.369  28.731  1.00  0.00     0.011 C 
HETATM    9  C9  UNL     1      63.910  46.906  28.803  1.00  0.00     0.009 C 
HETATM   10  C10 UNL     1      66.212  45.479  30.043  1.00  0.00     0.014 C 
HETATM   11  C11 UNL     1      67.239  44.951  30.977  1.00  0.00    -0.013 C 
HETATM   12  C12 UNL     1      66.659  44.847  32.370  1.00  0.00     0.005 C 
HETATM   13  C13 UNL     1      66.555  46.189  33.034  1.00  0.00     0.011 C 
HETATM   14  C14 UNL     1      66.768  47.355  32.141  1.00  0.00    -0.032 C 
HETATM   15  C19 UNL     1      67.993  47.228  31.246  1.00  0.00    -0.005 C 
HETATM   16  C20 UNL     1      68.462  45.807  31.115  1.00  0.00     0.010 C 
HETATM   17  C21 UNL     1      67.520  47.602  29.853  1.00  0.00     0.015 C 
ENDROOT
BRANCH  14  18
HETATM   18  C15 UNL     1      67.101  48.571  33.024  1.00  0.00     0.010 C 
BRANCH  18  19
HETATM   19  C16 UNL     1      66.491  48.539  34.353  1.00  0.00     0.003 C 
BRANCH  19  20
HETATM   20  C17 UNL     1      65.405  49.534  34.642  1.00  0.00     0.026 C 
BRANCH  20  21
HETATM   21  C18 UNL     1      64.045  48.971  34.915  1.00  0.00     0.164 C 
BRANCH  21  22
HETATM   22  O1  UNL     1      63.258  49.743  35.743  1.00  0.00    -0.401 OA
ATOM     23  H1  UNL     1      62.322  49.609  35.641  1.00  0.00     0.209 HD
ENDBRANCH  21  22
ENDBRANCH  20  21
ENDBRANCH  19  20
ENDBRANCH  18  19
ENDBRANCH  14  18
TORSDOF 5
ENDMDL
MODEL 5
REMARK VINA RESULT: -7.515377895      3.162      5.543
REMARK  5 active torsions:
REMARK  status: ('A' for Active; 'I' for Inactive)
REMARK    1  A    between atoms: C14_14  and  C15_15 
REMARK    2  A    between atoms: C15_15  and  C16_16 
REMARK    3  A    between atoms: C16_16  and  C17_17 
REMARK    4  A    between atoms: C17_17  and  C18_18 
REMARK    5  A    between atoms: C18_18  and  O1_19 
ROOT
HETATM    1  C1  UNL     1      69.446  46.223  33.709  1.00  0.00     0.015 C 
HETATM    2  C2  UNL     1      67.970  45.808  33.666  1.00  0.00    -0.048 C 
HETATM    3  C3  UNL     1      67.965  44.283  33.656  1.00  0.00     0.015 C 
HETATM    4  C4  UNL     1      67.284  46.275  32.436  1.00  0.00     0.009 C 
HETATM    5  C5  UNL     1      65.809  46.612  32.636  1.00  0.00     0.007 C 
HETATM    6  C6  UNL     1      65.744  48.037  33.037  1.00  0.00     0.003 C 
HETATM    7  C7  UNL     1      65.859  48.211  34.558  1.00  0.00    -0.035 C 
HETATM    8  C8  UNL     1      67.184  47.734  35.073  1.00  0.00     0.011 C 
HETATM    9  C9  UNL     1      67.359  46.262  34.958  1.00  0.00     0.009 C 
HETATM   10  C10 UNL     1      64.731  47.619  35.315  1.00  0.00     0.014 C 
HETATM   11  C11 UNL     1      63.402  48.250  35.110  1.00  0.00    -0.013 C 
HETATM   12  C12 UNL     1      62.702  47.600  33.937  1.00  0.00     0.005 C 
HETATM   13  C13 UNL     1      63.268  48.059  32.625  1.00  0.00     0.011 C 
HETATM   14  C14 UNL     1      64.540  48.818  32.715  1.00  0.00    -0.032 C 
HETATM   15  C19 UNL     1      64.528  49.913  33.773  1.00  0.00    -0.005 C 
HETATM   16  C20 UNL     1      63.443  49.714  34.792  1.00  0.00     0.010 C 
HETATM   17  C21 UNL     1      65.819  49.739  34.553  1.00  0.00     0.015 C 
ENDROOT
BRANCH  14  18
HETATM   18  C15 UNL     1      64.717  49.600  31.401  1.00  0.00     0.010 C 
BRANCH  18  19
HETATM   19  C16 UNL     1      64.093  48.974  30.235  1.00  0.00     0.003 C 
BRANCH  19  20
HETATM   20  C17 UNL     1      64.959  48.726  29.035  1.00  0.00     0.026 C 
BRANCH  20  21
HETATM   21  C18 UNL     1      65.798  47.487  29.067  1.00  0.00     0.164 C 
BRANCH  21  22
HETATM   22  O1  UNL     1      67.138  47.704  29.313  1.00  0.00    -0.401 OA
ATOM     23  H1  UNL     1      67.325  48.137  30.138  1.00  0.00     0.209 HD
ENDBRANCH  21  22
ENDBRANCH  20  21
ENDBRANCH  19  20
ENDBRANCH  18  19
ENDBRANCH  14  18
TORSDOF 5
ENDMDL
