MODEL 1
REMARK VINA RESULT: -8.866047633      0.000      0.000
REMARK  4 active torsions:
REMARK  status: ('A' for Active; 'I' for Inactive)
REMARK    1  A    between atoms: C2_2  and  C3_3 
REMARK    2  A    between atoms: N1_9  and  C9_10 
REMARK    3  A    between atoms: C9_10  and  C10_11 
REMARK    4  A    between atoms: C13_14  and  C14_15 
ROOT
HETATM    1  C3  UNL     1      67.002  46.439  31.839  1.00  0.00     0.014 C 
HETATM    2  C4  UNL     1      68.537  46.448  31.978  1.00  0.00     0.013 C 
HETATM    3  C5  UNL     1      68.980  46.264  33.385  1.00  0.00     0.001 C 
HETATM    4  C6  UNL     1      68.158  47.214  34.230  1.00  0.00     0.002 C 
HETATM    5  C7  UNL     1      67.445  48.245  33.381  1.00  0.00     0.037 C 
HETATM    6  C8  UNL     1      66.364  47.525  32.560  1.00  0.00     0.235 C 
HETATM    7  N1  UNL     1      65.550  48.526  31.836  1.00  0.00     0.125 N 
HETATM    8  C13 UNL     1      65.468  48.245  30.481  1.00  0.00     0.424 C 
HETATM    9  N2  UNL     1      65.428  46.794  30.176  1.00  0.00    -0.042 N 
ATOM     10  H21 UNL     1      65.029  46.567  29.266  1.00  0.00     0.279 HD
ATOM     11  H22 UNL     1      64.751  46.266  30.728  1.00  0.00     0.279 HD
HETATM   12  C20 UNL     1      66.794  46.369  30.348  1.00  0.00     0.246 C 
ENDROOT
BRANCH   8  13
HETATM   13  C14 UNL     1      64.661  48.879  29.464  1.00  0.00     0.047 C 
HETATM   14  C15 UNL     1      65.218  48.839  28.059  1.00  0.00     0.008 C 
HETATM   15  C16 UNL     1      64.370  49.724  27.163  1.00  0.00     0.000 C 
HETATM   16  C17 UNL     1      63.052  49.002  27.004  1.00  0.00     0.000 C 
HETATM   17  C18 UNL     1      62.413  48.926  28.369  1.00  0.00     0.000 C 
HETATM   18  C19 UNL     1      63.293  48.141  29.310  1.00  0.00     0.008 C 
ENDBRANCH   8  13
BRANCH   7  19
HETATM   19  C9  UNL     1      64.423  48.802  32.652  1.00  0.00     0.279 C 
BRANCH  19  20
HETATM   20  C10 UNL     1      63.914  47.859  33.649  1.00  0.00     0.006 C 
HETATM   21  C11 UNL     1      63.708  48.553  35.028  1.00  0.00     0.011 C 
HETATM   22  C12 UNL     1      62.460  47.417  33.370  1.00  0.00     0.011 C 
ENDBRANCH  19  20
ENDBRANCH   7  19
BRANCH   1  23
HETATM   23  C2  UNL     1      66.542  45.095  32.391  1.00  0.00     0.009 C 
HETATM   24  C1  UNL     1      66.859  43.916  31.553  1.00  0.00     0.006 C 
ENDBRANCH   1  23
TORSDOF 4
ENDMDL
MODEL 2
REMARK VINA RESULT: -8.682914785      1.141      5.556
REMARK  4 active torsions:
REMARK  status: ('A' for Active; 'I' for Inactive)
REMARK    1  A    between atoms: C2_2  and  C3_3 
REMARK    2  A    between atoms: N1_9  and  C9_10 
REMARK    3  A    between atoms: C9_10  and  C10_11 
REMARK    4  A    between atoms: C13_14  and  C14_15 
ROOT
HETATM    1  C3  UNL     1      64.941  48.324  28.780  1.00  0.00     0.014 C 
HETATM    2  C4  UNL     1      64.091  47.518  27.778  1.00  0.00     0.013 C 
HETATM    3  C5  UNL     1      62.941  48.299  27.252  1.00  0.00     0.001 C 
HETATM    4  C6  UNL     1      62.264  48.937  28.447  1.00  0.00     0.002 C 
HETATM    5  C7  UNL     1      62.728  48.320  29.749  1.00  0.00     0.037 C 
HETATM    6  C8  UNL     1      64.198  48.710  29.966  1.00  0.00     0.235 C 
HETATM    7  N1  UNL     1      64.635  48.251  31.303  1.00  0.00     0.125 N 
HETATM    8  C13 UNL     1      65.798  47.500  31.239  1.00  0.00     0.424 C 
HETATM    9  N2  UNL     1      66.742  47.955  30.189  1.00  0.00    -0.042 N 
ATOM     10  H21 UNL     1      67.709  47.668  30.341  1.00  0.00     0.279 HD
ATOM     11  H22 UNL     1      66.924  48.959  30.193  1.00  0.00     0.279 HD
HETATM   12  C20 UNL     1      66.162  47.461  28.966  1.00  0.00     0.246 C 
ENDROOT
BRANCH   8  13
HETATM   13  C14 UNL     1      66.623  46.998  32.314  1.00  0.00     0.047 C 
HETATM   14  C15 UNL     1      67.024  45.545  32.216  1.00  0.00     0.008 C 
HETATM   15  C16 UNL     1      67.694  45.126  33.512  1.00  0.00     0.000 C 
HETATM   16  C17 UNL     1      69.034  45.825  33.525  1.00  0.00     0.000 C 
HETATM   17  C18 UNL     1      68.765  47.309  33.565  1.00  0.00     0.000 C 
HETATM   18  C19 UNL     1      68.002  47.733  32.335  1.00  0.00     0.008 C 
ENDBRANCH   8  13
BRANCH   7  19
HETATM   19  C9  UNL     1      64.452  49.344  32.189  1.00  0.00     0.279 C 
BRANCH  19  20
HETATM   20  C10 UNL     1      64.000  49.179  33.572  1.00  0.00     0.006 C 
HETATM   21  C11 UNL     1      63.417  47.754  33.808  1.00  0.00     0.011 C 
HETATM   22  C12 UNL     1      65.166  49.144  34.584  1.00  0.00     0.011 C 
ENDBRANCH  19  20
ENDBRANCH   7  19
BRANCH   1  23
HETATM   23  C2  UNL     1      65.412  49.562  28.026  1.00  0.00     0.009 C 
HETATM   24  C1  UNL     1      66.347  49.311  26.905  1.00  0.00     0.006 C 
ENDBRANCH   1  23
TORSDOF 4
ENDMDL
MODEL 3
REMARK VINA RESULT: -8.634143372      1.084      5.503
REMARK  4 active torsions:
REMARK  status: ('A' for Active; 'I' for Inactive)
REMARK    1  A    between atoms: C2_2  and  C3_3 
REMARK    2  A    between atoms: N1_9  and  C9_10 
REMARK    3  A    between atoms: C9_10  and  C10_11 
REMARK    4  A    between atoms: C13_14  and  C14_15 
ROOT
HETATM    1  C3  UNL     1      64.958  48.336  28.577  1.00  0.00     0.014 C 
HETATM    2  C4  UNL     1      64.084  47.641  27.514  1.00  0.00     0.013 C 
HETATM    3  C5  UNL     1      62.815  48.372  27.258  1.00  0.00     0.001 C 
HETATM    4  C6  UNL     1      62.215  48.693  28.610  1.00  0.00     0.002 C 
HETATM    5  C7  UNL     1      62.874  47.900  29.718  1.00  0.00     0.037 C 
HETATM    6  C8  UNL     1      64.316  48.406  29.876  1.00  0.00     0.235 C 
HETATM    7  N1  UNL     1      64.937  47.756  31.052  1.00  0.00     0.125 N 
HETATM    8  C13 UNL     1      66.151  47.167  30.738  1.00  0.00     0.424 C 
HETATM    9  N2  UNL     1      66.929  47.914  29.719  1.00  0.00    -0.042 N 
ATOM     10  H21 UNL     1      67.929  47.715  29.725  1.00  0.00     0.279 HD
ATOM     11  H22 UNL     1      67.015  48.914  29.906  1.00  0.00     0.279 HD
HETATM   12  C20 UNL     1      66.268  47.596  28.479  1.00  0.00     0.246 C 
ENDROOT
BRANCH   8  13
HETATM   13  C14 UNL     1      67.131  46.569  31.615  1.00  0.00     0.047 C 
HETATM   14  C15 UNL     1      67.759  47.493  32.632  1.00  0.00     0.008 C 
HETATM   15  C16 UNL     1      68.906  46.772  33.318  1.00  0.00     0.000 C 
HETATM   16  C17 UNL     1      68.263  45.722  34.195  1.00  0.00     0.000 C 
HETATM   17  C18 UNL     1      67.546  44.755  33.286  1.00  0.00     0.000 C 
HETATM   18  C19 UNL     1      66.469  45.473  32.511  1.00  0.00     0.008 C 
ENDBRANCH   8  13
BRANCH   7  19
HETATM   19  C9  UNL     1      64.750  48.635  32.149  1.00  0.00     0.279 C 
BRANCH  19  20
HETATM   20  C10 UNL     1      64.341  48.174  33.477  1.00  0.00     0.006 C 
HETATM   21  C11 UNL     1      64.211  49.365  34.473  1.00  0.00     0.011 C 
HETATM   22  C12 UNL     1      62.886  47.657  33.512  1.00  0.00     0.011 C 
ENDBRANCH  19  20
ENDBRANCH   7  19
BRANCH   1  23
HETATM   23  C2  UNL     1      65.227  49.738  28.044  1.00  0.00     0.009 C 
HETATM   24  C1  UNL     1      66.163  49.819  26.899  1.00  0.00     0.006 C 
ENDBRANCH   1  23
TORSDOF 4
ENDMDL
MODEL 4
REMARK VINA RESULT: -8.136306539      0.560      1.121
REMARK  4 active torsions:
REMARK  status: ('A' for Active; 'I' for Inactive)
REMARK    1  A    between atoms: C2_2  and  C3_3 
REMARK    2  A    between atoms: N1_9  and  C9_10 
REMARK    3  A    between atoms: C9_10  and  C10_11 
REMARK    4  A    between atoms: C13_14  and  C14_15 
ROOT
HETATM    1  C3  UNL     1      67.140  46.242  31.892  1.00  0.00     0.014 C 
HETATM    2  C4  UNL     1      68.649  46.420  32.153  1.00  0.00     0.013 C 
HETATM    3  C5  UNL     1      68.965  46.517  33.602  1.00  0.00     0.001 C 
HETATM    4  C6  UNL     1      67.992  47.513  34.196  1.00  0.00     0.002 C 
HETATM    5  C7  UNL     1      67.285  48.314  33.124  1.00  0.00     0.037 C 
HETATM    6  C8  UNL     1      66.350  47.367  32.356  1.00  0.00     0.235 C 
HETATM    7  N1  UNL     1      65.534  48.151  31.403  1.00  0.00     0.125 N 
HETATM    8  C13 UNL     1      65.607  47.640  30.117  1.00  0.00     0.424 C 
HETATM    9  N2  UNL     1      65.713  46.162  30.069  1.00  0.00    -0.042 N 
ATOM     10  H21 UNL     1      65.423  45.748  29.183  1.00  0.00     0.279 HD
ATOM     11  H22 UNL     1      65.029  45.672  30.647  1.00  0.00     0.279 HD
HETATM   12  C20 UNL     1      67.085  45.903  30.424  1.00  0.00     0.246 C 
ENDROOT
BRANCH   8  13
HETATM   13  C14 UNL     1      64.855  48.015  28.941  1.00  0.00     0.047 C 
HETATM   14  C15 UNL     1      63.351  47.975  29.076  1.00  0.00     0.008 C 
HETATM   15  C16 UNL     1      62.722  48.182  27.710  1.00  0.00     0.000 C 
HETATM   16  C17 UNL     1      62.972  49.631  27.360  1.00  0.00     0.000 C 
HETATM   17  C18 UNL     1      64.465  49.816  27.250  1.00  0.00     0.000 C 
HETATM   18  C19 UNL     1      65.125  49.510  28.572  1.00  0.00     0.008 C 
ENDBRANCH   8  13
BRANCH   7  19
HETATM   19  C9  UNL     1      64.315  48.452  32.062  1.00  0.00     0.279 C 
BRANCH  19  20
HETATM   20  C10 UNL     1      63.894  47.785  33.296  1.00  0.00     0.006 C 
HETATM   21  C11 UNL     1      63.879  48.779  34.496  1.00  0.00     0.011 C 
HETATM   22  C12 UNL     1      62.402  47.385  33.284  1.00  0.00     0.011 C 
ENDBRANCH  19  20
ENDBRANCH   7  19
BRANCH   1  23
HETATM   23  C2  UNL     1      66.736  44.972  32.631  1.00  0.00     0.009 C 
HETATM   24  C1  UNL     1      66.889  43.711  31.870  1.00  0.00     0.006 C 
ENDBRANCH   1  23
TORSDOF 4
ENDMDL
MODEL 5
REMARK VINA RESULT: -7.733087628      1.854      4.089
REMARK  4 active torsions:
REMARK  status: ('A' for Active; 'I' for Inactive)
REMARK    1  A    between atoms: C2_2  and  C3_3 
REMARK    2  A    between atoms: N1_9  and  C9_10 
REMARK    3  A    between atoms: C9_10  and  C10_11 
REMARK    4  A    between atoms: C13_14  and  C14_15 
ROOT
HETATM    1  C3  UNL     1      65.643  47.810  32.806  1.00  0.00     0.014 C 
HETATM    2  C4  UNL     1      66.546  46.638  33.238  1.00  0.00     0.013 C 
HETATM    3  C5  UNL     1      67.990  46.938  33.058  1.00  0.00     0.001 C 
HETATM    4  C6  UNL     1      68.146  47.515  31.667  1.00  0.00     0.002 C 
HETATM    5  C7  UNL     1      66.913  47.279  30.821  1.00  0.00     0.037 C 
HETATM    6  C8  UNL     1      65.769  48.129  31.396  1.00  0.00     0.235 C 
HETATM    7  N1  UNL     1      64.594  48.038  30.501  1.00  0.00     0.125 N 
HETATM    8  C13 UNL     1      63.446  47.678  31.189  1.00  0.00     0.424 C 
HETATM    9  N2  UNL     1      63.378  48.232  32.563  1.00  0.00    -0.042 N 
ATOM     10  H21 UNL     1      62.436  48.282  32.950  1.00  0.00     0.279 HD
ATOM     11  H22 UNL     1      63.574  49.231  32.624  1.00  0.00     0.279 HD
HETATM   12  C20 UNL     1      64.284  47.401  33.315  1.00  0.00     0.246 C 
ENDROOT
BRANCH   8  13
HETATM   13  C14 UNL     1      62.080  47.625  30.722  1.00  0.00     0.047 C 
HETATM   14  C15 UNL     1      61.881  47.112  29.315  1.00  0.00     0.008 C 
HETATM   15  C16 UNL     1      60.433  47.322  28.908  1.00  0.00     0.000 C 
HETATM   16  C17 UNL     1      59.631  46.334  29.723  1.00  0.00     0.000 C 
HETATM   17  C18 UNL     1      59.796  46.711  31.175  1.00  0.00     0.000 C 
HETATM   18  C19 UNL     1      61.248  46.614  31.575  1.00  0.00     0.008 C 
ENDBRANCH   8  13
BRANCH   7  19
HETATM   19  C9  UNL     1      64.668  49.145  29.618  1.00  0.00     0.279 C 
BRANCH  19  20
HETATM   20  C10 UNL     1      64.943  49.004  28.187  1.00  0.00     0.006 C 
HETATM   21  C11 UNL     1      64.884  47.510  27.747  1.00  0.00     0.011 C 
HETATM   22  C12 UNL     1      63.813  49.571  27.299  1.00  0.00     0.011 C 
ENDBRANCH  19  20
ENDBRANCH   7  19
BRANCH   1  23
HETATM   23  C2  UNL     1      66.069  49.000  33.657  1.00  0.00     0.009 C 
HETATM   24  C1  UNL     1      65.717  48.920  35.093  1.00  0.00     0.006 C 
ENDBRANCH   1  23
TORSDOF 4
ENDMDL
