MODEL 1
REMARK VINA RESULT: -6.910701360      0.000      0.000
REMARK  4 active torsions:
REMARK  status: ('A' for Active; 'I' for Inactive)
REMARK    1  A    between atoms: C2_3  and  N2_4 
REMARK    2  A    between atoms: C3_8  and  N4_9 
REMARK    3  A    between atoms: C4_12  and  C5_13 
REMARK    4  A    between atoms: C5_13  and  C6_14 
ROOT
HETATM    1  N1  UNL     1      20.073  17.015  -6.589  1.00  0.00    -0.195 NA
HETATM    2  C1  UNL     1      19.384  17.961  -6.588  1.00  0.00     0.081 C 
HETATM    3  C2  UNL     1      18.537  19.146  -6.563  1.00  0.00     0.282 C 
ENDROOT
BRANCH   3   4
HETATM    4  N2  UNL     1      18.937  20.030  -7.624  1.00  0.00    -0.221 N 
HETATM    5  O1  UNL     1      19.681  19.665  -8.626  1.00  0.00    -0.152 OA
HETATM    6  N3  UNL     1      19.900  20.632  -9.436  1.00  0.00    -0.224 N 
HETATM    7  C3  UNL     1      19.265  21.720  -8.954  1.00  0.00     0.146 A 
ATOM      8  H3  UNL     1      20.454  20.587 -10.291  1.00  0.00     0.198 HD
HETATM    9  C4  UNL     1      18.640  21.345  -7.784  1.00  0.00     0.087 A 
BRANCH   7  10
HETATM   10  N4  UNL     1      19.279  22.883  -9.542  1.00  0.00    -0.382 N 
ATOM     11  H42 UNL     1      19.938  23.249 -10.230  1.00  0.00     0.157 HD
ATOM     12  H41 UNL     1      18.587  23.612  -9.367  1.00  0.00     0.157 HD
ENDBRANCH   7  10
BRANCH   9  13
HETATM   13  C5  UNL     1      17.800  22.191  -6.937  1.00  0.00     0.102 C 
BRANCH  13  14
HETATM   14  C6  UNL     1      16.336  21.992  -7.040  1.00  0.00    -0.052 A 
HETATM   15  C7  UNL     1      15.587  21.723  -5.906  1.00  0.00     0.007 A 
HETATM   16  C8  UNL     1      14.227  21.532  -5.979  1.00  0.00     0.001 A 
HETATM   17  C9  UNL     1      13.574  21.606  -7.184  1.00  0.00     0.000 A 
HETATM   18  C10 UNL     1      14.312  21.874  -8.316  1.00  0.00     0.001 A 
HETATM   19  C11 UNL     1      15.674  22.065  -8.246  1.00  0.00     0.007 A 
ENDBRANCH  13  14
ENDBRANCH   9  13
ENDBRANCH   3   4
TORSDOF 4
ENDMDL
MODEL 2
REMARK VINA RESULT: -6.909377210      0.027      1.183
REMARK  4 active torsions:
REMARK  status: ('A' for Active; 'I' for Inactive)
REMARK    1  A    between atoms: C2_3  and  N2_4 
REMARK    2  A    between atoms: C3_8  and  N4_9 
REMARK    3  A    between atoms: C4_12  and  C5_13 
REMARK    4  A    between atoms: C5_13  and  C6_14 
ROOT
HETATM    1  N1  UNL     1      20.075  17.020  -6.596  1.00  0.00    -0.195 NA
HETATM    2  C1  UNL     1      19.390  17.969  -6.594  1.00  0.00     0.081 C 
HETATM    3  C2  UNL     1      18.548  19.157  -6.569  1.00  0.00     0.282 C 
ENDROOT
BRANCH   3   4
HETATM    4  N2  UNL     1      18.945  20.035  -7.636  1.00  0.00    -0.221 N 
HETATM    5  O1  UNL     1      19.677  19.662  -8.643  1.00  0.00    -0.152 OA
HETATM    6  N3  UNL     1      19.896  20.625  -9.458  1.00  0.00    -0.224 N 
HETATM    7  C3  UNL     1      19.273  21.719  -8.973  1.00  0.00     0.146 A 
ATOM      8  H3  UNL     1      20.442  20.574 -10.318  1.00  0.00     0.198 HD
HETATM    9  C4  UNL     1      18.655  21.352  -7.797  1.00  0.00     0.087 A 
BRANCH   7  10
HETATM   10  N4  UNL     1      19.290  22.881  -9.564  1.00  0.00    -0.382 N 
ATOM     11  H42 UNL     1      20.082  23.499  -9.745  1.00  0.00     0.157 HD
ATOM     12  H41 UNL     1      18.457  23.337  -9.936  1.00  0.00     0.157 HD
ENDBRANCH   7  10
BRANCH   9  13
HETATM   13  C5  UNL     1      17.830  22.206  -6.944  1.00  0.00     0.102 C 
BRANCH  13  14
HETATM   14  C6  UNL     1      16.365  21.997  -7.012  1.00  0.00    -0.052 A 
HETATM   15  C7  UNL     1      15.707  22.057  -8.230  1.00  0.00     0.007 A 
HETATM   16  C8  UNL     1      14.348  21.868  -8.316  1.00  0.00     0.001 A 
HETATM   17  C9  UNL     1      13.604  21.613  -7.191  1.00  0.00     0.000 A 
HETATM   18  C10 UNL     1      14.251  21.551  -5.976  1.00  0.00     0.001 A 
HETATM   19  C11 UNL     1      15.613  21.740  -5.887  1.00  0.00     0.007 A 
ENDBRANCH  13  14
ENDBRANCH   9  13
ENDBRANCH   3   4
TORSDOF 4
ENDMDL
MODEL 3
REMARK VINA RESULT: -6.600521367      2.485      4.815
REMARK  4 active torsions:
REMARK  status: ('A' for Active; 'I' for Inactive)
REMARK    1  A    between atoms: C2_3  and  N2_4 
REMARK    2  A    between atoms: C3_8  and  N4_9 
REMARK    3  A    between atoms: C4_12  and  C5_13 
REMARK    4  A    between atoms: C5_13  and  C6_14 
ROOT
HETATM    1  N1  UNL     1      16.428  23.139  -8.411  1.00  0.00    -0.195 NA
HETATM    2  C1  UNL     1      17.335  22.823  -7.742  1.00  0.00     0.081 C 
HETATM    3  C2  UNL     1      18.448  22.426  -6.890  1.00  0.00     0.282 C 
ENDROOT
BRANCH   3   4
HETATM    4  N2  UNL     1      19.004  21.197  -7.388  1.00  0.00    -0.221 N 
HETATM    5  O1  UNL     1      19.940  21.142  -8.288  1.00  0.00    -0.152 OA
HETATM    6  N3  UNL     1      20.264  19.934  -8.567  1.00  0.00    -0.224 N 
HETATM    7  C3  UNL     1      19.500  19.122  -7.808  1.00  0.00     0.146 A 
ATOM      8  H3  UNL     1      20.972  19.640  -9.240  1.00  0.00     0.198 HD
HETATM    9  C4  UNL     1      18.682  19.924  -7.043  1.00  0.00     0.087 A 
BRANCH   7  10
HETATM   10  N4  UNL     1      19.577  17.821  -7.841  1.00  0.00    -0.382 N 
ATOM     11  H42 UNL     1      19.852  17.174  -7.101  1.00  0.00     0.157 HD
ATOM     12  H41 UNL     1      19.360  17.263  -8.666  1.00  0.00     0.157 HD
ENDBRANCH   7  10
BRANCH   9  13
HETATM   13  C5  UNL     1      17.713  19.477  -6.043  1.00  0.00     0.102 C 
BRANCH  13  14
HETATM   14  C6  UNL     1      18.163  19.478  -4.632  1.00  0.00    -0.052 A 
HETATM   15  C7  UNL     1      17.752  20.480  -3.769  1.00  0.00     0.007 A 
HETATM   16  C8  UNL     1      18.159  20.503  -2.456  1.00  0.00     0.001 A 
HETATM   17  C9  UNL     1      18.989  19.525  -1.964  1.00  0.00     0.000 A 
HETATM   18  C10 UNL     1      19.402  18.524  -2.817  1.00  0.00     0.001 A 
HETATM   19  C11 UNL     1      18.995  18.500  -4.132  1.00  0.00     0.007 A 
ENDBRANCH  13  14
ENDBRANCH   9  13
ENDBRANCH   3   4
TORSDOF 4
ENDMDL
MODEL 4
REMARK VINA RESULT: -6.586206967      2.484      4.807
REMARK  4 active torsions:
REMARK  status: ('A' for Active; 'I' for Inactive)
REMARK    1  A    between atoms: C2_3  and  N2_4 
REMARK    2  A    between atoms: C3_8  and  N4_9 
REMARK    3  A    between atoms: C4_12  and  C5_13 
REMARK    4  A    between atoms: C5_13  and  C6_14 
ROOT
HETATM    1  N1  UNL     1      16.420  23.142  -8.422  1.00  0.00    -0.195 NA
HETATM    2  C1  UNL     1      17.325  22.826  -7.750  1.00  0.00     0.081 C 
HETATM    3  C2  UNL     1      18.434  22.428  -6.894  1.00  0.00     0.282 C 
ENDROOT
BRANCH   3   4
HETATM    4  N2  UNL     1      18.993  21.200  -7.392  1.00  0.00    -0.221 N 
HETATM    5  O1  UNL     1      19.934  21.146  -8.287  1.00  0.00    -0.152 OA
HETATM    6  N3  UNL     1      20.259  19.939  -8.566  1.00  0.00    -0.224 N 
HETATM    7  C3  UNL     1      19.491  19.125  -7.813  1.00  0.00     0.146 A 
ATOM      8  H3  UNL     1      20.970  19.647  -9.237  1.00  0.00     0.198 HD
HETATM    9  C4  UNL     1      18.669  19.926  -7.050  1.00  0.00     0.087 A 
BRANCH   7  10
HETATM   10  N4  UNL     1      19.568  17.824  -7.848  1.00  0.00    -0.382 N 
ATOM     11  H42 UNL     1      19.511  17.155  -7.080  1.00  0.00     0.157 HD
ATOM     12  H41 UNL     1      19.708  17.290  -8.706  1.00  0.00     0.157 HD
ENDBRANCH   7  10
BRANCH   9  13
HETATM   13  C5  UNL     1      17.694  19.477  -6.057  1.00  0.00     0.102 C 
BRANCH  13  14
HETATM   14  C6  UNL     1      18.124  19.514  -4.640  1.00  0.00    -0.052 A 
HETATM   15  C7  UNL     1      18.991  18.552  -4.148  1.00  0.00     0.007 A 
HETATM   16  C8  UNL     1      19.401  18.565  -2.836  1.00  0.00     0.001 A 
HETATM   17  C9  UNL     1      18.960  19.539  -1.975  1.00  0.00     0.000 A 
HETATM   18  C10 UNL     1      18.098  20.501  -2.457  1.00  0.00     0.001 A 
HETATM   19  C11 UNL     1      17.685  20.489  -3.771  1.00  0.00     0.007 A 
ENDBRANCH  13  14
ENDBRANCH   9  13
ENDBRANCH   3   4
TORSDOF 4
ENDMDL
MODEL 5
REMARK VINA RESULT: -6.551275973      1.820      3.510
REMARK  4 active torsions:
REMARK  status: ('A' for Active; 'I' for Inactive)
REMARK    1  A    between atoms: C2_3  and  N2_4 
REMARK    2  A    between atoms: C3_8  and  N4_9 
REMARK    3  A    between atoms: C4_12  and  C5_13 
REMARK    4  A    between atoms: C5_13  and  C6_14 
ROOT
HETATM    1  N1  UNL     1      20.593  21.069  -8.721  1.00  0.00    -0.195 NA
HETATM    2  C1  UNL     1      20.005  20.062  -8.629  1.00  0.00     0.081 C 
HETATM    3  C2  UNL     1      19.289  18.796  -8.531  1.00  0.00     0.282 C 
ENDROOT
BRANCH   3   4
HETATM    4  N2  UNL     1      19.421  18.286  -7.193  1.00  0.00    -0.221 N 
HETATM    5  O1  UNL     1      19.928  17.123  -6.911  1.00  0.00    -0.152 OA
HETATM    6  N3  UNL     1      19.934  16.897  -5.650  1.00  0.00    -0.224 N 
HETATM    7  C3  UNL     1      19.400  17.975  -5.041  1.00  0.00     0.146 A 
ATOM      8  H3  UNL     1      20.281  16.055  -5.191  1.00  0.00     0.198 HD
HETATM    9  C4  UNL     1      19.064  18.879  -6.025  1.00  0.00     0.087 A 
BRANCH   7  10
HETATM   10  N4  UNL     1      19.260  18.078  -3.748  1.00  0.00    -0.382 N 
ATOM     11  H42 UNL     1      19.961  17.969  -3.014  1.00  0.00     0.157 HD
ATOM     12  H41 UNL     1      18.373  18.290  -3.292  1.00  0.00     0.157 HD
ENDBRANCH   7  10
BRANCH   9  13
HETATM   13  C5  UNL     1      18.489  20.209  -5.826  1.00  0.00     0.102 C 
BRANCH  13  14
HETATM   14  C6  UNL     1      17.054  20.369  -6.156  1.00  0.00    -0.052 A 
HETATM   15  C7  UNL     1      16.119  19.479  -5.654  1.00  0.00     0.007 A 
HETATM   16  C8  UNL     1      14.782  19.606  -5.949  1.00  0.00     0.001 A 
HETATM   17  C9  UNL     1      14.338  20.627  -6.753  1.00  0.00     0.000 A 
HETATM   18  C10 UNL     1      15.262  21.517  -7.256  1.00  0.00     0.001 A 
HETATM   19  C11 UNL     1      16.601  21.391  -6.962  1.00  0.00     0.007 A 
ENDBRANCH  13  14
ENDBRANCH   9  13
ENDBRANCH   3   4
TORSDOF 4
ENDMDL
