MODEL 1
REMARK VINA RESULT: -8.673168278      0.000      0.000
REMARK  2 active torsions:
REMARK  status: ('A' for Active; 'I' for Inactive)
REMARK       I    between atoms: N1_2  and  C2_4 
REMARK       I    between atoms: C2_4  and  N2_6 
REMARK    1  A    between atoms: N2_6  and  C3_8 
REMARK    2  A    between atoms: C7_14  and  N4_15 
ROOT
HETATM    1  C3  UNL     1       9.214   3.028  20.490  1.00  0.00     0.687 A 
HETATM    2  N3  UNL     1       9.793   4.239  20.492  1.00  0.00    -0.189 N 
ATOM      3  H3  UNL     1       9.956   4.820  19.669  1.00  0.00     0.184 HD
HETATM    4  C4  UNL     1      10.122   4.561  21.754  1.00  0.00     0.076 A 
HETATM    5  C5  UNL     1      10.733   5.685  22.300  1.00  0.00     0.034 A 
HETATM    6  C6  UNL     1      10.928   5.702  23.649  1.00  0.00     0.032 A 
HETATM    7  C7  UNL     1      10.554   4.670  24.502  1.00  0.00     0.035 A 
HETATM    8  C15 UNL     1       9.954   3.577  23.945  1.00  0.00     0.061 A 
HETATM    9  C16 UNL     1       9.736   3.520  22.572  1.00  0.00     0.078 A 
HETATM   10  N9  UNL     1       9.193   2.615  21.768  1.00  0.00    -0.189 N 
ATOM     11  H9  UNL     1       8.810   1.722  22.080  1.00  0.00     0.184 HD
ENDROOT
BRANCH   7  12
HETATM   12  N4  UNL     1      10.821   4.833  25.871  1.00  0.00    -0.353 N 
HETATM   13  C8  UNL     1      10.047   5.271  26.762  1.00  0.00     0.087 A 
HETATM   14  C9  UNL     1      10.473   5.365  28.063  1.00  0.00     0.051 A 
HETATM   15  C12 UNL     1       8.768   5.663  26.443  1.00  0.00     0.108 A 
HETATM   16  C10 UNL     1      11.847   4.961  28.492  1.00  0.00     0.072 C 
HETATM   17  N5  UNL     1       9.589   5.845  28.959  1.00  0.00    -0.301 N 
HETATM   18  N6  UNL     1       8.367   6.222  28.671  1.00  0.00    -0.283 N 
ATOM     19  H5  UNL     1       9.891   5.921  29.930  1.00  0.00     0.186 HD
HETATM   20  C11 UNL     1       7.906   6.149  27.411  1.00  0.00     0.152 A 
ATOM     21  H6  UNL     1       7.760   6.575  29.410  1.00  0.00     0.188 HD
HETATM   22  N8  UNL     1       6.714   6.465  26.854  1.00  0.00    -0.331 N 
HETATM   23  C13 UNL     1       6.812   6.184  25.541  1.00  0.00     0.184 A 
HETATM   24  C14 UNL     1       5.574   7.003  27.574  1.00  0.00     0.158 C 
HETATM   25  N7  UNL     1       8.039   5.705  25.295  1.00  0.00    -0.347 N 
ATOM     26  H7  UNL     1       8.378   5.414  24.378  1.00  0.00     0.167 HD
ATOM     27  H4  UNL     1      11.754   4.562  26.182  1.00  0.00     0.166 HD
ENDBRANCH   7  12
BRANCH   1  28
HETATM   28  N2  UNL     1       8.773   2.408  19.443  1.00  0.00    -0.141 N 
HETATM   29  C2  UNL     1       9.597   1.466  18.772  1.00  0.00     0.334 C 
HETATM   30  N1  UNL     1       9.132   0.142  18.622  1.00  0.00    -0.347 N 
HETATM   31  O1  UNL     1      10.727   1.766  18.305  1.00  0.00    -0.247 OA
HETATM   32  C1  UNL     1       9.961  -0.823  17.942  1.00  0.00     0.151 C 
ATOM     33  H1  UNL     1       8.220  -0.130  18.992  1.00  0.00     0.163 HD
ATOM     34  H2  UNL     1       7.831   2.597  19.099  1.00  0.00     0.189 HD
ENDBRANCH   1  28
TORSDOF 2
ENDMDL
MODEL 2
REMARK VINA RESULT: -8.615942891      2.868      7.850
REMARK  2 active torsions:
REMARK  status: ('A' for Active; 'I' for Inactive)
REMARK       I    between atoms: N1_2  and  C2_4 
REMARK       I    between atoms: C2_4  and  N2_6 
REMARK    1  A    between atoms: N2_6  and  C3_8 
REMARK    2  A    between atoms: C7_14  and  N4_15 
ROOT
HETATM    1  C3  UNL     1       8.684   6.079  24.840  1.00  0.00     0.687 A 
HETATM    2  N3  UNL     1       9.911   5.734  25.262  1.00  0.00    -0.189 N 
ATOM      3  H3  UNL     1      10.296   5.926  26.187  1.00  0.00     0.184 HD
HETATM    4  C4  UNL     1      10.549   5.093  24.267  1.00  0.00     0.076 A 
HETATM    5  C5  UNL     1      11.820   4.536  24.182  1.00  0.00     0.034 A 
HETATM    6  C6  UNL     1      12.169   3.944  23.005  1.00  0.00     0.032 A 
HETATM    7  C7  UNL     1      11.335   3.867  21.895  1.00  0.00     0.035 A 
HETATM    8  C15 UNL     1      10.091   4.420  22.001  1.00  0.00     0.061 A 
HETATM    9  C16 UNL     1       9.695   5.032  23.186  1.00  0.00     0.078 A 
HETATM   10  N9  UNL     1       8.581   5.640  23.574  1.00  0.00    -0.189 N 
ATOM     11  H9  UNL     1       7.754   5.758  22.989  1.00  0.00     0.184 HD
ENDROOT
BRANCH   7  12
HETATM   12  N4  UNL     1      11.837   3.225  20.751  1.00  0.00    -0.353 N 
HETATM   13  C8  UNL     1      11.663   2.029  20.399  1.00  0.00     0.087 A 
HETATM   14  C9  UNL     1      12.230   1.560  19.240  1.00  0.00     0.051 A 
HETATM   15  C12 UNL     1      10.905   1.179  21.168  1.00  0.00     0.108 A 
HETATM   16  C10 UNL     1      13.067   2.420  18.348  1.00  0.00     0.072 C 
HETATM   17  N5  UNL     1      12.001   0.270  18.930  1.00  0.00    -0.301 N 
HETATM   18  N6  UNL     1      11.281  -0.553  19.653  1.00  0.00    -0.283 N 
ATOM     19  H5  UNL     1      12.416  -0.093  18.072  1.00  0.00     0.186 HD
HETATM   20  C11 UNL     1      10.706  -0.140  20.794  1.00  0.00     0.152 A 
ATOM     21  H6  UNL     1      11.156  -1.518  19.346  1.00  0.00     0.188 HD
HETATM   22  N8  UNL     1       9.932  -0.769  21.707  1.00  0.00    -0.331 N 
HETATM   23  C13 UNL     1       9.637   0.138  22.659  1.00  0.00     0.184 A 
HETATM   24  C14 UNL     1       9.521  -2.160  21.636  1.00  0.00     0.158 C 
HETATM   25  N7  UNL     1      10.219   1.301  22.336  1.00  0.00    -0.347 N 
ATOM     26  H7  UNL     1      10.156   2.156  22.888  1.00  0.00     0.167 HD
ATOM     27  H4  UNL     1      12.410   3.796  20.131  1.00  0.00     0.166 HD
ENDBRANCH   7  12
BRANCH   1  28
HETATM   28  N2  UNL     1       7.800   6.710  25.542  1.00  0.00    -0.141 N 
HETATM   29  C2  UNL     1       6.514   6.141  25.747  1.00  0.00     0.334 C 
HETATM   30  N1  UNL     1       6.072   5.922  27.070  1.00  0.00    -0.347 N 
HETATM   31  O1  UNL     1       5.754   5.824  24.796  1.00  0.00    -0.247 OA
HETATM   32  C1  UNL     1       4.768   5.345  27.290  1.00  0.00     0.151 C 
ATOM     33  H1  UNL     1       6.668   6.169  27.861  1.00  0.00     0.163 HD
ATOM     34  H2  UNL     1       8.025   7.618  25.948  1.00  0.00     0.189 HD
ENDBRANCH   1  28
TORSDOF 2
ENDMDL
MODEL 3
REMARK VINA RESULT: -8.593117959      3.223      4.818
REMARK  2 active torsions:
REMARK  status: ('A' for Active; 'I' for Inactive)
REMARK       I    between atoms: N1_2  and  C2_4 
REMARK       I    between atoms: C2_4  and  N2_6 
REMARK    1  A    between atoms: N2_6  and  C3_8 
REMARK    2  A    between atoms: C7_14  and  N4_15 
ROOT
HETATM    1  C3  UNL     1      13.492   0.416  18.827  1.00  0.00     0.687 A 
HETATM    2  N3  UNL     1      12.191   0.086  18.840  1.00  0.00    -0.189 N 
ATOM      3  H3  UNL     1      11.695  -0.399  18.093  1.00  0.00     0.184 HD
HETATM    4  C4  UNL     1      11.650   0.500  19.998  1.00  0.00     0.076 A 
HETATM    5  C5  UNL     1      10.359   0.410  20.508  1.00  0.00     0.034 A 
HETATM    6  C6  UNL     1      10.133   0.941  21.743  1.00  0.00     0.032 A 
HETATM    7  C7  UNL     1      11.109   1.562  22.514  1.00  0.00     0.035 A 
HETATM    8  C15 UNL     1      12.369   1.639  21.994  1.00  0.00     0.061 A 
HETATM    9  C16 UNL     1      12.643   1.108  20.737  1.00  0.00     0.078 A 
HETATM   10  N9  UNL     1      13.739   1.036  19.992  1.00  0.00    -0.189 N 
ATOM     11  H9  UNL     1      14.650   1.403  20.269  1.00  0.00     0.184 HD
ENDROOT
BRANCH   7  12
HETATM   12  N4  UNL     1      10.723   2.062  23.768  1.00  0.00    -0.353 N 
HETATM   13  C8  UNL     1      10.321   3.222  24.046  1.00  0.00     0.087 A 
HETATM   14  C9  UNL     1       9.981   3.546  25.336  1.00  0.00     0.051 A 
HETATM   15  C12 UNL     1      10.217   4.178  23.063  1.00  0.00     0.108 A 
HETATM   16  C10 UNL     1      10.065   2.565  26.461  1.00  0.00     0.072 C 
HETATM   17  N5  UNL     1       9.560   4.807  25.555  1.00  0.00    -0.301 N 
HETATM   18  N6  UNL     1       9.456   5.728  24.630  1.00  0.00    -0.283 N 
ATOM     19  H5  UNL     1       9.305   5.062  26.509  1.00  0.00     0.186 HD
HETATM   20  C11 UNL     1       9.777   5.458  23.354  1.00  0.00     0.152 A 
ATOM     21  H6  UNL     1       9.128   6.661  24.880  1.00  0.00     0.188 HD
HETATM   22  N8  UNL     1       9.761   6.209  22.229  1.00  0.00    -0.331 N 
HETATM   23  C13 UNL     1      10.188   5.418  21.226  1.00  0.00     0.184 A 
HETATM   24  C14 UNL     1       9.355   7.602  22.162  1.00  0.00     0.158 C 
HETATM   25  N7  UNL     1      10.460   4.205  21.725  1.00  0.00    -0.347 N 
ATOM     26  H7  UNL     1      10.801   3.414  21.179  1.00  0.00     0.167 HD
ATOM     27  H4  UNL     1      10.775   1.407  24.548  1.00  0.00     0.166 HD
ENDBRANCH   7  12
BRANCH   1  28
HETATM   28  N2  UNL     1      14.319   0.168  17.863  1.00  0.00    -0.141 N 
HETATM   29  C2  UNL     1      14.239  -1.060  17.152  1.00  0.00     0.334 C 
HETATM   30  N1  UNL     1      14.049  -1.024  15.754  1.00  0.00    -0.347 N 
HETATM   31  O1  UNL     1      14.331  -2.178  17.721  1.00  0.00    -0.247 OA
HETATM   32  C1  UNL     1      13.967  -2.265  15.022  1.00  0.00     0.151 C 
ATOM     33  H1  UNL     1      13.970  -0.131  15.266  1.00  0.00     0.163 HD
ATOM     34  H2  UNL     1      15.030   0.856  17.613  1.00  0.00     0.189 HD
ENDBRANCH   1  28
TORSDOF 2
ENDMDL
MODEL 4
REMARK VINA RESULT: -8.453749849      2.917      4.920
REMARK  2 active torsions:
REMARK  status: ('A' for Active; 'I' for Inactive)
REMARK       I    between atoms: N1_2  and  C2_4 
REMARK       I    between atoms: C2_4  and  N2_6 
REMARK    1  A    between atoms: N2_6  and  C3_8 
REMARK    2  A    between atoms: C7_14  and  N4_15 
ROOT
HETATM    1  C3  UNL     1      13.297   1.107  18.469  1.00  0.00     0.687 A 
HETATM    2  N3  UNL     1      11.988   1.067  18.175  1.00  0.00    -0.189 N 
ATOM      3  H3  UNL     1      11.540   0.392  17.556  1.00  0.00     0.184 HD
HETATM    4  C4  UNL     1      11.365   2.062  18.829  1.00  0.00     0.076 A 
HETATM    5  C5  UNL     1      10.032   2.458  18.873  1.00  0.00     0.034 A 
HETATM    6  C6  UNL     1       9.721   3.532  19.652  1.00  0.00     0.032 A 
HETATM    7  C7  UNL     1      10.651   4.247  20.399  1.00  0.00     0.035 A 
HETATM    8  C15 UNL     1      11.953   3.841  20.342  1.00  0.00     0.061 A 
HETATM    9  C16 UNL     1      12.313   2.749  19.559  1.00  0.00     0.078 A 
HETATM   10  N9  UNL     1      13.466   2.139  19.312  1.00  0.00    -0.189 N 
ATOM     11  H9  UNL     1      14.362   2.418  19.711  1.00  0.00     0.184 HD
ENDROOT
BRANCH   7  12
HETATM   12  N4  UNL     1      10.177   5.333  21.154  1.00  0.00    -0.353 N 
HETATM   13  C8  UNL     1       9.935   5.366  22.389  1.00  0.00     0.087 A 
HETATM   14  C9  UNL     1       9.474   6.519  22.972  1.00  0.00     0.051 A 
HETATM   15  C12 UNL     1      10.129   4.250  23.167  1.00  0.00     0.108 A 
HETATM   16  C10 UNL     1       9.237   7.775  22.197  1.00  0.00     0.072 C 
HETATM   17  N5  UNL     1       9.236   6.478  24.298  1.00  0.00    -0.301 N 
HETATM   18  N6  UNL     1       9.416   5.422  25.053  1.00  0.00    -0.283 N 
ATOM     19  H5  UNL     1       8.893   7.327  24.745  1.00  0.00     0.186 HD
HETATM   20  C11 UNL     1       9.866   4.271  24.527  1.00  0.00     0.152 A 
ATOM     21  H6  UNL     1       9.212   5.474  26.051  1.00  0.00     0.188 HD
HETATM   22  N8  UNL     1      10.133   3.061  25.069  1.00  0.00    -0.331 N 
HETATM   23  C13 UNL     1      10.562   2.270  24.067  1.00  0.00     0.184 A 
HETATM   24  C14 UNL     1       9.971   2.722  26.472  1.00  0.00     0.158 C 
HETATM   25  N7  UNL     1      10.560   2.981  22.931  1.00  0.00    -0.347 N 
ATOM     26  H7  UNL     1      10.841   2.622  22.019  1.00  0.00     0.167 HD
ATOM     27  H4  UNL     1      10.010   6.198  20.641  1.00  0.00     0.166 HD
ENDBRANCH   7  12
BRANCH   1  28
HETATM   28  N2  UNL     1      14.194   0.294  18.012  1.00  0.00    -0.141 N 
HETATM   29  C2  UNL     1      13.808  -0.820  17.218  1.00  0.00     0.334 C 
HETATM   30  N1  UNL     1      14.349  -0.948  15.921  1.00  0.00    -0.347 N 
HETATM   31  O1  UNL     1      13.004  -1.697  17.628  1.00  0.00    -0.247 OA
HETATM   32  C1  UNL     1      13.965  -2.076  15.107  1.00  0.00     0.151 C 
ATOM     33  H1  UNL     1      15.003  -0.252  15.562  1.00  0.00     0.163 HD
ATOM     34  H2  UNL     1      15.180   0.453  18.222  1.00  0.00     0.189 HD
ENDBRANCH   1  28
TORSDOF 2
ENDMDL
MODEL 5
REMARK VINA RESULT: -8.421077920      2.943      7.655
REMARK  2 active torsions:
REMARK  status: ('A' for Active; 'I' for Inactive)
REMARK       I    between atoms: N1_2  and  C2_4 
REMARK       I    between atoms: C2_4  and  N2_6 
REMARK    1  A    between atoms: N2_6  and  C3_8 
REMARK    2  A    between atoms: C7_14  and  N4_15 
ROOT
HETATM    1  C3  UNL     1       8.021   6.499  24.337  1.00  0.00     0.687 A 
HETATM    2  N3  UNL     1       8.755   7.072  23.371  1.00  0.00    -0.189 N 
ATOM      3  H3  UNL     1       8.623   8.016  23.007  1.00  0.00     0.184 HD
HETATM    4  C4  UNL     1       9.692   6.200  22.961  1.00  0.00     0.076 A 
HETATM    5  C5  UNL     1      10.693   6.290  22.000  1.00  0.00     0.034 A 
HETATM    6  C6  UNL     1      11.496   5.202  21.825  1.00  0.00     0.032 A 
HETATM    7  C7  UNL     1      11.372   4.020  22.546  1.00  0.00     0.035 A 
HETATM    8  C15 UNL     1      10.383   3.953  23.485  1.00  0.00     0.061 A 
HETATM    9  C16 UNL     1       9.542   5.042  23.695  1.00  0.00     0.078 A 
HETATM   10  N9  UNL     1       8.522   5.265  24.514  1.00  0.00    -0.189 N 
ATOM     11  H9  UNL     1       8.165   4.589  25.189  1.00  0.00     0.184 HD
ENDROOT
BRANCH   7  12
HETATM   12  N4  UNL     1      12.275   2.985  22.252  1.00  0.00    -0.353 N 
HETATM   13  C8  UNL     1      12.187   2.120  21.341  1.00  0.00     0.087 A 
HETATM   14  C9  UNL     1      13.167   1.171  21.192  1.00  0.00     0.051 A 
HETATM   15  C12 UNL     1      11.110   2.114  20.487  1.00  0.00     0.108 A 
HETATM   16  C10 UNL     1      14.370   1.109  22.078  1.00  0.00     0.072 C 
HETATM   17  N5  UNL     1      13.004   0.279  20.196  1.00  0.00    -0.301 N 
HETATM   18  N6  UNL     1      11.983   0.260  19.374  1.00  0.00    -0.283 N 
ATOM     19  H5  UNL     1      13.724  -0.433  20.073  1.00  0.00     0.186 HD
HETATM   20  C11 UNL     1      10.999   1.169  19.481  1.00  0.00     0.152 A 
ATOM     21  H6  UNL     1      11.935  -0.451  18.645  1.00  0.00     0.188 HD
HETATM   22  N8  UNL     1       9.861   1.370  18.779  1.00  0.00    -0.331 N 
HETATM   23  C13 UNL     1       9.247   2.434  19.330  1.00  0.00     0.184 A 
HETATM   24  C14 UNL     1       9.423   0.565  17.653  1.00  0.00     0.158 C 
HETATM   25  N7  UNL     1       9.993   2.879  20.350  1.00  0.00    -0.347 N 
ATOM     26  H7  UNL     1       9.758   3.677  20.940  1.00  0.00     0.167 HD
ATOM     27  H4  UNL     1      13.101   2.927  22.847  1.00  0.00     0.166 HD
ENDBRANCH   7  12
BRANCH   1  28
HETATM   28  N2  UNL     1       7.031   7.056  24.957  1.00  0.00    -0.141 N 
HETATM   29  C2  UNL     1       5.933   6.269  25.400  1.00  0.00     0.334 C 
HETATM   30  N1  UNL     1       5.603   6.276  26.773  1.00  0.00    -0.347 N 
HETATM   31  O1  UNL     1       5.244   5.567  24.616  1.00  0.00    -0.247 OA
HETATM   32  C1  UNL     1       4.491   5.482  27.233  1.00  0.00     0.151 C 
ATOM     33  H1  UNL     1       6.145   6.836  27.431  1.00  0.00     0.163 HD
ATOM     34  H2  UNL     1       7.039   8.062  25.129  1.00  0.00     0.189 HD
ENDBRANCH   1  28
TORSDOF 2
ENDMDL
