MODEL 1
REMARK VINA RESULT: -8.558336025      0.000      0.000
REMARK  2 active torsions:
REMARK  status: ('A' for Active; 'I' for Inactive)
REMARK    1  A    between atoms: O1_2  and  C2_3 
REMARK    2  A    between atoms: C18_20  and  O3_21 
ROOT
HETATM    1  C2  UNL     1      10.247  10.177  24.685  1.00  0.00     0.074 A 
HETATM    2  C3  UNL     1       9.278  10.075  25.644  1.00  0.00     0.038 A 
HETATM    3  C4  UNL     1       8.382   9.066  25.457  1.00  0.00     0.010 A 
HETATM    4  C5  UNL     1       8.431   8.169  24.349  1.00  0.00    -0.053 A 
HETATM    5  C6  UNL     1       9.419   8.296  23.400  1.00  0.00     0.017 A 
HETATM    6  C7  UNL     1      10.338   9.306  23.561  1.00  0.00    -0.024 A 
HETATM    7  C8  UNL     1      11.511   9.703  22.744  1.00  0.00     0.046 C 
HETATM    8  C9  UNL     1      12.859   9.250  23.280  1.00  0.00     0.043 C 
HETATM    9  C10 UNL     1      13.168   7.811  22.985  1.00  0.00    -0.055 A 
HETATM   10  C11 UNL     1      13.215   7.661  21.560  1.00  0.00     0.007 A 
HETATM   11  C12 UNL     1      13.526   6.485  20.957  1.00  0.00     0.003 A 
HETATM   12  C13 UNL     1      13.797   5.432  21.780  1.00  0.00     0.037 A 
HETATM   13  C14 UNL     1      13.767   5.514  23.195  1.00  0.00     0.076 A 
HETATM   14  C15 UNL     1      13.436   6.754  23.791  1.00  0.00     0.044 A 
HETATM   15  O2  UNL     1      14.078   4.340  23.782  1.00  0.00    -0.310 OA
HETATM   16  C16 UNL     1      14.161   3.443  24.732  1.00  0.00     0.085 A 
HETATM   17  C17 UNL     1      14.554   3.655  26.053  1.00  0.00     0.074 A 
HETATM   18  C18 UNL     1      14.612   2.645  26.998  1.00  0.00     0.068 A 
HETATM   19  C19 UNL     1      14.279   1.377  26.659  1.00  0.00     0.037 A 
HETATM   20  C20 UNL     1      13.892   1.106  25.396  1.00  0.00     0.012 A 
HETATM   21  C21 UNL     1      13.831   2.101  24.453  1.00  0.00    -0.024 A 
HETATM   22  C22 UNL     1      13.399   1.627  23.105  1.00  0.00     0.046 C 
HETATM   23  C23 UNL     1      11.980   1.103  23.186  1.00  0.00     0.043 C 
HETATM   24  C24 UNL     1      11.007   1.919  23.957  1.00  0.00    -0.057 A 
HETATM   25  C25 UNL     1      10.447   1.178  25.012  1.00  0.00     0.007 A 
HETATM   26  C26 UNL     1       9.532   1.664  25.914  1.00  0.00     0.001 A 
HETATM   27  C27 UNL     1       9.190   2.973  25.705  1.00  0.00     0.009 A 
HETATM   28  C28 UNL     1       9.718   3.760  24.667  1.00  0.00    -0.040 A 
HETATM   29  C29 UNL     1      10.627   3.233  23.790  1.00  0.00     0.015 A 
HETATM   30  C30 UNL     1       9.180   5.158  24.732  1.00  0.00     0.157 C 
HETATM   31  N1  UNL     1       8.239   5.362  25.822  1.00  0.00    -0.398 N 
ATOM     32  H1  UNL     1       8.251   4.778  26.659  1.00  0.00     0.158 HD
HETATM   33  C31 UNL     1       7.396   6.309  25.677  1.00  0.00     0.060 C 
HETATM   34  C32 UNL     1       7.291   7.213  24.500  1.00  0.00     0.082 C 
ENDROOT
BRANCH   1  35
HETATM   35  O1  UNL     1      11.188  11.217  24.856  1.00  0.00    -0.355 OA
HETATM   36  C1  UNL     1      11.850  11.410  26.065  1.00  0.00     0.210 C 
ENDBRANCH   1  35
BRANCH  18  37
HETATM   37  O3  UNL     1      15.008   2.876  28.323  1.00  0.00    -0.361 OA
ATOM     38  H3  UNL     1      14.466   2.639  29.066  1.00  0.00     0.217 HD
ENDBRANCH  18  37
TORSDOF 2
ENDMDL
MODEL 2
REMARK VINA RESULT: -8.374694595      2.582      6.856
REMARK  2 active torsions:
REMARK  status: ('A' for Active; 'I' for Inactive)
REMARK    1  A    between atoms: O1_2  and  C2_3 
REMARK    2  A    between atoms: C18_20  and  O3_21 
ROOT
HETATM    1  C2  UNL     1       7.367   4.421  25.828  1.00  0.00     0.074 A 
HETATM    2  C3  UNL     1       8.073   3.325  26.241  1.00  0.00     0.038 A 
HETATM    3  C4  UNL     1       9.138   2.995  25.457  1.00  0.00     0.010 A 
HETATM    4  C5  UNL     1       9.507   3.722  24.287  1.00  0.00    -0.053 A 
HETATM    5  C6  UNL     1       8.776   4.822  23.899  1.00  0.00     0.017 A 
HETATM    6  C7  UNL     1       7.696   5.180  24.669  1.00  0.00    -0.024 A 
HETATM    7  C8  UNL     1       6.726   6.296  24.538  1.00  0.00     0.046 C 
HETATM    8  C9  UNL     1       6.972   7.480  25.457  1.00  0.00     0.043 C 
HETATM    9  C10 UNL     1       8.058   8.397  24.975  1.00  0.00    -0.055 A 
HETATM   10  C11 UNL     1       7.645   8.931  23.710  1.00  0.00     0.007 A 
HETATM   11  C12 UNL     1       8.382   9.841  23.023  1.00  0.00     0.003 A 
HETATM   12  C13 UNL     1       9.554  10.234  23.598  1.00  0.00     0.037 A 
HETATM   13  C14 UNL     1      10.019   9.745  24.845  1.00  0.00     0.076 A 
HETATM   14  C15 UNL     1       9.228   8.795  25.534  1.00  0.00     0.044 A 
HETATM   15  O2  UNL     1      11.199  10.293  25.202  1.00  0.00    -0.310 OA
HETATM   16  C16 UNL     1      12.330  10.424  25.848  1.00  0.00     0.085 A 
HETATM   17  C17 UNL     1      12.532  10.281  27.220  1.00  0.00     0.074 A 
HETATM   18  C18 UNL     1      13.768  10.436  27.825  1.00  0.00     0.068 A 
HETATM   19  C19 UNL     1      14.856  10.741  27.080  1.00  0.00     0.037 A 
HETATM   20  C20 UNL     1      14.727  10.894  25.746  1.00  0.00     0.012 A 
HETATM   21  C21 UNL     1      13.505  10.742  25.138  1.00  0.00    -0.024 A 
HETATM   22  C22 UNL     1      13.536  10.961  23.662  1.00  0.00     0.046 C 
HETATM   23  C23 UNL     1      14.409   9.905  23.015  1.00  0.00     0.043 C 
HETATM   24  C24 UNL     1      14.230   8.507  23.485  1.00  0.00    -0.057 A 
HETATM   25  C25 UNL     1      15.432   7.986  23.995  1.00  0.00     0.007 A 
HETATM   26  C26 UNL     1      15.581   6.727  24.522  1.00  0.00     0.001 A 
HETATM   27  C27 UNL     1      14.430   5.985  24.518  1.00  0.00     0.009 A 
HETATM   28  C28 UNL     1      13.202   6.456  24.021  1.00  0.00    -0.040 A 
HETATM   29  C29 UNL     1      13.101   7.718  23.502  1.00  0.00     0.015 A 
HETATM   30  C30 UNL     1      12.127   5.426  24.197  1.00  0.00     0.157 C 
HETATM   31  N1  UNL     1      12.604   4.195  24.810  1.00  0.00    -0.398 N 
ATOM     32  H1  UNL     1      13.432   4.178  25.406  1.00  0.00     0.158 HD
HETATM   33  C31 UNL     1      11.931   3.140  24.564  1.00  0.00     0.060 C 
HETATM   34  C32 UNL     1      10.714   3.056  23.711  1.00  0.00     0.082 C 
ENDROOT
BRANCH   1  35
HETATM   35  O1  UNL     1       6.257   4.784  26.624  1.00  0.00    -0.355 OA
HETATM   36  C1  UNL     1       6.319   4.765  28.015  1.00  0.00     0.210 C 
ENDBRANCH   1  35
BRANCH  18  37
HETATM   37  O3  UNL     1      13.953  10.287  29.207  1.00  0.00    -0.361 OA
ATOM     38  H3  UNL     1      14.798  10.410  29.624  1.00  0.00     0.217 HD
ENDBRANCH  18  37
TORSDOF 2
ENDMDL
MODEL 3
REMARK VINA RESULT: -8.321502923      2.184      7.876
REMARK  2 active torsions:
REMARK  status: ('A' for Active; 'I' for Inactive)
REMARK    1  A    between atoms: O1_2  and  C2_3 
REMARK    2  A    between atoms: C18_20  and  O3_21 
ROOT
HETATM    1  C2  UNL     1      12.089   1.202  25.679  1.00  0.00     0.074 A 
HETATM    2  C3  UNL     1      13.351   1.077  25.168  1.00  0.00     0.038 A 
HETATM    3  C4  UNL     1      13.516   1.568  23.908  1.00  0.00     0.010 A 
HETATM    4  C5  UNL     1      12.464   2.171  23.157  1.00  0.00    -0.053 A 
HETATM    5  C6  UNL     1      11.205   2.284  23.699  1.00  0.00     0.017 A 
HETATM    6  C7  UNL     1      11.007   1.797  24.969  1.00  0.00    -0.024 A 
HETATM    7  C8  UNL     1       9.799   1.771  25.832  1.00  0.00     0.046 C 
HETATM    8  C9  UNL     1       9.753   2.836  26.915  1.00  0.00     0.043 C 
HETATM    9  C10 UNL     1       9.336   4.186  26.410  1.00  0.00    -0.055 A 
HETATM   10  C11 UNL     1       8.006   4.064  25.890  1.00  0.00     0.007 A 
HETATM   11  C12 UNL     1       7.311   5.122  25.401  1.00  0.00     0.003 A 
HETATM   12  C13 UNL     1       7.943   6.330  25.425  1.00  0.00     0.037 A 
HETATM   13  C14 UNL     1       9.256   6.519  25.925  1.00  0.00     0.076 A 
HETATM   14  C15 UNL     1       9.955   5.394  26.426  1.00  0.00     0.044 A 
HETATM   15  O2  UNL     1       9.654   7.805  25.847  1.00  0.00    -0.310 OA
HETATM   16  C16 UNL     1      10.479   8.821  25.832  1.00  0.00     0.085 A 
HETATM   17  C17 UNL     1      11.541   9.051  26.705  1.00  0.00     0.074 A 
HETATM   18  C18 UNL     1      12.370  10.156  26.618  1.00  0.00     0.068 A 
HETATM   19  C19 UNL     1      12.170  11.081  25.649  1.00  0.00     0.037 A 
HETATM   20  C20 UNL     1      11.158  10.917  24.773  1.00  0.00     0.012 A 
HETATM   21  C21 UNL     1      10.331   9.824  24.853  1.00  0.00    -0.024 A 
HETATM   22  C22 UNL     1       9.256   9.806  23.818  1.00  0.00     0.046 C 
HETATM   23  C23 UNL     1       9.882   9.701  22.442  1.00  0.00     0.043 C 
HETATM   24  C24 UNL     1      10.987   8.722  22.282  1.00  0.00    -0.057 A 
HETATM   25  C25 UNL     1      12.165   9.353  21.848  1.00  0.00     0.007 A 
HETATM   26  C26 UNL     1      13.362   8.716  21.629  1.00  0.00     0.001 A 
HETATM   27  C27 UNL     1      13.326   7.369  21.874  1.00  0.00     0.009 A 
HETATM   28  C28 UNL     1      12.177   6.688  22.309  1.00  0.00    -0.040 A 
HETATM   29  C29 UNL     1      11.004   7.363  22.512  1.00  0.00     0.015 A 
HETATM   30  C30 UNL     1      12.471   5.234  22.528  1.00  0.00     0.157 C 
HETATM   31  N1  UNL     1      13.848   4.874  22.225  1.00  0.00    -0.398 N 
ATOM     32  H1  UNL     1      14.603   5.560  22.257  1.00  0.00     0.158 HD
HETATM   33  C31 UNL     1      14.062   3.655  21.916  1.00  0.00     0.060 C 
HETATM   34  C32 UNL     1      13.036   2.579  21.837  1.00  0.00     0.082 C 
ENDROOT
BRANCH   1  35
HETATM   35  O1  UNL     1      11.892   0.699  26.985  1.00  0.00    -0.355 OA
HETATM   36  C1  UNL     1      12.882  -0.021  27.647  1.00  0.00     0.210 C 
ENDBRANCH   1  35
BRANCH  18  37
HETATM   37  O3  UNL     1      13.435  10.371  27.504  1.00  0.00    -0.361 OA
ATOM     38  H3  UNL     1      14.040  11.097  27.408  1.00  0.00     0.217 HD
ENDBRANCH  18  37
TORSDOF 2
ENDMDL
MODEL 4
REMARK VINA RESULT: -8.237917312      2.559      7.258
REMARK  2 active torsions:
REMARK  status: ('A' for Active; 'I' for Inactive)
REMARK    1  A    between atoms: O1_2  and  C2_3 
REMARK    2  A    between atoms: C18_20  and  O3_21 
ROOT
HETATM    1  C2  UNL     1      15.457   3.410  27.273  1.00  0.00     0.074 A 
HETATM    2  C3  UNL     1      15.755   4.426  28.138  1.00  0.00     0.038 A 
HETATM    3  C4  UNL     1      15.698   5.677  27.602  1.00  0.00     0.010 A 
HETATM    4  C5  UNL     1      15.355   5.934  26.242  1.00  0.00    -0.053 A 
HETATM    5  C6  UNL     1      15.059   4.890  25.396  1.00  0.00     0.017 A 
HETATM    6  C7  UNL     1      15.109   3.615  25.907  1.00  0.00    -0.024 A 
HETATM    7  C8  UNL     1      14.840   2.296  25.280  1.00  0.00     0.046 C 
HETATM    8  C9  UNL     1      13.483   1.691  25.598  1.00  0.00     0.043 C 
HETATM    9  C10 UNL     1      12.362   2.278  24.792  1.00  0.00    -0.055 A 
HETATM   10  C11 UNL     1      12.628   1.999  23.411  1.00  0.00     0.007 A 
HETATM   11  C12 UNL     1      11.776   2.350  22.415  1.00  0.00     0.003 A 
HETATM   12  C13 UNL     1      10.632   2.991  22.790  1.00  0.00     0.037 A 
HETATM   13  C14 UNL     1      10.309   3.296  24.136  1.00  0.00     0.076 A 
HETATM   14  C15 UNL     1      11.222   2.919  25.151  1.00  0.00     0.044 A 
HETATM   15  O2  UNL     1       9.121   3.925  24.248  1.00  0.00    -0.310 OA
HETATM   16  C16 UNL     1       8.174   4.641  24.800  1.00  0.00     0.085 A 
HETATM   17  C17 UNL     1       7.689   4.526  26.102  1.00  0.00     0.074 A 
HETATM   18  C18 UNL     1       6.681   5.329  26.609  1.00  0.00     0.068 A 
HETATM   19  C19 UNL     1       6.115   6.281  25.832  1.00  0.00     0.037 A 
HETATM   20  C20 UNL     1       6.539   6.442  24.562  1.00  0.00     0.012 A 
HETATM   21  C21 UNL     1       7.538   5.651  24.051  1.00  0.00    -0.024 A 
HETATM   22  C22 UNL     1       7.874   5.950  22.628  1.00  0.00     0.046 C 
HETATM   23  C23 UNL     1       8.424   7.358  22.526  1.00  0.00     0.043 C 
HETATM   24  C24 UNL     1       9.417   7.766  23.553  1.00  0.00    -0.057 A 
HETATM   25  C25 UNL     1       8.974   8.892  24.268  1.00  0.00     0.007 A 
HETATM   26  C26 UNL     1       9.662   9.492  25.294  1.00  0.00     0.001 A 
HETATM   27  C27 UNL     1      10.857   8.891  25.585  1.00  0.00     0.009 A 
HETATM   28  C28 UNL     1      11.348   7.765  24.903  1.00  0.00    -0.040 A 
HETATM   29  C29 UNL     1      10.629   7.201  23.884  1.00  0.00     0.015 A 
HETATM   30  C30 UNL     1      12.658   7.320  25.483  1.00  0.00     0.157 C 
HETATM   31  N1  UNL     1      13.114   8.158  26.582  1.00  0.00    -0.398 N 
ATOM     32  H1  UNL     1      12.463   8.706  27.146  1.00  0.00     0.158 HD
HETATM   33  C31 UNL     1      14.370   8.171  26.804  1.00  0.00     0.060 C 
HETATM   34  C32 UNL     1      15.401   7.414  26.042  1.00  0.00     0.082 C 
ENDROOT
BRANCH   1  35
HETATM   35  O1  UNL     1      15.510   2.102  27.804  1.00  0.00    -0.355 OA
HETATM   36  C1  UNL     1      15.099   1.826  29.105  1.00  0.00     0.210 C 
ENDBRANCH   1  35
BRANCH  18  37
HETATM   37  O3  UNL     1       6.206   5.201  27.923  1.00  0.00    -0.361 OA
ATOM     38  H3  UNL     1       6.744   5.396  28.681  1.00  0.00     0.217 HD
ENDBRANCH  18  37
TORSDOF 2
ENDMDL
MODEL 5
REMARK VINA RESULT: -8.138545211      2.455      7.958
REMARK  2 active torsions:
REMARK  status: ('A' for Active; 'I' for Inactive)
REMARK    1  A    between atoms: O1_2  and  C2_3 
REMARK    2  A    between atoms: C18_20  and  O3_21 
ROOT
HETATM    1  C2  UNL     1      15.765   1.174  25.293  1.00  0.00     0.074 A 
HETATM    2  C3  UNL     1      16.756   1.745  24.544  1.00  0.00     0.038 A 
HETATM    3  C4  UNL     1      16.384   2.132  23.291  1.00  0.00     0.010 A 
HETATM    4  C5  UNL     1      15.064   1.963  22.777  1.00  0.00    -0.053 A 
HETATM    5  C6  UNL     1      14.088   1.385  23.557  1.00  0.00     0.017 A 
HETATM    6  C7  UNL     1      14.433   0.984  24.825  1.00  0.00    -0.024 A 
HETATM    7  C8  UNL     1      13.634   0.351  25.904  1.00  0.00     0.046 C 
HETATM    8  C9  UNL     1      13.176   1.289  27.008  1.00  0.00     0.043 C 
HETATM    9  C10 UNL     1      11.979   2.113  26.635  1.00  0.00    -0.055 A 
HETATM   10  C11 UNL     1      10.894   1.212  26.379  1.00  0.00     0.007 A 
HETATM   11  C12 UNL     1       9.644   1.640  26.067  1.00  0.00     0.003 A 
HETATM   12  C13 UNL     1       9.460   2.990  26.006  1.00  0.00     0.037 A 
HETATM   13  C14 UNL     1      10.490   3.934  26.248  1.00  0.00     0.076 A 
HETATM   14  C15 UNL     1      11.783   3.454  26.569  1.00  0.00     0.044 A 
HETATM   15  O2  UNL     1      10.056   5.206  26.134  1.00  0.00    -0.310 OA
HETATM   16  C16 UNL     1      10.129   6.505  25.992  1.00  0.00     0.085 A 
HETATM   17  C17 UNL     1      11.000   7.372  26.650  1.00  0.00     0.074 A 
HETATM   18  C18 UNL     1      11.013   8.740  26.438  1.00  0.00     0.068 A 
HETATM   19  C19 UNL     1      10.151   9.299  25.556  1.00  0.00     0.037 A 
HETATM   20  C20 UNL     1       9.282   8.514  24.887  1.00  0.00     0.012 A 
HETATM   21  C21 UNL     1       9.262   7.157  25.091  1.00  0.00    -0.024 A 
HETATM   22  C22 UNL     1       8.231   6.441  24.284  1.00  0.00     0.046 C 
HETATM   23  C23 UNL     1       8.550   6.592  22.811  1.00  0.00     0.043 C 
HETATM   24  C24 UNL     1       9.967   6.406  22.409  1.00  0.00    -0.057 A 
HETATM   25  C25 UNL     1      10.470   7.555  21.775  1.00  0.00     0.007 A 
HETATM   26  C26 UNL     1      11.755   7.696  21.309  1.00  0.00     0.001 A 
HETATM   27  C27 UNL     1      12.542   6.595  21.514  1.00  0.00     0.009 A 
HETATM   28  C28 UNL     1      12.092   5.422  22.142  1.00  0.00    -0.040 A 
HETATM   29  C29 UNL     1      10.802   5.324  22.590  1.00  0.00     0.015 A 
HETATM   30  C30 UNL     1      13.200   4.418  22.255  1.00  0.00     0.157 C 
HETATM   31  N1  UNL     1      14.455   4.880  21.679  1.00  0.00    -0.398 N 
ATOM     32  H1  UNL     1      14.669   5.873  21.586  1.00  0.00     0.158 HD
HETATM   33  C31 UNL     1      15.271   3.978  21.297  1.00  0.00     0.060 C 
HETATM   34  C32 UNL     1      15.055   2.508  21.386  1.00  0.00     0.082 C 
ENDROOT
BRANCH   1  35
HETATM   35  O1  UNL     1      16.126   0.763  26.596  1.00  0.00    -0.355 OA
HETATM   36  C1  UNL     1      17.280   0.022  26.834  1.00  0.00     0.210 C 
ENDBRANCH   1  35
BRANCH  18  37
HETATM   37  O3  UNL     1      11.897   9.598  27.108  1.00  0.00    -0.361 OA
ATOM     38  H3  UNL     1      12.068   9.527  28.040  1.00  0.00     0.217 HD
ENDBRANCH  18  37
TORSDOF 2
ENDMDL
