MODEL 1
REMARK VINA RESULT: -9.977256144      0.000      0.000
REMARK  11 active torsions:
REMARK  status: ('A' for Active; 'I' for Inactive)
REMARK    1  A    between atoms: C2_2  and  C3_3 
REMARK    2  A    between atoms: C3_3  and  N1_4 
REMARK    3  A    between atoms: C4_5  and  O1_6 
REMARK    4  A    between atoms: C5_8  and  N2_9 
REMARK    5  A    between atoms: N2_9  and  C6_11 
REMARK    6  A    between atoms: C6_11  and  C7_12 
REMARK    7  A    between atoms: C8_13  and  O2_14 
REMARK    8  A    between atoms: C9_18  and  O3_19 
REMARK    9  A    between atoms: C10_21  and  N4_22 
REMARK   10  A    between atoms: N4_22  and  N5_24 
REMARK       I    between atoms: N5_24  and  C11_26 
REMARK   11  A    between atoms: C11_26  and  C12_28 
ROOT
HETATM    1  C7  UNL     1      15.566  32.559  -8.682  1.00  0.00     0.062 A 
HETATM    2  C8  UNL     1      14.732  32.715  -9.775  1.00  0.00     0.156 A 
HETATM    3  N3  UNL     1      14.386  31.495 -10.200  1.00  0.00    -0.315 N 
ATOM      4  H3  UNL     1      13.775  31.304 -10.994  1.00  0.00     0.170 HD
HETATM    5  C9  UNL     1      14.959  30.564  -9.432  1.00  0.00     0.172 A 
HETATM    6  C10 UNL     1      15.701  31.209  -8.477  1.00  0.00     0.115 A 
ENDROOT
BRANCH   1   7
HETATM    7  C6  UNL     1      16.166  33.652  -7.905  1.00  0.00     0.107 C 
BRANCH   7   8
HETATM    8  N2  UNL     1      15.634  34.047  -6.821  1.00  0.00    -0.357 N 
ATOM      9  H2  UNL     1      16.190  34.574  -6.148  1.00  0.00     0.165 HD
BRANCH   8  10
HETATM   10  C5  UNL     1      14.260  33.757  -6.536  1.00  0.00     0.152 A 
HETATM   11  C4  UNL     1      13.244  34.500  -7.088  1.00  0.00     0.179 A 
HETATM   12  N1  UNL     1      11.936  34.213  -6.822  1.00  0.00    -0.278 N 
HETATM   13  C17 UNL     1      11.727  33.180  -6.007  1.00  0.00     0.331 A 
HETATM   14  N6  UNL     1      12.683  32.437  -5.453  1.00  0.00    -0.273 N 
HETATM   15  O6  UNL     1      10.532  32.875  -5.734  1.00  0.00    -0.246 OA
HETATM   16  C16 UNL     1      13.979  32.707  -5.704  1.00  0.00     0.280 A 
ATOM     17  H6  UNL     1      12.434  31.663  -4.838  1.00  0.00     0.173 HD
HETATM   18  O5  UNL     1      14.900  32.004  -5.179  1.00  0.00    -0.265 OA
BRANCH  11  19
HETATM   19  O1  UNL     1      13.547  35.544  -7.916  1.00  0.00    -0.344 OA
ATOM     20  H1  UNL     1      13.490  35.424  -8.857  1.00  0.00     0.219 HD
ENDBRANCH  11  19
BRANCH  12  21
HETATM   21  C3  UNL     1      10.895  34.963  -7.409  1.00  0.00     0.135 C 
BRANCH  21  22
HETATM   22  C2  UNL     1      10.202  35.977  -6.575  1.00  0.00     0.016 C 
HETATM   23  C1  UNL     1       9.384  37.003  -7.264  1.00  0.00     0.006 C 
ENDBRANCH  21  22
ENDBRANCH  12  21
ENDBRANCH   8  10
ENDBRANCH   7   8
ENDBRANCH   1   7
BRANCH   2  24
HETATM   24  O2  UNL     1      14.320  33.919 -10.340  1.00  0.00    -0.345 OA
ATOM     25  H2  UNL     1      14.876  34.577 -10.740  1.00  0.00     0.219 HD
ENDBRANCH   2  24
BRANCH   6  26
HETATM   26  N4  UNL     1      16.495  30.636  -7.435  1.00  0.00    -0.293 N 
ATOM     27  H4  UNL     1      16.707  31.159  -6.585  1.00  0.00     0.187 HD
BRANCH  26  28
HETATM   28  N5  UNL     1      16.971  29.337  -7.620  1.00  0.00    -0.266 N 
HETATM   29  C11 UNL     1      16.276  28.180  -7.169  1.00  0.00     0.259 C 
HETATM   30  O4  UNL     1      15.172  28.404  -6.571  1.00  0.00    -0.267 OA
ATOM     31  H5  UNL     1      17.861  29.210  -8.102  1.00  0.00     0.190 HD
BRANCH  29  32
HETATM   32  C12 UNL     1      16.789  26.839  -7.376  1.00  0.00     0.077 C 
HETATM   33  C13 UNL     1      17.616  26.217  -6.578  1.00  0.00    -0.082 C 
HETATM   34  C14 UNL     1      18.056  24.837  -6.919  1.00  0.00     0.043 C 
HETATM   35  C15 UNL     1      18.124  26.852  -5.360  1.00  0.00     0.043 C 
ENDBRANCH  29  32
ENDBRANCH  26  28
ENDBRANCH   6  26
BRANCH   5  36
HETATM   36  O3  UNL     1      14.854  29.166  -9.538  1.00  0.00    -0.344 OA
ATOM     37  H3  UNL     1      14.913  28.520  -8.845  1.00  0.00     0.219 HD
ENDBRANCH   5  36
TORSDOF 11
ENDMDL
MODEL 2
REMARK VINA RESULT: -9.902134707      3.163      5.144
REMARK  11 active torsions:
REMARK  status: ('A' for Active; 'I' for Inactive)
REMARK    1  A    between atoms: C2_2  and  C3_3 
REMARK    2  A    between atoms: C3_3  and  N1_4 
REMARK    3  A    between atoms: C4_5  and  O1_6 
REMARK    4  A    between atoms: C5_8  and  N2_9 
REMARK    5  A    between atoms: N2_9  and  C6_11 
REMARK    6  A    between atoms: C6_11  and  C7_12 
REMARK    7  A    between atoms: C8_13  and  O2_14 
REMARK    8  A    between atoms: C9_18  and  O3_19 
REMARK    9  A    between atoms: C10_21  and  N4_22 
REMARK   10  A    between atoms: N4_22  and  N5_24 
REMARK       I    between atoms: N5_24  and  C11_26 
REMARK   11  A    between atoms: C11_26  and  C12_28 
ROOT
HETATM    1  C7  UNL     1      13.788  33.487  -8.785  1.00  0.00     0.062 A 
HETATM    2  C8  UNL     1      12.881  34.137  -7.966  1.00  0.00     0.156 A 
HETATM    3  N3  UNL     1      11.800  33.356  -7.856  1.00  0.00    -0.315 N 
ATOM      4  H3  UNL     1      10.969  33.582  -7.311  1.00  0.00     0.170 HD
HETATM    5  C9  UNL     1      11.971  32.237  -8.566  1.00  0.00     0.172 A 
HETATM    6  C10 UNL     1      13.207  32.300  -9.154  1.00  0.00     0.115 A 
ENDROOT
BRANCH   1   7
HETATM    7  C6  UNL     1      15.115  33.995  -9.157  1.00  0.00     0.107 C 
BRANCH   7   8
HETATM    8  N2  UNL     1      15.974  34.284  -8.267  1.00  0.00    -0.357 N 
ATOM      9  H2  UNL     1      16.103  33.663  -7.468  1.00  0.00     0.165 HD
BRANCH   8  10
HETATM   10  C5  UNL     1      16.762  35.475  -8.376  1.00  0.00     0.152 A 
HETATM   11  C4  UNL     1      16.553  36.549  -7.545  1.00  0.00     0.179 A 
HETATM   12  N1  UNL     1      17.315  37.678  -7.646  1.00  0.00    -0.278 N 
HETATM   13  C17 UNL     1      18.255  37.656  -8.590  1.00  0.00     0.331 A 
HETATM   14  N6  UNL     1      18.487  36.637  -9.415  1.00  0.00    -0.273 N 
HETATM   15  O6  UNL     1      18.986  38.678  -8.719  1.00  0.00    -0.246 OA
HETATM   16  C16 UNL     1      17.744  35.516  -9.329  1.00  0.00     0.280 A 
ATOM     17  H6  UNL     1      19.229  36.704 -10.111  1.00  0.00     0.173 HD
HETATM   18  O5  UNL     1      17.958  34.537 -10.112  1.00  0.00    -0.265 OA
BRANCH  11  19
HETATM   19  O1  UNL     1      15.567  36.487  -6.601  1.00  0.00    -0.344 OA
ATOM     20  H1  UNL     1      14.664  36.376  -6.876  1.00  0.00     0.219 HD
ENDBRANCH  11  19
BRANCH  12  21
HETATM   21  C3  UNL     1      17.113  38.770  -6.775  1.00  0.00     0.135 C 
BRANCH  21  22
HETATM   22  C2  UNL     1      18.029  38.925  -5.618  1.00  0.00     0.016 C 
HETATM   23  C1  UNL     1      17.535  38.521  -4.280  1.00  0.00     0.006 C 
ENDBRANCH  21  22
ENDBRANCH  12  21
ENDBRANCH   8  10
ENDBRANCH   7   8
ENDBRANCH   1   7
BRANCH   2  24
HETATM   24  O2  UNL     1      13.051  35.378  -7.359  1.00  0.00    -0.345 OA
ATOM     25  H2  UNL     1      13.138  36.216  -7.799  1.00  0.00     0.219 HD
ENDBRANCH   2  24
BRANCH   6  26
HETATM   26  N4  UNL     1      13.831  31.339 -10.010  1.00  0.00    -0.293 N 
ATOM     27  H4  UNL     1      13.976  31.532 -11.002  1.00  0.00     0.187 HD
BRANCH  26  28
HETATM   28  N5  UNL     1      14.234  30.129  -9.444  1.00  0.00    -0.266 N 
HETATM   29  C11 UNL     1      15.590  29.824  -9.138  1.00  0.00     0.259 C 
HETATM   30  O4  UNL     1      16.432  30.739  -9.419  1.00  0.00    -0.267 OA
ATOM     31  H5  UNL     1      13.522  29.428  -9.240  1.00  0.00     0.190 HD
BRANCH  29  32
HETATM   32  C12 UNL     1      15.984  28.560  -8.545  1.00  0.00     0.077 C 
HETATM   33  C13 UNL     1      16.254  28.373  -7.281  1.00  0.00    -0.082 C 
HETATM   34  C14 UNL     1      16.645  27.015  -6.813  1.00  0.00     0.043 C 
HETATM   35  C15 UNL     1      16.188  29.472  -6.315  1.00  0.00     0.043 C 
ENDBRANCH  29  32
ENDBRANCH  26  28
ENDBRANCH   6  26
BRANCH   5  36
HETATM   36  O3  UNL     1      11.079  31.161  -8.717  1.00  0.00    -0.344 OA
ATOM     37  H3  UNL     1      10.970  30.591  -9.469  1.00  0.00     0.219 HD
ENDBRANCH   5  36
TORSDOF 11
ENDMDL
MODEL 3
REMARK VINA RESULT: -9.726431852      2.970      4.765
REMARK  11 active torsions:
REMARK  status: ('A' for Active; 'I' for Inactive)
REMARK    1  A    between atoms: C2_2  and  C3_3 
REMARK    2  A    between atoms: C3_3  and  N1_4 
REMARK    3  A    between atoms: C4_5  and  O1_6 
REMARK    4  A    between atoms: C5_8  and  N2_9 
REMARK    5  A    between atoms: N2_9  and  C6_11 
REMARK    6  A    between atoms: C6_11  and  C7_12 
REMARK    7  A    between atoms: C8_13  and  O2_14 
REMARK    8  A    between atoms: C9_18  and  O3_19 
REMARK    9  A    between atoms: C10_21  and  N4_22 
REMARK   10  A    between atoms: N4_22  and  N5_24 
REMARK       I    between atoms: N5_24  and  C11_26 
REMARK   11  A    between atoms: C11_26  and  C12_28 
ROOT
HETATM    1  C7  UNL     1      15.526  31.728  -8.548  1.00  0.00     0.062 A 
HETATM    2  C8  UNL     1      14.224  32.077  -8.235  1.00  0.00     0.156 A 
HETATM    3  N3  UNL     1      13.660  31.032  -7.620  1.00  0.00    -0.315 N 
ATOM      4  H3  UNL     1      12.700  31.005  -7.276  1.00  0.00     0.170 HD
HETATM    5  C9  UNL     1      14.538  30.029  -7.524  1.00  0.00     0.172 A 
HETATM    6  C10 UNL     1      15.710  30.444  -8.098  1.00  0.00     0.115 A 
ENDROOT
BRANCH   1   7
HETATM    7  C6  UNL     1      16.502  32.594  -9.222  1.00  0.00     0.107 C 
BRANCH   7   8
HETATM    8  N2  UNL     1      16.154  33.720  -9.697  1.00  0.00    -0.357 N 
ATOM      9  H2  UNL     1      15.318  33.787 -10.277  1.00  0.00     0.165 HD
BRANCH   8  10
HETATM   10  C5  UNL     1      16.925  34.895  -9.423  1.00  0.00     0.152 A 
HETATM   11  C4  UNL     1      16.513  35.821  -8.495  1.00  0.00     0.179 A 
HETATM   12  N1  UNL     1      17.257  36.934  -8.230  1.00  0.00    -0.278 N 
HETATM   13  C17 UNL     1      18.389  37.050  -8.924  1.00  0.00     0.331 A 
HETATM   14  N6  UNL     1      18.822  36.177  -9.832  1.00  0.00    -0.273 N 
HETATM   15  O6  UNL     1      19.112  38.063  -8.711  1.00  0.00    -0.246 OA
HETATM   16  C16 UNL     1      18.098  35.073 -10.106  1.00  0.00     0.280 A 
ATOM     17  H6  UNL     1      19.701  36.343 -10.319  1.00  0.00     0.173 HD
HETATM   18  O5  UNL     1      18.503  34.233 -10.971  1.00  0.00    -0.265 OA
BRANCH  11  19
HETATM   19  O1  UNL     1      15.338  35.624  -7.825  1.00  0.00    -0.344 OA
ATOM     20  H1  UNL     1      14.612  36.220  -7.972  1.00  0.00     0.219 HD
ENDBRANCH  11  19
BRANCH  12  21
HETATM   21  C3  UNL     1      16.842  37.871  -7.258  1.00  0.00     0.135 C 
BRANCH  21  22
HETATM   22  C2  UNL     1      17.365  37.729  -5.877  1.00  0.00     0.016 C 
HETATM   23  C1  UNL     1      17.776  38.959  -5.159  1.00  0.00     0.006 C 
ENDBRANCH  21  22
ENDBRANCH  12  21
ENDBRANCH   8  10
ENDBRANCH   7   8
ENDBRANCH   1   7
BRANCH   2  24
HETATM   24  O2  UNL     1      13.603  33.293  -8.506  1.00  0.00    -0.345 OA
ATOM     25  H2  UNL     1      12.766  33.417  -8.939  1.00  0.00     0.219 HD
ENDBRANCH   2  24
BRANCH   6  26
HETATM   26  N4  UNL     1      16.934  29.718  -8.238  1.00  0.00    -0.293 N 
ATOM     27  H4  UNL     1      17.423  29.675  -9.133  1.00  0.00     0.187 HD
BRANCH  26  28
HETATM   28  N5  UNL     1      17.438  29.069  -7.110  1.00  0.00    -0.266 N 
HETATM   29  C11 UNL     1      17.348  27.663  -6.912  1.00  0.00     0.259 C 
HETATM   30  O4  UNL     1      16.766  27.017  -7.845  1.00  0.00    -0.267 OA
ATOM     31  H5  UNL     1      17.893  29.631  -6.390  1.00  0.00     0.190 HD
BRANCH  29  32
HETATM   32  C12 UNL     1      17.884  27.011  -5.732  1.00  0.00     0.077 C 
HETATM   33  C13 UNL     1      18.148  25.736  -5.631  1.00  0.00    -0.082 C 
HETATM   34  C14 UNL     1      18.698  25.205  -4.354  1.00  0.00     0.043 C 
HETATM   35  C15 UNL     1      17.906  24.816  -6.745  1.00  0.00     0.043 C 
ENDBRANCH  29  32
ENDBRANCH  26  28
ENDBRANCH   6  26
BRANCH   5  36
HETATM   36  O3  UNL     1      14.346  28.761  -6.949  1.00  0.00    -0.344 OA
ATOM     37  H3  UNL     1      14.976  28.054  -6.865  1.00  0.00     0.219 HD
ENDBRANCH   5  36
TORSDOF 11
ENDMDL
MODEL 4
REMARK VINA RESULT: -9.723679865      2.970      4.864
REMARK  11 active torsions:
REMARK  status: ('A' for Active; 'I' for Inactive)
REMARK    1  A    between atoms: C2_2  and  C3_3 
REMARK    2  A    between atoms: C3_3  and  N1_4 
REMARK    3  A    between atoms: C4_5  and  O1_6 
REMARK    4  A    between atoms: C5_8  and  N2_9 
REMARK    5  A    between atoms: N2_9  and  C6_11 
REMARK    6  A    between atoms: C6_11  and  C7_12 
REMARK    7  A    between atoms: C8_13  and  O2_14 
REMARK    8  A    between atoms: C9_18  and  O3_19 
REMARK    9  A    between atoms: C10_21  and  N4_22 
REMARK   10  A    between atoms: N4_22  and  N5_24 
REMARK       I    between atoms: N5_24  and  C11_26 
REMARK   11  A    between atoms: C11_26  and  C12_28 
ROOT
HETATM    1  C7  UNL     1      14.599  32.675  -8.144  1.00  0.00     0.062 A 
HETATM    2  C8  UNL     1      13.299  33.079  -8.390  1.00  0.00     0.156 A 
HETATM    3  N3  UNL     1      12.548  32.682  -7.356  1.00  0.00    -0.315 N 
ATOM      4  H3  UNL     1      11.545  32.844  -7.266  1.00  0.00     0.170 HD
HETATM    5  C9  UNL     1      13.306  32.044  -6.459  1.00  0.00     0.172 A 
HETATM    6  C10 UNL     1      14.591  32.029  -6.934  1.00  0.00     0.115 A 
ENDROOT
BRANCH   1   7
HETATM    7  C6  UNL     1      15.748  32.920  -9.027  1.00  0.00     0.107 C 
BRANCH   7   8
HETATM    8  N2  UNL     1      15.798  33.960  -9.755  1.00  0.00    -0.357 N 
ATOM      9  H2  UNL     1      15.172  34.047 -10.555  1.00  0.00     0.165 HD
BRANCH   8  10
HETATM   10  C5  UNL     1      16.727  35.010  -9.461  1.00  0.00     0.152 A 
HETATM   11  C4  UNL     1      16.415  36.013  -8.575  1.00  0.00     0.179 A 
HETATM   12  N1  UNL     1      17.308  37.006  -8.290  1.00  0.00    -0.278 N 
HETATM   13  C17 UNL     1      18.478  36.927  -8.921  1.00  0.00     0.331 A 
HETATM   14  N6  UNL     1      18.818  35.973  -9.786  1.00  0.00    -0.273 N 
HETATM   15  O6  UNL     1      19.337  37.822  -8.687  1.00  0.00    -0.246 OA
HETATM   16  C16 UNL     1      17.948  34.987 -10.079  1.00  0.00     0.280 A 
ATOM     17  H6  UNL     1      19.737  35.989 -10.226  1.00  0.00     0.173 HD
HETATM   18  O5  UNL     1      18.263  34.071 -10.904  1.00  0.00    -0.265 OA
BRANCH  11  19
HETATM   19  O1  UNL     1      15.190  36.018  -7.969  1.00  0.00    -0.344 OA
ATOM     20  H1  UNL     1      15.042  35.463  -7.212  1.00  0.00     0.219 HD
ENDBRANCH  11  19
BRANCH  12  21
HETATM   21  C3  UNL     1      16.992  38.021  -7.361  1.00  0.00     0.135 C 
BRANCH  21  22
HETATM   22  C2  UNL     1      17.336  37.802  -5.935  1.00  0.00     0.016 C 
HETATM   23  C1  UNL     1      17.772  38.972  -5.136  1.00  0.00     0.006 C 
ENDBRANCH  21  22
ENDBRANCH  12  21
ENDBRANCH   8  10
ENDBRANCH   7   8
ENDBRANCH   1   7
BRANCH   2  24
HETATM   24  O2  UNL     1      12.841  33.772  -9.507  1.00  0.00    -0.345 OA
ATOM     25  H2  UNL     1      12.121  34.392  -9.533  1.00  0.00     0.219 HD
ENDBRANCH   2  24
BRANCH   6  26
HETATM   26  N4  UNL     1      15.753  31.456  -6.327  1.00  0.00    -0.293 N 
ATOM     27  H4  UNL     1      16.514  32.044  -5.987  1.00  0.00     0.187 HD
BRANCH  26  28
HETATM   28  N5  UNL     1      15.810  30.066  -6.217  1.00  0.00    -0.266 N 
HETATM   29  C11 UNL     1      16.419  29.230  -7.194  1.00  0.00     0.259 C 
HETATM   30  O4  UNL     1      16.916  29.838  -8.199  1.00  0.00    -0.267 OA
ATOM     31  H5  UNL     1      15.395  29.628  -5.395  1.00  0.00     0.190 HD
BRANCH  29  32
HETATM   32  C12 UNL     1      16.470  27.787  -7.055  1.00  0.00     0.077 C 
HETATM   33  C13 UNL     1      17.450  27.117  -6.509  1.00  0.00    -0.082 C 
HETATM   34  C14 UNL     1      17.364  25.634  -6.433  1.00  0.00     0.043 C 
HETATM   35  C15 UNL     1      18.634  27.795  -5.978  1.00  0.00     0.043 C 
ENDBRANCH  29  32
ENDBRANCH  26  28
ENDBRANCH   6  26
BRANCH   5  36
HETATM   36  O3  UNL     1      12.909  31.473  -5.238  1.00  0.00    -0.344 OA
ATOM     37  H3  UNL     1      13.389  30.860  -4.694  1.00  0.00     0.219 HD
ENDBRANCH   5  36
TORSDOF 11
ENDMDL
MODEL 5
REMARK VINA RESULT: -9.568534267      2.285      3.162
REMARK  11 active torsions:
REMARK  status: ('A' for Active; 'I' for Inactive)
REMARK    1  A    between atoms: C2_2  and  C3_3 
REMARK    2  A    between atoms: C3_3  and  N1_4 
REMARK    3  A    between atoms: C4_5  and  O1_6 
REMARK    4  A    between atoms: C5_8  and  N2_9 
REMARK    5  A    between atoms: N2_9  and  C6_11 
REMARK    6  A    between atoms: C6_11  and  C7_12 
REMARK    7  A    between atoms: C8_13  and  O2_14 
REMARK    8  A    between atoms: C9_18  and  O3_19 
REMARK    9  A    between atoms: C10_21  and  N4_22 
REMARK   10  A    between atoms: N4_22  and  N5_24 
REMARK       I    between atoms: N5_24  and  C11_26 
REMARK   11  A    between atoms: C11_26  and  C12_28 
ROOT
HETATM    1  C7  UNL     1      15.163  29.907  -6.799  1.00  0.00     0.062 A 
HETATM    2  C8  UNL     1      14.291  29.919  -7.874  1.00  0.00     0.156 A 
HETATM    3  N3  UNL     1      14.720  29.008  -8.755  1.00  0.00    -0.315 N 
ATOM      4  H3  UNL     1      14.269  28.799  -9.645  1.00  0.00     0.170 HD
HETATM    5  C9  UNL     1      15.825  28.413  -8.296  1.00  0.00     0.172 A 
HETATM    6  C10 UNL     1      16.118  28.961  -7.075  1.00  0.00     0.115 A 
ENDROOT
BRANCH   1   7
HETATM    7  C6  UNL     1      15.051  30.751  -5.602  1.00  0.00     0.107 C 
BRANCH   7   8
HETATM    8  N2  UNL     1      15.324  31.990  -5.652  1.00  0.00    -0.357 N 
ATOM      9  H2  UNL     1      16.265  32.310  -5.423  1.00  0.00     0.165 HD
BRANCH   8  10
HETATM   10  C5  UNL     1      14.321  32.942  -6.027  1.00  0.00     0.152 A 
HETATM   11  C4  UNL     1      13.152  33.066  -5.316  1.00  0.00     0.179 A 
HETATM   12  N1  UNL     1      12.204  33.982  -5.672  1.00  0.00    -0.278 N 
HETATM   13  C17 UNL     1      12.495  34.730  -6.735  1.00  0.00     0.331 A 
HETATM   14  N6  UNL     1      13.615  34.640  -7.450  1.00  0.00    -0.273 N 
HETATM   15  O6  UNL     1      11.649  35.593  -7.100  1.00  0.00    -0.246 OA
HETATM   16  C16 UNL     1      14.560  33.740  -7.113  1.00  0.00     0.280 A 
ATOM     17  H6  UNL     1      13.758  35.252  -8.252  1.00  0.00     0.173 HD
HETATM   18  O5  UNL     1      15.633  33.646  -7.790  1.00  0.00    -0.265 OA
BRANCH  11  19
HETATM   19  O1  UNL     1      12.933  32.259  -4.236  1.00  0.00    -0.344 OA
ATOM     20  H1  UNL     1      12.382  32.568  -3.526  1.00  0.00     0.219 HD
ENDBRANCH  11  19
BRANCH  12  21
HETATM   21  C3  UNL     1      11.014  34.122  -4.925  1.00  0.00     0.135 C 
BRANCH  21  22
HETATM   22  C2  UNL     1      10.979  35.135  -3.842  1.00  0.00     0.016 C 
HETATM   23  C1  UNL     1      11.060  34.658  -2.440  1.00  0.00     0.006 C 
ENDBRANCH  21  22
ENDBRANCH  12  21
ENDBRANCH   8  10
ENDBRANCH   7   8
ENDBRANCH   1   7
BRANCH   2  24
HETATM   24  O2  UNL     1      13.168  30.728  -8.023  1.00  0.00    -0.345 OA
ATOM     25  H2  UNL     1      12.614  30.791  -8.792  1.00  0.00     0.219 HD
ENDBRANCH   2  24
BRANCH   6  26
HETATM   26  N4  UNL     1      17.208  28.650  -6.203  1.00  0.00    -0.293 N 
ATOM     27  H4  UNL     1      17.703  29.384  -5.695  1.00  0.00     0.187 HD
BRANCH  26  28
HETATM   28  N5  UNL     1      17.572  27.309  -6.070  1.00  0.00    -0.266 N 
HETATM   29  C11 UNL     1      18.812  26.888  -5.514  1.00  0.00     0.259 C 
HETATM   30  O4  UNL     1      19.589  27.827  -5.140  1.00  0.00    -0.267 OA
ATOM     31  H5  UNL     1      16.916  26.595  -6.387  1.00  0.00     0.190 HD
BRANCH  29  32
HETATM   32  C12 UNL     1      19.166  25.487  -5.382  1.00  0.00     0.077 C 
HETATM   33  C13 UNL     1      18.990  24.764  -4.308  1.00  0.00    -0.082 C 
HETATM   34  C14 UNL     1      19.400  23.334  -4.319  1.00  0.00     0.043 C 
HETATM   35  C15 UNL     1      18.405  25.334  -3.092  1.00  0.00     0.043 C 
ENDBRANCH  29  32
ENDBRANCH  26  28
ENDBRANCH   6  26
BRANCH   5  36
HETATM   36  O3  UNL     1      16.586  27.404  -8.912  1.00  0.00    -0.344 OA
ATOM     37  H3  UNL     1      16.902  26.593  -8.531  1.00  0.00     0.219 HD
ENDBRANCH   5  36
TORSDOF 11
ENDMDL
