MODEL 1
REMARK VINA RESULT: -7.136705552      0.000      0.000
REMARK  8 active torsions:
REMARK  status: ('A' for Active; 'I' for Inactive)
REMARK    1  A    between atoms: N1_1  and  C1_4 
REMARK    2  A    between atoms: C2_5  and  C3_6 
REMARK    3  A    between atoms: C3_6  and  C4_7 
REMARK    4  A    between atoms: N3_19  and  C11_20 
REMARK    5  A    between atoms: C11_20  and  C12_21 
REMARK    6  A    between atoms: C12_21  and  C13_22 
REMARK    7  A    between atoms: C12_21  and  C14_27 
REMARK    8  A    between atoms: C13_22  and  N4_23 
ROOT
HETATM    1  C1  UNL     1      -4.446   4.521  14.388  1.00  0.00     0.123 A 
HETATM    2  C2  UNL     1      -3.516   5.558  14.616  1.00  0.00     0.008 A 
HETATM    3  C10 UNL     1      -2.371   5.092  14.008  1.00  0.00     0.118 A 
HETATM    4  N2  UNL     1      -2.602   3.891  13.471  1.00  0.00    -0.307 N 
ATOM      5  H2  UNL     1      -1.916   3.332  12.963  1.00  0.00     0.186 HD
HETATM    6  N3  UNL     1      -3.872   3.533  13.701  1.00  0.00    -0.276 N 
ENDROOT
BRANCH   6   7
HETATM    7  C11 UNL     1      -4.471   2.279  13.316  1.00  0.00     0.164 C 
BRANCH   7   8
HETATM    8  C12 UNL     1      -3.556   1.184  12.944  1.00  0.00     0.099 C 
BRANCH   8   9
HETATM    9  C13 UNL     1      -3.697  -0.140  13.604  1.00  0.00     0.243 C 
BRANCH   9  10
HETATM   10  N4  UNL     1      -3.447  -0.177  15.008  1.00  0.00    -0.079 N 
ATOM     11  H43 UNL     1      -2.461   0.012  15.188  1.00  0.00     0.274 HD
ATOM     12  H42 UNL     1      -3.876   0.634  15.455  1.00  0.00     0.274 HD
ATOM     13  H41 UNL     1      -3.729  -1.027  15.496  1.00  0.00     0.274 HD
ENDBRANCH   9  10
ENDBRANCH   8   9
BRANCH   8  14
HETATM   14  C14 UNL     1      -3.798   0.929  11.468  1.00  0.00     0.088 A 
HETATM   15  N5  UNL     1      -2.942   0.093  10.815  1.00  0.00    -0.355 N 
HETATM   16  C15 UNL     1      -3.123  -0.155   9.513  1.00  0.00     0.090 A 
ATOM     17  H5  UNL     1      -2.166  -0.341  11.317  1.00  0.00     0.166 HD
HETATM   18  C16 UNL     1      -4.177   0.445   8.865  1.00  0.00     0.034 A 
HETATM   19  C17 UNL     1      -5.028   1.284   9.543  1.00  0.00     0.090 A 
HETATM   20  N6  UNL     1      -4.811   1.506  10.850  1.00  0.00    -0.355 N 
ATOM     21  H6  UNL     1      -5.434   2.127  11.368  1.00  0.00     0.166 HD
ENDBRANCH   8  14
ENDBRANCH   7   8
ENDBRANCH   6   7
BRANCH   1  22
HETATM   22  N1  UNL     1      -5.658   4.604  14.782  1.00  0.00    -0.384 N 
ATOM     23  H12 UNL     1      -6.255   5.430  14.805  1.00  0.00     0.157 HD
ATOM     24  H11 UNL     1      -6.156   3.799  15.161  1.00  0.00     0.157 HD
ENDBRANCH   1  22
BRANCH   2  25
HETATM   25  C3  UNL     1      -3.805   6.797  15.356  1.00  0.00     0.084 C 
BRANCH  25  26
HETATM   26  C4  UNL     1      -3.952   8.008  14.541  1.00  0.00    -0.030 A 
HETATM   27  C5  UNL     1      -5.088   8.202  13.745  1.00  0.00     0.034 A 
HETATM   28  C6  UNL     1      -5.278   9.317  12.966  1.00  0.00     0.056 A 
HETATM   29 CL1  UNL     1      -6.714   9.532  11.977  1.00  0.00    -0.083 Cl
HETATM   30  C7  UNL     1      -4.331  10.318  12.938  1.00  0.00     0.057 A 
HETATM   31 CL2  UNL     1      -4.572  11.749  11.939  1.00  0.00    -0.082 Cl
HETATM   32  C8  UNL     1      -3.203  10.159  13.710  1.00  0.00     0.050 A 
HETATM   33  C9  UNL     1      -3.018   9.017  14.501  1.00  0.00     0.042 A 
HETATM   34 CL3  UNL     1      -1.553   8.890  15.469  1.00  0.00    -0.084 Cl
ENDBRANCH  25  26
ENDBRANCH   2  25
TORSDOF 8
ENDMDL
MODEL 2
REMARK VINA RESULT: -7.032764191      0.934      1.906
REMARK  8 active torsions:
REMARK  status: ('A' for Active; 'I' for Inactive)
REMARK    1  A    between atoms: N1_1  and  C1_4 
REMARK    2  A    between atoms: C2_5  and  C3_6 
REMARK    3  A    between atoms: C3_6  and  C4_7 
REMARK    4  A    between atoms: N3_19  and  C11_20 
REMARK    5  A    between atoms: C11_20  and  C12_21 
REMARK    6  A    between atoms: C12_21  and  C13_22 
REMARK    7  A    between atoms: C12_21  and  C14_27 
REMARK    8  A    between atoms: C13_22  and  N4_23 
ROOT
HETATM    1  C1  UNL     1      -4.657   4.730  14.680  1.00  0.00     0.123 A 
HETATM    2  C2  UNL     1      -3.772   5.827  14.748  1.00  0.00     0.008 A 
HETATM    3  C10 UNL     1      -2.687   5.400  14.014  1.00  0.00     0.118 A 
HETATM    4  N2  UNL     1      -2.909   4.166  13.555  1.00  0.00    -0.307 N 
ATOM      5  H2  UNL     1      -2.260   3.625  12.983  1.00  0.00     0.186 HD
HETATM    6  N3  UNL     1      -4.116   3.747  13.960  1.00  0.00    -0.276 N 
ENDROOT
BRANCH   6   7
HETATM    7  C11 UNL     1      -4.680   2.445  13.701  1.00  0.00     0.164 C 
BRANCH   7   8
HETATM    8  C12 UNL     1      -3.759   1.396  13.226  1.00  0.00     0.099 C 
BRANCH   8   9
HETATM    9  C13 UNL     1      -3.754   0.071  13.899  1.00  0.00     0.243 C 
BRANCH   9  10
HETATM   10  N4  UNL     1      -3.403   0.064  15.281  1.00  0.00    -0.079 N 
ATOM     11  H43 UNL     1      -2.395   0.178  15.381  1.00  0.00     0.274 HD
ATOM     12  H42 UNL     1      -3.731   0.922  15.724  1.00  0.00     0.274 HD
ATOM     13  H41 UNL     1      -3.713  -0.743  15.823  1.00  0.00     0.274 HD
ENDBRANCH   9  10
ENDBRANCH   8   9
BRANCH   8  14
HETATM   14  C14 UNL     1      -4.156   1.120  11.788  1.00  0.00     0.088 A 
HETATM   15  N5  UNL     1      -3.761  -0.060  11.231  1.00  0.00    -0.355 N 
HETATM   16  C15 UNL     1      -4.092  -0.338   9.965  1.00  0.00     0.090 A 
ATOM     17  H5  UNL     1      -3.216  -0.727  11.777  1.00  0.00     0.166 HD
HETATM   18  C16 UNL     1      -4.828   0.582   9.256  1.00  0.00     0.034 A 
HETATM   19  C17 UNL     1      -5.215   1.765   9.837  1.00  0.00     0.090 A 
HETATM   20  N6  UNL     1      -4.862   2.005  11.110  1.00  0.00    -0.355 N 
ATOM     21  H6  UNL     1      -5.143   2.879  11.557  1.00  0.00     0.166 HD
ENDBRANCH   8  14
ENDBRANCH   7   8
ENDBRANCH   6   7
BRANCH   1  22
HETATM   22  N1  UNL     1      -5.812   4.761  15.224  1.00  0.00    -0.384 N 
ATOM     23  H12 UNL     1      -6.562   5.434  15.066  1.00  0.00     0.157 HD
ATOM     24  H11 UNL     1      -6.090   4.085  15.934  1.00  0.00     0.157 HD
ENDBRANCH   1  22
BRANCH   2  25
HETATM   25  C3  UNL     1      -4.040   7.078  15.475  1.00  0.00     0.084 C 
BRANCH  25  26
HETATM   26  C4  UNL     1      -3.999   8.304  14.670  1.00  0.00    -0.030 A 
HETATM   27  C5  UNL     1      -2.858   9.115  14.658  1.00  0.00     0.034 A 
HETATM   28  C6  UNL     1      -2.766  10.272  13.921  1.00  0.00     0.056 A 
HETATM   29 CL1  UNL     1      -1.320  11.270  13.926  1.00  0.00    -0.083 Cl
HETATM   30  C7  UNL     1      -3.823  10.689  13.142  1.00  0.00     0.057 A 
HETATM   31 CL2  UNL     1      -3.707  12.171  12.197  1.00  0.00    -0.082 Cl
HETATM   32  C8  UNL     1      -4.960   9.913  13.132  1.00  0.00     0.050 A 
HETATM   33  C9  UNL     1      -5.045   8.736  13.887  1.00  0.00     0.042 A 
HETATM   34 CL3  UNL     1      -6.529   7.792  13.814  1.00  0.00    -0.084 Cl
ENDBRANCH  25  26
ENDBRANCH   2  25
TORSDOF 8
ENDMDL
MODEL 3
REMARK VINA RESULT: -6.992959564      1.164      2.473
REMARK  8 active torsions:
REMARK  status: ('A' for Active; 'I' for Inactive)
REMARK    1  A    between atoms: N1_1  and  C1_4 
REMARK    2  A    between atoms: C2_5  and  C3_6 
REMARK    3  A    between atoms: C3_6  and  C4_7 
REMARK    4  A    between atoms: N3_19  and  C11_20 
REMARK    5  A    between atoms: C11_20  and  C12_21 
REMARK    6  A    between atoms: C12_21  and  C13_22 
REMARK    7  A    between atoms: C12_21  and  C14_27 
REMARK    8  A    between atoms: C13_22  and  N4_23 
ROOT
HETATM    1  C1  UNL     1      -4.796   4.466  14.511  1.00  0.00     0.123 A 
HETATM    2  C2  UNL     1      -4.156   5.719  14.405  1.00  0.00     0.008 A 
HETATM    3  C10 UNL     1      -3.372   5.577  13.281  1.00  0.00     0.118 A 
HETATM    4  N2  UNL     1      -3.534   4.354  12.770  1.00  0.00    -0.307 N 
ATOM      5  H2  UNL     1      -3.066   3.998  11.936  1.00  0.00     0.186 HD
HETATM    6  N3  UNL     1      -4.405   3.665  13.520  1.00  0.00    -0.276 N 
ENDROOT
BRANCH   6   7
HETATM    7  C11 UNL     1      -4.789   2.292  13.306  1.00  0.00     0.164 C 
BRANCH   7   8
HETATM    8  C12 UNL     1      -3.705   1.314  13.106  1.00  0.00     0.099 C 
BRANCH   8   9
HETATM    9  C13 UNL     1      -3.724   0.037  13.866  1.00  0.00     0.243 C 
BRANCH   9  10
HETATM   10  N4  UNL     1      -3.443   0.126  15.261  1.00  0.00    -0.079 N 
ATOM     11  H43 UNL     1      -2.566   0.627  15.404  1.00  0.00     0.274 HD
ATOM     12  H42 UNL     1      -4.098   0.770  15.704  1.00  0.00     0.274 HD
ATOM     13  H41 UNL     1      -3.425  -0.754  15.777  1.00  0.00     0.274 HD
ENDBRANCH   9  10
ENDBRANCH   8   9
BRANCH   8  14
HETATM   14  C14 UNL     1      -3.774   0.917  11.643  1.00  0.00     0.088 A 
HETATM   15  N5  UNL     1      -4.793   1.422  10.892  1.00  0.00    -0.355 N 
HETATM   16  C15 UNL     1      -4.888   1.093   9.598  1.00  0.00     0.090 A 
ATOM     17  H5  UNL     1      -5.481   2.047  11.313  1.00  0.00     0.166 HD
HETATM   18  C16 UNL     1      -3.946   0.248   9.060  1.00  0.00     0.034 A 
HETATM   19  C17 UNL     1      -2.928  -0.249   9.835  1.00  0.00     0.090 A 
HETATM   20  N6  UNL     1      -2.869   0.106  11.129  1.00  0.00    -0.355 N 
ATOM     21  H6  UNL     1      -2.119  -0.255  11.720  1.00  0.00     0.166 HD
ENDBRANCH   8  14
ENDBRANCH   7   8
ENDBRANCH   6   7
BRANCH   1  22
HETATM   22  N1  UNL     1      -5.646   4.219  15.432  1.00  0.00    -0.384 N 
ATOM     23  H12 UNL     1      -6.113   3.336  15.635  1.00  0.00     0.157 HD
ATOM     24  H11 UNL     1      -5.974   4.945  16.069  1.00  0.00     0.157 HD
ENDBRANCH   1  22
BRANCH   2  25
HETATM   25  C3  UNL     1      -4.342   6.839  15.342  1.00  0.00     0.084 C 
BRANCH  25  26
HETATM   26  C4  UNL     1      -3.656   8.087  14.988  1.00  0.00    -0.030 A 
HETATM   27  C5  UNL     1      -2.311   8.285  15.324  1.00  0.00     0.034 A 
HETATM   28  C6  UNL     1      -1.621   9.432  15.015  1.00  0.00     0.056 A 
HETATM   29 CL1  UNL     1       0.067   9.652  15.449  1.00  0.00    -0.083 Cl
HETATM   30  C7  UNL     1      -2.244  10.462  14.342  1.00  0.00     0.057 A 
HETATM   31 CL2  UNL     1      -1.360  11.934  13.946  1.00  0.00    -0.082 Cl
HETATM   32  C8  UNL     1      -3.566  10.298  13.998  1.00  0.00     0.050 A 
HETATM   33  C9  UNL     1      -4.262   9.125  14.318  1.00  0.00     0.042 A 
HETATM   34 CL3  UNL     1      -5.949   8.986  13.834  1.00  0.00    -0.084 Cl
ENDBRANCH  25  26
ENDBRANCH   2  25
TORSDOF 8
ENDMDL
MODEL 4
REMARK VINA RESULT: -6.885094225      3.201      5.326
REMARK  8 active torsions:
REMARK  status: ('A' for Active; 'I' for Inactive)
REMARK    1  A    between atoms: N1_1  and  C1_4 
REMARK    2  A    between atoms: C2_5  and  C3_6 
REMARK    3  A    between atoms: C3_6  and  C4_7 
REMARK    4  A    between atoms: N3_19  and  C11_20 
REMARK    5  A    between atoms: C11_20  and  C12_21 
REMARK    6  A    between atoms: C12_21  and  C13_22 
REMARK    7  A    between atoms: C12_21  and  C14_27 
REMARK    8  A    between atoms: C13_22  and  N4_23 
ROOT
HETATM    1  C1  UNL     1      -3.364   3.577  10.935  1.00  0.00     0.123 A 
HETATM    2  C2  UNL     1      -2.443   3.957  11.935  1.00  0.00     0.008 A 
HETATM    3  C10 UNL     1      -1.276   3.345  11.534  1.00  0.00     0.118 A 
HETATM    4  N2  UNL     1      -1.486   2.667  10.403  1.00  0.00    -0.307 N 
ATOM      5  H2  UNL     1      -0.781   2.128   9.900  1.00  0.00     0.186 HD
HETATM    6  N3  UNL     1      -2.766   2.803  10.030  1.00  0.00    -0.276 N 
ENDROOT
BRANCH   6   7
HETATM    7  C11 UNL     1      -3.375   2.171   8.885  1.00  0.00     0.164 C 
BRANCH   7   8
HETATM    8  C12 UNL     1      -4.381   1.127   9.150  1.00  0.00     0.099 C 
BRANCH   8   9
HETATM    9  C13 UNL     1      -4.814   0.234   8.043  1.00  0.00     0.243 C 
BRANCH   9  10
HETATM   10  N4  UNL     1      -4.392   0.601   6.731  1.00  0.00    -0.079 N 
ATOM     11  H43 UNL     1      -4.323   1.616   6.663  1.00  0.00     0.274 HD
ATOM     12  H42 UNL     1      -3.415   0.340   6.599  1.00  0.00     0.274 HD
ATOM     13  H41 UNL     1      -4.951   0.241   5.958  1.00  0.00     0.274 HD
ENDBRANCH   9  10
ENDBRANCH   8   9
BRANCH   8  14
HETATM   14  C14 UNL     1      -3.763   0.213  10.190  1.00  0.00     0.088 A 
HETATM   15  N5  UNL     1      -2.784  -0.645   9.786  1.00  0.00    -0.355 N 
HETATM   16  C15 UNL     1      -2.216  -1.467  10.676  1.00  0.00     0.090 A 
ATOM     17  H5  UNL     1      -2.487  -0.662   8.810  1.00  0.00     0.166 HD
HETATM   18  C16 UNL     1      -2.638  -1.422  11.983  1.00  0.00     0.034 A 
HETATM   19  C17 UNL     1      -3.626  -0.548  12.369  1.00  0.00     0.090 A 
HETATM   20  N6  UNL     1      -4.171   0.260  11.445  1.00  0.00    -0.355 N 
ATOM     21  H6  UNL     1      -4.905   0.915  11.714  1.00  0.00     0.166 HD
ENDBRANCH   8  14
ENDBRANCH   7   8
ENDBRANCH   6   7
BRANCH   1  22
HETATM   22  N1  UNL     1      -4.574   3.986  10.943  1.00  0.00    -0.384 N 
ATOM     23  H12 UNL     1      -5.424   3.432  10.850  1.00  0.00     0.157 HD
ATOM     24  H11 UNL     1      -4.806   4.976  11.020  1.00  0.00     0.157 HD
ENDBRANCH   1  22
BRANCH   2  25
HETATM   25  C3  UNL     1      -2.766   4.798  13.098  1.00  0.00     0.084 C 
BRANCH  25  26
HETATM   26  C4  UNL     1      -3.695   4.213  14.071  1.00  0.00    -0.030 A 
HETATM   27  C5  UNL     1      -3.537   2.892  14.508  1.00  0.00     0.034 A 
HETATM   28  C6  UNL     1      -4.377   2.297  15.418  1.00  0.00     0.056 A 
HETATM   29 CL1  UNL     1      -4.154   0.636  15.947  1.00  0.00    -0.083 Cl
HETATM   30  C7  UNL     1      -5.436   2.997  15.953  1.00  0.00     0.057 A 
HETATM   31 CL2  UNL     1      -6.514   2.235  17.120  1.00  0.00    -0.082 Cl
HETATM   32  C8  UNL     1      -5.619   4.299  15.544  1.00  0.00     0.050 A 
HETATM   33  C9  UNL     1      -4.757   4.897  14.615  1.00  0.00     0.042 A 
HETATM   34 CL3  UNL     1      -5.050   6.570  14.150  1.00  0.00    -0.084 Cl
ENDBRANCH  25  26
ENDBRANCH   2  25
TORSDOF 8
ENDMDL
MODEL 5
REMARK VINA RESULT: -6.804552296      1.876      2.761
REMARK  8 active torsions:
REMARK  status: ('A' for Active; 'I' for Inactive)
REMARK    1  A    between atoms: N1_1  and  C1_4 
REMARK    2  A    between atoms: C2_5  and  C3_6 
REMARK    3  A    between atoms: C3_6  and  C4_7 
REMARK    4  A    between atoms: N3_19  and  C11_20 
REMARK    5  A    between atoms: C11_20  and  C12_21 
REMARK    6  A    between atoms: C12_21  and  C13_22 
REMARK    7  A    between atoms: C12_21  and  C14_27 
REMARK    8  A    between atoms: C13_22  and  N4_23 
ROOT
HETATM    1  C1  UNL     1      -3.740   4.160  14.095  1.00  0.00     0.123 A 
HETATM    2  C2  UNL     1      -4.580   5.120  14.699  1.00  0.00     0.008 A 
HETATM    3  C10 UNL     1      -5.651   4.371  15.133  1.00  0.00     0.118 A 
HETATM    4  N2  UNL     1      -5.464   3.088  14.814  1.00  0.00    -0.307 N 
ATOM      5  H2  UNL     1      -6.111   2.328  15.025  1.00  0.00     0.186 HD
HETATM    6  N3  UNL     1      -4.293   2.950  14.176  1.00  0.00    -0.276 N 
ENDROOT
BRANCH   6   7
HETATM    7  C11 UNL     1      -3.775   1.718  13.635  1.00  0.00     0.164 C 
BRANCH   7   8
HETATM    8  C12 UNL     1      -4.330   1.264  12.346  1.00  0.00     0.099 C 
BRANCH   8   9
HETATM    9  C13 UNL     1      -4.543   2.251  11.256  1.00  0.00     0.243 C 
BRANCH   9  10
HETATM   10  N4  UNL     1      -5.272   1.791  10.119  1.00  0.00    -0.079 N 
ATOM     11  H43 UNL     1      -4.996   2.325   9.295  1.00  0.00     0.274 HD
ATOM     12  H42 UNL     1      -4.946   0.862   9.854  1.00  0.00     0.274 HD
ATOM     13  H41 UNL     1      -6.288   1.788  10.203  1.00  0.00     0.274 HD
ENDBRANCH   9  10
ENDBRANCH   8   9
BRANCH   8  14
HETATM   14  C14 UNL     1      -3.331   0.263  11.798  1.00  0.00     0.088 A 
HETATM   15  N5  UNL     1      -2.131   0.734  11.356  1.00  0.00    -0.355 N 
HETATM   16  C15 UNL     1      -1.225  -0.119  10.865  1.00  0.00     0.090 A 
ATOM     17  H5  UNL     1      -1.924   1.733  11.400  1.00  0.00     0.166 HD
HETATM   18  C16 UNL     1      -1.533  -1.458  10.820  1.00  0.00     0.034 A 
HETATM   19  C17 UNL     1      -2.748  -1.912  11.271  1.00  0.00     0.090 A 
HETATM   20  N6  UNL     1      -3.630  -1.022  11.757  1.00  0.00    -0.355 N 
ATOM     21  H6  UNL     1      -4.538  -1.342  12.096  1.00  0.00     0.166 HD
ENDBRANCH   8  14
ENDBRANCH   7   8
ENDBRANCH   6   7
BRANCH   1  22
HETATM   22  N1  UNL     1      -2.608   4.475  13.595  1.00  0.00    -0.384 N 
ATOM     23  H12 UNL     1      -2.069   5.327  13.749  1.00  0.00     0.157 HD
ATOM     24  H11 UNL     1      -2.127   3.871  12.929  1.00  0.00     0.157 HD
ENDBRANCH   1  22
BRANCH   2  25
HETATM   25  C3  UNL     1      -4.289   6.561  14.778  1.00  0.00     0.084 C 
BRANCH  25  26
HETATM   26  C4  UNL     1      -4.918   7.396  13.749  1.00  0.00    -0.030 A 
HETATM   27  C5  UNL     1      -5.153   6.893  12.463  1.00  0.00     0.034 A 
HETATM   28  C6  UNL     1      -5.740   7.631  11.464  1.00  0.00     0.056 A 
HETATM   29 CL1  UNL     1      -6.021   6.973   9.859  1.00  0.00    -0.083 Cl
HETATM   30  C7  UNL     1      -6.136   8.931  11.696  1.00  0.00     0.057 A 
HETATM   31 CL2  UNL     1      -6.889   9.878  10.416  1.00  0.00    -0.082 Cl
HETATM   32  C8  UNL     1      -5.920   9.454  12.950  1.00  0.00     0.050 A 
HETATM   33  C9  UNL     1      -5.319   8.694  13.963  1.00  0.00     0.042 A 
HETATM   34 CL3  UNL     1      -5.086   9.431  15.545  1.00  0.00    -0.084 Cl
ENDBRANCH  25  26
ENDBRANCH   2  25
TORSDOF 8
ENDMDL
