MODEL 1
REMARK VINA RESULT: -7.325301122      0.000      0.000
REMARK  11 active torsions:
REMARK  status: ('A' for Active; 'I' for Inactive)
REMARK    1  A    between atoms: C3_3  and  C4_4 
REMARK    2  A    between atoms: C7_7  and  C8_8 
REMARK    3  A    between atoms: C8_8  and  O1_9 
REMARK    4  A    between atoms: C8_8  and  C9_11 
REMARK    5  A    between atoms: C8_8  and  C18_26 
REMARK    6  A    between atoms: C9_11  and  O2_12 
REMARK    7  A    between atoms: C9_11  and  C14_20 
REMARK    8  A    between atoms: O2_12  and  C10_13 
REMARK       I    between atoms: C10_13  and  N1_15 
REMARK    9  A    between atoms: N1_15  and  C11_17 
REMARK   10  A    between atoms: C14_20  and  O4_22 
REMARK   11  A    between atoms: C14_20  and  C16_24 
ROOT
HETATM    1  C1  UNL     1      -0.600   9.222  15.583  1.00  0.00     0.112 C 
HETATM    2  C2  UNL     1      -1.237   8.051  14.948  1.00  0.00    -0.105 C 
HETATM    3  C3  UNL     1      -1.733   7.092  14.421  1.00  0.00    -0.067 C 
ENDROOT
BRANCH   3   4
HETATM    4  C4  UNL     1      -2.295   5.921  13.779  1.00  0.00     0.017 A 
HETATM    5  C5  UNL     1      -1.517   5.228  12.840  1.00  0.00     0.021 A 
HETATM    6  C6  UNL     1      -2.007   4.108  12.216  1.00  0.00     0.012 A 
HETATM    7  C7  UNL     1      -3.265   3.584  12.448  1.00  0.00    -0.012 A 
HETATM    8  C19 UNL     1      -4.014   4.297  13.389  1.00  0.00     0.012 A 
HETATM    9  C20 UNL     1      -3.538   5.435  14.033  1.00  0.00     0.021 A 
BRANCH   7  10
HETATM   10  C8  UNL     1      -3.777   2.419  11.736  1.00  0.00     0.212 C 
BRANCH  10  11
HETATM   11  O1  UNL     1      -5.128   2.284  12.266  1.00  0.00    -0.374 OA
ATOM     12  H1  UNL     1      -5.663   2.291  11.482  1.00  0.00     0.211 HD
ENDBRANCH  10  11
BRANCH  10  13
HETATM   13  C9  UNL     1      -3.278   1.078  11.995  1.00  0.00     0.215 C 
BRANCH  13  14
HETATM   14  O2  UNL     1      -4.239   0.521  12.945  1.00  0.00    -0.292 OA
BRANCH  14  15
HETATM   15  C10 UNL     1      -4.047   0.536  14.318  1.00  0.00     0.361 C 
HETATM   16  O3  UNL     1      -3.183  -0.239  14.776  1.00  0.00    -0.238 OA
HETATM   17  N1  UNL     1      -4.824   1.412  15.132  1.00  0.00    -0.333 N 
ATOM     18  H1  UNL     1      -5.497   2.006  14.648  1.00  0.00     0.165 HD
BRANCH  17  19
HETATM   19  C11 UNL     1      -4.759   1.544  16.552  1.00  0.00     0.078 C 
HETATM   20  C12 UNL     1      -5.604   2.810  16.887  1.00  0.00     0.032 C 
HETATM   21  C13 UNL     1      -5.467   0.403  17.242  1.00  0.00     0.032 C 
ENDBRANCH  17  19
ENDBRANCH  14  15
ENDBRANCH  13  14
BRANCH  13  22
HETATM   22  C14 UNL     1      -3.108   0.004  10.995  1.00  0.00     0.084 C 
HETATM   23  C15 UNL     1      -4.270  -0.623  10.364  1.00  0.00     0.049 C 
BRANCH  22  24
HETATM   24  O4  UNL     1      -2.591  -1.067  11.869  1.00  0.00    -0.387 OA
ATOM     25  H4  UNL     1      -1.980  -1.481  11.270  1.00  0.00     0.210 HD
ENDBRANCH  22  24
BRANCH  22  26
HETATM   26  C16 UNL     1      -1.916   0.158  10.085  1.00  0.00     0.035 C 
HETATM   27  C17 UNL     1      -0.772   0.873  10.794  1.00  0.00     0.008 C 
ENDBRANCH  22  26
ENDBRANCH  13  22
ENDBRANCH  10  13
BRANCH  10  28
HETATM   28  C18 UNL     1      -4.175   2.762  10.310  1.00  0.00     0.425 C 
HETATM   29  F1  UNL     1      -5.263   2.098   9.885  1.00  0.00    -0.167 F 
HETATM   30  F2  UNL     1      -4.502   4.134  10.281  1.00  0.00    -0.167 F 
HETATM   31  F3  UNL     1      -3.176   2.669   9.379  1.00  0.00    -0.167 F 
ENDBRANCH  10  28
ENDBRANCH   7  10
ENDBRANCH   3   4
TORSDOF 11
ENDMDL
MODEL 2
REMARK VINA RESULT: -6.927709960      2.533      4.199
REMARK  11 active torsions:
REMARK  status: ('A' for Active; 'I' for Inactive)
REMARK    1  A    between atoms: C3_3  and  C4_4 
REMARK    2  A    between atoms: C7_7  and  C8_8 
REMARK    3  A    between atoms: C8_8  and  O1_9 
REMARK    4  A    between atoms: C8_8  and  C9_11 
REMARK    5  A    between atoms: C8_8  and  C18_26 
REMARK    6  A    between atoms: C9_11  and  O2_12 
REMARK    7  A    between atoms: C9_11  and  C14_20 
REMARK    8  A    between atoms: O2_12  and  C10_13 
REMARK       I    between atoms: C10_13  and  N1_15 
REMARK    9  A    between atoms: N1_15  and  C11_17 
REMARK   10  A    between atoms: C14_20  and  O4_22 
REMARK   11  A    between atoms: C14_20  and  C16_24 
ROOT
HETATM    1  C1  UNL     1       2.737   6.203   7.909  1.00  0.00     0.112 C 
HETATM    2  C2  UNL     1       1.589   5.516   8.533  1.00  0.00    -0.105 C 
HETATM    3  C3  UNL     1       0.669   4.954   9.063  1.00  0.00    -0.067 C 
ENDROOT
BRANCH   3   4
HETATM    4  C4  UNL     1      -0.422   4.278   9.736  1.00  0.00     0.017 A 
HETATM    5  C5  UNL     1      -0.136   3.483  10.854  1.00  0.00     0.021 A 
HETATM    6  C6  UNL     1      -1.140   2.834  11.528  1.00  0.00     0.012 A 
HETATM    7  C7  UNL     1      -2.475   2.904  11.174  1.00  0.00    -0.012 A 
HETATM    8  C19 UNL     1      -2.727   3.704  10.056  1.00  0.00     0.012 A 
HETATM    9  C20 UNL     1      -1.724   4.370   9.358  1.00  0.00     0.021 A 
BRANCH   7  10
HETATM   10  C8  UNL     1      -3.517   2.166  11.879  1.00  0.00     0.212 C 
BRANCH  10  11
HETATM   11  O1  UNL     1      -4.706   2.446  11.085  1.00  0.00    -0.374 OA
ATOM     12  H1  UNL     1      -4.957   3.313  11.380  1.00  0.00     0.211 HD
ENDBRANCH  10  11
BRANCH  10  13
HETATM   13  C9  UNL     1      -3.997   2.575  13.190  1.00  0.00     0.215 C 
BRANCH  13  14
HETATM   14  O2  UNL     1      -3.384   1.615  14.106  1.00  0.00    -0.292 OA
BRANCH  14  15
HETATM   15  C10 UNL     1      -4.104   0.893  15.046  1.00  0.00     0.361 C 
HETATM   16  O3  UNL     1      -4.220  -0.333  14.849  1.00  0.00    -0.238 OA
HETATM   17  N1  UNL     1      -4.671   1.564  16.169  1.00  0.00    -0.333 N 
ATOM     18  H1  UNL     1      -4.506   2.568  16.232  1.00  0.00     0.165 HD
BRANCH  17  19
HETATM   19  C11 UNL     1      -5.443   0.976  17.217  1.00  0.00     0.078 C 
HETATM   20  C12 UNL     1      -5.431   2.021  18.373  1.00  0.00     0.032 C 
HETATM   21  C13 UNL     1      -6.894   0.843  16.820  1.00  0.00     0.032 C 
ENDBRANCH  17  19
ENDBRANCH  14  15
ENDBRANCH  13  14
BRANCH  13  22
HETATM   22  C14 UNL     1      -3.759   3.881  13.836  1.00  0.00     0.084 C 
HETATM   23  C15 UNL     1      -2.648   4.062  14.772  1.00  0.00     0.049 C 
BRANCH  22  24
HETATM   24  O4  UNL     1      -4.942   3.941  14.716  1.00  0.00    -0.387 OA
ATOM     25  H4  UNL     1      -4.603   4.507  15.400  1.00  0.00     0.210 HD
ENDBRANCH  22  24
BRANCH  22  26
HETATM   26  C16 UNL     1      -4.047   5.085  12.976  1.00  0.00     0.035 C 
HETATM   27  C17 UNL     1      -2.886   6.071  13.006  1.00  0.00     0.008 C 
ENDBRANCH  22  26
ENDBRANCH  13  22
ENDBRANCH  10  13
BRANCH  10  28
HETATM   28  C18 UNL     1      -3.449   0.677  11.585  1.00  0.00     0.425 C 
HETATM   29  F1  UNL     1      -4.593   0.025  11.855  1.00  0.00    -0.167 F 
HETATM   30  F2  UNL     1      -3.217   0.529  10.202  1.00  0.00    -0.167 F 
HETATM   31  F3  UNL     1      -2.389   0.013  12.141  1.00  0.00    -0.167 F 
ENDBRANCH  10  28
ENDBRANCH   7  10
ENDBRANCH   3   4
TORSDOF 11
ENDMDL
MODEL 3
REMARK VINA RESULT: -6.681646259      1.975      2.473
REMARK  11 active torsions:
REMARK  status: ('A' for Active; 'I' for Inactive)
REMARK    1  A    between atoms: C3_3  and  C4_4 
REMARK    2  A    between atoms: C7_7  and  C8_8 
REMARK    3  A    between atoms: C8_8  and  O1_9 
REMARK    4  A    between atoms: C8_8  and  C9_11 
REMARK    5  A    between atoms: C8_8  and  C18_26 
REMARK    6  A    between atoms: C9_11  and  O2_12 
REMARK    7  A    between atoms: C9_11  and  C14_20 
REMARK    8  A    between atoms: O2_12  and  C10_13 
REMARK       I    between atoms: C10_13  and  N1_15 
REMARK    9  A    between atoms: N1_15  and  C11_17 
REMARK   10  A    between atoms: C14_20  and  O4_22 
REMARK   11  A    between atoms: C14_20  and  C16_24 
ROOT
HETATM    1  C1  UNL     1      -5.210   9.490  15.682  1.00  0.00     0.112 C 
HETATM    2  C2  UNL     1      -4.654   8.307  14.994  1.00  0.00    -0.105 C 
HETATM    3  C3  UNL     1      -4.221   7.331  14.445  1.00  0.00    -0.067 C 
ENDROOT
BRANCH   3   4
HETATM    4  C4  UNL     1      -3.732   6.134  13.790  1.00  0.00     0.017 A 
HETATM    5  C5  UNL     1      -4.176   5.847  12.491  1.00  0.00     0.021 A 
HETATM    6  C6  UNL     1      -3.730   4.730  11.830  1.00  0.00     0.012 A 
HETATM    7  C7  UNL     1      -2.838   3.822  12.368  1.00  0.00    -0.012 A 
HETATM    8  C19 UNL     1      -2.415   4.136  13.662  1.00  0.00     0.012 A 
HETATM    9  C20 UNL     1      -2.854   5.263  14.351  1.00  0.00     0.021 A 
BRANCH   7  10
HETATM   10  C8  UNL     1      -2.417   2.618  11.660  1.00  0.00     0.212 C 
BRANCH  10  11
HETATM   11  O1  UNL     1      -3.011   2.794  10.340  1.00  0.00    -0.374 OA
ATOM     12  H1  UNL     1      -2.390   2.358   9.770  1.00  0.00     0.211 HD
ENDBRANCH  10  11
BRANCH  10  13
HETATM   13  C9  UNL     1      -2.946   1.304  11.992  1.00  0.00     0.215 C 
BRANCH  13  14
HETATM   14  O2  UNL     1      -4.131   1.594  12.798  1.00  0.00    -0.292 OA
BRANCH  14  15
HETATM   15  C10 UNL     1      -4.176   1.421  14.173  1.00  0.00     0.361 C 
HETATM   16  O3  UNL     1      -3.407   0.570  14.661  1.00  0.00    -0.238 OA
HETATM   17  N1  UNL     1      -5.077   2.203  14.954  1.00  0.00    -0.333 N 
ATOM     18  H1  UNL     1      -5.654   2.876  14.449  1.00  0.00     0.165 HD
BRANCH  17  19
HETATM   19  C11 UNL     1      -5.255   2.145  16.369  1.00  0.00     0.078 C 
HETATM   20  C12 UNL     1      -6.086   3.413  16.733  1.00  0.00     0.032 C 
HETATM   21  C13 UNL     1      -6.125   0.976  16.764  1.00  0.00     0.032 C 
ENDBRANCH  17  19
ENDBRANCH  14  15
ENDBRANCH  13  14
BRANCH  13  22
HETATM   22  C14 UNL     1      -3.414   0.285  11.030  1.00  0.00     0.084 C 
HETATM   23  C15 UNL     1      -2.885   0.245   9.666  1.00  0.00     0.049 C 
BRANCH  22  24
HETATM   24  O4  UNL     1      -4.800   0.751  10.832  1.00  0.00    -0.387 OA
ATOM     25  H4  UNL     1      -5.267  -0.056  11.017  1.00  0.00     0.210 HD
ENDBRANCH  22  24
BRANCH  22  26
HETATM   26  C16 UNL     1      -3.705  -1.069  11.623  1.00  0.00     0.035 C 
HETATM   27  C17 UNL     1      -2.602  -2.065  11.286  1.00  0.00     0.008 C 
ENDBRANCH  22  26
ENDBRANCH  13  22
ENDBRANCH  10  13
BRANCH  10  28
HETATM   28  C18 UNL     1      -0.966   2.704  11.218  1.00  0.00     0.425 C 
HETATM   29  F1  UNL     1      -0.333   1.519  11.228  1.00  0.00    -0.167 F 
HETATM   30  F2  UNL     1      -0.956   3.156   9.882  1.00  0.00    -0.167 F 
HETATM   31  F3  UNL     1      -0.208   3.645  11.861  1.00  0.00    -0.167 F 
ENDBRANCH  10  28
ENDBRANCH   7  10
ENDBRANCH   3   4
TORSDOF 11
ENDMDL
MODEL 4
REMARK VINA RESULT: -6.583277684      2.371      3.307
REMARK  11 active torsions:
REMARK  status: ('A' for Active; 'I' for Inactive)
REMARK    1  A    between atoms: C3_3  and  C4_4 
REMARK    2  A    between atoms: C7_7  and  C8_8 
REMARK    3  A    between atoms: C8_8  and  O1_9 
REMARK    4  A    between atoms: C8_8  and  C9_11 
REMARK    5  A    between atoms: C8_8  and  C18_26 
REMARK    6  A    between atoms: C9_11  and  O2_12 
REMARK    7  A    between atoms: C9_11  and  C14_20 
REMARK    8  A    between atoms: O2_12  and  C10_13 
REMARK       I    between atoms: C10_13  and  N1_15 
REMARK    9  A    between atoms: N1_15  and  C11_17 
REMARK   10  A    between atoms: C14_20  and  O4_22 
REMARK   11  A    between atoms: C14_20  and  C16_24 
ROOT
HETATM    1  C1  UNL     1       4.475   5.275   9.099  1.00  0.00     0.112 C 
HETATM    2  C2  UNL     1       3.169   4.798   9.597  1.00  0.00    -0.105 C 
HETATM    3  C3  UNL     1       2.119   4.388  10.012  1.00  0.00    -0.067 C 
ENDROOT
BRANCH   3   4
HETATM    4  C4  UNL     1       0.871   3.868  10.534  1.00  0.00     0.017 A 
HETATM    5  C5  UNL     1       0.365   2.673  10.004  1.00  0.00     0.021 A 
HETATM    6  C6  UNL     1      -0.808   2.139  10.476  1.00  0.00     0.012 A 
HETATM    7  C7  UNL     1      -1.566   2.713  11.478  1.00  0.00    -0.012 A 
HETATM    8  C19 UNL     1      -1.035   3.902  11.986  1.00  0.00     0.012 A 
HETATM    9  C20 UNL     1       0.152   4.461  11.521  1.00  0.00     0.021 A 
BRANCH   7  10
HETATM   10  C8  UNL     1      -2.833   2.148  11.929  1.00  0.00     0.212 C 
BRANCH  10  11
HETATM   11  O1  UNL     1      -2.994   2.730  13.255  1.00  0.00    -0.374 OA
ATOM     12  H1  UNL     1      -3.803   3.221  13.174  1.00  0.00     0.211 HD
ENDBRANCH  10  11
BRANCH  10  13
HETATM   13  C9  UNL     1      -2.974   0.739  12.262  1.00  0.00     0.215 C 
BRANCH  13  14
HETATM   14  O2  UNL     1      -4.128   0.702  13.158  1.00  0.00    -0.292 OA
BRANCH  14  15
HETATM   15  C10 UNL     1      -4.020   0.741  14.540  1.00  0.00     0.361 C 
HETATM   16  O3  UNL     1      -3.141   0.026  15.059  1.00  0.00    -0.238 OA
HETATM   17  N1  UNL     1      -4.897   1.576  15.294  1.00  0.00    -0.333 N 
ATOM     18  H1  UNL     1      -5.573   2.125  14.763  1.00  0.00     0.165 HD
BRANCH  17  19
HETATM   19  C11 UNL     1      -4.925   1.726  16.714  1.00  0.00     0.078 C 
HETATM   20  C12 UNL     1      -5.978   2.842  16.989  1.00  0.00     0.032 C 
HETATM   21  C13 UNL     1      -5.476   0.491  17.384  1.00  0.00     0.032 C 
ENDBRANCH  17  19
ENDBRANCH  14  15
ENDBRANCH  13  14
BRANCH  13  22
HETATM   22  C14 UNL     1      -3.230  -0.360  11.310  1.00  0.00     0.084 C 
HETATM   23  C15 UNL     1      -4.210  -0.205  10.234  1.00  0.00     0.049 C 
BRANCH  22  24
HETATM   24  O4  UNL     1      -3.887  -1.322  12.215  1.00  0.00    -0.387 OA
ATOM     25  H4  UNL     1      -3.945  -2.073  11.635  1.00  0.00     0.210 HD
ENDBRANCH  22  24
BRANCH  22  26
HETATM   26  C16 UNL     1      -2.022  -1.179  10.936  1.00  0.00     0.035 C 
HETATM   27  C17 UNL     1      -2.345  -2.668  10.939  1.00  0.00     0.008 C 
ENDBRANCH  22  26
ENDBRANCH  13  22
ENDBRANCH  10  13
BRANCH  10  28
HETATM   28  C18 UNL     1      -4.020   2.842  11.282  1.00  0.00     0.425 C 
HETATM   29  F1  UNL     1      -5.196   2.248  11.545  1.00  0.00    -0.167 F 
HETATM   30  F2  UNL     1      -4.095   4.143  11.821  1.00  0.00    -0.167 F 
HETATM   31  F3  UNL     1      -3.906   3.079   9.938  1.00  0.00    -0.167 F 
ENDBRANCH  10  28
ENDBRANCH   7  10
ENDBRANCH   3   4
TORSDOF 11
ENDMDL
MODEL 5
REMARK VINA RESULT: -6.387644988      3.502      5.531
REMARK  11 active torsions:
REMARK  status: ('A' for Active; 'I' for Inactive)
REMARK    1  A    between atoms: C3_3  and  C4_4 
REMARK    2  A    between atoms: C7_7  and  C8_8 
REMARK    3  A    between atoms: C8_8  and  O1_9 
REMARK    4  A    between atoms: C8_8  and  C9_11 
REMARK    5  A    between atoms: C8_8  and  C18_26 
REMARK    6  A    between atoms: C9_11  and  O2_12 
REMARK    7  A    between atoms: C9_11  and  C14_20 
REMARK    8  A    between atoms: O2_12  and  C10_13 
REMARK       I    between atoms: C10_13  and  N1_15 
REMARK    9  A    between atoms: N1_15  and  C11_17 
REMARK   10  A    between atoms: C14_20  and  O4_22 
REMARK   11  A    between atoms: C14_20  and  C16_24 
ROOT
HETATM    1  C1  UNL     1      -7.539  10.591   8.903  1.00  0.00     0.112 C 
HETATM    2  C2  UNL     1      -6.896   9.527   9.700  1.00  0.00    -0.105 C 
HETATM    3  C3  UNL     1      -6.350   8.671  10.341  1.00  0.00    -0.067 C 
ENDROOT
BRANCH   3   4
HETATM    4  C4  UNL     1      -5.657   7.658  11.112  1.00  0.00     0.017 A 
HETATM    5  C5  UNL     1      -4.784   6.785  10.448  1.00  0.00     0.021 A 
HETATM    6  C6  UNL     1      -4.100   5.818  11.141  1.00  0.00     0.012 A 
HETATM    7  C7  UNL     1      -4.209   5.626  12.506  1.00  0.00    -0.012 A 
HETATM    8  C19 UNL     1      -5.086   6.512  13.138  1.00  0.00     0.012 A 
HETATM    9  C20 UNL     1      -5.790   7.499  12.455  1.00  0.00     0.021 A 
BRANCH   7  10
HETATM   10  C8  UNL     1      -3.505   4.560  13.210  1.00  0.00     0.212 C 
BRANCH  10  11
HETATM   11  O1  UNL     1      -2.625   4.019  12.182  1.00  0.00    -0.374 OA
ATOM     12  H1  UNL     1      -2.105   3.385  12.661  1.00  0.00     0.211 HD
ENDBRANCH  10  11
BRANCH  10  13
HETATM   13  C9  UNL     1      -4.175   3.337  13.625  1.00  0.00     0.215 C 
BRANCH  13  14
HETATM   14  O2  UNL     1      -3.253   2.276  13.225  1.00  0.00    -0.292 OA
BRANCH  14  15
HETATM   15  C10 UNL     1      -3.620   1.214  12.413  1.00  0.00     0.361 C 
HETATM   16  O3  UNL     1      -3.941   0.151  12.982  1.00  0.00    -0.238 OA
HETATM   17  N1  UNL     1      -3.618   1.374  10.996  1.00  0.00    -0.333 N 
ATOM     18  H1  UNL     1      -3.345   2.290  10.641  1.00  0.00     0.165 HD
BRANCH  17  19
HETATM   19  C11 UNL     1      -3.957   0.386  10.022  1.00  0.00     0.078 C 
HETATM   20  C12 UNL     1      -4.500   1.184   8.798  1.00  0.00     0.032 C 
HETATM   21  C13 UNL     1      -2.729  -0.328   9.514  1.00  0.00     0.032 C 
ENDBRANCH  17  19
ENDBRANCH  14  15
ENDBRANCH  13  14
BRANCH  13  22
HETATM   22  C14 UNL     1      -4.552   2.976  15.006  1.00  0.00     0.084 C 
HETATM   23  C15 UNL     1      -3.590   2.330  15.900  1.00  0.00     0.049 C 
BRANCH  22  24
HETATM   24  O4  UNL     1      -5.515   1.894  14.724  1.00  0.00    -0.387 OA
ATOM     25  H4  UNL     1      -5.111   1.189  15.215  1.00  0.00     0.210 HD
ENDBRANCH  22  24
BRANCH  22  26
HETATM   26  C16 UNL     1      -5.482   3.944  15.691  1.00  0.00     0.035 C 
HETATM   27  C17 UNL     1      -6.204   3.280  16.858  1.00  0.00     0.008 C 
ENDBRANCH  22  26
ENDBRANCH  13  22
ENDBRANCH  10  13
BRANCH  10  28
HETATM   28  C18 UNL     1      -2.413   5.108  14.113  1.00  0.00     0.425 C 
HETATM   29  F1  UNL     1      -1.521   4.180  14.498  1.00  0.00    -0.167 F 
HETATM   30  F2  UNL     1      -1.698   6.074  13.375  1.00  0.00    -0.167 F 
HETATM   31  F3  UNL     1      -2.847   5.819  15.200  1.00  0.00    -0.167 F 
ENDBRANCH  10  28
ENDBRANCH   7  10
ENDBRANCH   3   4
TORSDOF 11
ENDMDL
