MODEL 1
REMARK VINA RESULT: -7.845840360      0.000      0.000
REMARK  8 active torsions:
REMARK  status: ('A' for Active; 'I' for Inactive)
REMARK       I    between atoms: C1_2  and  N1_3 
REMARK    1  A    between atoms: C1_2  and  C4_9 
REMARK    2  A    between atoms: N1_3  and  C2_5 
REMARK    3  A    between atoms: C2_5  and  C3_6 
REMARK       I    between atoms: C4_9  and  N2_11 
REMARK    4  A    between atoms: N2_11  and  N3_13 
REMARK    5  A    between atoms: N3_13  and  N4_15 
REMARK    6  A    between atoms: C5_17  and  C6_18 
REMARK    7  A    between atoms: C9_21  and  C10_22 
REMARK    8  A    between atoms: N6_26  and  C12_27 
ROOT
HETATM    1  C6  UNL     1      -4.057   2.766  15.428  1.00  0.00    -0.019 A 
HETATM    2  C7  UNL     1      -5.377   3.250  15.468  1.00  0.00     0.013 A 
HETATM    3  C8  UNL     1      -5.620   4.513  15.036  1.00  0.00     0.013 A 
HETATM    4  C9  UNL     1      -4.652   5.364  14.553  1.00  0.00    -0.023 A 
HETATM    5  C19 UNL     1      -3.356   4.865  14.521  1.00  0.00     0.013 A 
HETATM    6  C20 UNL     1      -3.054   3.572  14.956  1.00  0.00     0.013 A 
ENDROOT
BRANCH   1   7
HETATM    7  C5  UNL     1      -3.811   1.407  15.899  1.00  0.00     0.120 C 
HETATM    8  N4  UNL     1      -3.721   0.348  15.264  1.00  0.00    -0.297 N 
ATOM      9  H4  UNL     1      -3.546  -0.425  15.906  1.00  0.00     0.187 HD
BRANCH   8  10
HETATM   10  N3  UNL     1      -3.779  -0.111  14.008  1.00  0.00    -0.240 N 
ATOM     11  H3  UNL     1      -4.339  -0.944  13.821  1.00  0.00     0.208 HD
BRANCH  10  12
HETATM   12  N2  UNL     1      -3.109   0.494  12.937  1.00  0.00    -0.247 N 
HETATM   13  C4  UNL     1      -3.807   1.413  12.129  1.00  0.00     0.328 C 
HETATM   14  O2  UNL     1      -5.001   1.682  12.374  1.00  0.00    -0.261 OA
ATOM     15  H2  UNL     1      -2.132   0.273  12.746  1.00  0.00     0.192 HD
BRANCH  13  16
HETATM   16  C1  UNL     1      -3.123   2.040  11.014  1.00  0.00     0.311 C 
HETATM   17  O1  UNL     1      -3.504   1.811   9.820  1.00  0.00    -0.262 OA
HETATM   18  N1  UNL     1      -2.033   2.905  11.256  1.00  0.00    -0.348 N 
ATOM     19  H1  UNL     1      -1.721   3.091  12.209  1.00  0.00     0.163 HD
BRANCH  18  20
HETATM   20  C2  UNL     1      -1.358   3.532  10.114  1.00  0.00     0.194 C 
BRANCH  20  21
HETATM   21  C3  UNL     1       0.003   2.881   9.912  1.00  0.00     0.370 C 
HETATM   22  F1  UNL     1       0.923   3.398  10.797  1.00  0.00    -0.213 F 
HETATM   23  F2  UNL     1      -0.144   1.515  10.064  1.00  0.00    -0.213 F 
ENDBRANCH  20  21
ENDBRANCH  18  20
ENDBRANCH  13  16
ENDBRANCH  10  12
ENDBRANCH   8  10
ENDBRANCH   1   7
BRANCH   4  24
HETATM   24  C10 UNL     1      -4.936   6.729  14.119  1.00  0.00     0.009 A 
HETATM   25  C11 UNL     1      -5.104   7.822  14.954  1.00  0.00     0.121 A 
HETATM   26  N5  UNL     1      -5.372   8.907  14.211  1.00  0.00    -0.304 N 
HETATM   27  N6  UNL     1      -5.378   8.524  12.944  1.00  0.00    -0.267 N 
ATOM     28  H5  UNL     1      -5.541   9.851  14.559  1.00  0.00     0.186 HD
HETATM   29  C18 UNL     1      -5.117   7.210  12.843  1.00  0.00     0.130 A 
BRANCH  27  30
HETATM   30  C12 UNL     1      -5.647   9.440  11.857  1.00  0.00     0.056 A 
HETATM   31  C13 UNL     1      -4.859  10.537  11.677  1.00  0.00     0.033 A 
HETATM   32  C14 UNL     1      -5.102  11.417  10.660  1.00  0.00     0.026 A 
HETATM   33  C15 UNL     1      -6.160  11.182   9.810  1.00  0.00     0.034 A 
HETATM   34 CL1  UNL     1      -6.478  12.312   8.502  1.00  0.00    -0.084 Cl
HETATM   35  C16 UNL     1      -6.967  10.068   9.985  1.00  0.00     0.026 A 
HETATM   36  C17 UNL     1      -6.700   9.197  11.019  1.00  0.00     0.033 A 
ENDBRANCH  27  30
ENDBRANCH   4  24
TORSDOF 8
ENDMDL
MODEL 2
REMARK VINA RESULT: -7.803604949      0.145      1.216
REMARK  8 active torsions:
REMARK  status: ('A' for Active; 'I' for Inactive)
REMARK       I    between atoms: C1_2  and  N1_3 
REMARK    1  A    between atoms: C1_2  and  C4_9 
REMARK    2  A    between atoms: N1_3  and  C2_5 
REMARK    3  A    between atoms: C2_5  and  C3_6 
REMARK       I    between atoms: C4_9  and  N2_11 
REMARK    4  A    between atoms: N2_11  and  N3_13 
REMARK    5  A    between atoms: N3_13  and  N4_15 
REMARK    6  A    between atoms: C5_17  and  C6_18 
REMARK    7  A    between atoms: C9_21  and  C10_22 
REMARK    8  A    between atoms: N6_26  and  C12_27 
ROOT
HETATM    1  C6  UNL     1      -4.126   2.669  15.439  1.00  0.00    -0.019 A 
HETATM    2  C7  UNL     1      -3.052   3.461  14.995  1.00  0.00     0.013 A 
HETATM    3  C8  UNL     1      -3.303   4.734  14.598  1.00  0.00     0.013 A 
HETATM    4  C9  UNL     1      -4.552   5.312  14.600  1.00  0.00    -0.023 A 
HETATM    5  C19 UNL     1      -5.598   4.513  15.044  1.00  0.00     0.013 A 
HETATM    6  C20 UNL     1      -5.391   3.196  15.463  1.00  0.00     0.013 A 
ENDROOT
BRANCH   1   7
HETATM    7  C5  UNL     1      -3.840   1.302  15.861  1.00  0.00     0.120 C 
HETATM    8  N4  UNL     1      -3.711   0.271  15.187  1.00  0.00    -0.297 N 
ATOM      9  H4  UNL     1      -3.515  -0.520  15.801  1.00  0.00     0.187 HD
BRANCH   8  10
HETATM   10  N3  UNL     1      -3.747  -0.143  13.914  1.00  0.00    -0.240 N 
ATOM     11  H3  UNL     1      -4.289  -0.977  13.690  1.00  0.00     0.208 HD
BRANCH  10  12
HETATM   12  N2  UNL     1      -3.076   0.514  12.875  1.00  0.00    -0.247 N 
HETATM   13  C4  UNL     1      -3.787   1.433  12.078  1.00  0.00     0.328 C 
HETATM   14  O2  UNL     1      -4.995   1.655  12.305  1.00  0.00    -0.261 OA
ATOM     15  H2  UNL     1      -2.088   0.330  12.698  1.00  0.00     0.192 HD
BRANCH  13  16
HETATM   16  C1  UNL     1      -3.102   2.112  10.995  1.00  0.00     0.311 C 
HETATM   17  O1  UNL     1      -3.517   1.986   9.797  1.00  0.00    -0.262 OA
HETATM   18  N1  UNL     1      -1.974   2.915  11.273  1.00  0.00    -0.348 N 
ATOM     19  H1  UNL     1      -1.635   3.019  12.229  1.00  0.00     0.163 HD
BRANCH  18  20
HETATM   20  C2  UNL     1      -1.298   3.597  10.163  1.00  0.00     0.194 C 
BRANCH  20  21
HETATM   21  C3  UNL     1       0.026   2.904   9.875  1.00  0.00     0.370 C 
HETATM   22  F1  UNL     1       1.008   3.364  10.724  1.00  0.00    -0.213 F 
HETATM   23  F2  UNL     1      -0.164   1.540  10.001  1.00  0.00    -0.213 F 
ENDBRANCH  20  21
ENDBRANCH  18  20
ENDBRANCH  13  16
ENDBRANCH  10  12
ENDBRANCH   8  10
ENDBRANCH   1   7
BRANCH   4  24
HETATM   24  C10 UNL     1      -4.799   6.676  14.142  1.00  0.00     0.009 A 
HETATM   25  C11 UNL     1      -4.794   7.809  14.940  1.00  0.00     0.121 A 
HETATM   26  N5  UNL     1      -5.082   8.881  14.186  1.00  0.00    -0.304 N 
HETATM   27  N6  UNL     1      -5.265   8.453  12.947  1.00  0.00    -0.267 N 
ATOM     28  H5  UNL     1      -5.147   9.847  14.508  1.00  0.00     0.186 HD
HETATM   29  C18 UNL     1      -5.103   7.121  12.876  1.00  0.00     0.130 A 
BRANCH  27  30
HETATM   30  C12 UNL     1      -5.606   9.343  11.860  1.00  0.00     0.056 A 
HETATM   31  C13 UNL     1      -6.639   9.038  11.025  1.00  0.00     0.033 A 
HETATM   32  C14 UNL     1      -6.972   9.865   9.989  1.00  0.00     0.026 A 
HETATM   33  C15 UNL     1      -6.248  11.019   9.794  1.00  0.00     0.034 A 
HETATM   34 CL1  UNL     1      -6.670  12.084   8.461  1.00  0.00    -0.084 Cl
HETATM   35  C16 UNL     1      -5.195  11.339  10.639  1.00  0.00     0.026 A 
HETATM   36  C17 UNL     1      -4.881  10.488  11.677  1.00  0.00     0.033 A 
ENDBRANCH  27  30
ENDBRANCH   4  24
TORSDOF 8
ENDMDL
MODEL 3
REMARK VINA RESULT: -7.586933900      1.218      1.507
REMARK  8 active torsions:
REMARK  status: ('A' for Active; 'I' for Inactive)
REMARK       I    between atoms: C1_2  and  N1_3 
REMARK    1  A    between atoms: C1_2  and  C4_9 
REMARK    2  A    between atoms: N1_3  and  C2_5 
REMARK    3  A    between atoms: C2_5  and  C3_6 
REMARK       I    between atoms: C4_9  and  N2_11 
REMARK    4  A    between atoms: N2_11  and  N3_13 
REMARK    5  A    between atoms: N3_13  and  N4_15 
REMARK    6  A    between atoms: C5_17  and  C6_18 
REMARK    7  A    between atoms: C9_21  and  C10_22 
REMARK    8  A    between atoms: N6_26  and  C12_27 
ROOT
HETATM    1  C6  UNL     1      -4.138   2.937  15.404  1.00  0.00    -0.019 A 
HETATM    2  C7  UNL     1      -5.485   3.342  15.404  1.00  0.00     0.013 A 
HETATM    3  C8  UNL     1      -5.822   4.478  14.744  1.00  0.00     0.013 A 
HETATM    4  C9  UNL     1      -4.926   5.271  14.064  1.00  0.00    -0.023 A 
HETATM    5  C19 UNL     1      -3.602   4.852  14.076  1.00  0.00     0.013 A 
HETATM    6  C20 UNL     1      -3.204   3.690  14.742  1.00  0.00     0.013 A 
ENDROOT
BRANCH   1   7
HETATM    7  C5  UNL     1      -3.791   1.713  16.121  1.00  0.00     0.120 C 
HETATM    8  N4  UNL     1      -3.714   0.546  15.714  1.00  0.00    -0.297 N 
ATOM      9  H4  UNL     1      -3.446  -0.069  16.482  1.00  0.00     0.187 HD
BRANCH   8  10
HETATM   10  N3  UNL     1      -3.867  -0.169  14.593  1.00  0.00    -0.240 N 
ATOM     11  H3  UNL     1      -4.583  -0.895  14.576  1.00  0.00     0.208 HD
BRANCH  10  12
HETATM   12  N2  UNL     1      -3.093   0.030  13.443  1.00  0.00    -0.247 N 
HETATM   13  C4  UNL     1      -3.600   0.848  12.414  1.00  0.00     0.328 C 
HETATM   14  O2  UNL     1      -4.721   1.386  12.536  1.00  0.00    -0.261 OA
ATOM     15  H2  UNL     1      -2.177  -0.409  13.353  1.00  0.00     0.192 HD
BRANCH  13  16
HETATM   16  C1  UNL     1      -2.809   1.054  11.216  1.00  0.00     0.311 C 
HETATM   17  O1  UNL     1      -3.358   0.997  10.068  1.00  0.00    -0.262 OA
HETATM   18  N1  UNL     1      -1.426   1.319  11.327  1.00  0.00    -0.348 N 
ATOM     19  H1  UNL     1      -0.979   1.364  12.242  1.00  0.00     0.163 HD
BRANCH  18  20
HETATM   20  C2  UNL     1      -0.644   1.529  10.103  1.00  0.00     0.194 C 
BRANCH  20  21
HETATM   21  C3  UNL     1       0.121   2.840  10.210  1.00  0.00     0.370 C 
HETATM   22  F1  UNL     1      -0.600   3.869   9.646  1.00  0.00    -0.213 F 
HETATM   23  F2  UNL     1       0.391   3.075  11.546  1.00  0.00    -0.213 F 
ENDBRANCH  20  21
ENDBRANCH  18  20
ENDBRANCH  13  16
ENDBRANCH  10  12
ENDBRANCH   8  10
ENDBRANCH   1   7
BRANCH   4  24
HETATM   24  C10 UNL     1      -5.311   6.505  13.384  1.00  0.00     0.009 A 
HETATM   25  C11 UNL     1      -6.561   6.775  12.849  1.00  0.00     0.121 A 
HETATM   26  N5  UNL     1      -6.545   7.992  12.285  1.00  0.00    -0.304 N 
HETATM   27  N6  UNL     1      -5.327   8.486  12.449  1.00  0.00    -0.267 N 
ATOM     28  H5  UNL     1      -7.326   8.451  11.815  1.00  0.00     0.186 HD
HETATM   29  C18 UNL     1      -4.547   7.617  13.113  1.00  0.00     0.130 A 
BRANCH  27  30
HETATM   30  C12 UNL     1      -4.944   9.788  11.950  1.00  0.00     0.056 A 
HETATM   31  C13 UNL     1      -3.846  10.418  12.456  1.00  0.00     0.033 A 
HETATM   32  C14 UNL     1      -3.472  11.650  12.000  1.00  0.00     0.026 A 
HETATM   33  C15 UNL     1      -4.220  12.256  11.017  1.00  0.00     0.034 A 
HETATM   34 CL1  UNL     1      -3.744  13.843  10.429  1.00  0.00    -0.084 Cl
HETATM   35  C16 UNL     1      -5.339  11.624  10.495  1.00  0.00     0.026 A 
HETATM   36  C17 UNL     1      -5.694  10.380  10.972  1.00  0.00     0.033 A 
ENDBRANCH  27  30
ENDBRANCH   4  24
TORSDOF 8
ENDMDL
MODEL 4
REMARK VINA RESULT: -7.577216069      4.433      7.136
REMARK  8 active torsions:
REMARK  status: ('A' for Active; 'I' for Inactive)
REMARK       I    between atoms: C1_2  and  N1_3 
REMARK    1  A    between atoms: C1_2  and  C4_9 
REMARK    2  A    between atoms: N1_3  and  C2_5 
REMARK    3  A    between atoms: C2_5  and  C3_6 
REMARK       I    between atoms: C4_9  and  N2_11 
REMARK    4  A    between atoms: N2_11  and  N3_13 
REMARK    5  A    between atoms: N3_13  and  N4_15 
REMARK    6  A    between atoms: C5_17  and  C6_18 
REMARK    7  A    between atoms: C9_21  and  C10_22 
REMARK    8  A    between atoms: N6_26  and  C12_27 
ROOT
HETATM    1  C6  UNL     1      -3.977   4.962  13.883  1.00  0.00    -0.019 A 
HETATM    2  C7  UNL     1      -2.625   4.814  14.242  1.00  0.00     0.013 A 
HETATM    3  C8  UNL     1      -1.750   4.365  13.308  1.00  0.00     0.013 A 
HETATM    4  C9  UNL     1      -2.097   4.042  12.016  1.00  0.00    -0.023 A 
HETATM    5  C19 UNL     1      -3.437   4.197  11.683  1.00  0.00     0.013 A 
HETATM    6  C20 UNL     1      -4.377   4.655  12.609  1.00  0.00     0.013 A 
ENDROOT
BRANCH   1   7
HETATM    7  C5  UNL     1      -4.907   5.444  14.900  1.00  0.00     0.120 C 
HETATM    8  N4  UNL     1      -5.617   4.812  15.694  1.00  0.00    -0.297 N 
ATOM      9  H4  UNL     1      -6.152   5.461  16.270  1.00  0.00     0.187 HD
BRANCH   8  10
HETATM   10  N3  UNL     1      -5.911   3.552  16.040  1.00  0.00    -0.240 N 
ATOM     11  H3  UNL     1      -6.372   3.391  16.935  1.00  0.00     0.208 HD
BRANCH  10  12
HETATM   12  N2  UNL     1      -5.616   2.446  15.234  1.00  0.00    -0.247 N 
HETATM   13  C4  UNL     1      -4.383   1.787  15.406  1.00  0.00     0.328 C 
HETATM   14  O2  UNL     1      -3.574   2.186  16.270  1.00  0.00    -0.261 OA
ATOM     15  H2  UNL     1      -6.283   2.123  14.534  1.00  0.00     0.192 HD
BRANCH  13  16
HETATM   16  C1  UNL     1      -4.066   0.644  14.571  1.00  0.00     0.311 C 
HETATM   17  O1  UNL     1      -4.127  -0.535  15.049  1.00  0.00    -0.262 OA
HETATM   18  N1  UNL     1      -3.692   0.843  13.224  1.00  0.00    -0.348 N 
ATOM     19  H1  UNL     1      -3.639   1.784  12.834  1.00  0.00     0.163 HD
BRANCH  18  20
HETATM   20  C2  UNL     1      -3.380  -0.326  12.393  1.00  0.00     0.194 C 
BRANCH  20  21
HETATM   21  C3  UNL     1      -3.920  -0.107  10.988  1.00  0.00     0.370 C 
HETATM   22  F1  UNL     1      -4.426   1.167  10.857  1.00  0.00    -0.213 F 
HETATM   23  F2  UNL     1      -2.897  -0.348  10.089  1.00  0.00    -0.213 F 
ENDBRANCH  20  21
ENDBRANCH  18  20
ENDBRANCH  13  16
ENDBRANCH  10  12
ENDBRANCH   8  10
ENDBRANCH   1   7
BRANCH   4  24
HETATM   24  C10 UNL     1      -1.140   3.535  11.037  1.00  0.00     0.009 A 
HETATM   25  C11 UNL     1      -0.968   2.203  10.692  1.00  0.00     0.121 A 
HETATM   26  N5  UNL     1       0.010   2.107   9.780  1.00  0.00    -0.304 N 
HETATM   27  N6  UNL     1       0.453   3.333   9.547  1.00  0.00    -0.267 N 
ATOM     28  H5  UNL     1       0.350   1.248   9.346  1.00  0.00     0.186 HD
HETATM   29  C18 UNL     1      -0.218   4.229  10.289  1.00  0.00     0.130 A 
BRANCH  27  30
HETATM   30  C12 UNL     1       1.526   3.608   8.617  1.00  0.00     0.056 A 
HETATM   31  C13 UNL     1       2.798   3.781   9.074  1.00  0.00     0.033 A 
HETATM   32  C14 UNL     1       3.824   4.047   8.211  1.00  0.00     0.026 A 
HETATM   33  C15 UNL     1       3.558   4.139   6.863  1.00  0.00     0.034 A 
HETATM   34 CL1  UNL     1       4.874   4.484   5.750  1.00  0.00    -0.084 Cl
HETATM   35  C16 UNL     1       2.267   3.963   6.389  1.00  0.00     0.026 A 
HETATM   36  C17 UNL     1       1.251   3.696   7.281  1.00  0.00     0.033 A 
ENDBRANCH  27  30
ENDBRANCH   4  24
TORSDOF 8
ENDMDL
MODEL 5
REMARK VINA RESULT: -7.537764671      1.209      1.631
REMARK  8 active torsions:
REMARK  status: ('A' for Active; 'I' for Inactive)
REMARK       I    between atoms: C1_2  and  N1_3 
REMARK    1  A    between atoms: C1_2  and  C4_9 
REMARK    2  A    between atoms: N1_3  and  C2_5 
REMARK    3  A    between atoms: C2_5  and  C3_6 
REMARK       I    between atoms: C4_9  and  N2_11 
REMARK    4  A    between atoms: N2_11  and  N3_13 
REMARK    5  A    between atoms: N3_13  and  N4_15 
REMARK    6  A    between atoms: C5_17  and  C6_18 
REMARK    7  A    between atoms: C9_21  and  C10_22 
REMARK    8  A    between atoms: N6_26  and  C12_27 
ROOT
HETATM    1  C6  UNL     1      -4.258   3.096  14.585  1.00  0.00    -0.019 A 
HETATM    2  C7  UNL     1      -3.138   3.943  14.667  1.00  0.00     0.013 A 
HETATM    3  C8  UNL     1      -3.303   5.265  14.412  1.00  0.00     0.013 A 
HETATM    4  C9  UNL     1      -4.506   5.843  14.076  1.00  0.00    -0.023 A 
HETATM    5  C19 UNL     1      -5.599   4.988  14.003  1.00  0.00     0.013 A 
HETATM    6  C20 UNL     1      -5.481   3.619  14.255  1.00  0.00     0.013 A 
ENDROOT
BRANCH   1   7
HETATM    7  C5  UNL     1      -4.063   1.675  14.860  1.00  0.00     0.120 C 
HETATM    8  N4  UNL     1      -3.795   0.744  14.088  1.00  0.00    -0.297 N 
ATOM      9  H4  UNL     1      -3.729  -0.129  14.612  1.00  0.00     0.187 HD
BRANCH   8  10
HETATM   10  N3  UNL     1      -3.564   0.512  12.791  1.00  0.00    -0.240 N 
ATOM     11  H3  UNL     1      -4.144  -0.175  12.310  1.00  0.00     0.208 HD
BRANCH  10  12
HETATM   12  N2  UNL     1      -2.564   1.166  12.060  1.00  0.00    -0.247 N 
HETATM   13  C4  UNL     1      -2.930   2.209  11.187  1.00  0.00     0.328 C 
HETATM   14  O2  UNL     1      -4.129   2.541  11.076  1.00  0.00    -0.261 OA
ATOM     15  H2  UNL     1      -1.587   0.892  12.159  1.00  0.00     0.192 HD
BRANCH  13  16
HETATM   16  C1  UNL     1      -1.902   2.887  10.420  1.00  0.00     0.311 C 
HETATM   17  O1  UNL     1      -2.226   3.697   9.491  1.00  0.00    -0.262 OA
HETATM   18  N1  UNL     1      -0.541   2.648  10.708  1.00  0.00    -0.348 N 
ATOM     19  H1  UNL     1      -0.274   2.000  11.449  1.00  0.00     0.163 HD
BRANCH  18  20
HETATM   20  C2  UNL     1       0.484   3.348   9.924  1.00  0.00     0.194 C 
BRANCH  20  21
HETATM   21  C3  UNL     1       1.152   4.403  10.794  1.00  0.00     0.370 C 
HETATM   22  F1  UNL     1       0.381   4.677  11.901  1.00  0.00    -0.213 F 
HETATM   23  F2  UNL     1       2.408   3.943  11.144  1.00  0.00    -0.213 F 
ENDBRANCH  20  21
ENDBRANCH  18  20
ENDBRANCH  13  16
ENDBRANCH  10  12
ENDBRANCH   8  10
ENDBRANCH   1   7
BRANCH   4  24
HETATM   24  C10 UNL     1      -4.652   7.266  13.780  1.00  0.00     0.009 A 
HETATM   25  C11 UNL     1      -4.547   8.296  14.701  1.00  0.00     0.121 A 
HETATM   26  N5  UNL     1      -4.760   9.466  14.080  1.00  0.00    -0.304 N 
HETATM   27  N6  UNL     1      -4.993   9.197  12.804  1.00  0.00    -0.267 N 
ATOM     28  H5  UNL     1      -4.744  10.391  14.510  1.00  0.00     0.186 HD
HETATM   29  C18 UNL     1      -4.937   7.874  12.580  1.00  0.00     0.130 A 
BRANCH  27  30
HETATM   30  C12 UNL     1      -5.277  10.229  11.832  1.00  0.00     0.056 A 
HETATM   31  C13 UNL     1      -4.511  11.355  11.787  1.00  0.00     0.033 A 
HETATM   32  C14 UNL     1      -4.769  12.344  10.880  1.00  0.00     0.026 A 
HETATM   33  C15 UNL     1      -5.819  12.191  10.003  1.00  0.00     0.034 A 
HETATM   34 CL1  UNL     1      -6.155  13.461   8.835  1.00  0.00    -0.084 Cl
HETATM   35  C16 UNL     1      -6.604  11.049  10.040  1.00  0.00     0.026 A 
HETATM   36  C17 UNL     1      -6.323  10.066  10.966  1.00  0.00     0.033 A 
ENDBRANCH  27  30
ENDBRANCH   4  24
TORSDOF 8
ENDMDL
