MODEL 1
REMARK VINA RESULT: -6.966231801      0.000      0.000
REMARK  11 active torsions:
REMARK  status: ('A' for Active; 'I' for Inactive)
REMARK    1  A    between atoms: C2_2  and  C3_3 
REMARK    2  A    between atoms: C2_2  and  C12_24 
REMARK    3  A    between atoms: C3_3  and  N1_4 
REMARK    4  A    between atoms: C4_5  and  C5_6 
REMARK    5  A    between atoms: C7_14  and  N4_15 
REMARK    6  A    between atoms: N4_15  and  C8_17 
REMARK    7  A    between atoms: C12_24  and  O3_25 
REMARK    8  A    between atoms: C12_24  and  C13_27 
REMARK    9  A    between atoms: C13_27  and  N7_28 
REMARK   10  A    between atoms: N7_28  and  C14_30 
REMARK   11  A    between atoms: C16_36  and  N10_37 
ROOT
HETATM    1  C8  UNL     1     -23.900  25.471  -0.990  1.00  0.00     0.245 C 
HETATM    2  C9  UNL     1     -23.543  24.135  -0.533  1.00  0.00     0.078 C 
HETATM    3  N5  UNL     1     -23.247  23.072  -0.155  1.00  0.00    -0.196 NA
ENDROOT
BRANCH   1   4
HETATM    4  N4  UNL     1     -25.112  25.928  -0.377  1.00  0.00    -0.363 N 
ATOM      5  H4  UNL     1     -26.007  25.536  -0.671  1.00  0.00     0.162 HD
BRANCH   4   6
HETATM    6  C7  UNL     1     -25.080  26.829   0.541  1.00  0.00     0.119 A 
HETATM    7  N3  UNL     1     -24.036  26.935   1.393  1.00  0.00    -0.325 N 
HETATM    8  C6  UNL     1     -24.044  27.895   2.340  1.00  0.00     0.154 A 
ATOM      9  H3  UNL     1     -23.247  26.293   1.319  1.00  0.00     0.169 HD
HETATM   10  N2  UNL     1     -23.184  28.245   3.302  1.00  0.00    -0.320 N 
HETATM   11  C11 UNL     1     -25.100  28.771   2.455  1.00  0.00     0.154 A 
HETATM   12  C4  UNL     1     -23.656  29.308   4.019  1.00  0.00     0.189 A 
ATOM     13  H2  UNL     1     -22.294  27.780   3.478  1.00  0.00     0.169 HD
HETATM   14  N1  UNL     1     -24.834  29.627   3.497  1.00  0.00    -0.310 N 
HETATM   15  N6  UNL     1     -26.112  28.636   1.598  1.00  0.00    -0.345 N 
HETATM   16  C10 UNL     1     -26.157  27.700   0.635  1.00  0.00     0.138 A 
ATOM     17  H6  UNL     1     -26.898  29.281   1.677  1.00  0.00     0.167 HD
BRANCH  12  18
HETATM   18  C5  UNL     1     -22.947  29.980   5.094  1.00  0.00     0.245 C 
HETATM   19  O1  UNL     1     -22.926  29.394   6.227  1.00  0.00    -0.642 OA
HETATM   20  O2  UNL     1     -22.299  31.195   4.975  1.00  0.00    -0.642 OA
ENDBRANCH  12  18
BRANCH  14  21
HETATM   21  C3  UNL     1     -25.804  30.623   3.895  1.00  0.00     0.139 C 
BRANCH  21  22
HETATM   22  C2  UNL     1     -25.821  31.724   2.893  1.00  0.00     0.030 C 
HETATM   23  C1  UNL     1     -26.720  32.873   3.186  1.00  0.00     0.014 C 
BRANCH  22  24
HETATM   24  C12 UNL     1     -24.424  32.225   2.567  1.00  0.00     0.141 C 
BRANCH  24  25
HETATM   25  O3  UNL     1     -24.133  33.225   3.472  1.00  0.00    -0.394 OA
ATOM     26  H3  UNL     1     -24.255  32.858   4.340  1.00  0.00     0.210 HD
ENDBRANCH  24  25
BRANCH  24  27
HETATM   27  C13 UNL     1     -24.373  32.727   1.133  1.00  0.00     0.153 C 
BRANCH  27  28
HETATM   28  N7  UNL     1     -24.858  31.705   0.230  1.00  0.00    -0.372 N 
ATOM     29  H7  UNL     1     -25.858  31.505   0.184  1.00  0.00     0.161 HD
BRANCH  28  30
HETATM   30  C14 UNL     1     -24.041  31.045  -0.516  1.00  0.00     0.134 A 
HETATM   31  C15 UNL     1     -22.679  31.255  -0.547  1.00  0.00     0.156 A 
HETATM   32  N8  UNL     1     -21.875  30.514  -1.365  1.00  0.00    -0.294 N 
HETATM   33  N9  UNL     1     -22.378  29.574  -2.149  1.00  0.00    -0.133 N 
ATOM     34  H8  UNL     1     -20.869  30.688  -1.373  1.00  0.00     0.186 HD
HETATM   35  C16 UNL     1     -23.708  29.373  -2.115  1.00  0.00     0.692 A 
ATOM     36  H9  UNL     1     -21.778  29.020  -2.759  1.00  0.00     0.205 HD
HETATM   37  N11 UNL     1     -24.531  30.086  -1.320  1.00  0.00    -0.175 N 
ATOM     38  H11 UNL     1     -25.533  29.896  -1.330  1.00  0.00     0.186 HD
BRANCH  35  39
HETATM   39  N10 UNL     1     -24.263  28.463  -2.864  1.00  0.00    -0.233 N 
ATOM     40 2H10 UNL     1     -23.733  27.603  -3.005  1.00  0.00     0.174 HD
ATOM     41 1H10 UNL     1     -25.182  28.618  -3.279  1.00  0.00     0.174 HD
ENDBRANCH  35  39
ENDBRANCH  28  30
ENDBRANCH  27  28
ENDBRANCH  24  27
ENDBRANCH  22  24
ENDBRANCH  21  22
ENDBRANCH  14  21
ENDBRANCH   4   6
ENDBRANCH   1   4
TORSDOF 11
ENDMDL
MODEL 2
REMARK VINA RESULT: -6.916103470      0.702      1.174
REMARK  11 active torsions:
REMARK  status: ('A' for Active; 'I' for Inactive)
REMARK    1  A    between atoms: C2_2  and  C3_3 
REMARK    2  A    between atoms: C2_2  and  C12_24 
REMARK    3  A    between atoms: C3_3  and  N1_4 
REMARK    4  A    between atoms: C4_5  and  C5_6 
REMARK    5  A    between atoms: C7_14  and  N4_15 
REMARK    6  A    between atoms: N4_15  and  C8_17 
REMARK    7  A    between atoms: C12_24  and  O3_25 
REMARK    8  A    between atoms: C12_24  and  C13_27 
REMARK    9  A    between atoms: C13_27  and  N7_28 
REMARK   10  A    between atoms: N7_28  and  C14_30 
REMARK   11  A    between atoms: C16_36  and  N10_37 
ROOT
HETATM    1  C8  UNL     1     -23.891  25.102  -0.663  1.00  0.00     0.245 C 
HETATM    2  C9  UNL     1     -23.810  23.726  -0.192  1.00  0.00     0.078 C 
HETATM    3  N5  UNL     1     -23.736  22.630   0.199  1.00  0.00    -0.196 NA
ENDROOT
BRANCH   1   4
HETATM    4  N4  UNL     1     -25.104  25.732  -0.234  1.00  0.00    -0.363 N 
ATOM      5  H4  UNL     1     -25.996  25.438  -0.632  1.00  0.00     0.162 HD
BRANCH   4   6
HETATM    6  C7  UNL     1     -25.077  26.665   0.651  1.00  0.00     0.119 A 
HETATM    7  N3  UNL     1     -24.034  26.806   1.501  1.00  0.00    -0.325 N 
HETATM    8  C6  UNL     1     -24.046  27.799   2.413  1.00  0.00     0.154 A 
ATOM      9  H3  UNL     1     -23.243  26.164   1.451  1.00  0.00     0.169 HD
HETATM   10  N2  UNL     1     -23.190  28.186   3.363  1.00  0.00    -0.320 N 
HETATM   11  C11 UNL     1     -25.106  28.676   2.494  1.00  0.00     0.154 A 
HETATM   12  C4  UNL     1     -23.666  29.273   4.040  1.00  0.00     0.189 A 
ATOM     13  H2  UNL     1     -22.298  27.731   3.557  1.00  0.00     0.169 HD
HETATM   14  N1  UNL     1     -24.844  29.570   3.505  1.00  0.00    -0.310 N 
HETATM   15  N6  UNL     1     -26.116  28.507   1.640  1.00  0.00    -0.345 N 
HETATM   16  C10 UNL     1     -26.156  27.536   0.712  1.00  0.00     0.138 A 
ATOM     17  H6  UNL     1     -26.903  29.152   1.694  1.00  0.00     0.167 HD
BRANCH  12  18
HETATM   18  C5  UNL     1     -22.961  29.986   5.090  1.00  0.00     0.245 C 
HETATM   19  O1  UNL     1     -22.903  29.421   6.233  1.00  0.00    -0.642 OA
HETATM   20  O2  UNL     1     -22.353  31.218   4.940  1.00  0.00    -0.642 OA
ENDBRANCH  12  18
BRANCH  14  21
HETATM   21  C3  UNL     1     -25.817  30.576   3.865  1.00  0.00     0.139 C 
BRANCH  21  22
HETATM   22  C2  UNL     1     -25.795  31.670   2.854  1.00  0.00     0.030 C 
HETATM   23  C1  UNL     1     -26.624  32.868   3.155  1.00  0.00     0.014 C 
BRANCH  22  24
HETATM   24  C12 UNL     1     -24.379  32.091   2.497  1.00  0.00     0.141 C 
BRANCH  24  25
HETATM   25  O3  UNL     1     -24.091  33.211   3.249  1.00  0.00    -0.394 OA
ATOM     26  H3  UNL     1     -24.284  33.967   2.707  1.00  0.00     0.210 HD
ENDBRANCH  24  25
BRANCH  24  27
HETATM   27  C13 UNL     1     -24.280  32.370   1.006  1.00  0.00     0.153 C 
BRANCH  27  28
HETATM   28  N7  UNL     1     -23.587  31.287   0.342  1.00  0.00    -0.372 N 
ATOM     29  H7  UNL     1     -22.629  31.059   0.612  1.00  0.00     0.161 HD
BRANCH  28  30
HETATM   30  C14 UNL     1     -24.167  30.607  -0.587  1.00  0.00     0.134 A 
HETATM   31  C15 UNL     1     -25.456  30.831  -1.021  1.00  0.00     0.156 A 
HETATM   32  N8  UNL     1     -26.004  30.069  -2.012  1.00  0.00    -0.294 N 
HETATM   33  N9  UNL     1     -25.315  29.095  -2.584  1.00  0.00    -0.133 N 
ATOM     34  H8  UNL     1     -26.960  30.252  -2.316  1.00  0.00     0.186 HD
HETATM   35  C16 UNL     1     -24.058  28.880  -2.157  1.00  0.00     0.692 A 
ATOM     36  H9  UNL     1     -25.723  28.526  -3.326  1.00  0.00     0.205 HD
HETATM   37  N11 UNL     1     -23.485  29.613  -1.181  1.00  0.00    -0.175 N 
ATOM     38  H11 UNL     1     -22.528  29.411  -0.892  1.00  0.00     0.186 HD
BRANCH  35  39
HETATM   39  N10 UNL     1     -23.328  27.935  -2.681  1.00  0.00    -0.233 N 
ATOM     40 2H10 UNL     1     -23.718  26.993  -2.661  1.00  0.00     0.174 HD
ATOM     41 1H10 UNL     1     -22.416  28.145  -3.087  1.00  0.00     0.174 HD
ENDBRANCH  35  39
ENDBRANCH  28  30
ENDBRANCH  27  28
ENDBRANCH  24  27
ENDBRANCH  22  24
ENDBRANCH  21  22
ENDBRANCH  14  21
ENDBRANCH   4   6
ENDBRANCH   1   4
TORSDOF 11
ENDMDL
MODEL 3
REMARK VINA RESULT: -6.914097280      1.017      1.494
REMARK  11 active torsions:
REMARK  status: ('A' for Active; 'I' for Inactive)
REMARK    1  A    between atoms: C2_2  and  C3_3 
REMARK    2  A    between atoms: C2_2  and  C12_24 
REMARK    3  A    between atoms: C3_3  and  N1_4 
REMARK    4  A    between atoms: C4_5  and  C5_6 
REMARK    5  A    between atoms: C7_14  and  N4_15 
REMARK    6  A    between atoms: N4_15  and  C8_17 
REMARK    7  A    between atoms: C12_24  and  O3_25 
REMARK    8  A    between atoms: C12_24  and  C13_27 
REMARK    9  A    between atoms: C13_27  and  N7_28 
REMARK   10  A    between atoms: N7_28  and  C14_30 
REMARK   11  A    between atoms: C16_36  and  N10_37 
ROOT
HETATM    1  C8  UNL     1     -23.970  25.408  -0.940  1.00  0.00     0.245 C 
HETATM    2  C9  UNL     1     -23.545  24.081  -0.515  1.00  0.00     0.078 C 
HETATM    3  N5  UNL     1     -23.193  23.027  -0.162  1.00  0.00    -0.196 NA
ENDROOT
BRANCH   1   4
HETATM    4  N4  UNL     1     -25.167  25.815  -0.266  1.00  0.00    -0.363 N 
ATOM      5  H4  UNL     1     -26.056  25.372  -0.501  1.00  0.00     0.162 HD
BRANCH   4   6
HETATM    6  C7  UNL     1     -25.130  26.734   0.633  1.00  0.00     0.119 A 
HETATM    7  N3  UNL     1     -24.073  26.868   1.466  1.00  0.00    -0.325 N 
HETATM    8  C6  UNL     1     -24.075  27.846   2.394  1.00  0.00     0.154 A 
ATOM      9  H3  UNL     1     -23.280  26.231   1.393  1.00  0.00     0.169 HD
HETATM   10  N2  UNL     1     -23.204  28.223   3.335  1.00  0.00    -0.320 N 
HETATM   11  C11 UNL     1     -25.138  28.715   2.508  1.00  0.00     0.154 A 
HETATM   12  C4  UNL     1     -23.675  29.296   4.038  1.00  0.00     0.189 A 
ATOM     13  H2  UNL     1     -22.307  27.769   3.507  1.00  0.00     0.169 HD
HETATM   14  N1  UNL     1     -24.864  29.594   3.529  1.00  0.00    -0.310 N 
HETATM   15  N6  UNL     1     -26.162  28.553   1.670  1.00  0.00    -0.345 N 
HETATM   16  C10 UNL     1     -26.213  27.598   0.727  1.00  0.00     0.138 A 
ATOM     17  H6  UNL     1     -26.952  29.192   1.748  1.00  0.00     0.167 HD
BRANCH  12  18
HETATM   18  C5  UNL     1     -22.956  29.996   5.088  1.00  0.00     0.245 C 
HETATM   19  O1  UNL     1     -22.904  29.429   6.230  1.00  0.00    -0.642 OA
HETATM   20  O2  UNL     1     -22.329  31.218   4.937  1.00  0.00    -0.642 OA
ENDBRANCH  12  18
BRANCH  14  21
HETATM   21  C3  UNL     1     -25.837  30.589   3.922  1.00  0.00     0.139 C 
BRANCH  21  22
HETATM   22  C2  UNL     1     -25.867  31.678   2.908  1.00  0.00     0.030 C 
HETATM   23  C1  UNL     1     -26.711  32.860   3.229  1.00  0.00     0.014 C 
BRANCH  22  24
HETATM   24  C12 UNL     1     -24.471  32.128   2.507  1.00  0.00     0.141 C 
BRANCH  24  25
HETATM   25  O3  UNL     1     -24.151  33.206   3.305  1.00  0.00    -0.394 OA
ATOM     26  H3  UNL     1     -23.208  33.199   3.416  1.00  0.00     0.210 HD
ENDBRANCH  24  25
BRANCH  24  27
HETATM   27  C13 UNL     1     -24.445  32.488   1.030  1.00  0.00     0.153 C 
BRANCH  27  28
HETATM   28  N7  UNL     1     -23.877  31.401   0.262  1.00  0.00    -0.372 N 
ATOM     29  H7  UNL     1     -22.904  31.131   0.412  1.00  0.00     0.161 HD
BRANCH  28  30
HETATM   30  C14 UNL     1     -24.587  30.771  -0.609  1.00  0.00     0.134 A 
HETATM   31  C15 UNL     1     -24.110  29.752  -1.406  1.00  0.00     0.156 A 
HETATM   32  N8  UNL     1     -24.925  29.129  -2.308  1.00  0.00    -0.294 N 
HETATM   33  N9  UNL     1     -26.192  29.484  -2.443  1.00  0.00    -0.133 N 
ATOM     34  H8  UNL     1     -24.550  28.378  -2.888  1.00  0.00     0.186 HD
HETATM   35  C16 UNL     1     -26.652  30.479  -1.663  1.00  0.00     0.692 A 
ATOM     36  H9  UNL     1     -26.801  29.018  -3.116  1.00  0.00     0.205 HD
HETATM   37  N11 UNL     1     -25.877  31.116  -0.763  1.00  0.00    -0.175 N 
ATOM     38  H11 UNL     1     -26.272  31.865  -0.194  1.00  0.00     0.186 HD
BRANCH  35  39
HETATM   39  N10 UNL     1     -27.891  30.875  -1.750  1.00  0.00    -0.233 N 
ATOM     40 2H10 UNL     1     -28.057  31.749  -2.247  1.00  0.00     0.174 HD
ATOM     41 1H10 UNL     1     -28.644  30.325  -1.335  1.00  0.00     0.174 HD
ENDBRANCH  35  39
ENDBRANCH  28  30
ENDBRANCH  27  28
ENDBRANCH  24  27
ENDBRANCH  22  24
ENDBRANCH  21  22
ENDBRANCH  14  21
ENDBRANCH   4   6
ENDBRANCH   1   4
TORSDOF 11
ENDMDL
MODEL 4
REMARK VINA RESULT: -6.853011162      0.593      1.296
REMARK  11 active torsions:
REMARK  status: ('A' for Active; 'I' for Inactive)
REMARK    1  A    between atoms: C2_2  and  C3_3 
REMARK    2  A    between atoms: C2_2  and  C12_24 
REMARK    3  A    between atoms: C3_3  and  N1_4 
REMARK    4  A    between atoms: C4_5  and  C5_6 
REMARK    5  A    between atoms: C7_14  and  N4_15 
REMARK    6  A    between atoms: N4_15  and  C8_17 
REMARK    7  A    between atoms: C12_24  and  O3_25 
REMARK    8  A    between atoms: C12_24  and  C13_27 
REMARK    9  A    between atoms: C13_27  and  N7_28 
REMARK   10  A    between atoms: N7_28  and  C14_30 
REMARK   11  A    between atoms: C16_36  and  N10_37 
ROOT
HETATM    1  C8  UNL     1     -23.988  25.466  -0.969  1.00  0.00     0.245 C 
HETATM    2  C9  UNL     1     -23.553  24.147  -0.530  1.00  0.00     0.078 C 
HETATM    3  N5  UNL     1     -23.194  23.099  -0.168  1.00  0.00    -0.196 NA
ENDROOT
BRANCH   1   4
HETATM    4  N4  UNL     1     -25.178  25.879  -0.286  1.00  0.00    -0.363 N 
ATOM      5  H4  UNL     1     -26.071  25.445  -0.519  1.00  0.00     0.162 HD
BRANCH   4   6
HETATM    6  C7  UNL     1     -25.129  26.792   0.618  1.00  0.00     0.119 A 
HETATM    7  N3  UNL     1     -24.081  26.894   1.466  1.00  0.00    -0.325 N 
HETATM    8  C6  UNL     1     -24.070  27.867   2.399  1.00  0.00     0.154 A 
ATOM      9  H3  UNL     1     -23.303  26.237   1.400  1.00  0.00     0.169 HD
HETATM   10  N2  UNL     1     -23.202  28.216   3.354  1.00  0.00    -0.320 N 
HETATM   11  C11 UNL     1     -25.111  28.763   2.504  1.00  0.00     0.154 A 
HETATM   12  C4  UNL     1     -23.654  29.298   4.056  1.00  0.00     0.189 A 
ATOM     13  H2  UNL     1     -22.319  27.739   3.534  1.00  0.00     0.169 HD
HETATM   14  N1  UNL     1     -24.828  29.629   3.532  1.00  0.00    -0.310 N 
HETATM   15  N6  UNL     1     -26.127  28.632   1.650  1.00  0.00    -0.345 N 
HETATM   16  C10 UNL     1     -26.190  27.683   0.702  1.00  0.00     0.138 A 
ATOM     17  H6  UNL     1     -26.901  29.292   1.722  1.00  0.00     0.167 HD
BRANCH  12  18
HETATM   18  C5  UNL     1     -22.931  29.973   5.119  1.00  0.00     0.245 C 
HETATM   19  O1  UNL     1     -22.904  29.397   6.256  1.00  0.00    -0.642 OA
HETATM   20  O2  UNL     1     -22.275  31.183   4.984  1.00  0.00    -0.642 OA
ENDBRANCH  12  18
BRANCH  14  21
HETATM   21  C3  UNL     1     -25.779  30.647   3.917  1.00  0.00     0.139 C 
BRANCH  21  22
HETATM   22  C2  UNL     1     -25.792  31.726   2.891  1.00  0.00     0.030 C 
HETATM   23  C1  UNL     1     -26.707  32.871   3.144  1.00  0.00     0.014 C 
BRANCH  22  24
HETATM   24  C12 UNL     1     -24.395  32.233   2.574  1.00  0.00     0.141 C 
BRANCH  24  25
HETATM   25  O3  UNL     1     -24.141  33.278   3.439  1.00  0.00    -0.394 OA
ATOM     26  H3  UNL     1     -24.069  34.064   2.911  1.00  0.00     0.210 HD
ENDBRANCH  24  25
BRANCH  24  27
HETATM   27  C13 UNL     1     -24.318  32.671   1.121  1.00  0.00     0.153 C 
BRANCH  27  28
HETATM   28  N7  UNL     1     -24.642  31.562   0.249  1.00  0.00    -0.372 N 
ATOM     29  H7  UNL     1     -25.598  31.207   0.219  1.00  0.00     0.161 HD
BRANCH  28  30
HETATM   30  C14 UNL     1     -23.736  31.019  -0.489  1.00  0.00     0.134 A 
HETATM   31  C15 UNL     1     -23.936  29.893  -1.259  1.00  0.00     0.156 A 
HETATM   32  N8  UNL     1     -22.925  29.375  -2.017  1.00  0.00    -0.294 N 
HETATM   33  N9  UNL     1     -21.728  29.936  -2.035  1.00  0.00    -0.133 N 
ATOM     34  H8  UNL     1     -23.097  28.540  -2.578  1.00  0.00     0.186 HD
HETATM   35  C16 UNL     1     -21.537  31.034  -1.281  1.00  0.00     0.692 A 
ATOM     36  H9  UNL     1     -20.974  29.550  -2.602  1.00  0.00     0.205 HD
HETATM   37  N11 UNL     1     -22.511  31.573  -0.521  1.00  0.00    -0.175 N 
ATOM     38  H11 UNL     1     -22.318  32.407   0.033  1.00  0.00     0.186 HD
BRANCH  35  39
HETATM   39  N10 UNL     1     -20.380  31.633  -1.256  1.00  0.00    -0.233 N 
ATOM     40 2H10 UNL     1     -20.164  32.173  -0.418  1.00  0.00     0.174 HD
ATOM     41 1H10 UNL     1     -19.735  31.555  -2.043  1.00  0.00     0.174 HD
ENDBRANCH  35  39
ENDBRANCH  28  30
ENDBRANCH  27  28
ENDBRANCH  24  27
ENDBRANCH  22  24
ENDBRANCH  21  22
ENDBRANCH  14  21
ENDBRANCH   4   6
ENDBRANCH   1   4
TORSDOF 11
ENDMDL
MODEL 5
REMARK VINA RESULT: -6.719268233      1.460      2.009
REMARK  11 active torsions:
REMARK  status: ('A' for Active; 'I' for Inactive)
REMARK    1  A    between atoms: C2_2  and  C3_3 
REMARK    2  A    between atoms: C2_2  and  C12_24 
REMARK    3  A    between atoms: C3_3  and  N1_4 
REMARK    4  A    between atoms: C4_5  and  C5_6 
REMARK    5  A    between atoms: C7_14  and  N4_15 
REMARK    6  A    between atoms: N4_15  and  C8_17 
REMARK    7  A    between atoms: C12_24  and  O3_25 
REMARK    8  A    between atoms: C12_24  and  C13_27 
REMARK    9  A    between atoms: C13_27  and  N7_28 
REMARK   10  A    between atoms: N7_28  and  C14_30 
REMARK   11  A    between atoms: C16_36  and  N10_37 
ROOT
HETATM    1  C8  UNL     1     -23.844  25.479  -0.998  1.00  0.00     0.245 C 
HETATM    2  C9  UNL     1     -23.536  24.133  -0.533  1.00  0.00     0.078 C 
HETATM    3  N5  UNL     1     -23.279  23.063  -0.148  1.00  0.00    -0.196 NA
ENDROOT
BRANCH   1   4
HETATM    4  N4  UNL     1     -25.073  25.958  -0.438  1.00  0.00    -0.363 N 
ATOM      5  H4  UNL     1     -25.961  25.599  -0.787  1.00  0.00     0.162 HD
BRANCH   4   6
HETATM    6  C7  UNL     1     -25.063  26.837   0.501  1.00  0.00     0.119 A 
HETATM    7  N3  UNL     1     -24.001  26.981   1.325  1.00  0.00    -0.325 N 
HETATM    8  C6  UNL     1     -24.033  27.916   2.297  1.00  0.00     0.154 A 
ATOM      9  H3  UNL     1     -23.181  26.386   1.213  1.00  0.00     0.169 HD
HETATM   10  N2  UNL     1     -23.166  28.290   3.242  1.00  0.00    -0.320 N 
HETATM   11  C11 UNL     1     -25.133  28.729   2.464  1.00  0.00     0.154 A 
HETATM   12  C4  UNL     1     -23.674  29.307   3.999  1.00  0.00     0.189 A 
ATOM     13  H2  UNL     1     -22.246  27.871   3.381  1.00  0.00     0.169 HD
HETATM   14  N1  UNL     1     -24.883  29.573   3.520  1.00  0.00    -0.310 N 
HETATM   15  N6  UNL     1     -26.161  28.558   1.632  1.00  0.00    -0.345 N 
HETATM   16  C10 UNL     1     -26.183  27.644   0.648  1.00  0.00     0.138 A 
ATOM     17  H6  UNL     1     -26.978  29.156   1.750  1.00  0.00     0.167 HD
BRANCH  12  18
HETATM   18  C5  UNL     1     -22.971  29.992   5.070  1.00  0.00     0.245 C 
HETATM   19  O1  UNL     1     -22.997  29.443   6.221  1.00  0.00    -0.642 OA
HETATM   20  O2  UNL     1     -22.282  31.182   4.929  1.00  0.00    -0.642 OA
ENDBRANCH  12  18
BRANCH  14  21
HETATM   21  C3  UNL     1     -25.893  30.504   3.970  1.00  0.00     0.139 C 
BRANCH  21  22
HETATM   22  C2  UNL     1     -26.008  31.621   2.993  1.00  0.00     0.030 C 
HETATM   23  C1  UNL     1     -26.787  32.810   3.433  1.00  0.00     0.014 C 
BRANCH  22  24
HETATM   24  C12 UNL     1     -24.653  32.054   2.456  1.00  0.00     0.141 C 
BRANCH  24  25
HETATM   25  O3  UNL     1     -24.172  33.022   3.313  1.00  0.00    -0.394 OA
ATOM     26  H3  UNL     1     -23.979  33.788   2.785  1.00  0.00     0.210 HD
ENDBRANCH  24  25
BRANCH  24  27
HETATM   27  C13 UNL     1     -24.800  32.577   1.036  1.00  0.00     0.153 C 
BRANCH  27  28
HETATM   28  N7  UNL     1     -24.905  31.473   0.107  1.00  0.00    -0.372 N 
ATOM     29  H7  UNL     1     -24.180  30.755   0.092  1.00  0.00     0.161 HD
BRANCH  28  30
HETATM   30  C14 UNL     1     -25.905  31.387  -0.702  1.00  0.00     0.134 A 
HETATM   31  C15 UNL     1     -27.126  31.991  -0.490  1.00  0.00     0.156 A 
HETATM   32  N8  UNL     1     -28.141  31.855  -1.394  1.00  0.00    -0.294 N 
HETATM   33  N9  UNL     1     -27.981  31.143  -2.497  1.00  0.00    -0.133 N 
ATOM     34  H8  UNL     1     -29.036  32.310  -1.215  1.00  0.00     0.186 HD
HETATM   35  C16 UNL     1     -26.788  30.555  -2.699  1.00  0.00     0.692 A 
ATOM     36  H9  UNL     1     -28.738  31.042  -3.173  1.00  0.00     0.205 HD
HETATM   37  N11 UNL     1     -25.765  30.667  -1.829  1.00  0.00    -0.175 N 
ATOM     38  H11 UNL     1     -24.879  30.203  -2.026  1.00  0.00     0.186 HD
BRANCH  35  39
HETATM   39  N10 UNL     1     -26.570  29.840  -3.767  1.00  0.00    -0.233 N 
ATOM     40 2H10 UNL     1     -25.821  30.157  -4.382  1.00  0.00     0.174 HD
ATOM     41 1H10 UNL     1     -27.128  29.009  -3.961  1.00  0.00     0.174 HD
ENDBRANCH  35  39
ENDBRANCH  28  30
ENDBRANCH  27  28
ENDBRANCH  24  27
ENDBRANCH  22  24
ENDBRANCH  21  22
ENDBRANCH  14  21
ENDBRANCH   4   6
ENDBRANCH   1   4
TORSDOF 11
ENDMDL
