MODEL 1
REMARK VINA RESULT: -8.314471285      0.000      0.000
REMARK  12 active torsions:
REMARK  status: ('A' for Active; 'I' for Inactive)
REMARK    1  A    between atoms: O1_2  and  C2_3 
REMARK    2  A    between atoms: C5_6  and  N1_7 
REMARK    3  A    between atoms: N1_7  and  C6_8 
REMARK    4  A    between atoms: N3_12  and  C8_14 
REMARK    5  A    between atoms: C8_14  and  C9_15 
REMARK    6  A    between atoms: C9_15  and  C10_16 
REMARK    7  A    between atoms: C10_16  and  N4_17 
REMARK    8  A    between atoms: N5_20  and  C13_21 
REMARK    9  A    between atoms: C13_21  and  C14_22 
REMARK   10  A    between atoms: C14_22  and  C15_23 
REMARK   11  A    between atoms: C20_32  and  O2_33 
REMARK   12  A    between atoms: C22_35  and  O3_36 
ROOT
HETATM    1  C6  UNL     1      20.160  34.040  16.729  1.00  0.00     0.206 A 
HETATM    2  N2  UNL     1      20.634  33.190  15.753  1.00  0.00    -0.163 N 
ATOM      3  H2  UNL     1      21.629  33.231  15.532  1.00  0.00     0.187 HD
HETATM    4  C7  UNL     1      19.893  32.326  15.082  1.00  0.00     0.681 A 
HETATM    5  N3  UNL     1      20.292  31.590  14.114  1.00  0.00    -0.226 N 
ATOM      6  H3  UNL     1      19.602  30.966  13.695  1.00  0.00     0.177 HD
HETATM    7  N7  UNL     1      18.549  32.238  15.352  1.00  0.00    -0.191 N 
ATOM      8  H7  UNL     1      17.961  31.576  14.845  1.00  0.00     0.184 HD
HETATM    9  C18 UNL     1      18.024  33.031  16.287  1.00  0.00     0.067 A 
HETATM   10  C19 UNL     1      16.652  32.943  16.538  1.00  0.00     0.070 A 
HETATM   11  C20 UNL     1      16.060  33.751  17.481  1.00  0.00     0.103 A 
HETATM   12  C22 UNL     1      16.842  34.673  18.199  1.00  0.00     0.102 A 
HETATM   13  C24 UNL     1      18.191  34.744  17.935  1.00  0.00     0.058 A 
HETATM   14  C25 UNL     1      18.791  33.930  16.984  1.00  0.00     0.053 A 
ENDROOT
BRANCH   5  15
HETATM   15  C8  UNL     1      21.596  31.558  13.570  1.00  0.00     0.140 C 
BRANCH  15  16
HETATM   16  C9  UNL     1      22.083  30.277  12.985  1.00  0.00     0.050 C 
BRANCH  16  17
HETATM   17  C10 UNL     1      21.035  29.459  12.285  1.00  0.00     0.274 C 
BRANCH  17  18
HETATM   18  N4  UNL     1      20.745  28.233  12.983  1.00  0.00     0.091 N 
HETATM   19  C11 UNL     1      19.337  28.099  13.280  1.00  0.00     0.291 C 
HETATM   20  C12 UNL     1      18.628  27.222  12.247  1.00  0.00     0.147 C 
HETATM   21  N5  UNL     1      19.131  27.611  10.970  1.00  0.00    -0.409 N 
HETATM   22  C16 UNL     1      20.467  27.153  10.808  1.00  0.00     0.147 C 
HETATM   23  C17 UNL     1      21.145  27.067  12.179  1.00  0.00     0.291 C 
BRANCH  21  24
HETATM   24  C13 UNL     1      18.281  27.597   9.864  1.00  0.00     0.123 C 
BRANCH  24  25
HETATM   25  C14 UNL     1      17.604  26.216   9.758  1.00  0.00     0.086 C 
BRANCH  25  26
HETATM   26  C15 UNL     1      17.871  25.602   8.440  1.00  0.00     0.092 C 
HETATM   27  N6  UNL     1      17.700  24.216   8.266  1.00  0.00    -0.095 NA
HETATM   28  S1  UNL     1      18.351  26.546   7.207  1.00  0.00    -0.069 SA
ENDBRANCH  25  26
ENDBRANCH  24  25
ENDBRANCH  21  24
ENDBRANCH  17  18
ENDBRANCH  16  17
ENDBRANCH  15  16
ENDBRANCH   5  15
BRANCH   1  29
HETATM   29  N1  UNL     1      20.821  34.822  17.307  1.00  0.00    -0.386 NA
BRANCH  29  30
HETATM   30  C5  UNL     1      21.563  35.680  17.970  1.00  0.00     0.110 A 
HETATM   31  C4  UNL     1      21.919  36.972  17.575  1.00  0.00     0.047 A 
HETATM   32  C3  UNL     1      22.711  37.791  18.341  1.00  0.00     0.040 A 
HETATM   33  C2  UNL     1      23.195  37.362  19.548  1.00  0.00     0.074 A 
HETATM   34  C27 UNL     1      22.873  36.092  19.992  1.00  0.00    -0.025 A 
HETATM   35  C26 UNL     1      22.083  35.278  19.228  1.00  0.00     0.054 A 
HETATM   36  C28 UNL     1      23.368  35.580  21.301  1.00  0.00     0.051 C 
BRANCH  33  37
HETATM   37  O1  UNL     1      23.995  38.118  20.366  1.00  0.00    -0.355 OA
HETATM   38  C1  UNL     1      24.819  39.183  19.933  1.00  0.00     0.210 C 
ENDBRANCH  33  37
ENDBRANCH  29  30
ENDBRANCH   1  29
BRANCH  11  39
HETATM   39  O2  UNL     1      14.734  33.725  17.778  1.00  0.00    -0.353 OA
HETATM   40  C21 UNL     1      13.776  34.320  16.948  1.00  0.00     0.210 C 
ENDBRANCH  11  39
BRANCH  12  41
HETATM   41  O3  UNL     1      16.225  35.471  19.142  1.00  0.00    -0.353 OA
HETATM   42  C23 UNL     1      15.938  36.809  18.811  1.00  0.00     0.210 C 
ENDBRANCH  12  41
TORSDOF 12
ENDMDL
MODEL 2
REMARK VINA RESULT: -8.300129496      2.727      3.483
REMARK  12 active torsions:
REMARK  status: ('A' for Active; 'I' for Inactive)
REMARK    1  A    between atoms: O1_2  and  C2_3 
REMARK    2  A    between atoms: C5_6  and  N1_7 
REMARK    3  A    between atoms: N1_7  and  C6_8 
REMARK    4  A    between atoms: N3_12  and  C8_14 
REMARK    5  A    between atoms: C8_14  and  C9_15 
REMARK    6  A    between atoms: C9_15  and  C10_16 
REMARK    7  A    between atoms: C10_16  and  N4_17 
REMARK    8  A    between atoms: N5_20  and  C13_21 
REMARK    9  A    between atoms: C13_21  and  C14_22 
REMARK   10  A    between atoms: C14_22  and  C15_23 
REMARK   11  A    between atoms: C20_32  and  O2_33 
REMARK   12  A    between atoms: C22_35  and  O3_36 
ROOT
HETATM    1  C6  UNL     1      20.783  35.230  17.458  1.00  0.00     0.206 A 
HETATM    2  N2  UNL     1      21.178  34.274  16.547  1.00  0.00    -0.163 N 
ATOM      3  H2  UNL     1      22.172  34.051  16.496  1.00  0.00     0.187 HD
HETATM    4  C7  UNL     1      20.362  33.625  15.735  1.00  0.00     0.681 A 
HETATM    5  N3  UNL     1      20.713  32.799  14.824  1.00  0.00    -0.226 N 
ATOM      6  H3  UNL     1      19.966  32.371  14.276  1.00  0.00     0.177 HD
HETATM    7  N7  UNL     1      19.015  33.895  15.775  1.00  0.00    -0.191 N 
ATOM      8  H7  UNL     1      18.370  33.404  15.156  1.00  0.00     0.184 HD
HETATM    9  C18 UNL     1      18.564  34.810  16.635  1.00  0.00     0.067 A 
HETATM   10  C19 UNL     1      17.195  35.086  16.652  1.00  0.00     0.070 A 
HETATM   11  C20 UNL     1      16.682  36.033  17.509  1.00  0.00     0.103 A 
HETATM   12  C22 UNL     1      17.544  36.727  18.376  1.00  0.00     0.102 A 
HETATM   13  C24 UNL     1      18.890  36.439  18.343  1.00  0.00     0.058 A 
HETATM   14  C25 UNL     1      19.409  35.485  17.478  1.00  0.00     0.053 A 
ENDROOT
BRANCH   5  15
HETATM   15  C8  UNL     1      22.037  32.420  14.503  1.00  0.00     0.140 C 
BRANCH  15  16
HETATM   16  C9  UNL     1      22.333  30.969  14.338  1.00  0.00     0.050 C 
BRANCH  16  17
HETATM   17  C10 UNL     1      21.728  30.332  13.120  1.00  0.00     0.274 C 
BRANCH  17  18
HETATM   18  N4  UNL     1      21.576  28.907  13.269  1.00  0.00     0.091 N 
HETATM   19  C11 UNL     1      20.856  28.562  14.474  1.00  0.00     0.291 C 
HETATM   20  C12 UNL     1      19.377  28.297  14.186  1.00  0.00     0.147 C 
HETATM   21  N5  UNL     1      18.953  29.310  13.275  1.00  0.00    -0.409 N 
HETATM   22  C16 UNL     1      19.502  29.073  11.985  1.00  0.00     0.147 C 
HETATM   23  C17 UNL     1      20.839  28.338  12.129  1.00  0.00     0.291 C 
BRANCH  21  24
HETATM   24  C13 UNL     1      17.655  29.815  13.366  1.00  0.00     0.123 C 
BRANCH  24  25
HETATM   25  C14 UNL     1      17.703  31.245  13.938  1.00  0.00     0.086 C 
BRANCH  25  26
HETATM   26  C15 UNL     1      17.321  31.251  15.366  1.00  0.00     0.092 C 
HETATM   27  N6  UNL     1      18.267  30.895  16.345  1.00  0.00    -0.095 NA
HETATM   28  S1  UNL     1      15.809  31.678  15.781  1.00  0.00    -0.069 SA
ENDBRANCH  25  26
ENDBRANCH  24  25
ENDBRANCH  21  24
ENDBRANCH  17  18
ENDBRANCH  16  17
ENDBRANCH  15  16
ENDBRANCH   5  15
BRANCH   1  29
HETATM   29  N1  UNL     1      21.517  35.819  18.162  1.00  0.00    -0.386 NA
BRANCH  29  30
HETATM   30  C5  UNL     1      22.355  36.471  18.936  1.00  0.00     0.110 A 
HETATM   31  C4  UNL     1      22.836  37.771  18.758  1.00  0.00     0.047 A 
HETATM   32  C3  UNL     1      23.722  38.360  19.625  1.00  0.00     0.040 A 
HETATM   33  C2  UNL     1      24.180  37.682  20.722  1.00  0.00     0.074 A 
HETATM   34  C27 UNL     1      23.737  36.392  20.952  1.00  0.00    -0.025 A 
HETATM   35  C26 UNL     1      22.854  35.806  20.088  1.00  0.00     0.054 A 
HETATM   36  C28 UNL     1      24.200  35.612  22.134  1.00  0.00     0.051 C 
BRANCH  33  37
HETATM   37  O1  UNL     1      25.068  38.200  21.629  1.00  0.00    -0.355 OA
HETATM   38  C1  UNL     1      25.854  39.358  21.421  1.00  0.00     0.210 C 
ENDBRANCH  33  37
ENDBRANCH  29  30
ENDBRANCH   1  29
BRANCH  11  39
HETATM   39  O2  UNL     1      15.365  36.357  17.580  1.00  0.00    -0.353 OA
HETATM   40  C21 UNL     1      14.398  35.443  18.015  1.00  0.00     0.210 C 
ENDBRANCH  11  39
BRANCH  12  41
HETATM   41  O3  UNL     1      17.006  37.670  19.229  1.00  0.00    -0.353 OA
HETATM   42  C23 UNL     1      17.266  39.032  18.981  1.00  0.00     0.210 C 
ENDBRANCH  12  41
TORSDOF 12
ENDMDL
MODEL 3
REMARK VINA RESULT: -8.216634708      1.527      2.056
REMARK  12 active torsions:
REMARK  status: ('A' for Active; 'I' for Inactive)
REMARK    1  A    between atoms: O1_2  and  C2_3 
REMARK    2  A    between atoms: C5_6  and  N1_7 
REMARK    3  A    between atoms: N1_7  and  C6_8 
REMARK    4  A    between atoms: N3_12  and  C8_14 
REMARK    5  A    between atoms: C8_14  and  C9_15 
REMARK    6  A    between atoms: C9_15  and  C10_16 
REMARK    7  A    between atoms: C10_16  and  N4_17 
REMARK    8  A    between atoms: N5_20  and  C13_21 
REMARK    9  A    between atoms: C13_21  and  C14_22 
REMARK   10  A    between atoms: C14_22  and  C15_23 
REMARK   11  A    between atoms: C20_32  and  O2_33 
REMARK   12  A    between atoms: C22_35  and  O3_36 
ROOT
HETATM    1  C6  UNL     1      20.158  33.935  16.763  1.00  0.00     0.206 A 
HETATM    2  N2  UNL     1      20.634  33.064  15.807  1.00  0.00    -0.163 N 
ATOM      3  H2  UNL     1      21.631  33.092  15.597  1.00  0.00     0.187 HD
HETATM    4  C7  UNL     1      19.891  32.196  15.142  1.00  0.00     0.681 A 
HETATM    5  N3  UNL     1      20.293  31.440  14.192  1.00  0.00    -0.226 N 
ATOM      6  H3  UNL     1      19.602  30.816  13.776  1.00  0.00     0.177 HD
HETATM    7  N7  UNL     1      18.543  32.126  15.400  1.00  0.00    -0.191 N 
ATOM      8  H7  UNL     1      17.954  31.461  14.898  1.00  0.00     0.184 HD
HETATM    9  C18 UNL     1      18.016  32.940  16.316  1.00  0.00     0.067 A 
HETATM   10  C19 UNL     1      16.641  32.870  16.553  1.00  0.00     0.070 A 
HETATM   11  C20 UNL     1      16.047  33.699  17.476  1.00  0.00     0.103 A 
HETATM   12  C22 UNL     1      16.830  34.625  18.187  1.00  0.00     0.102 A 
HETATM   13  C24 UNL     1      18.183  34.679  17.936  1.00  0.00     0.058 A 
HETATM   14  C25 UNL     1      18.785  33.843  17.005  1.00  0.00     0.053 A 
ENDROOT
BRANCH   5  15
HETATM   15  C8  UNL     1      21.603  31.385  13.662  1.00  0.00     0.140 C 
BRANCH  15  16
HETATM   16  C9  UNL     1      22.466  30.231  14.039  1.00  0.00     0.050 C 
BRANCH  16  17
HETATM   17  C10 UNL     1      21.950  28.887  13.612  1.00  0.00     0.274 C 
BRANCH  17  18
HETATM   18  N4  UNL     1      22.678  28.356  12.488  1.00  0.00     0.091 N 
HETATM   19  C11 UNL     1      22.603  26.914  12.425  1.00  0.00     0.291 C 
HETATM   20  C12 UNL     1      21.522  26.452  11.446  1.00  0.00     0.147 C 
HETATM   21  N5  UNL     1      20.391  27.293  11.663  1.00  0.00    -0.409 N 
HETATM   22  C16 UNL     1      20.642  28.597  11.156  1.00  0.00     0.147 C 
HETATM   23  C17 UNL     1      22.145  28.887  11.223  1.00  0.00     0.291 C 
BRANCH  21  24
HETATM   24  C13 UNL     1      19.107  26.762  11.534  1.00  0.00     0.123 C 
BRANCH  24  25
HETATM   25  C14 UNL     1      18.290  27.089  12.799  1.00  0.00     0.086 C 
BRANCH  25  26
HETATM   26  C15 UNL     1      17.763  28.469  12.740  1.00  0.00     0.092 C 
HETATM   27  N6  UNL     1      18.036  29.368  13.788  1.00  0.00    -0.095 NA
HETATM   28  S1  UNL     1      16.879  28.927  11.456  1.00  0.00    -0.069 SA
ENDBRANCH  25  26
ENDBRANCH  24  25
ENDBRANCH  21  24
ENDBRANCH  17  18
ENDBRANCH  16  17
ENDBRANCH  15  16
ENDBRANCH   5  15
BRANCH   1  29
HETATM   29  N1  UNL     1      20.820  34.720  17.335  1.00  0.00    -0.386 NA
BRANCH  29  30
HETATM   30  C5  UNL     1      21.561  35.583  17.992  1.00  0.00     0.110 A 
HETATM   31  C4  UNL     1      21.919  36.872  17.588  1.00  0.00     0.047 A 
HETATM   32  C3  UNL     1      22.710  37.697  18.349  1.00  0.00     0.040 A 
HETATM   33  C2  UNL     1      23.191  37.278  19.560  1.00  0.00     0.074 A 
HETATM   34  C27 UNL     1      22.867  36.012  20.014  1.00  0.00    -0.025 A 
HETATM   35  C26 UNL     1      22.079  35.192  19.255  1.00  0.00     0.054 A 
HETATM   36  C28 UNL     1      23.359  35.510  21.328  1.00  0.00     0.051 C 
BRANCH  33  37
HETATM   37  O1  UNL     1      23.989  38.040  20.374  1.00  0.00    -0.355 OA
HETATM   38  C1  UNL     1      24.749  39.155  19.947  1.00  0.00     0.210 C 
ENDBRANCH  33  37
ENDBRANCH  29  30
ENDBRANCH   1  29
BRANCH  11  39
HETATM   39  O2  UNL     1      14.718  33.691  17.758  1.00  0.00    -0.353 OA
HETATM   40  C21 UNL     1      13.779  34.314  16.928  1.00  0.00     0.210 C 
ENDBRANCH  11  39
BRANCH  12  41
HETATM   41  O3  UNL     1      16.211  35.446  19.110  1.00  0.00    -0.353 OA
HETATM   42  C23 UNL     1      15.976  36.791  18.767  1.00  0.00     0.210 C 
ENDBRANCH  12  41
TORSDOF 12
ENDMDL
MODEL 4
REMARK VINA RESULT: -8.186269448      4.638      9.803
REMARK  12 active torsions:
REMARK  status: ('A' for Active; 'I' for Inactive)
REMARK    1  A    between atoms: O1_2  and  C2_3 
REMARK    2  A    between atoms: C5_6  and  N1_7 
REMARK    3  A    between atoms: N1_7  and  C6_8 
REMARK    4  A    between atoms: N3_12  and  C8_14 
REMARK    5  A    between atoms: C8_14  and  C9_15 
REMARK    6  A    between atoms: C9_15  and  C10_16 
REMARK    7  A    between atoms: C10_16  and  N4_17 
REMARK    8  A    between atoms: N5_20  and  C13_21 
REMARK    9  A    between atoms: C13_21  and  C14_22 
REMARK   10  A    between atoms: C14_22  and  C15_23 
REMARK   11  A    between atoms: C20_32  and  O2_33 
REMARK   12  A    between atoms: C22_35  and  O3_36 
ROOT
HETATM    1  C6  UNL     1      20.157  34.420  16.869  1.00  0.00     0.206 A 
HETATM    2  N2  UNL     1      21.009  35.332  17.455  1.00  0.00    -0.163 N 
ATOM      3  H2  UNL     1      21.983  35.332  17.150  1.00  0.00     0.187 HD
HETATM    4  C7  UNL     1      20.656  36.206  18.381  1.00  0.00     0.681 A 
HETATM    5  N3  UNL     1      21.445  37.001  18.999  1.00  0.00    -0.226 N 
ATOM      6  H3  UNL     1      21.024  37.624  19.689  1.00  0.00     0.177 HD
HETATM    7  N7  UNL     1      19.353  36.239  18.815  1.00  0.00    -0.191 N 
ATOM      8  H7  UNL     1      19.062  36.907  19.529  1.00  0.00     0.184 HD
HETATM    9  C18 UNL     1      18.475  35.384  18.289  1.00  0.00     0.067 A 
HETATM   10  C19 UNL     1      17.157  35.417  18.753  1.00  0.00     0.070 A 
HETATM   11  C20 UNL     1      16.217  34.545  18.255  1.00  0.00     0.103 A 
HETATM   12  C22 UNL     1      16.585  33.613  17.269  1.00  0.00     0.102 A 
HETATM   13  C24 UNL     1      17.888  33.597  16.826  1.00  0.00     0.058 A 
HETATM   14  C25 UNL     1      18.839  34.476  17.328  1.00  0.00     0.053 A 
ENDROOT
BRANCH   5  15
HETATM   15  C8  UNL     1      22.843  37.101  18.819  1.00  0.00     0.140 C 
BRANCH  15  16
HETATM   16  C9  UNL     1      23.404  38.407  18.375  1.00  0.00     0.050 C 
BRANCH  16  17
HETATM   17  C10 UNL     1      22.393  39.502  18.187  1.00  0.00     0.274 C 
BRANCH  17  18
HETATM   18  N4  UNL     1      22.282  39.911  16.810  1.00  0.00     0.091 N 
HETATM   19  C11 UNL     1      21.220  39.214  16.121  1.00  0.00     0.291 C 
HETATM   20  C12 UNL     1      19.942  40.054  16.067  1.00  0.00     0.147 C 
HETATM   21  N5  UNL     1      19.791  40.648  17.355  1.00  0.00    -0.409 N 
HETATM   22  C16 UNL     1      20.756  41.676  17.539  1.00  0.00     0.147 C 
HETATM   23  C17 UNL     1      22.006  41.354  16.714  1.00  0.00     0.291 C 
BRANCH  21  24
HETATM   24  C13 UNL     1      18.512  40.830  17.881  1.00  0.00     0.123 C 
BRANCH  24  25
HETATM   25  C14 UNL     1      18.116  39.589  18.704  1.00  0.00     0.086 C 
BRANCH  25  26
HETATM   26  C15 UNL     1      16.872  38.988  18.179  1.00  0.00     0.092 C 
HETATM   27  N6  UNL     1      16.844  38.462  16.874  1.00  0.00    -0.095 NA
HETATM   28  S1  UNL     1      15.553  38.940  19.127  1.00  0.00    -0.069 SA
ENDBRANCH  25  26
ENDBRANCH  24  25
ENDBRANCH  21  24
ENDBRANCH  17  18
ENDBRANCH  16  17
ENDBRANCH  15  16
ENDBRANCH   5  15
BRANCH   1  29
HETATM   29  N1  UNL     1      20.483  33.631  16.061  1.00  0.00    -0.386 NA
BRANCH  29  30
HETATM   30  C5  UNL     1      20.868  32.750  15.166  1.00  0.00     0.110 A 
HETATM   31  C4  UNL     1      22.179  32.395  14.837  1.00  0.00     0.047 A 
HETATM   32  C3  UNL     1      22.477  31.463  13.875  1.00  0.00     0.040 A 
HETATM   33  C2  UNL     1      21.479  30.831  13.184  1.00  0.00     0.074 A 
HETATM   34  C27 UNL     1      20.160  31.139  13.469  1.00  0.00    -0.025 A 
HETATM   35  C26 UNL     1      19.865  32.068  14.428  1.00  0.00     0.054 A 
HETATM   36  C28 UNL     1      19.036  30.476  12.750  1.00  0.00     0.051 C 
BRANCH  33  37
HETATM   37  O1  UNL     1      21.696  29.894  12.206  1.00  0.00    -0.355 OA
HETATM   38  C1  UNL     1      22.283  28.624  12.419  1.00  0.00     0.210 C 
ENDBRANCH  33  37
ENDBRANCH  29  30
ENDBRANCH   1  29
BRANCH  11  39
HETATM   39  O2  UNL     1      14.920  34.516  18.659  1.00  0.00    -0.353 OA
HETATM   40  C21 UNL     1      14.008  35.514  18.295  1.00  0.00     0.210 C 
ENDBRANCH  11  39
BRANCH  12  41
HETATM   41  O3  UNL     1      15.623  32.750  16.782  1.00  0.00    -0.353 OA
HETATM   42  C23 UNL     1      15.974  31.860  15.749  1.00  0.00     0.210 C 
ENDBRANCH  12  41
TORSDOF 12
ENDMDL
MODEL 5
REMARK VINA RESULT: -8.174496357      1.137      1.201
REMARK  12 active torsions:
REMARK  status: ('A' for Active; 'I' for Inactive)
REMARK    1  A    between atoms: O1_2  and  C2_3 
REMARK    2  A    between atoms: C5_6  and  N1_7 
REMARK    3  A    between atoms: N1_7  and  C6_8 
REMARK    4  A    between atoms: N3_12  and  C8_14 
REMARK    5  A    between atoms: C8_14  and  C9_15 
REMARK    6  A    between atoms: C9_15  and  C10_16 
REMARK    7  A    between atoms: C10_16  and  N4_17 
REMARK    8  A    between atoms: N5_20  and  C13_21 
REMARK    9  A    between atoms: C13_21  and  C14_22 
REMARK   10  A    between atoms: C14_22  and  C15_23 
REMARK   11  A    between atoms: C20_32  and  O2_33 
REMARK   12  A    between atoms: C22_35  and  O3_36 
ROOT
HETATM    1  C6  UNL     1      20.277  34.582  17.398  1.00  0.00     0.206 A 
HETATM    2  N2  UNL     1      20.636  33.485  16.645  1.00  0.00    -0.163 N 
ATOM      3  H2  UNL     1      21.623  33.231  16.622  1.00  0.00     0.187 HD
HETATM    4  C7  UNL     1      19.794  32.739  15.952  1.00  0.00     0.681 A 
HETATM    5  N3  UNL     1      20.113  31.770  15.179  1.00  0.00    -0.226 N 
ATOM      6  H3  UNL     1      19.349  31.283  14.712  1.00  0.00     0.177 HD
HETATM    7  N7  UNL     1      18.455  33.048  15.961  1.00  0.00    -0.191 N 
ATOM      8  H7  UNL     1      17.790  32.483  15.433  1.00  0.00     0.184 HD
HETATM    9  C18 UNL     1      18.038  34.097  16.671  1.00  0.00     0.067 A 
HETATM   10  C19 UNL     1      16.677  34.410  16.656  1.00  0.00     0.070 A 
HETATM   11  C20 UNL     1      16.199  35.492  17.358  1.00  0.00     0.103 A 
HETATM   12  C22 UNL     1      17.088  36.290  18.098  1.00  0.00     0.102 A 
HETATM   13  C24 UNL     1      18.426  35.965  18.098  1.00  0.00     0.058 A 
HETATM   14  C25 UNL     1      18.911  34.874  17.390  1.00  0.00     0.053 A 
ENDROOT
BRANCH   5  15
HETATM   15  C8  UNL     1      21.422  31.311  14.910  1.00  0.00     0.140 C 
BRANCH  15  16
HETATM   16  C9  UNL     1      21.750  30.896  13.518  1.00  0.00     0.050 C 
BRANCH  16  17
HETATM   17  C10 UNL     1      20.729  30.011  12.861  1.00  0.00     0.274 C 
BRANCH  17  18
HETATM   18  N4  UNL     1      20.641  28.719  13.493  1.00  0.00     0.091 N 
HETATM   19  C11 UNL     1      19.283  28.382  13.850  1.00  0.00     0.291 C 
HETATM   20  C12 UNL     1      18.635  27.479  12.799  1.00  0.00     0.147 C 
HETATM   21  N5  UNL     1      19.010  28.004  11.526  1.00  0.00    -0.409 N 
HETATM   22  C16 UNL     1      20.382  27.738  11.269  1.00  0.00     0.147 C 
HETATM   23  C17 UNL     1      21.144  27.665  12.596  1.00  0.00     0.291 C 
BRANCH  21  24
HETATM   24  C13 UNL     1      18.107  27.939  10.465  1.00  0.00     0.123 C 
BRANCH  24  25
HETATM   25  C14 UNL     1      18.737  27.144   9.305  1.00  0.00     0.086 C 
BRANCH  25  26
HETATM   26  C15 UNL     1      18.110  25.812   9.180  1.00  0.00     0.092 C 
HETATM   27  N6  UNL     1      18.110  24.932  10.279  1.00  0.00    -0.095 NA
HETATM   28  S1  UNL     1      17.421  25.388   7.771  1.00  0.00    -0.069 SA
ENDBRANCH  25  26
ENDBRANCH  24  25
ENDBRANCH  21  24
ENDBRANCH  17  18
ENDBRANCH  16  17
ENDBRANCH  15  16
ENDBRANCH   5  15
BRANCH   1  29
HETATM   29  N1  UNL     1      21.035  35.255  17.995  1.00  0.00    -0.386 NA
BRANCH  29  30
HETATM   30  C5  UNL     1      21.890  36.013  18.642  1.00  0.00     0.110 A 
HETATM   31  C4  UNL     1      22.329  37.291  18.284  1.00  0.00     0.047 A 
HETATM   32  C3  UNL     1      23.238  38.000  19.028  1.00  0.00     0.040 A 
HETATM   33  C2  UNL     1      23.763  37.471  20.176  1.00  0.00     0.074 A 
HETATM   34  C27 UNL     1      23.364  36.210  20.583  1.00  0.00    -0.025 A 
HETATM   35  C26 UNL     1      22.458  35.505  19.840  1.00  0.00     0.054 A 
HETATM   36  C28 UNL     1      23.900  35.591  21.827  1.00  0.00     0.051 C 
BRANCH  33  37
HETATM   37  O1  UNL     1      24.678  38.114  20.969  1.00  0.00    -0.355 OA
HETATM   38  C1  UNL     1      25.470  39.214  20.562  1.00  0.00     0.210 C 
ENDBRANCH  33  37
ENDBRANCH  29  30
ENDBRANCH   1  29
BRANCH  11  39
HETATM   39  O2  UNL     1      14.891  35.859  17.389  1.00  0.00    -0.353 OA
HETATM   40  C21 UNL     1      13.928  35.113  18.080  1.00  0.00     0.210 C 
ENDBRANCH  11  39
BRANCH  12  41
HETATM   41  O3  UNL     1      16.585  37.370  18.797  1.00  0.00    -0.353 OA
HETATM   42  C23 UNL     1      17.283  38.592  18.747  1.00  0.00     0.210 C 
ENDBRANCH  12  41
TORSDOF 12
ENDMDL
