MODEL 1
REMARK VINA RESULT: -8.929104725      0.000      0.000
REMARK  15 active torsions:
REMARK  status: ('A' for Active; 'I' for Inactive)
REMARK    1  A    between atoms: C2_3  and  C3_5 
REMARK    2  A    between atoms: C3_5  and  O2_6 
REMARK    3  A    between atoms: O2_6  and  C4_7 
REMARK    4  A    between atoms: C5_10  and  C6_11 
REMARK    5  A    between atoms: C6_11  and  C7_12 
REMARK    6  A    between atoms: C7_12  and  O3_13 
REMARK    7  A    between atoms: C7_12  and  N3_15 
REMARK    8  A    between atoms: N3_15  and  C8_17 
REMARK    9  A    between atoms: C8_17  and  C9_18 
REMARK   10  A    between atoms: C8_17  and  C16_26 
REMARK   11  A    between atoms: C9_18  and  C10_19 
REMARK   12  A    between atoms: C10_19  and  C11_20 
REMARK   13  A    between atoms: C11_20  and  C12_22 
REMARK   14  A    between atoms: C16_26  and  O6_28 
REMARK   15  A    between atoms: C19_31  and  C20_32 
ROOT
HETATM    1  C1  UNL     1      18.533  34.324  17.260  1.00  0.00     0.264 C 
HETATM    2  N1  UNL     1      17.153  34.270  17.505  1.00  0.00    -0.419 NA
HETATM    3  C2  UNL     1      15.836  34.226  17.758  1.00  0.00     0.310 C 
HETATM    4  O1  UNL     1      15.225  34.529  18.807  1.00  0.00    -0.255 OA
ENDROOT
BRANCH   3   5
HETATM    5  C3  UNL     1      14.992  33.703  16.543  1.00  0.00     0.297 C 
BRANCH   5   6
HETATM    6  O2  UNL     1      15.288  32.416  16.338  1.00  0.00    -0.310 OA
BRANCH   6   7
HETATM    7  C4  UNL     1      16.254  31.670  15.804  1.00  0.00     0.240 A 
HETATM    8  N2  UNL     1      16.578  31.376  14.486  1.00  0.00    -0.308 N 
HETATM    9  C5  UNL     1      17.635  30.594  14.426  1.00  0.00     0.116 A 
ATOM     10  H2  UNL     1      16.066  31.721  13.674  1.00  0.00     0.170 HD
HETATM   11  N4  UNL     1      17.993  30.393  15.769  1.00  0.00    -0.285 N 
HETATM   12  N5  UNL     1      17.168  31.028  16.553  1.00  0.00    -0.264 N 
ATOM     13  H4  UNL     1      18.784  29.832  16.084  1.00  0.00     0.188 HD
ATOM     14  H5  UNL     1      17.209  31.036  17.572  1.00  0.00     0.190 HD
BRANCH   9  15
HETATM   15  C6  UNL     1      18.446  29.848  13.439  1.00  0.00     0.092 A 
HETATM   16  C18 UNL     1      18.955  30.577  12.242  1.00  0.00     0.037 A 
HETATM   17  C19 UNL     1      19.880  30.129  13.407  1.00  0.00     0.045 A 
BRANCH  15  18
HETATM   18  C7  UNL     1      18.034  28.471  13.143  1.00  0.00     0.129 C 
BRANCH  18  19
HETATM   19  O3  UNL     1      18.000  27.742  14.301  1.00  0.00    -0.349 OA
ATOM     20  H3  UNL     1      17.417  28.160  14.924  1.00  0.00     0.219 HD
ENDBRANCH  18  19
BRANCH  18  21
HETATM   21  N3  UNL     1      17.689  27.766  12.006  1.00  0.00    -0.360 N 
ATOM     22  H3  UNL     1      16.717  27.665  11.713  1.00  0.00     0.162 HD
BRANCH  21  23
HETATM   23  C8  UNL     1      18.769  27.179  11.253  1.00  0.00     0.183 C 
BRANCH  23  24
HETATM   24  C9  UNL     1      20.096  27.155  11.883  1.00  0.00     0.043 C 
BRANCH  24  25
HETATM   25  C10 UNL     1      21.225  26.726  11.044  1.00  0.00     0.081 C 
BRANCH  25  26
HETATM   26  C11 UNL     1      22.359  27.667  10.942  1.00  0.00     0.134 C 
HETATM   27  O4  UNL     1      22.066  28.889  10.945  1.00  0.00    -0.297 OA
BRANCH  26  28
HETATM   28  C12 UNL     1      23.797  27.354  10.829  1.00  0.00     0.009 C 
HETATM   29  C13 UNL     1      24.407  28.391   9.850  1.00  0.00     0.022 C 
HETATM   30  C14 UNL     1      24.560  27.482  12.115  1.00  0.00     0.022 C 
HETATM   31  C15 UNL     1      24.021  26.005  10.235  1.00  0.00     0.022 C 
ENDBRANCH  26  28
ENDBRANCH  25  26
ENDBRANCH  24  25
ENDBRANCH  23  24
BRANCH  23  32
HETATM   32  C16 UNL     1      18.246  25.758  10.966  1.00  0.00     0.281 C 
HETATM   33  O5  UNL     1      17.882  25.096  11.941  1.00  0.00    -0.263 OA
BRANCH  32  34
HETATM   34  O6  UNL     1      18.198  25.340   9.695  1.00  0.00    -0.325 OA
HETATM   35  C17 UNL     1      17.641  26.006   8.588  1.00  0.00     0.213 C 
ENDBRANCH  32  34
ENDBRANCH  23  32
ENDBRANCH  21  23
ENDBRANCH  18  21
ENDBRANCH  15  18
BRANCH  17  36
HETATM   36  C20 UNL     1      20.719  31.147  13.989  1.00  0.00    -0.040 A 
HETATM   37  C21 UNL     1      22.038  30.590  14.344  1.00  0.00    -0.054 A 
HETATM   38  C22 UNL     1      22.235  29.121  14.254  1.00  0.00     0.049 C 
HETATM   39  C23 UNL     1      23.005  31.411  14.801  1.00  0.00     0.014 A 
HETATM   40  C24 UNL     1      22.837  32.774  14.972  1.00  0.00    -0.061 A 
HETATM   41  C25 UNL     1      23.969  33.608  15.476  1.00  0.00     0.048 C 
HETATM   42  C26 UNL     1      21.600  33.281  14.636  1.00  0.00     0.014 A 
HETATM   43  C27 UNL     1      20.561  32.470  14.146  1.00  0.00    -0.054 A 
HETATM   44  C28 UNL     1      19.367  33.255  13.752  1.00  0.00     0.049 C 
ENDBRANCH  17  36
ENDBRANCH   9  15
ENDBRANCH   6   7
ENDBRANCH   5   6
ENDBRANCH   3   5
TORSDOF 14
ENDMDL
MODEL 2
REMARK VINA RESULT: -8.928254669      3.750      7.753
REMARK  15 active torsions:
REMARK  status: ('A' for Active; 'I' for Inactive)
REMARK    1  A    between atoms: C2_3  and  C3_5 
REMARK    2  A    between atoms: C3_5  and  O2_6 
REMARK    3  A    between atoms: O2_6  and  C4_7 
REMARK    4  A    between atoms: C5_10  and  C6_11 
REMARK    5  A    between atoms: C6_11  and  C7_12 
REMARK    6  A    between atoms: C7_12  and  O3_13 
REMARK    7  A    between atoms: C7_12  and  N3_15 
REMARK    8  A    between atoms: N3_15  and  C8_17 
REMARK    9  A    between atoms: C8_17  and  C9_18 
REMARK   10  A    between atoms: C8_17  and  C16_26 
REMARK   11  A    between atoms: C9_18  and  C10_19 
REMARK   12  A    between atoms: C10_19  and  C11_20 
REMARK   13  A    between atoms: C11_20  and  C12_22 
REMARK   14  A    between atoms: C16_26  and  O6_28 
REMARK   15  A    between atoms: C19_31  and  C20_32 
ROOT
HETATM    1  C1  UNL     1      21.181  39.878  15.950  1.00  0.00     0.264 C 
HETATM    2  N1  UNL     1      21.569  39.237  17.135  1.00  0.00    -0.419 NA
HETATM    3  C2  UNL     1      21.935  38.641  18.280  1.00  0.00     0.310 C 
HETATM    4  O1  UNL     1      21.860  39.074  19.452  1.00  0.00    -0.255 OA
ENDROOT
BRANCH   3   5
HETATM    5  C3  UNL     1      22.544  37.211  18.063  1.00  0.00     0.297 C 
BRANCH   5   6
HETATM    6  O2  UNL     1      21.659  36.301  18.480  1.00  0.00    -0.310 OA
BRANCH   6   7
HETATM    7  C4  UNL     1      20.488  35.782  18.113  1.00  0.00     0.240 A 
HETATM    8  N2  UNL     1      19.711  35.958  16.975  1.00  0.00    -0.308 N 
HETATM    9  C5  UNL     1      18.620  35.227  17.034  1.00  0.00     0.116 A 
ATOM     10  H2  UNL     1      19.956  36.572  16.197  1.00  0.00     0.170 HD
HETATM   11  N4  UNL     1      18.719  34.557  18.264  1.00  0.00    -0.285 N 
HETATM   12  N5  UNL     1      19.816  34.902  18.876  1.00  0.00    -0.264 N 
ATOM     13  H4  UNL     1      18.031  33.896  18.626  1.00  0.00     0.188 HD
ATOM     14  H5  UNL     1      20.117  34.561  19.788  1.00  0.00     0.190 HD
BRANCH   9  15
HETATM   15  C6  UNL     1      17.367  34.985  16.284  1.00  0.00     0.092 A 
HETATM   16  C18 UNL     1      16.206  34.397  17.013  1.00  0.00     0.037 A 
HETATM   17  C19 UNL     1      16.245  35.881  16.555  1.00  0.00     0.045 A 
BRANCH  15  18
HETATM   18  C7  UNL     1      17.499  34.485  14.910  1.00  0.00     0.129 C 
BRANCH  18  19
HETATM   19  O3  UNL     1      16.788  35.286  14.059  1.00  0.00    -0.349 OA
ATOM     20  H3  UNL     1      16.554  34.796  13.279  1.00  0.00     0.219 HD
ENDBRANCH  18  19
BRANCH  18  21
HETATM   21  N3  UNL     1      18.149  33.428  14.303  1.00  0.00    -0.360 N 
ATOM     22  H3  UNL     1      18.300  33.401  13.294  1.00  0.00     0.162 HD
BRANCH  21  23
HETATM   23  C8  UNL     1      18.602  32.363  15.163  1.00  0.00     0.183 C 
BRANCH  23  24
HETATM   24  C9  UNL     1      18.310  30.986  14.744  1.00  0.00     0.043 C 
BRANCH  24  25
HETATM   25  C10 UNL     1      17.560  30.815  13.490  1.00  0.00     0.081 C 
BRANCH  25  26
HETATM   26  C11 UNL     1      18.248  30.075  12.413  1.00  0.00     0.134 C 
HETATM   27  O4  UNL     1      19.361  30.533  12.051  1.00  0.00    -0.297 OA
BRANCH  26  28
HETATM   28  C12 UNL     1      17.791  28.868  11.698  1.00  0.00     0.009 C 
HETATM   29  C13 UNL     1      16.414  29.211  11.070  1.00  0.00     0.022 C 
HETATM   30  C14 UNL     1      18.681  28.445  10.566  1.00  0.00     0.022 C 
HETATM   31  C15 UNL     1      17.574  27.725  12.631  1.00  0.00     0.022 C 
ENDBRANCH  26  28
ENDBRANCH  25  26
ENDBRANCH  24  25
ENDBRANCH  23  24
BRANCH  23  32
HETATM   32  C16 UNL     1      20.117  32.626  15.252  1.00  0.00     0.281 C 
HETATM   33  O5  UNL     1      20.739  32.644  14.188  1.00  0.00    -0.263 OA
BRANCH  32  34
HETATM   34  O6  UNL     1      20.658  32.836  16.460  1.00  0.00    -0.325 OA
HETATM   35  C17 UNL     1      21.977  32.573  16.872  1.00  0.00     0.213 C 
ENDBRANCH  32  34
ENDBRANCH  23  32
ENDBRANCH  21  23
ENDBRANCH  18  21
ENDBRANCH  15  18
BRANCH  17  36
HETATM   36  C20 UNL     1      15.970  36.872  17.566  1.00  0.00    -0.040 A 
HETATM   37  C21 UNL     1      14.775  36.498  18.346  1.00  0.00    -0.054 A 
HETATM   38  C22 UNL     1      13.957  35.348  17.882  1.00  0.00     0.049 C 
HETATM   39  C23 UNL     1      14.417  37.242  19.412  1.00  0.00     0.014 A 
HETATM   40  C24 UNL     1      15.109  38.365  19.831  1.00  0.00    -0.061 A 
HETATM   41  C25 UNL     1      14.644  39.123  21.031  1.00  0.00     0.048 C 
HETATM   42  C26 UNL     1      16.224  38.702  19.094  1.00  0.00     0.014 A 
HETATM   43  C27 UNL     1      16.645  37.956  17.980  1.00  0.00    -0.054 A 
HETATM   44  C28 UNL     1      17.926  38.446  17.419  1.00  0.00     0.049 C 
ENDBRANCH  17  36
ENDBRANCH   9  15
ENDBRANCH   6   7
ENDBRANCH   5   6
ENDBRANCH   3   5
TORSDOF 14
ENDMDL
MODEL 3
REMARK VINA RESULT: -8.685472731      3.652      7.479
REMARK  15 active torsions:
REMARK  status: ('A' for Active; 'I' for Inactive)
REMARK    1  A    between atoms: C2_3  and  C3_5 
REMARK    2  A    between atoms: C3_5  and  O2_6 
REMARK    3  A    between atoms: O2_6  and  C4_7 
REMARK    4  A    between atoms: C5_10  and  C6_11 
REMARK    5  A    between atoms: C6_11  and  C7_12 
REMARK    6  A    between atoms: C7_12  and  O3_13 
REMARK    7  A    between atoms: C7_12  and  N3_15 
REMARK    8  A    between atoms: N3_15  and  C8_17 
REMARK    9  A    between atoms: C8_17  and  C9_18 
REMARK   10  A    between atoms: C8_17  and  C16_26 
REMARK   11  A    between atoms: C9_18  and  C10_19 
REMARK   12  A    between atoms: C10_19  and  C11_20 
REMARK   13  A    between atoms: C11_20  and  C12_22 
REMARK   14  A    between atoms: C16_26  and  O6_28 
REMARK   15  A    between atoms: C19_31  and  C20_32 
ROOT
HETATM    1  C1  UNL     1      21.179  39.670  16.033  1.00  0.00     0.264 C 
HETATM    2  N1  UNL     1      21.637  39.055  17.207  1.00  0.00    -0.419 NA
HETATM    3  C2  UNL     1      22.070  38.482  18.340  1.00  0.00     0.310 C 
HETATM    4  O1  UNL     1      22.077  38.945  19.503  1.00  0.00    -0.255 OA
ENDROOT
BRANCH   3   5
HETATM    5  C3  UNL     1      22.648  37.040  18.121  1.00  0.00     0.297 C 
BRANCH   5   6
HETATM    6  O2  UNL     1      21.748  36.149  18.545  1.00  0.00    -0.310 OA
BRANCH   6   7
HETATM    7  C4  UNL     1      20.531  35.707  18.231  1.00  0.00     0.240 A 
HETATM    8  N2  UNL     1      19.814  35.734  17.041  1.00  0.00    -0.308 N 
HETATM    9  C5  UNL     1      18.637  35.166  17.191  1.00  0.00     0.116 A 
ATOM     10  H2  UNL     1      20.155  36.139  16.169  1.00  0.00     0.170 HD
HETATM   11  N4  UNL     1      18.618  34.759  18.535  1.00  0.00    -0.285 N 
HETATM   12  N5  UNL     1      19.733  35.092  19.121  1.00  0.00    -0.264 N 
ATOM     13  H4  UNL     1      17.842  34.274  18.987  1.00  0.00     0.188 HD
ATOM     14  H5  UNL     1      19.964  34.914  20.098  1.00  0.00     0.190 HD
BRANCH   9  15
HETATM   15  C6  UNL     1      17.384  34.923  16.441  1.00  0.00     0.092 A 
HETATM   16  C18 UNL     1      16.207  34.384  17.182  1.00  0.00     0.037 A 
HETATM   17  C19 UNL     1      16.279  35.850  16.673  1.00  0.00     0.045 A 
BRANCH  15  18
HETATM   18  C7  UNL     1      17.514  34.372  15.087  1.00  0.00     0.129 C 
BRANCH  18  19
HETATM   19  O3  UNL     1      16.829  35.161  14.202  1.00  0.00    -0.349 OA
ATOM     20  H3  UNL     1      16.116  34.664  13.818  1.00  0.00     0.219 HD
ENDBRANCH  18  19
BRANCH  18  21
HETATM   21  N3  UNL     1      18.143  33.280  14.521  1.00  0.00    -0.360 N 
ATOM     22  H3  UNL     1      18.697  33.363  13.669  1.00  0.00     0.162 HD
BRANCH  21  23
HETATM   23  C8  UNL     1      17.977  32.015  15.193  1.00  0.00     0.183 C 
BRANCH  23  24
HETATM   24  C9  UNL     1      17.587  30.861  14.374  1.00  0.00     0.043 C 
BRANCH  24  25
HETATM   25  C10 UNL     1      18.291  30.682  13.095  1.00  0.00     0.081 C 
BRANCH  25  26
HETATM   26  C11 UNL     1      19.387  29.691  13.085  1.00  0.00     0.134 C 
HETATM   27  O4  UNL     1      19.068  28.510  13.371  1.00  0.00    -0.297 OA
BRANCH  26  28
HETATM   28  C12 UNL     1      20.815  29.914  12.790  1.00  0.00     0.009 C 
HETATM   29  C13 UNL     1      20.967  31.407  12.397  1.00  0.00     0.022 C 
HETATM   30  C14 UNL     1      21.730  29.687  13.958  1.00  0.00     0.022 C 
HETATM   31  C15 UNL     1      21.269  29.106  11.622  1.00  0.00     0.022 C 
ENDBRANCH  26  28
ENDBRANCH  25  26
ENDBRANCH  24  25
ENDBRANCH  23  24
BRANCH  23  32
HETATM   32  C16 UNL     1      19.349  31.807  15.861  1.00  0.00     0.281 C 
HETATM   33  O5  UNL     1      19.496  30.769  16.510  1.00  0.00    -0.263 OA
BRANCH  32  34
HETATM   34  O6  UNL     1      20.295  32.739  15.682  1.00  0.00    -0.325 OA
HETATM   35  C17 UNL     1      21.616  32.731  16.163  1.00  0.00     0.213 C 
ENDBRANCH  32  34
ENDBRANCH  23  32
ENDBRANCH  21  23
ENDBRANCH  18  21
ENDBRANCH  15  18
BRANCH  17  36
HETATM   36  C20 UNL     1      16.019  36.881  17.647  1.00  0.00    -0.040 A 
HETATM   37  C21 UNL     1      14.781  36.587  18.394  1.00  0.00    -0.054 A 
HETATM   38  C22 UNL     1      13.925  35.464  17.933  1.00  0.00     0.049 C 
HETATM   39  C23 UNL     1      14.424  37.377  19.427  1.00  0.00     0.014 A 
HETATM   40  C24 UNL     1      15.155  38.477  19.840  1.00  0.00    -0.061 A 
HETATM   41  C25 UNL     1      14.687  39.290  21.002  1.00  0.00     0.048 C 
HETATM   42  C26 UNL     1      16.309  38.740  19.134  1.00  0.00     0.014 A 
HETATM   43  C27 UNL     1      16.730  37.943  18.055  1.00  0.00    -0.054 A 
HETATM   44  C28 UNL     1      18.053  38.357  17.527  1.00  0.00     0.049 C 
ENDBRANCH  17  36
ENDBRANCH   9  15
ENDBRANCH   6   7
ENDBRANCH   5   6
ENDBRANCH   3   5
TORSDOF 14
ENDMDL
MODEL 4
REMARK VINA RESULT: -8.565018001      1.916      2.577
REMARK  15 active torsions:
REMARK  status: ('A' for Active; 'I' for Inactive)
REMARK    1  A    between atoms: C2_3  and  C3_5 
REMARK    2  A    between atoms: C3_5  and  O2_6 
REMARK    3  A    between atoms: O2_6  and  C4_7 
REMARK    4  A    between atoms: C5_10  and  C6_11 
REMARK    5  A    between atoms: C6_11  and  C7_12 
REMARK    6  A    between atoms: C7_12  and  O3_13 
REMARK    7  A    between atoms: C7_12  and  N3_15 
REMARK    8  A    between atoms: N3_15  and  C8_17 
REMARK    9  A    between atoms: C8_17  and  C9_18 
REMARK   10  A    between atoms: C8_17  and  C16_26 
REMARK   11  A    between atoms: C9_18  and  C10_19 
REMARK   12  A    between atoms: C10_19  and  C11_20 
REMARK   13  A    between atoms: C11_20  and  C12_22 
REMARK   14  A    between atoms: C16_26  and  O6_28 
REMARK   15  A    between atoms: C19_31  and  C20_32 
ROOT
HETATM    1  C1  UNL     1      16.857  36.818  16.715  1.00  0.00     0.264 C 
HETATM    2  N1  UNL     1      16.025  35.835  17.270  1.00  0.00    -0.419 NA
HETATM    3  C2  UNL     1      15.232  34.902  17.820  1.00  0.00     0.310 C 
HETATM    4  O1  UNL     1      14.980  34.697  19.028  1.00  0.00    -0.255 OA
ENDROOT
BRANCH   3   5
HETATM    5  C3  UNL     1      14.565  33.957  16.760  1.00  0.00     0.297 C 
BRANCH   5   6
HETATM    6  O2  UNL     1      15.255  32.815  16.710  1.00  0.00    -0.310 OA
BRANCH   6   7
HETATM    7  C4  UNL     1      16.276  32.274  16.046  1.00  0.00     0.240 A 
HETATM    8  N2  UNL     1      17.549  31.892  16.452  1.00  0.00    -0.308 N 
HETATM    9  C5  UNL     1      18.230  31.387  15.446  1.00  0.00     0.116 A 
ATOM     10  H2  UNL     1      17.906  31.989  17.403  1.00  0.00     0.170 HD
HETATM   11  N4  UNL     1      17.341  31.451  14.360  1.00  0.00    -0.285 N 
HETATM   12  N5  UNL     1      16.210  31.978  14.736  1.00  0.00    -0.264 N 
ATOM     13  H4  UNL     1      17.551  31.132  13.414  1.00  0.00     0.188 HD
ATOM     14  H5  UNL     1      15.403  32.139  14.134  1.00  0.00     0.190 HD
BRANCH   9  15
HETATM   15  C6  UNL     1      19.585  30.889  15.123  1.00  0.00     0.092 A 
HETATM   16  C18 UNL     1      20.364  31.589  14.061  1.00  0.00     0.037 A 
HETATM   17  C19 UNL     1      20.717  31.699  15.570  1.00  0.00     0.045 A 
BRANCH  15  18
HETATM   18  C7  UNL     1      19.775  29.433  15.112  1.00  0.00     0.129 C 
BRANCH  18  19
HETATM   19  O3  UNL     1      19.948  28.983  16.393  1.00  0.00    -0.349 OA
ATOM     20  H3  UNL     1      19.120  29.017  16.858  1.00  0.00     0.219 HD
ENDBRANCH  18  19
BRANCH  18  21
HETATM   21  N3  UNL     1      19.821  28.450  14.142  1.00  0.00    -0.360 N 
ATOM     22  H3  UNL     1      20.113  27.498  14.359  1.00  0.00     0.162 HD
BRANCH  21  23
HETATM   23  C8  UNL     1      19.437  28.837  12.807  1.00  0.00     0.183 C 
BRANCH  23  24
HETATM   24  C9  UNL     1      20.205  28.268  11.693  1.00  0.00     0.043 C 
BRANCH  24  25
HETATM   25  C10 UNL     1      21.475  28.928  11.352  1.00  0.00     0.081 C 
BRANCH  25  26
HETATM   26  C11 UNL     1      22.699  28.316  11.905  1.00  0.00     0.134 C 
HETATM   27  O4  UNL     1      22.868  28.438  13.144  1.00  0.00    -0.297 OA
BRANCH  26  28
HETATM   28  C12 UNL     1      23.759  27.582  11.185  1.00  0.00     0.009 C 
HETATM   29  C13 UNL     1      24.201  28.479   9.999  1.00  0.00     0.022 C 
HETATM   30  C14 UNL     1      24.991  27.318  12.001  1.00  0.00     0.022 C 
HETATM   31  C15 UNL     1      23.248  26.308  10.605  1.00  0.00     0.022 C 
ENDBRANCH  26  28
ENDBRANCH  25  26
ENDBRANCH  24  25
ENDBRANCH  23  24
BRANCH  23  32
HETATM   32  C16 UNL     1      17.954  28.424  12.751  1.00  0.00     0.281 C 
HETATM   33  O5  UNL     1      17.662  27.344  13.270  1.00  0.00    -0.263 OA
BRANCH  32  34
HETATM   34  O6  UNL     1      17.080  29.257  12.171  1.00  0.00    -0.325 OA
HETATM   35  C17 UNL     1      16.589  29.212  10.855  1.00  0.00     0.213 C 
ENDBRANCH  32  34
ENDBRANCH  23  32
ENDBRANCH  21  23
ENDBRANCH  18  21
ENDBRANCH  15  18
BRANCH  17  36
HETATM   36  C20 UNL     1      20.851  33.032  16.102  1.00  0.00    -0.040 A 
HETATM   37  C21 UNL     1      22.023  33.116  16.995  1.00  0.00    -0.054 A 
HETATM   38  C22 UNL     1      22.727  31.861  17.361  1.00  0.00     0.049 C 
HETATM   39  C23 UNL     1      22.383  34.310  17.507  1.00  0.00     0.014 A 
HETATM   40  C24 UNL     1      21.708  35.491  17.251  1.00  0.00    -0.061 A 
HETATM   41  C25 UNL     1      22.186  36.770  17.855  1.00  0.00     0.048 C 
HETATM   42  C26 UNL     1      20.616  35.398  16.416  1.00  0.00     0.014 A 
HETATM   43  C27 UNL     1      20.203  34.179  15.849  1.00  0.00    -0.054 A 
HETATM   44  C28 UNL     1      19.076  34.347  14.900  1.00  0.00     0.049 C 
ENDBRANCH  17  36
ENDBRANCH   9  15
ENDBRANCH   6   7
ENDBRANCH   5   6
ENDBRANCH   3   5
TORSDOF 14
ENDMDL
MODEL 5
REMARK VINA RESULT: -8.474462344      3.621      7.444
REMARK  15 active torsions:
REMARK  status: ('A' for Active; 'I' for Inactive)
REMARK    1  A    between atoms: C2_3  and  C3_5 
REMARK    2  A    between atoms: C3_5  and  O2_6 
REMARK    3  A    between atoms: O2_6  and  C4_7 
REMARK    4  A    between atoms: C5_10  and  C6_11 
REMARK    5  A    between atoms: C6_11  and  C7_12 
REMARK    6  A    between atoms: C7_12  and  O3_13 
REMARK    7  A    between atoms: C7_12  and  N3_15 
REMARK    8  A    between atoms: N3_15  and  C8_17 
REMARK    9  A    between atoms: C8_17  and  C9_18 
REMARK   10  A    between atoms: C8_17  and  C16_26 
REMARK   11  A    between atoms: C9_18  and  C10_19 
REMARK   12  A    between atoms: C10_19  and  C11_20 
REMARK   13  A    between atoms: C11_20  and  C12_22 
REMARK   14  A    between atoms: C16_26  and  O6_28 
REMARK   15  A    between atoms: C19_31  and  C20_32 
ROOT
HETATM    1  C1  UNL     1      20.982  39.578  15.902  1.00  0.00     0.264 C 
HETATM    2  N1  UNL     1      21.436  38.941  17.066  1.00  0.00    -0.419 NA
HETATM    3  C2  UNL     1      21.865  38.347  18.190  1.00  0.00     0.310 C 
HETATM    4  O1  UNL     1      21.846  38.779  19.365  1.00  0.00    -0.255 OA
ENDROOT
BRANCH   3   5
HETATM    5  C3  UNL     1      22.474  36.923  17.942  1.00  0.00     0.297 C 
BRANCH   5   6
HETATM    6  O2  UNL     1      21.613  36.004  18.389  1.00  0.00    -0.310 OA
BRANCH   6   7
HETATM    7  C4  UNL     1      20.385  35.556  18.135  1.00  0.00     0.240 A 
HETATM    8  N2  UNL     1      19.617  35.562  16.977  1.00  0.00    -0.308 N 
HETATM    9  C5  UNL     1      18.449  34.995  17.186  1.00  0.00     0.116 A 
ATOM     10  H2  UNL     1      19.919  35.953  16.084  1.00  0.00     0.170 HD
HETATM   11  N4  UNL     1      18.488  34.611  18.537  1.00  0.00    -0.285 N 
HETATM   12  N5  UNL     1      19.627  34.955  19.069  1.00  0.00    -0.264 N 
ATOM     13  H4  UNL     1      17.734  34.132  19.030  1.00  0.00     0.188 HD
ATOM     14  H5  UNL     1      19.900  34.794  20.037  1.00  0.00     0.190 HD
BRANCH   9  15
HETATM   15  C6  UNL     1      17.165  34.738  16.495  1.00  0.00     0.092 A 
HETATM   16  C18 UNL     1      16.012  34.243  17.302  1.00  0.00     0.037 A 
HETATM   17  C19 UNL     1      16.080  35.687  16.733  1.00  0.00     0.045 A 
BRANCH  15  18
HETATM   18  C7  UNL     1      17.237  34.133  15.160  1.00  0.00     0.129 C 
BRANCH  18  19
HETATM   19  O3  UNL     1      17.324  35.119  14.214  1.00  0.00    -0.349 OA
ATOM     20  H3  UNL     1      17.876  34.826  13.498  1.00  0.00     0.219 HD
ENDBRANCH  18  19
BRANCH  18  21
HETATM   21  N3  UNL     1      17.233  32.847  14.657  1.00  0.00    -0.360 N 
ATOM     22  H3  UNL     1      16.410  32.452  14.203  1.00  0.00     0.162 HD
BRANCH  21  23
HETATM   23  C8  UNL     1      18.450  32.088  14.805  1.00  0.00     0.183 C 
BRANCH  23  24
HETATM   24  C9  UNL     1      18.681  31.428  16.097  1.00  0.00     0.043 C 
BRANCH  24  25
HETATM   25  C10 UNL     1      20.054  30.988  16.386  1.00  0.00     0.081 C 
BRANCH  25  26
HETATM   26  C11 UNL     1      21.125  31.971  16.127  1.00  0.00     0.134 C 
HETATM   27  O4  UNL     1      21.255  32.885  16.980  1.00  0.00    -0.297 OA
BRANCH  26  28
HETATM   28  C12 UNL     1      22.059  32.024  14.985  1.00  0.00     0.009 C 
HETATM   29  C13 UNL     1      22.094  30.602  14.366  1.00  0.00     0.022 C 
HETATM   30  C14 UNL     1      21.638  32.956  13.886  1.00  0.00     0.022 C 
HETATM   31  C15 UNL     1      23.446  32.346  15.425  1.00  0.00     0.022 C 
ENDBRANCH  26  28
ENDBRANCH  25  26
ENDBRANCH  24  25
ENDBRANCH  23  24
BRANCH  23  32
HETATM   32  C16 UNL     1      18.355  31.072  13.651  1.00  0.00     0.281 C 
HETATM   33  O5  UNL     1      18.823  31.423  12.566  1.00  0.00    -0.263 OA
BRANCH  32  34
HETATM   34  O6  UNL     1      17.799  29.878  13.896  1.00  0.00    -0.325 OA
HETATM   35  C17 UNL     1      18.337  28.605  13.636  1.00  0.00     0.213 C 
ENDBRANCH  32  34
ENDBRANCH  23  32
ENDBRANCH  21  23
ENDBRANCH  18  21
ENDBRANCH  15  18
BRANCH  17  36
HETATM   36  C20 UNL     1      15.868  36.758  17.675  1.00  0.00    -0.040 A 
HETATM   37  C21 UNL     1      14.632  36.530  18.448  1.00  0.00    -0.054 A 
HETATM   38  C22 UNL     1      13.733  35.423  18.037  1.00  0.00     0.049 C 
HETATM   39  C23 UNL     1      14.317  37.366  19.458  1.00  0.00     0.014 A 
HETATM   40  C24 UNL     1      15.090  38.455  19.824  1.00  0.00    -0.061 A 
HETATM   41  C25 UNL     1      14.666  39.321  20.964  1.00  0.00     0.048 C 
HETATM   42  C26 UNL     1      16.241  38.655  19.094  1.00  0.00     0.014 A 
HETATM   43  C27 UNL     1      16.620  37.809  18.037  1.00  0.00    -0.054 A 
HETATM   44  C28 UNL     1      17.948  38.159  17.477  1.00  0.00     0.049 C 
ENDBRANCH  17  36
ENDBRANCH   9  15
ENDBRANCH   6   7
ENDBRANCH   5   6
ENDBRANCH   3   5
TORSDOF 14
ENDMDL
