MODEL 1
REMARK VINA RESULT: -8.512623047      0.000      0.000
REMARK  11 active torsions:
REMARK  status: ('A' for Active; 'I' for Inactive)
REMARK    1  A    between atoms: O1_2  and  C2_3 
REMARK    2  A    between atoms: C2_3  and  C3_4 
REMARK    3  A    between atoms: C3_4  and  O2_5 
REMARK    4  A    between atoms: O2_5  and  C4_6 
REMARK    5  A    between atoms: C6_8  and  N1_9 
REMARK    6  A    between atoms: N1_9  and  C7_11 
REMARK    7  A    between atoms: C8_14  and  C9_15 
REMARK    8  A    between atoms: C19_31  and  C20_32 
REMARK    9  A    between atoms: C20_32  and  C21_33 
REMARK   10  A    between atoms: C21_33  and  N6_34 
REMARK       I    between atoms: N6_34  and  C23_36 
REMARK   11  A    between atoms: C25_39  and  C26_40 
ROOT
HETATM    1  C4  UNL     1      16.639  33.493  15.940  1.00  0.00     0.071 A 
HETATM    2  C5  UNL     1      17.501  34.532  16.161  1.00  0.00     0.066 A 
HETATM    3  C6  UNL     1      18.857  34.359  16.220  1.00  0.00     0.043 A 
HETATM    4  C19 UNL     1      19.392  33.070  16.049  1.00  0.00    -0.018 A 
HETATM    5  C25 UNL     1      18.576  31.998  15.829  1.00  0.00    -0.012 A 
HETATM    6  C29 UNL     1      17.191  32.250  15.779  1.00  0.00     0.049 A 
ENDROOT
BRANCH   3   7
HETATM    7  N1  UNL     1      19.681  35.467  16.444  1.00  0.00    -0.341 N 
ATOM      8  H1  UNL     1      20.487  35.544  15.823  1.00  0.00     0.167 HD
BRANCH   7   9
HETATM    9  C7  UNL     1      19.571  36.386  17.303  1.00  0.00     0.115 A 
HETATM   10  N2  UNL     1      18.794  37.482  17.218  1.00  0.00    -0.327 N 
HETATM   11  C8  UNL     1      18.741  38.407  18.191  1.00  0.00     0.124 A 
ATOM     12  H2  UNL     1      18.222  37.614  16.383  1.00  0.00     0.169 HD
HETATM   13  N5  UNL     1      19.496  38.232  19.294  1.00  0.00    -0.344 N 
HETATM   14  C13 UNL     1      20.297  37.178  19.468  1.00  0.00     0.021 A 
ATOM     15  H5  UNL     1      19.454  38.938  20.030  1.00  0.00     0.167 HD
HETATM   16  C14 UNL     1      20.342  36.237  18.463  1.00  0.00     0.009 A 
HETATM   17  C18 UNL     1      21.139  36.954  20.668  1.00  0.00     0.058 C 
HETATM   18  C15 UNL     1      21.235  35.073  18.671  1.00  0.00     0.044 C 
HETATM   19  C16 UNL     1      22.571  35.540  19.150  1.00  0.00     0.005 C 
HETATM   20  C17 UNL     1      22.534  36.613  20.190  1.00  0.00     0.006 C 
BRANCH  11  21
HETATM   21  C9  UNL     1      17.882  39.587  18.060  1.00  0.00     0.094 A 
HETATM   22  C10 UNL     1      17.104  40.153  19.047  1.00  0.00     0.130 A 
HETATM   23  N3  UNL     1      16.452  41.237  18.535  1.00  0.00    -0.304 N 
HETATM   24  C11 UNL     1      15.551  42.054  19.325  1.00  0.00     0.177 C 
HETATM   25  N4  UNL     1      16.812  41.336  17.279  1.00  0.00    -0.264 N 
HETATM   26  C12 UNL     1      17.683  40.356  16.935  1.00  0.00     0.275 A 
ATOM     27  H4  UNL     1      16.480  42.059  16.641  1.00  0.00     0.190 HD
HETATM   28  O3  UNL     1      18.226  40.154  15.821  1.00  0.00    -0.266 OA
ENDBRANCH  11  21
ENDBRANCH   7   9
ENDBRANCH   3   7
BRANCH   4  29
HETATM   29  C20 UNL     1      20.852  32.981  16.102  1.00  0.00     0.061 C 
BRANCH  29  30
HETATM   30  C21 UNL     1      21.495  33.270  14.754  1.00  0.00     0.130 C 
BRANCH  30  31
HETATM   31  N6  UNL     1      21.952  32.025  14.155  1.00  0.00    -0.356 N 
HETATM   32  C22 UNL     1      23.101  31.363  14.752  1.00  0.00     0.152 C 
HETATM   33  C23 UNL     1      21.321  31.450  13.024  1.00  0.00     0.215 C 
HETATM   34  C24 UNL     1      20.149  32.055  12.353  1.00  0.00     0.117 C 
HETATM   35  O4  UNL     1      21.783  30.373  12.572  1.00  0.00    -0.274 OA
ENDBRANCH  30  31
ENDBRANCH  29  30
ENDBRANCH   4  29
BRANCH   1  36
HETATM   36  O2  UNL     1      15.246  33.700  15.883  1.00  0.00    -0.349 OA
BRANCH  36  37
HETATM   37  C3  UNL     1      14.564  33.698  17.121  1.00  0.00     0.201 C 
BRANCH  37  38
HETATM   38  C2  UNL     1      14.275  35.083  17.625  1.00  0.00     0.193 C 
BRANCH  38  39
HETATM   39  O1  UNL     1      14.969  35.393  18.776  1.00  0.00    -0.394 OA
HETATM   40  C1  UNL     1      15.499  36.678  18.677  1.00  0.00     0.201 C 
ENDBRANCH  38  39
ENDBRANCH  37  38
ENDBRANCH  36  37
ENDBRANCH   1  36
BRANCH   5  41
HETATM   41  C26 UNL     1      19.039  30.638  15.666  1.00  0.00     0.009 A 
HETATM   42  C27 UNL     1      19.982  29.961  16.379  1.00  0.00     0.120 A 
HETATM   43  N7  UNL     1      20.092  28.701  15.869  1.00  0.00    -0.311 N 
HETATM   44  N8  UNL     1      19.228  28.601  14.854  1.00  0.00    -0.311 N 
ATOM     45  H7  UNL     1      20.720  27.969  16.202  1.00  0.00     0.186 HD
HETATM   46  C28 UNL     1      18.570  29.770  14.707  1.00  0.00     0.120 A 
ATOM     47  H8  UNL     1      19.087  27.770  14.279  1.00  0.00     0.186 HD
ENDBRANCH   5  41
TORSDOF 11
ENDMDL
MODEL 2
REMARK VINA RESULT: -8.133782073      1.258      1.623
REMARK  11 active torsions:
REMARK  status: ('A' for Active; 'I' for Inactive)
REMARK    1  A    between atoms: O1_2  and  C2_3 
REMARK    2  A    between atoms: C2_3  and  C3_4 
REMARK    3  A    between atoms: C3_4  and  O2_5 
REMARK    4  A    between atoms: O2_5  and  C4_6 
REMARK    5  A    between atoms: C6_8  and  N1_9 
REMARK    6  A    between atoms: N1_9  and  C7_11 
REMARK    7  A    between atoms: C8_14  and  C9_15 
REMARK    8  A    between atoms: C19_31  and  C20_32 
REMARK    9  A    between atoms: C20_32  and  C21_33 
REMARK   10  A    between atoms: C21_33  and  N6_34 
REMARK       I    between atoms: N6_34  and  C23_36 
REMARK   11  A    between atoms: C25_39  and  C26_40 
ROOT
HETATM    1  C4  UNL     1      16.281  33.371  16.731  1.00  0.00     0.071 A 
HETATM    2  C5  UNL     1      17.298  34.261  16.947  1.00  0.00     0.066 A 
HETATM    3  C6  UNL     1      18.529  34.122  16.367  1.00  0.00     0.043 A 
HETATM    4  C19 UNL     1      18.766  33.028  15.516  1.00  0.00    -0.018 A 
HETATM    5  C25 UNL     1      17.788  32.110  15.268  1.00  0.00    -0.012 A 
HETATM    6  C29 UNL     1      16.545  32.316  15.898  1.00  0.00     0.049 A 
ENDROOT
BRANCH   3   7
HETATM    7  N1  UNL     1      19.521  35.073  16.627  1.00  0.00    -0.341 N 
ATOM      8  H1  UNL     1      20.430  34.881  16.205  1.00  0.00     0.167 HD
BRANCH   7   9
HETATM    9  C7  UNL     1      19.456  36.133  17.309  1.00  0.00     0.115 A 
HETATM   10  N2  UNL     1      18.762  37.247  17.005  1.00  0.00    -0.327 N 
HETATM   11  C8  UNL     1      18.750  38.330  17.800  1.00  0.00     0.124 A 
ATOM     12  H2  UNL     1      18.225  37.268  16.138  1.00  0.00     0.169 HD
HETATM   13  N5  UNL     1      19.460  38.301  18.946  1.00  0.00    -0.344 N 
HETATM   14  C13 UNL     1      20.177  37.243  19.332  1.00  0.00     0.021 A 
ATOM     15  H5  UNL     1      19.449  39.126  19.547  1.00  0.00     0.167 HD
HETATM   16  C14 UNL     1      20.181  36.139  18.507  1.00  0.00     0.009 A 
HETATM   17  C18 UNL     1      20.968  37.176  20.585  1.00  0.00     0.058 C 
HETATM   18  C15 UNL     1      20.981  34.972  18.949  1.00  0.00     0.044 C 
HETATM   19  C16 UNL     1      22.334  35.425  19.392  1.00  0.00     0.005 C 
HETATM   20  C17 UNL     1      22.346  36.664  20.229  1.00  0.00     0.006 C 
BRANCH  11  21
HETATM   21  C9  UNL     1      17.983  39.523  17.433  1.00  0.00     0.094 A 
HETATM   22  C10 UNL     1      16.870  40.018  18.079  1.00  0.00     0.130 A 
HETATM   23  N3  UNL     1      16.444  41.143  17.435  1.00  0.00    -0.304 N 
HETATM   24  C11 UNL     1      15.289  41.904  17.871  1.00  0.00     0.177 C 
HETATM   25  N4  UNL     1      17.262  41.335  16.429  1.00  0.00    -0.264 N 
HETATM   26  C12 UNL     1      18.220  40.377  16.380  1.00  0.00     0.275 A 
ATOM     27  H4  UNL     1      17.187  42.108  15.768  1.00  0.00     0.190 HD
HETATM   28  O3  UNL     1      19.157  40.258  15.554  1.00  0.00    -0.266 OA
ENDBRANCH  11  21
ENDBRANCH   7   9
ENDBRANCH   3   7
BRANCH   4  29
HETATM   29  C20 UNL     1      20.101  32.972  14.918  1.00  0.00     0.061 C 
BRANCH  29  30
HETATM   30  C21 UNL     1      21.054  32.097  15.719  1.00  0.00     0.130 C 
BRANCH  30  31
HETATM   31  N6  UNL     1      22.330  32.005  15.025  1.00  0.00    -0.356 N 
HETATM   32  C22 UNL     1      22.507  30.929  14.064  1.00  0.00     0.152 C 
HETATM   33  C23 UNL     1      23.388  32.918  15.259  1.00  0.00     0.215 C 
HETATM   34  C24 UNL     1      23.296  34.040  16.219  1.00  0.00     0.117 C 
HETATM   35  O4  UNL     1      24.456  32.762  14.617  1.00  0.00    -0.274 OA
ENDBRANCH  30  31
ENDBRANCH  29  30
ENDBRANCH   4  29
BRANCH   1  36
HETATM   36  O2  UNL     1      15.023  33.539  17.342  1.00  0.00    -0.349 OA
BRANCH  36  37
HETATM   37  C3  UNL     1      14.214  34.578  16.826  1.00  0.00     0.201 C 
BRANCH  37  38
HETATM   38  C2  UNL     1      13.923  35.644  17.845  1.00  0.00     0.193 C 
BRANCH  38  39
HETATM   39  O1  UNL     1      14.767  35.592  18.935  1.00  0.00    -0.394 OA
HETATM   40  C1  UNL     1      15.578  36.725  18.959  1.00  0.00     0.201 C 
ENDBRANCH  38  39
ENDBRANCH  37  38
ENDBRANCH  36  37
ENDBRANCH   1  36
BRANCH   5  41
HETATM   41  C26 UNL     1      17.952  30.945  14.428  1.00  0.00     0.009 A 
HETATM   42  C27 UNL     1      18.418  29.708  14.757  1.00  0.00     0.120 A 
HETATM   43  N7  UNL     1      18.402  28.924  13.641  1.00  0.00    -0.311 N 
HETATM   44  N8  UNL     1      17.931  29.669  12.634  1.00  0.00    -0.311 N 
ATOM     45  H7  UNL     1      18.695  27.949  13.584  1.00  0.00     0.186 HD
HETATM   46  C28 UNL     1      17.648  30.908  13.086  1.00  0.00     0.120 A 
ATOM     47  H8  UNL     1      17.806  29.350  11.673  1.00  0.00     0.186 HD
ENDBRANCH   5  41
TORSDOF 11
ENDMDL
MODEL 3
REMARK VINA RESULT: -7.981469095      2.278      8.734
REMARK  11 active torsions:
REMARK  status: ('A' for Active; 'I' for Inactive)
REMARK    1  A    between atoms: O1_2  and  C2_3 
REMARK    2  A    between atoms: C2_3  and  C3_4 
REMARK    3  A    between atoms: C3_4  and  O2_5 
REMARK    4  A    between atoms: O2_5  and  C4_6 
REMARK    5  A    between atoms: C6_8  and  N1_9 
REMARK    6  A    between atoms: N1_9  and  C7_11 
REMARK    7  A    between atoms: C8_14  and  C9_15 
REMARK    8  A    between atoms: C19_31  and  C20_32 
REMARK    9  A    between atoms: C20_32  and  C21_33 
REMARK   10  A    between atoms: C21_33  and  N6_34 
REMARK       I    between atoms: N6_34  and  C23_36 
REMARK   11  A    between atoms: C25_39  and  C26_40 
ROOT
HETATM    1  C4  UNL     1      22.356  34.150  16.534  1.00  0.00     0.071 A 
HETATM    2  C5  UNL     1      21.056  33.841  16.834  1.00  0.00     0.066 A 
HETATM    3  C6  UNL     1      20.242  34.694  17.529  1.00  0.00     0.043 A 
HETATM    4  C19 UNL     1      20.751  35.934  17.953  1.00  0.00    -0.018 A 
HETATM    5  C25 UNL     1      22.040  36.291  17.682  1.00  0.00    -0.012 A 
HETATM    6  C29 UNL     1      22.820  35.365  16.962  1.00  0.00     0.049 A 
ENDROOT
BRANCH   3   7
HETATM    7  N1  UNL     1      18.922  34.317  17.797  1.00  0.00    -0.341 N 
ATOM      8  H1  UNL     1      18.550  34.638  18.690  1.00  0.00     0.167 HD
BRANCH   7   9
HETATM    9  C7  UNL     1      18.125  33.636  17.092  1.00  0.00     0.115 A 
HETATM   10  N2  UNL     1      18.448  32.668  16.215  1.00  0.00    -0.327 N 
HETATM   11  C8  UNL     1      17.524  31.992  15.511  1.00  0.00     0.124 A 
ATOM     12  H2  UNL     1      19.433  32.437  16.080  1.00  0.00     0.169 HD
HETATM   13  N5  UNL     1      16.222  32.297  15.690  1.00  0.00    -0.344 N 
HETATM   14  C13 UNL     1      15.806  33.241  16.538  1.00  0.00     0.021 A 
ATOM     15  H5  UNL     1      15.524  31.783  15.153  1.00  0.00     0.167 HD
HETATM   16  C14 UNL     1      16.764  33.925  17.253  1.00  0.00     0.009 A 
HETATM   17  C18 UNL     1      14.385  33.601  16.760  1.00  0.00     0.058 C 
HETATM   18  C15 UNL     1      16.287  34.969  18.190  1.00  0.00     0.044 C 
HETATM   19  C16 UNL     1      15.277  35.836  17.510  1.00  0.00     0.005 C 
HETATM   20  C17 UNL     1      14.275  35.107  16.673  1.00  0.00     0.006 C 
BRANCH  11  21
HETATM   21  C9  UNL     1      17.916  30.946  14.565  1.00  0.00     0.094 A 
HETATM   22  C10 UNL     1      17.367  30.711  13.322  1.00  0.00     0.130 A 
HETATM   23  N3  UNL     1      18.003  29.649  12.746  1.00  0.00    -0.304 N 
HETATM   24  C11 UNL     1      17.657  29.149  11.430  1.00  0.00     0.177 C 
HETATM   25  N4  UNL     1      18.910  29.244  13.601  1.00  0.00    -0.264 N 
HETATM   26  C12 UNL     1      18.902  29.998  14.727  1.00  0.00     0.275 A 
ATOM     27  H4  UNL     1      19.543  28.460  13.439  1.00  0.00     0.190 HD
HETATM   28  O3  UNL     1      19.633  29.888  15.742  1.00  0.00    -0.266 OA
ENDBRANCH  11  21
ENDBRANCH   7   9
ENDBRANCH   3   7
BRANCH   4  29
HETATM   29  C20 UNL     1      19.804  36.793  18.666  1.00  0.00     0.061 C 
BRANCH  29  30
HETATM   30  C21 UNL     1      19.135  37.801  17.743  1.00  0.00     0.130 C 
BRANCH  30  31
HETATM   31  N6  UNL     1      18.761  38.984  18.504  1.00  0.00    -0.356 N 
HETATM   32  C22 UNL     1      19.673  39.449  19.535  1.00  0.00     0.152 C 
HETATM   33  C23 UNL     1      17.550  39.684  18.271  1.00  0.00     0.215 C 
HETATM   34  C24 UNL     1      16.564  39.281  17.244  1.00  0.00     0.117 C 
HETATM   35  O4  UNL     1      17.307  40.695  18.975  1.00  0.00    -0.274 OA
ENDBRANCH  30  31
ENDBRANCH  29  30
ENDBRANCH   4  29
BRANCH   1  36
HETATM   36  O2  UNL     1      23.171  33.253  15.817  1.00  0.00    -0.349 OA
BRANCH  36  37
HETATM   37  C3  UNL     1      22.943  33.182  14.423  1.00  0.00     0.201 C 
BRANCH  37  38
HETATM   38  C2  UNL     1      22.134  31.978  14.030  1.00  0.00     0.193 C 
BRANCH  38  39
HETATM   39  O1  UNL     1      21.160  32.265  13.096  1.00  0.00    -0.394 OA
HETATM   40  C1  UNL     1      21.156  31.288  12.104  1.00  0.00     0.201 C 
ENDBRANCH  38  39
ENDBRANCH  37  38
ENDBRANCH  36  37
ENDBRANCH   1  36
BRANCH   5  41
HETATM   41  C26 UNL     1      22.651  37.533  18.100  1.00  0.00     0.009 A 
HETATM   42  C27 UNL     1      23.345  37.808  19.239  1.00  0.00     0.120 A 
HETATM   43  N7  UNL     1      23.732  39.115  19.210  1.00  0.00    -0.311 N 
HETATM   44  N8  UNL     1      23.282  39.642  18.066  1.00  0.00    -0.311 N 
ATOM     45  H7  UNL     1      24.267  39.602  19.930  1.00  0.00     0.186 HD
HETATM   46  C28 UNL     1      22.618  38.698  17.368  1.00  0.00     0.120 A 
ATOM     47  H8  UNL     1      23.419  40.608  17.768  1.00  0.00     0.186 HD
ENDBRANCH   5  41
TORSDOF 11
ENDMDL
MODEL 4
REMARK VINA RESULT: -7.981030009      2.361      8.869
REMARK  11 active torsions:
REMARK  status: ('A' for Active; 'I' for Inactive)
REMARK    1  A    between atoms: O1_2  and  C2_3 
REMARK    2  A    between atoms: C2_3  and  C3_4 
REMARK    3  A    between atoms: C3_4  and  O2_5 
REMARK    4  A    between atoms: O2_5  and  C4_6 
REMARK    5  A    between atoms: C6_8  and  N1_9 
REMARK    6  A    between atoms: N1_9  and  C7_11 
REMARK    7  A    between atoms: C8_14  and  C9_15 
REMARK    8  A    between atoms: C19_31  and  C20_32 
REMARK    9  A    between atoms: C20_32  and  C21_33 
REMARK   10  A    between atoms: C21_33  and  N6_34 
REMARK       I    between atoms: N6_34  and  C23_36 
REMARK   11  A    between atoms: C25_39  and  C26_40 
ROOT
HETATM    1  C4  UNL     1      22.116  34.450  17.521  1.00  0.00     0.071 A 
HETATM    2  C5  UNL     1      20.943  34.362  16.822  1.00  0.00     0.066 A 
HETATM    3  C6  UNL     1      19.944  35.289  16.947  1.00  0.00     0.043 A 
HETATM    4  C19 UNL     1      20.121  36.373  17.824  1.00  0.00    -0.018 A 
HETATM    5  C25 UNL     1      21.271  36.508  18.546  1.00  0.00    -0.012 A 
HETATM    6  C29 UNL     1      22.257  35.518  18.367  1.00  0.00     0.049 A 
ENDROOT
BRANCH   3   7
HETATM    7  N1  UNL     1      18.772  35.140  16.199  1.00  0.00    -0.341 N 
ATOM      8  H1  UNL     1      18.321  36.011  15.917  1.00  0.00     0.167 HD
BRANCH   7   9
HETATM    9  C7  UNL     1      18.191  34.084  15.821  1.00  0.00     0.115 A 
HETATM   10  N2  UNL     1      18.662  33.172  14.950  1.00  0.00    -0.327 N 
HETATM   11  C8  UNL     1      17.968  32.071  14.611  1.00  0.00     0.124 A 
ATOM     12  H2  UNL     1      19.580  33.321  14.531  1.00  0.00     0.169 HD
HETATM   13  N5  UNL     1      16.754  31.874  15.165  1.00  0.00    -0.344 N 
HETATM   14  C13 UNL     1      16.206  32.723  16.038  1.00  0.00     0.021 A 
ATOM     15  H5  UNL     1      16.231  31.038  14.904  1.00  0.00     0.167 HD
HETATM   16  C14 UNL     1      16.928  33.846  16.376  1.00  0.00     0.009 A 
HETATM   17  C18 UNL     1      14.876  32.536  16.667  1.00  0.00     0.058 C 
HETATM   18  C15 UNL     1      16.307  34.778  17.348  1.00  0.00     0.044 C 
HETATM   19  C16 UNL     1      14.888  35.039  16.960  1.00  0.00     0.005 C 
HETATM   20  C17 UNL     1      14.116  33.836  16.523  1.00  0.00     0.006 C 
BRANCH  11  21
HETATM   21  C9  UNL     1      18.514  31.103  13.658  1.00  0.00     0.094 A 
HETATM   22  C10 UNL     1      18.223  29.757  13.593  1.00  0.00     0.130 A 
HETATM   23  N3  UNL     1      18.931  29.195  12.571  1.00  0.00    -0.304 N 
HETATM   24  C11 UNL     1      18.844  27.786  12.240  1.00  0.00     0.177 C 
HETATM   25  N4  UNL     1      19.634  30.158  12.025  1.00  0.00    -0.264 N 
HETATM   26  C12 UNL     1      19.419  31.342  12.648  1.00  0.00     0.275 A 
ATOM     27  H4  UNL     1      20.263  30.031  11.232  1.00  0.00     0.190 HD
HETATM   28  O3  UNL     1      19.925  32.461  12.386  1.00  0.00    -0.266 OA
ENDBRANCH  11  21
ENDBRANCH   7   9
ENDBRANCH   3   7
BRANCH   4  29
HETATM   29  C20 UNL     1      19.014  37.330  17.877  1.00  0.00     0.061 C 
BRANCH  29  30
HETATM   30  C21 UNL     1      19.349  38.637  17.174  1.00  0.00     0.130 C 
BRANCH  30  31
HETATM   31  N6  UNL     1      18.120  39.352  16.863  1.00  0.00    -0.356 N 
HETATM   32  C22 UNL     1      16.861  38.642  17.016  1.00  0.00     0.152 C 
HETATM   33  C23 UNL     1      18.117  40.699  16.422  1.00  0.00     0.215 C 
HETATM   34  C24 UNL     1      19.350  41.496  16.237  1.00  0.00     0.117 C 
HETATM   35  O4  UNL     1      17.010  41.238  16.175  1.00  0.00    -0.274 OA
ENDBRANCH  30  31
ENDBRANCH  29  30
ENDBRANCH   4  29
BRANCH   1  36
HETATM   36  O2  UNL     1      23.128  33.482  17.372  1.00  0.00    -0.349 OA
BRANCH  36  37
HETATM   37  C3  UNL     1      22.863  32.440  16.453  1.00  0.00     0.201 C 
BRANCH  37  38
HETATM   38  C2  UNL     1      23.470  32.691  15.102  1.00  0.00     0.193 C 
BRANCH  38  39
HETATM   39  O1  UNL     1      22.741  32.133  14.073  1.00  0.00    -0.394 OA
HETATM   40  C1  UNL     1      22.400  30.821  14.394  1.00  0.00     0.201 C 
ENDBRANCH  38  39
ENDBRANCH  37  38
ENDBRANCH  36  37
ENDBRANCH   1  36
BRANCH   5  41
HETATM   41  C26 UNL     1      21.527  37.577  19.487  1.00  0.00     0.009 A 
HETATM   42  C27 UNL     1      20.988  37.782  20.721  1.00  0.00     0.120 A 
HETATM   43  N7  UNL     1      21.522  38.922  21.246  1.00  0.00    -0.311 N 
HETATM   44  N8  UNL     1      22.381  39.414  20.346  1.00  0.00    -0.311 N 
ATOM     45  H7  UNL     1      21.305  39.325  22.157  1.00  0.00     0.186 HD
HETATM   46  C28 UNL     1      22.404  38.613  19.262  1.00  0.00     0.120 A 
ATOM     47  H8  UNL     1      22.933  40.265  20.463  1.00  0.00     0.186 HD
ENDBRANCH   5  41
TORSDOF 11
ENDMDL
MODEL 5
REMARK VINA RESULT: -7.954960976      2.322      8.804
REMARK  11 active torsions:
REMARK  status: ('A' for Active; 'I' for Inactive)
REMARK    1  A    between atoms: O1_2  and  C2_3 
REMARK    2  A    between atoms: C2_3  and  C3_4 
REMARK    3  A    between atoms: C3_4  and  O2_5 
REMARK    4  A    between atoms: O2_5  and  C4_6 
REMARK    5  A    between atoms: C6_8  and  N1_9 
REMARK    6  A    between atoms: N1_9  and  C7_11 
REMARK    7  A    between atoms: C8_14  and  C9_15 
REMARK    8  A    between atoms: C19_31  and  C20_32 
REMARK    9  A    between atoms: C20_32  and  C21_33 
REMARK   10  A    between atoms: C21_33  and  N6_34 
REMARK       I    between atoms: N6_34  and  C23_36 
REMARK   11  A    between atoms: C25_39  and  C26_40 
ROOT
HETATM    1  C4  UNL     1      22.183  34.996  17.133  1.00  0.00     0.071 A 
HETATM    2  C5  UNL     1      20.938  34.515  17.435  1.00  0.00     0.066 A 
HETATM    3  C6  UNL     1      19.932  35.320  17.896  1.00  0.00     0.043 A 
HETATM    4  C19 UNL     1      20.179  36.693  18.069  1.00  0.00    -0.018 A 
HETATM    5  C25 UNL     1      21.403  37.225  17.784  1.00  0.00    -0.012 A 
HETATM    6  C29 UNL     1      22.390  36.338  17.312  1.00  0.00     0.049 A 
ENDROOT
BRANCH   3   7
HETATM    7  N1  UNL     1      18.682  34.762  18.180  1.00  0.00    -0.341 N 
ATOM      8  H1  UNL     1      18.303  34.986  19.101  1.00  0.00     0.167 HD
BRANCH   7   9
HETATM    9  C7  UNL     1      17.953  34.021  17.462  1.00  0.00     0.115 A 
HETATM   10  N2  UNL     1      18.365  33.047  16.630  1.00  0.00    -0.327 N 
HETATM   11  C8  UNL     1      17.509  32.305  15.907  1.00  0.00     0.124 A 
ATOM     12  H2  UNL     1      19.365  32.864  16.545  1.00  0.00     0.169 HD
HETATM   13  N5  UNL     1      16.187  32.547  16.019  1.00  0.00    -0.344 N 
HETATM   14  C13 UNL     1      15.685  33.491  16.818  1.00  0.00     0.021 A 
ATOM     15  H5  UNL     1      15.541  31.982  15.467  1.00  0.00     0.167 HD
HETATM   16  C14 UNL     1      16.573  34.244  17.553  1.00  0.00     0.009 A 
HETATM   17  C18 UNL     1      14.238  33.782  16.966  1.00  0.00     0.058 C 
HETATM   18  C15 UNL     1      16.001  35.287  18.437  1.00  0.00     0.044 C 
HETATM   19  C16 UNL     1      14.981  36.081  17.686  1.00  0.00     0.005 C 
HETATM   20  C17 UNL     1      14.056  35.278  16.829  1.00  0.00     0.006 C 
BRANCH  11  21
HETATM   21  C9  UNL     1      17.997  31.254  15.011  1.00  0.00     0.094 A 
HETATM   22  C10 UNL     1      17.554  30.990  13.732  1.00  0.00     0.130 A 
HETATM   23  N3  UNL     1      18.255  29.935  13.225  1.00  0.00    -0.304 N 
HETATM   24  C11 UNL     1      18.025  29.409  11.893  1.00  0.00     0.177 C 
HETATM   25  N4  UNL     1      19.100  29.561  14.156  1.00  0.00    -0.264 N 
HETATM   26  C12 UNL     1      18.986  30.330  15.266  1.00  0.00     0.275 A 
ATOM     27  H4  UNL     1      19.759  28.789  14.057  1.00  0.00     0.190 HD
HETATM   28  O3  UNL     1      19.636  30.250  16.336  1.00  0.00    -0.266 OA
ENDBRANCH  11  21
ENDBRANCH   7   9
ENDBRANCH   3   7
BRANCH   4  29
HETATM   29  C20 UNL     1      19.041  37.484  18.541  1.00  0.00     0.061 C 
BRANCH  29  30
HETATM   30  C21 UNL     1      18.270  38.123  17.396  1.00  0.00     0.130 C 
BRANCH  30  31
HETATM   31  N6  UNL     1      17.520  39.267  17.892  1.00  0.00    -0.356 N 
HETATM   32  C22 UNL     1      16.591  39.050  18.988  1.00  0.00     0.152 C 
HETATM   33  C23 UNL     1      17.667  40.566  17.343  1.00  0.00     0.215 C 
HETATM   34  C24 UNL     1      18.586  40.877  16.226  1.00  0.00     0.117 C 
HETATM   35  O4  UNL     1      16.978  41.496  17.832  1.00  0.00    -0.274 OA
ENDBRANCH  30  31
ENDBRANCH  29  30
ENDBRANCH   4  29
BRANCH   1  36
HETATM   36  O2  UNL     1      23.199  34.144  16.658  1.00  0.00    -0.349 OA
BRANCH  36  37
HETATM   37  C3  UNL     1      22.804  32.828  16.326  1.00  0.00     0.201 C 
BRANCH  37  38
HETATM   38  C2  UNL     1      23.222  32.430  14.939  1.00  0.00     0.193 C 
BRANCH  38  39
HETATM   39  O1  UNL     1      22.525  33.099  13.954  1.00  0.00    -0.394 OA
HETATM   40  C1  UNL     1      21.378  32.383  13.620  1.00  0.00     0.201 C 
ENDBRANCH  38  39
ENDBRANCH  37  38
ENDBRANCH  36  37
ENDBRANCH   1  36
BRANCH   5  41
HETATM   41  C26 UNL     1      21.750  38.619  17.955  1.00  0.00     0.009 A 
HETATM   42  C27 UNL     1      22.023  39.301  19.102  1.00  0.00     0.120 A 
HETATM   43  N7  UNL     1      22.295  40.599  18.783  1.00  0.00    -0.311 N 
HETATM   44  N8  UNL     1      22.192  40.716  17.454  1.00  0.00    -0.311 N 
ATOM     45  H7  UNL     1      22.534  41.344  19.438  1.00  0.00     0.186 HD
HETATM   46  C28 UNL     1      21.860  39.522  16.923  1.00  0.00     0.120 A 
ATOM     47  H8  UNL     1      22.340  41.576  16.925  1.00  0.00     0.186 HD
ENDBRANCH   5  41
TORSDOF 11
ENDMDL
