MODEL 1
REMARK VINA RESULT: -6.384126994      0.000      0.000
REMARK  7 active torsions:
REMARK  status: ('A' for Active; 'I' for Inactive)
REMARK       I    between atoms: N1_2  and  C2_4 
REMARK    1  A    between atoms: C2_4  and  C3_6 
REMARK    2  A    between atoms: N2_7  and  C4_8 
REMARK    3  A    between atoms: C4_8  and  N3_10 
REMARK    4  A    between atoms: N3_10  and  C5_12 
REMARK    5  A    between atoms: C5_12  and  C6_13 
REMARK    6  A    between atoms: C5_12  and  C8_17 
REMARK    7  A    between atoms: C6_13  and  C7_14 
ROOT
HETATM    1  C4  UNL     1     104.399  18.168  17.048  1.00  0.00     0.187 C 
HETATM    2  S1  UNL     1     106.031  18.462  17.224  1.00  0.00    -0.040 SA
ENDROOT
BRANCH   1   3
HETATM    3  N2  UNL     1     103.724  18.682  15.915  1.00  0.00    -0.254 N 
HETATM    4  C3  UNL     1     103.415  18.109  14.606  1.00  0.00     0.224 C 
HETATM    5  C9  UNL     1     102.588  19.297  14.276  1.00  0.00     0.074 C 
HETATM    6  N4  UNL     1     103.112  19.853  15.509  1.00  0.00    -0.123 NA
HETATM    7  C10 UNL     1     101.093  19.101  14.262  1.00  0.00     0.038 C 
HETATM    8  C11 UNL     1     103.015  20.109  13.080  1.00  0.00     0.038 C 
BRANCH   4   9
HETATM    9  C2  UNL     1     104.620  17.854  13.777  1.00  0.00     0.243 C 
HETATM   10  N1  UNL     1     105.683  18.784  13.718  1.00  0.00    -0.364 N 
HETATM   11  C1  UNL     1     106.826  18.467  12.886  1.00  0.00     0.149 C 
ATOM     12  H1  UNL     1     105.647  19.655  14.248  1.00  0.00     0.161 HD
HETATM   13  O1  UNL     1     104.711  16.790  13.107  1.00  0.00    -0.271 OA
ENDBRANCH   4   9
ENDBRANCH   1   3
BRANCH   1  14
HETATM   14  N3  UNL     1     103.818  17.410  18.076  1.00  0.00    -0.351 N 
ATOM     15  H3  UNL     1     103.512  17.893  18.920  1.00  0.00     0.163 HD
BRANCH  14  16
HETATM   16  C5  UNL     1     103.625  15.935  17.997  1.00  0.00     0.195 C 
BRANCH  16  17
HETATM   17  C6  UNL     1     102.169  15.636  18.033  1.00  0.00     0.149 C 
BRANCH  17  18
HETATM   18  C7  UNL     1     101.413  15.919  16.815  1.00  0.00     0.175 C 
HETATM   19  O2  UNL     1     100.415  16.656  16.678  1.00  0.00    -0.648 OA
HETATM   20  O3  UNL     1     101.817  15.305  15.585  1.00  0.00    -0.648 OA
ENDBRANCH  17  18
ENDBRANCH  16  17
BRANCH  16  21
HETATM   21  C8  UNL     1     104.281  15.338  19.190  1.00  0.00     0.197 C 
HETATM   22  O4  UNL     1     103.939  14.137  19.499  1.00  0.00    -0.646 OA
HETATM   23  O5  UNL     1     105.190  15.964  19.954  1.00  0.00    -0.646 OA
ENDBRANCH  16  21
ENDBRANCH  14  16
ENDBRANCH   1  14
TORSDOF 7
ENDMDL
MODEL 2
REMARK VINA RESULT: -6.185414069      2.000      3.209
REMARK  7 active torsions:
REMARK  status: ('A' for Active; 'I' for Inactive)
REMARK       I    between atoms: N1_2  and  C2_4 
REMARK    1  A    between atoms: C2_4  and  C3_6 
REMARK    2  A    between atoms: N2_7  and  C4_8 
REMARK    3  A    between atoms: C4_8  and  N3_10 
REMARK    4  A    between atoms: N3_10  and  C5_12 
REMARK    5  A    between atoms: C5_12  and  C6_13 
REMARK    6  A    between atoms: C5_12  and  C8_17 
REMARK    7  A    between atoms: C6_13  and  C7_14 
ROOT
HETATM    1  C4  UNL     1     104.521  17.985  16.673  1.00  0.00     0.187 C 
HETATM    2  S1  UNL     1     105.548  17.965  17.986  1.00  0.00    -0.040 SA
ENDROOT
BRANCH   1   3
HETATM    3  N2  UNL     1     104.994  18.484  15.435  1.00  0.00    -0.254 N 
HETATM    4  C3  UNL     1     105.412  19.816  15.003  1.00  0.00     0.224 C 
HETATM    5  C9  UNL     1     105.868  19.257  13.705  1.00  0.00     0.074 C 
HETATM    6  N4  UNL     1     105.246  18.026  14.155  1.00  0.00    -0.123 NA
HETATM    7  C10 UNL     1     107.358  19.165  13.492  1.00  0.00     0.038 C 
HETATM    8  C11 UNL     1     105.198  19.791  12.465  1.00  0.00     0.038 C 
BRANCH   4   9
HETATM    9  C2  UNL     1     104.302  20.801  14.980  1.00  0.00     0.243 C 
HETATM   10  N1  UNL     1     102.950  20.386  14.953  1.00  0.00    -0.364 N 
HETATM   11  C1  UNL     1     101.920  21.405  14.929  1.00  0.00     0.149 C 
ATOM     12  H1  UNL     1     102.706  19.396  14.951  1.00  0.00     0.161 HD
HETATM   13  O1  UNL     1     104.553  22.036  14.984  1.00  0.00    -0.271 OA
ENDBRANCH   4   9
ENDBRANCH   1   3
BRANCH   1  14
HETATM   14  N3  UNL     1     103.232  17.486  16.919  1.00  0.00    -0.351 N 
ATOM     15  H3  UNL     1     102.486  18.152  17.121  1.00  0.00     0.163 HD
BRANCH  14  16
HETATM   16  C5  UNL     1     102.899  16.035  16.901  1.00  0.00     0.195 C 
BRANCH  16  17
HETATM   17  C6  UNL     1     101.813  15.802  15.912  1.00  0.00     0.149 C 
BRANCH  17  18
HETATM   18  C7  UNL     1     101.114  16.985  15.418  1.00  0.00     0.175 C 
HETATM   19  O2  UNL     1     101.535  17.864  14.638  1.00  0.00    -0.648 OA
HETATM   20  O3  UNL     1      99.767  17.229  15.845  1.00  0.00    -0.648 OA
ENDBRANCH  17  18
ENDBRANCH  16  17
BRANCH  16  21
HETATM   21  C8  UNL     1     102.414  15.675  18.259  1.00  0.00     0.197 C 
HETATM   22  O4  UNL     1     101.509  16.431  18.771  1.00  0.00    -0.646 OA
HETATM   23  O5  UNL     1     102.857  14.627  18.974  1.00  0.00    -0.646 OA
ENDBRANCH  16  21
ENDBRANCH  14  16
ENDBRANCH   1  14
TORSDOF 7
ENDMDL
MODEL 3
REMARK VINA RESULT: -6.152664383      2.452      5.117
REMARK  7 active torsions:
REMARK  status: ('A' for Active; 'I' for Inactive)
REMARK       I    between atoms: N1_2  and  C2_4 
REMARK    1  A    between atoms: C2_4  and  C3_6 
REMARK    2  A    between atoms: N2_7  and  C4_8 
REMARK    3  A    between atoms: C4_8  and  N3_10 
REMARK    4  A    between atoms: N3_10  and  C5_12 
REMARK    5  A    between atoms: C5_12  and  C6_13 
REMARK    6  A    between atoms: C5_12  and  C8_17 
REMARK    7  A    between atoms: C6_13  and  C7_14 
ROOT
HETATM    1  C4  UNL     1     102.683  19.585  14.931  1.00  0.00     0.187 C 
HETATM    2  S1  UNL     1     102.043  21.097  15.227  1.00  0.00    -0.040 SA
ENDROOT
BRANCH   1   3
HETATM    3  N2  UNL     1     104.033  19.330  15.269  1.00  0.00    -0.254 N 
HETATM    4  C3  UNL     1     104.748  18.107  15.624  1.00  0.00     0.224 C 
HETATM    5  C9  UNL     1     106.036  18.844  15.596  1.00  0.00     0.074 C 
HETATM    6  N4  UNL     1     105.215  20.029  15.438  1.00  0.00    -0.123 NA
HETATM    7  C10 UNL     1     106.956  18.560  14.436  1.00  0.00     0.038 C 
HETATM    8  C11 UNL     1     106.821  18.886  16.882  1.00  0.00     0.038 C 
BRANCH   4   9
HETATM    9  C2  UNL     1     104.312  17.527  16.919  1.00  0.00     0.243 C 
HETATM   10  N1  UNL     1     104.585  16.179  17.251  1.00  0.00    -0.364 N 
HETATM   11  C1  UNL     1     104.126  15.683  18.533  1.00  0.00     0.149 C 
ATOM     12  H1  UNL     1     105.092  15.574  16.607  1.00  0.00     0.161 HD
HETATM   13  O1  UNL     1     103.684  18.237  17.750  1.00  0.00    -0.271 OA
ENDBRANCH   4   9
ENDBRANCH   1   3
BRANCH   1  14
HETATM   14  N3  UNL     1     101.793  18.667  14.353  1.00  0.00    -0.351 N 
ATOM     15  H3  UNL     1     102.149  18.032  13.638  1.00  0.00     0.163 HD
BRANCH  14  16
HETATM   16  C5  UNL     1     100.355  18.571  14.730  1.00  0.00     0.195 C 
BRANCH  16  17
HETATM   17  C6  UNL     1     100.036  17.158  15.061  1.00  0.00     0.149 C 
BRANCH  17  18
HETATM   18  C7  UNL     1     101.056  16.412  15.794  1.00  0.00     0.175 C 
HETATM   19  O2  UNL     1     102.040  15.794  15.339  1.00  0.00    -0.648 OA
HETATM   20  O3  UNL     1     100.976  16.339  17.224  1.00  0.00    -0.648 OA
ENDBRANCH  17  18
ENDBRANCH  16  17
BRANCH  16  21
HETATM   21  C8  UNL     1      99.558  18.993  13.549  1.00  0.00     0.197 C 
HETATM   22  O4  UNL     1      98.619  18.200  13.170  1.00  0.00    -0.646 OA
HETATM   23  O5  UNL     1      99.756  20.130  12.861  1.00  0.00    -0.646 OA
ENDBRANCH  16  21
ENDBRANCH  14  16
ENDBRANCH   1  14
TORSDOF 7
ENDMDL
MODEL 4
REMARK VINA RESULT: -6.110816621      3.129      4.664
REMARK  7 active torsions:
REMARK  status: ('A' for Active; 'I' for Inactive)
REMARK       I    between atoms: N1_2  and  C2_4 
REMARK    1  A    between atoms: C2_4  and  C3_6 
REMARK    2  A    between atoms: N2_7  and  C4_8 
REMARK    3  A    between atoms: C4_8  and  N3_10 
REMARK    4  A    between atoms: N3_10  and  C5_12 
REMARK    5  A    between atoms: C5_12  and  C6_13 
REMARK    6  A    between atoms: C5_12  and  C8_17 
REMARK    7  A    between atoms: C6_13  and  C7_14 
ROOT
HETATM    1  C4  UNL     1     105.005  17.105  18.441  1.00  0.00     0.187 C 
HETATM    2  S1  UNL     1     104.901  15.646  19.244  1.00  0.00    -0.040 SA
ENDROOT
BRANCH   1   3
HETATM    3  N2  UNL     1     104.256  17.294  17.256  1.00  0.00    -0.254 N 
HETATM    4  C3  UNL     1     104.620  17.258  15.841  1.00  0.00     0.224 C 
HETATM    5  C9  UNL     1     103.189  17.378  15.464  1.00  0.00     0.074 C 
HETATM    6  N4  UNL     1     102.960  17.598  16.880  1.00  0.00    -0.123 NA
HETATM    7  C10 UNL     1     102.528  16.143  14.906  1.00  0.00     0.038 C 
HETATM    8  C11 UNL     1     102.802  18.587  14.650  1.00  0.00     0.038 C 
BRANCH   4   9
HETATM    9  C2  UNL     1     105.534  18.358  15.442  1.00  0.00     0.243 C 
HETATM   10  N1  UNL     1     106.503  18.177  14.428  1.00  0.00    -0.364 N 
HETATM   11  C1  UNL     1     107.362  19.295  14.094  1.00  0.00     0.149 C 
ATOM     12  H1  UNL     1     106.595  17.284  13.944  1.00  0.00     0.161 HD
HETATM   13  O1  UNL     1     105.457  19.481  16.009  1.00  0.00    -0.271 OA
ENDBRANCH   4   9
ENDBRANCH   1   3
BRANCH   1  14
HETATM   14  N3  UNL     1     105.857  18.049  19.035  1.00  0.00    -0.351 N 
ATOM     15  H3  UNL     1     105.448  18.910  19.397  1.00  0.00     0.163 HD
BRANCH  14  16
HETATM   16  C5  UNL     1     107.329  17.858  19.162  1.00  0.00     0.195 C 
BRANCH  16  17
HETATM   17  C6  UNL     1     107.775  18.406  20.470  1.00  0.00     0.149 C 
BRANCH  17  18
HETATM   18  C7  UNL     1     107.224  17.774  21.666  1.00  0.00     0.175 C 
HETATM   19  O2  UNL     1     106.059  17.371  21.861  1.00  0.00    -0.648 OA
HETATM   20  O3  UNL     1     108.076  17.560  22.798  1.00  0.00    -0.648 OA
ENDBRANCH  17  18
ENDBRANCH  16  17
BRANCH  16  21
HETATM   21  C8  UNL     1     107.972  18.622  18.062  1.00  0.00     0.197 C 
HETATM   22  O4  UNL     1     108.410  17.942  17.062  1.00  0.00    -0.646 OA
HETATM   23  O5  UNL     1     108.125  19.956  18.047  1.00  0.00    -0.646 OA
ENDBRANCH  16  21
ENDBRANCH  14  16
ENDBRANCH   1  14
TORSDOF 7
ENDMDL
MODEL 5
REMARK VINA RESULT: -6.090301381      2.070      3.078
REMARK  7 active torsions:
REMARK  status: ('A' for Active; 'I' for Inactive)
REMARK       I    between atoms: N1_2  and  C2_4 
REMARK    1  A    between atoms: C2_4  and  C3_6 
REMARK    2  A    between atoms: N2_7  and  C4_8 
REMARK    3  A    between atoms: C4_8  and  N3_10 
REMARK    4  A    between atoms: N3_10  and  C5_12 
REMARK    5  A    between atoms: C5_12  and  C6_13 
REMARK    6  A    between atoms: C5_12  and  C8_17 
REMARK    7  A    between atoms: C6_13  and  C7_14 
ROOT
HETATM    1  C4  UNL     1     103.213  16.894  15.952  1.00  0.00     0.187 C 
HETATM    2  S1  UNL     1     102.089  15.827  15.336  1.00  0.00    -0.040 SA
ENDROOT
BRANCH   1   3
HETATM    3  N2  UNL     1     103.207  18.237  15.503  1.00  0.00    -0.254 N 
HETATM    4  C3  UNL     1     103.628  18.861  14.251  1.00  0.00     0.224 C 
HETATM    5  C9  UNL     1     103.063  20.158  14.701  1.00  0.00     0.074 C 
HETATM    6  N4  UNL     1     102.866  19.491  15.974  1.00  0.00    -0.123 NA
HETATM    7  C10 UNL     1     101.793  20.615  14.030  1.00  0.00     0.038 C 
HETATM    8  C11 UNL     1     104.028  21.309  14.826  1.00  0.00     0.038 C 
BRANCH   4   9
HETATM    9  C2  UNL     1     105.093  18.787  14.020  1.00  0.00     0.243 C 
HETATM   10  N1  UNL     1     106.011  18.876  15.092  1.00  0.00    -0.364 N 
HETATM   11  C1  UNL     1     107.426  18.798  14.790  1.00  0.00     0.149 C 
ATOM     12  H1  UNL     1     105.687  18.992  16.052  1.00  0.00     0.161 HD
HETATM   13  O1  UNL     1     105.541  18.641  12.852  1.00  0.00    -0.271 OA
ENDBRANCH   4   9
ENDBRANCH   1   3
BRANCH   1  14
HETATM   14  N3  UNL     1     104.097  16.347  16.895  1.00  0.00    -0.351 N 
ATOM     15  H3  UNL     1     104.911  15.835  16.556  1.00  0.00     0.163 HD
BRANCH  14  16
HETATM   16  C5  UNL     1     103.906  16.476  18.367  1.00  0.00     0.195 C 
BRANCH  16  17
HETATM   17  C6  UNL     1     105.236  16.448  19.030  1.00  0.00     0.149 C 
BRANCH  17  18
HETATM   18  C7  UNL     1     106.113  17.591  18.785  1.00  0.00     0.175 C 
HETATM   19  O2  UNL     1     105.958  18.525  17.972  1.00  0.00    -0.648 OA
HETATM   20  O3  UNL     1     107.324  17.716  19.542  1.00  0.00    -0.648 OA
ENDBRANCH  17  18
ENDBRANCH  16  17
BRANCH  16  21
HETATM   21  C8  UNL     1     103.107  15.306  18.815  1.00  0.00     0.197 C 
HETATM   22  O4  UNL     1     103.761  14.301  19.281  1.00  0.00    -0.646 OA
HETATM   23  O5  UNL     1     101.767  15.231  18.761  1.00  0.00    -0.646 OA
ENDBRANCH  16  21
ENDBRANCH  14  16
ENDBRANCH   1  14
TORSDOF 7
ENDMDL
