MODEL 1
REMARK VINA RESULT: -6.848713788      0.000      0.000
REMARK  4 active torsions:
REMARK  status: ('A' for Active; 'I' for Inactive)
REMARK    1  A    between atoms: C2_2  and  C4_4 
REMARK    2  A    between atoms: C8_9  and  O1_10 
REMARK    3  A    between atoms: C9_12  and  O2_13 
REMARK    4  A    between atoms: N2_17  and  O3_18 
ROOT
HETATM    1  C4  UNL     1     -16.539  17.000 -18.413  1.00  0.00     0.120 C 
HETATM    2  C5  UNL     1     -17.669  17.845 -18.943  1.00  0.00     0.297 C 
HETATM    3  N1  UNL     1     -17.187  18.261 -20.225  1.00  0.00     0.117 N 
HETATM    4  C6  UNL     1     -18.194  18.433 -21.227  1.00  0.00     0.252 C 
HETATM    5  C7  UNL     1     -19.580  18.082 -20.762  1.00  0.00     0.045 C 
HETATM    6  C8  UNL     1     -17.920  17.656 -22.496  1.00  0.00     0.180 C 
HETATM    7  C9  UNL     1     -16.510  17.790 -22.974  1.00  0.00     0.152 C 
HETATM    8  C10 UNL     1     -15.526  17.673 -21.813  1.00  0.00     0.088 C 
HETATM    9  C11 UNL     1     -16.313  17.184 -20.640  1.00  0.00     0.325 C 
HETATM   10  N2  UNL     1     -15.537  16.952 -19.460  1.00  0.00    -0.160 NA
ENDROOT
BRANCH   1  11
HETATM   11  C2  UNL     1     -15.959  17.559 -17.134  1.00  0.00    -0.001 C 
HETATM   12  C1  UNL     1     -14.631  18.238 -17.386  1.00  0.00     0.011 C 
HETATM   13  C3  UNL     1     -16.897  18.629 -16.584  1.00  0.00     0.011 C 
ENDBRANCH   1  11
BRANCH  10  14
HETATM   14  O3  UNL     1     -14.986  15.723 -19.543  1.00  0.00    -0.311 OA
ATOM     15  H3  UNL     1     -14.309  15.699 -20.210  1.00  0.00     0.237 HD
ENDBRANCH  10  14
BRANCH   6  16
HETATM   16  O1  UNL     1     -18.784  18.197 -23.475  1.00  0.00    -0.391 OA
ATOM     17  H1  UNL     1     -18.281  18.862 -23.928  1.00  0.00     0.210 HD
ENDBRANCH   6  16
BRANCH   7  18
HETATM   18  O2  UNL     1     -16.282  18.952 -23.698  1.00  0.00    -0.393 OA
ATOM     19  H2  UNL     1     -15.379  19.244 -23.668  1.00  0.00     0.210 HD
ENDBRANCH   7  18
TORSDOF 4
ENDMDL
MODEL 2
REMARK VINA RESULT: -6.304745033      2.419      5.592
REMARK  4 active torsions:
REMARK  status: ('A' for Active; 'I' for Inactive)
REMARK    1  A    between atoms: C2_2  and  C4_4 
REMARK    2  A    between atoms: C8_9  and  O1_10 
REMARK    3  A    between atoms: C9_12  and  O2_13 
REMARK    4  A    between atoms: N2_17  and  O3_18 
ROOT
HETATM    1  C4  UNL     1     -17.117  17.323 -19.963  1.00  0.00     0.120 C 
HETATM    2  C5  UNL     1     -15.721  16.808 -19.724  1.00  0.00     0.297 C 
HETATM    3  N1  UNL     1     -15.347  17.445 -18.497  1.00  0.00     0.117 N 
HETATM    4  C6  UNL     1     -14.472  16.685 -17.659  1.00  0.00     0.252 C 
HETATM    5  C7  UNL     1     -14.151  15.317 -18.197  1.00  0.00     0.045 C 
HETATM    6  C8  UNL     1     -14.986  16.517 -16.246  1.00  0.00     0.180 C 
HETATM    7  C9  UNL     1     -15.496  17.791 -15.652  1.00  0.00     0.152 C 
HETATM    8  C10 UNL     1     -16.348  18.560 -16.658  1.00  0.00     0.088 C 
HETATM    9  C11 UNL     1     -16.602  17.626 -17.797  1.00  0.00     0.325 C 
HETATM   10  N2  UNL     1     -17.447  18.157 -18.823  1.00  0.00    -0.160 NA
ENDROOT
BRANCH   1  11
HETATM   11  C2  UNL     1     -17.226  18.103 -21.253  1.00  0.00    -0.001 C 
HETATM   12  C1  UNL     1     -16.107  17.743 -22.205  1.00  0.00     0.011 C 
HETATM   13  C3  UNL     1     -18.529  17.733 -21.954  1.00  0.00     0.011 C 
ENDBRANCH   1  11
BRANCH  10  14
HETATM   14  O3  UNL     1     -18.733  17.982 -18.454  1.00  0.00    -0.311 OA
ATOM     15  H3  UNL     1     -18.805  17.318 -17.778  1.00  0.00     0.237 HD
ENDBRANCH  10  14
BRANCH   6  16
HETATM   16  O1  UNL     1     -13.882  16.072 -15.483  1.00  0.00    -0.391 OA
ATOM     17  H1  UNL     1     -14.247  15.700 -14.689  1.00  0.00     0.210 HD
ENDBRANCH   6  16
BRANCH   7  18
HETATM   18  O2  UNL     1     -14.492  18.599 -15.137  1.00  0.00    -0.393 OA
ATOM     19  H2  UNL     1     -14.308  18.433 -14.220  1.00  0.00     0.210 HD
ENDBRANCH   7  18
TORSDOF 4
ENDMDL
MODEL 3
REMARK VINA RESULT: -6.258127176      3.908      6.104
REMARK  4 active torsions:
REMARK  status: ('A' for Active; 'I' for Inactive)
REMARK    1  A    between atoms: C2_2  and  C4_4 
REMARK    2  A    between atoms: C8_9  and  O1_10 
REMARK    3  A    between atoms: C9_12  and  O2_13 
REMARK    4  A    between atoms: N2_17  and  O3_18 
ROOT
HETATM    1  C4  UNL     1     -15.996  17.705 -17.326  1.00  0.00     0.120 C 
HETATM    2  C5  UNL     1     -15.025  16.825 -18.070  1.00  0.00     0.297 C 
HETATM    3  N1  UNL     1     -13.766  17.466 -17.840  1.00  0.00     0.117 N 
HETATM    4  C6  UNL     1     -12.639  16.588 -17.768  1.00  0.00     0.252 C 
HETATM    5  C7  UNL     1     -12.996  15.131 -17.886  1.00  0.00     0.045 C 
HETATM    6  C8  UNL     1     -11.819  16.763 -16.509  1.00  0.00     0.180 C 
HETATM    7  C9  UNL     1     -11.536  18.195 -16.187  1.00  0.00     0.152 C 
HETATM    8  C10 UNL     1     -12.783  19.054 -16.377  1.00  0.00     0.088 C 
HETATM    9  C11 UNL     1     -13.926  18.106 -16.551  1.00  0.00     0.325 C 
HETATM   10  N2  UNL     1     -15.204  18.736 -16.682  1.00  0.00    -0.160 NA
ENDROOT
BRANCH   1  11
HETATM   11  C2  UNL     1     -17.034  18.313 -18.242  1.00  0.00    -0.001 C 
HETATM   12  C1  UNL     1     -17.218  17.478 -19.490  1.00  0.00     0.011 C 
HETATM   13  C3  UNL     1     -18.382  18.332 -17.529  1.00  0.00     0.011 C 
ENDBRANCH   1  11
BRANCH  10  14
HETATM   14  O3  UNL     1     -15.678  19.008 -15.448  1.00  0.00    -0.311 OA
ATOM     15  H3  UNL     1     -15.322  19.826 -15.121  1.00  0.00     0.237 HD
ENDBRANCH  10  14
BRANCH   6  16
HETATM   16  O1  UNL     1     -10.593  16.102 -16.752  1.00  0.00    -0.391 OA
ATOM     17  H1  UNL     1     -10.061  16.713 -17.247  1.00  0.00     0.210 HD
ENDBRANCH   6  16
BRANCH   7  18
HETATM   18  O2  UNL     1     -10.465  18.718 -16.898  1.00  0.00    -0.393 OA
ATOM     19  H2  UNL     1     -10.135  19.532 -16.537  1.00  0.00     0.210 HD
ENDBRANCH   7  18
TORSDOF 4
ENDMDL
MODEL 4
REMARK VINA RESULT: -6.148782305      2.512      5.742
REMARK  4 active torsions:
REMARK  status: ('A' for Active; 'I' for Inactive)
REMARK    1  A    between atoms: C2_2  and  C4_4 
REMARK    2  A    between atoms: C8_9  and  O1_10 
REMARK    3  A    between atoms: C9_12  and  O2_13 
REMARK    4  A    between atoms: N2_17  and  O3_18 
ROOT
HETATM    1  C4  UNL     1     -16.414  17.910 -18.517  1.00  0.00     0.120 C 
HETATM    2  C5  UNL     1     -15.894  18.355 -17.174  1.00  0.00     0.297 C 
HETATM    3  N1  UNL     1     -15.041  17.274 -16.783  1.00  0.00     0.117 N 
HETATM    4  C6  UNL     1     -13.907  17.648 -15.995  1.00  0.00     0.252 C 
HETATM    5  C7  UNL     1     -13.784  19.130 -15.772  1.00  0.00     0.045 C 
HETATM    6  C8  UNL     1     -12.593  17.154 -16.558  1.00  0.00     0.180 C 
HETATM    7  C9  UNL     1     -12.637  15.720 -16.978  1.00  0.00     0.152 C 
HETATM    8  C10 UNL     1     -13.924  15.412 -17.738  1.00  0.00     0.088 C 
HETATM    9  C11 UNL     1     -14.563  16.731 -18.037  1.00  0.00     0.325 C 
HETATM   10  N2  UNL     1     -15.765  16.646 -18.809  1.00  0.00    -0.160 NA
ENDROOT
BRANCH   1  11
HETATM   11  C2  UNL     1     -17.918  17.762 -18.527  1.00  0.00    -0.001 C 
HETATM   12  C1  UNL     1     -18.553  18.549 -17.402  1.00  0.00     0.011 C 
HETATM   13  C3  UNL     1     -18.469  18.340 -19.827  1.00  0.00     0.011 C 
ENDBRANCH   1  11
BRANCH  10  14
HETATM   14  O3  UNL     1     -15.434  16.563 -20.114  1.00  0.00    -0.311 OA
ATOM     15  H3  UNL     1     -15.957  17.161 -20.635  1.00  0.00     0.237 HD
ENDBRANCH  10  14
BRANCH   6  16
HETATM   16  O1  UNL     1     -11.649  17.292 -15.515  1.00  0.00    -0.391 OA
ATOM     17  H1  UNL     1     -10.825  16.975 -15.865  1.00  0.00     0.210 HD
ENDBRANCH   6  16
BRANCH   7  18
HETATM   18  O2  UNL     1     -12.461  14.832 -15.926  1.00  0.00    -0.393 OA
ATOM     19  H2  UNL     1     -12.443  15.255 -15.076  1.00  0.00     0.210 HD
ENDBRANCH   7  18
TORSDOF 4
ENDMDL
MODEL 5
REMARK VINA RESULT: -6.104238774      4.027      7.201
REMARK  4 active torsions:
REMARK  status: ('A' for Active; 'I' for Inactive)
REMARK    1  A    between atoms: C2_2  and  C4_4 
REMARK    2  A    between atoms: C8_9  and  O1_10 
REMARK    3  A    between atoms: C9_12  and  O2_13 
REMARK    4  A    between atoms: N2_17  and  O3_18 
ROOT
HETATM    1  C4  UNL     1     -14.176  18.049 -17.900  1.00  0.00     0.120 C 
HETATM    2  C5  UNL     1     -14.471  18.213 -16.431  1.00  0.00     0.297 C 
HETATM    3  N1  UNL     1     -13.254  17.788 -15.808  1.00  0.00     0.117 N 
HETATM    4  C6  UNL     1     -12.934  18.454 -14.582  1.00  0.00     0.252 C 
HETATM    5  C7  UNL     1     -13.912  19.531 -14.202  1.00  0.00     0.045 C 
HETATM    6  C8  UNL     1     -11.549  19.062 -14.571  1.00  0.00     0.180 C 
HETATM    7  C9  UNL     1     -10.497  18.135 -15.091  1.00  0.00     0.152 C 
HETATM    8  C10 UNL     1     -10.975  17.418 -16.351  1.00  0.00     0.088 C 
HETATM    9  C11 UNL     1     -12.230  18.109 -16.779  1.00  0.00     0.325 C 
HETATM   10  N2  UNL     1     -12.797  17.608 -17.994  1.00  0.00    -0.160 NA
ENDROOT
BRANCH   1  11
HETATM   11  C2  UNL     1     -15.107  17.061 -18.563  1.00  0.00    -0.001 C 
HETATM   12  C1  UNL     1     -14.977  15.686 -17.945  1.00  0.00     0.011 C 
HETATM   13  C3  UNL     1     -16.550  17.504 -18.340  1.00  0.00     0.011 C 
ENDBRANCH   1  11
BRANCH  10  14
HETATM   14  O3  UNL     1     -12.173  18.197 -19.035  1.00  0.00    -0.311 OA
ATOM     15  H3  UNL     1     -11.717  17.554 -19.566  1.00  0.00     0.237 HD
ENDBRANCH  10  14
BRANCH   6  16
HETATM   16  O1  UNL     1     -11.266  19.355 -13.217  1.00  0.00    -0.391 OA
ATOM     17  H1  UNL     1     -12.057  19.745 -12.865  1.00  0.00     0.210 HD
ENDBRANCH   6  16
BRANCH   7  18
HETATM   18  O2  UNL     1     -10.049  17.224 -14.145  1.00  0.00    -0.393 OA
ATOM     19  H2  UNL     1     -10.751  16.737 -13.730  1.00  0.00     0.210 HD
ENDBRANCH   7  18
TORSDOF 4
ENDMDL
