MODEL 1
REMARK VINA RESULT: -6.359598217      0.000      0.000
REMARK  4 active torsions:
REMARK  status: ('A' for Active; 'I' for Inactive)
REMARK    1  A    between atoms: O1_1  and  C1_3 
REMARK    2  A    between atoms: C1_3  and  C2_4 
REMARK    3  A    between atoms: C2_4  and  O2_5 
REMARK    4  A    between atoms: C5_12  and  O3_13 
ROOT
HETATM    1  C2  UNL     1     -15.338  17.211 -18.177  1.00  0.00     0.132 C 
HETATM    2  C3  UNL     1     -14.611  17.900 -17.040  1.00  0.00     0.084 C 
HETATM    3  C4  UNL     1     -13.637  16.842 -16.582  1.00  0.00     0.139 C 
HETATM    4  N1  UNL     1     -13.883  15.656 -17.326  1.00  0.00    -0.036 N 
ATOM      5  H11 UNL     1     -13.617  14.790 -16.855  1.00  0.00     0.281 HD
ATOM      6  H12 UNL     1     -13.273  15.520 -18.132  1.00  0.00     0.281 HD
HETATM    7  C5  UNL     1     -15.315  15.771 -17.646  1.00  0.00     0.356 C 
HETATM    8  C6  UNL     1     -13.744  16.696 -15.099  1.00  0.00     0.023 C 
HETATM    9  C7  UNL     1     -12.630  15.789 -14.635  1.00  0.00     0.012 C 
HETATM   10  C8  UNL     1     -11.391  16.575 -15.069  1.00  0.00    -0.009 C 
HETATM   11  C9  UNL     1     -11.138  16.384 -16.570  1.00  0.00     0.012 C 
HETATM   12  C10 UNL     1     -12.242  17.409 -16.779  1.00  0.00     0.027 C 
HETATM   13  C11 UNL     1     -11.873  17.956 -15.412  1.00  0.00    -0.004 C 
HETATM   14  C12 UNL     1     -13.185  18.062 -14.665  1.00  0.00     0.012 C 
ENDROOT
BRANCH   1  15
HETATM   15  C1  UNL     1     -16.763  17.701 -18.299  1.00  0.00     0.206 C 
BRANCH  15  16
HETATM   16  O1  UNL     1     -17.252  17.485 -19.564  1.00  0.00    -0.398 OA
ATOM     17  H1  UNL     1     -18.191  17.345 -19.547  1.00  0.00     0.209 HD
ENDBRANCH  15  16
ENDBRANCH   1  15
BRANCH   1  18
HETATM   18  O2  UNL     1     -14.640  17.270 -19.369  1.00  0.00    -0.383 OA
ATOM     19  H2  UNL     1     -13.763  17.619 -19.271  1.00  0.00     0.210 HD
ENDBRANCH   1  18
BRANCH   7  20
HETATM   20  O3  UNL     1     -15.725  14.861 -18.576  1.00  0.00    -0.367 OA
ATOM     21  H3  UNL     1     -15.275  14.956 -19.407  1.00  0.00     0.212 HD
ENDBRANCH   7  20
TORSDOF 4
ENDMDL
MODEL 2
REMARK VINA RESULT: -6.203745549      1.685      2.213
REMARK  4 active torsions:
REMARK  status: ('A' for Active; 'I' for Inactive)
REMARK    1  A    between atoms: O1_1  and  C1_3 
REMARK    2  A    between atoms: C1_3  and  C2_4 
REMARK    3  A    between atoms: C2_4  and  O2_5 
REMARK    4  A    between atoms: C5_12  and  O3_13 
ROOT
HETATM    1  C2  UNL     1     -15.148  17.228 -18.407  1.00  0.00     0.132 C 
HETATM    2  C3  UNL     1     -15.431  18.328 -17.405  1.00  0.00     0.084 C 
HETATM    3  C4  UNL     1     -14.855  17.766 -16.128  1.00  0.00     0.139 C 
HETATM    4  N1  UNL     1     -14.398  16.445 -16.386  1.00  0.00    -0.036 N 
ATOM      5  H11 UNL     1     -14.388  15.828 -15.573  1.00  0.00     0.281 HD
ATOM      6  H12 UNL     1     -13.401  16.367 -16.582  1.00  0.00     0.281 HD
HETATM    7  C5  UNL     1     -15.281  16.011 -17.481  1.00  0.00     0.356 C 
HETATM    8  C6  UNL     1     -15.876  17.886 -15.044  1.00  0.00     0.023 C 
HETATM    9  C7  UNL     1     -15.219  17.512 -13.736  1.00  0.00     0.012 C 
HETATM   10  C8  UNL     1     -14.115  18.566 -13.635  1.00  0.00    -0.009 C 
HETATM   11  C9  UNL     1     -12.927  18.180 -14.527  1.00  0.00     0.012 C 
HETATM   12  C10 UNL     1     -13.758  18.716 -15.682  1.00  0.00     0.027 C 
HETATM   13  C11 UNL     1     -14.439  19.611 -14.663  1.00  0.00    -0.004 C 
HETATM   14  C12 UNL     1     -15.921  19.417 -14.900  1.00  0.00     0.012 C 
ENDROOT
BRANCH   1  15
HETATM   15  C1  UNL     1     -16.204  17.180 -19.489  1.00  0.00     0.206 C 
BRANCH  15  16
HETATM   16  O1  UNL     1     -15.630  17.139 -20.736  1.00  0.00    -0.398 OA
ATOM     17  H1  UNL     1     -15.818  16.315 -21.170  1.00  0.00     0.209 HD
ENDBRANCH  15  16
ENDBRANCH   1  15
BRANCH   1  18
HETATM   18  O2  UNL     1     -13.860  17.282 -18.909  1.00  0.00    -0.383 OA
ATOM     19  H2  UNL     1     -13.198  17.326 -18.230  1.00  0.00     0.210 HD
ENDBRANCH   1  18
BRANCH   7  20
HETATM   20  O3  UNL     1     -14.864  14.853 -18.070  1.00  0.00    -0.367 OA
ATOM     21  H3  UNL     1     -14.515  14.228 -17.444  1.00  0.00     0.212 HD
ENDBRANCH   7  20
TORSDOF 4
ENDMDL
MODEL 3
REMARK VINA RESULT: -6.135838667      2.147      3.757
REMARK  4 active torsions:
REMARK  status: ('A' for Active; 'I' for Inactive)
REMARK    1  A    between atoms: O1_1  and  C1_3 
REMARK    2  A    between atoms: C1_3  and  C2_4 
REMARK    3  A    between atoms: C2_4  and  O2_5 
REMARK    4  A    between atoms: C5_12  and  O3_13 
ROOT
HETATM    1  C2  UNL     1     -12.847  16.031 -16.509  1.00  0.00     0.132 C 
HETATM    2  C3  UNL     1     -12.938  17.350 -15.769  1.00  0.00     0.084 C 
HETATM    3  C4  UNL     1     -14.411  17.451 -15.456  1.00  0.00     0.139 C 
HETATM    4  N1  UNL     1     -15.074  16.347 -16.060  1.00  0.00    -0.036 N 
ATOM      5  H11 UNL     1     -16.055  16.509 -16.289  1.00  0.00     0.281 HD
ATOM      6  H12 UNL     1     -15.246  15.558 -15.438  1.00  0.00     0.281 HD
HETATM    7  C5  UNL     1     -14.210  16.050 -17.214  1.00  0.00     0.356 C 
HETATM    8  C6  UNL     1     -14.904  18.797 -15.878  1.00  0.00     0.023 C 
HETATM    9  C7  UNL     1     -16.319  18.958 -15.376  1.00  0.00     0.012 C 
HETATM   10  C8  UNL     1     -16.124  18.841 -13.863  1.00  0.00    -0.009 C 
HETATM   11  C9  UNL     1     -15.976  17.369 -13.457  1.00  0.00     0.012 C 
HETATM   12  C10 UNL     1     -14.541  17.489 -13.944  1.00  0.00     0.027 C 
HETATM   13  C11 UNL     1     -14.647  18.968 -13.622  1.00  0.00    -0.004 C 
HETATM   14  C12 UNL     1     -14.152  19.676 -14.864  1.00  0.00     0.012 C 
ENDROOT
BRANCH   1  15
HETATM   15  C1  UNL     1     -11.730  16.046 -17.529  1.00  0.00     0.206 C 
BRANCH  15  16
HETATM   16  O1  UNL     1     -12.125  16.680 -18.683  1.00  0.00    -0.398 OA
ATOM     17  H1  UNL     1     -12.513  17.525 -18.491  1.00  0.00     0.209 HD
ENDBRANCH  15  16
ENDBRANCH   1  15
BRANCH   1  18
HETATM   18  O2  UNL     1     -12.789  14.944 -15.657  1.00  0.00    -0.383 OA
ATOM     19  H2  UNL     1     -12.079  15.001 -15.028  1.00  0.00     0.210 HD
ENDBRANCH   1  18
BRANCH   7  20
HETATM   20  O3  UNL     1     -14.512  14.860 -17.809  1.00  0.00    -0.367 OA
ATOM     21  H3  UNL     1     -15.263  14.919 -18.389  1.00  0.00     0.212 HD
ENDBRANCH   7  20
TORSDOF 4
ENDMDL
MODEL 4
REMARK VINA RESULT: -6.048020005      2.099      3.711
REMARK  4 active torsions:
REMARK  status: ('A' for Active; 'I' for Inactive)
REMARK    1  A    between atoms: O1_1  and  C1_3 
REMARK    2  A    between atoms: C1_3  and  C2_4 
REMARK    3  A    between atoms: C2_4  and  O2_5 
REMARK    4  A    between atoms: C5_12  and  O3_13 
ROOT
HETATM    1  C2  UNL     1     -13.733  16.462 -17.803  1.00  0.00     0.132 C 
HETATM    2  C3  UNL     1     -14.317  16.297 -16.414  1.00  0.00     0.084 C 
HETATM    3  C4  UNL     1     -14.355  17.715 -15.902  1.00  0.00     0.139 C 
HETATM    4  N1  UNL     1     -13.751  18.559 -16.875  1.00  0.00    -0.036 N 
ATOM      5  H11 UNL     1     -13.339  19.416 -16.503  1.00  0.00     0.281 HD
ATOM      6  H12 UNL     1     -14.405  19.027 -17.502  1.00  0.00     0.281 HD
HETATM    7  C5  UNL     1     -12.800  17.651 -17.537  1.00  0.00     0.356 C 
HETATM    8  C6  UNL     1     -13.728  17.757 -14.547  1.00  0.00     0.023 C 
HETATM    9  C7  UNL     1     -13.955  19.132 -13.965  1.00  0.00     0.012 C 
HETATM   10  C8  UNL     1     -15.483  19.197 -13.918  1.00  0.00    -0.009 C 
HETATM   11  C9  UNL     1     -16.046  19.516 -15.309  1.00  0.00     0.012 C 
HETATM   12  C10 UNL     1     -15.811  18.047 -15.625  1.00  0.00     0.027 C 
HETATM   13  C11 UNL     1     -15.968  17.793 -14.137  1.00  0.00    -0.004 C 
HETATM   14  C12 UNL     1     -14.770  16.949 -13.756  1.00  0.00     0.012 C 
ENDROOT
BRANCH   1  15
HETATM   15  C1  UNL     1     -12.929  15.248 -18.211  1.00  0.00     0.206 C 
BRANCH  15  16
HETATM   16  O1  UNL     1     -11.608  15.574 -18.403  1.00  0.00    -0.398 OA
ATOM     17  H1  UNL     1     -11.436  16.469 -18.138  1.00  0.00     0.209 HD
ENDBRANCH  15  16
ENDBRANCH   1  15
BRANCH   1  18
HETATM   18  O2  UNL     1     -14.681  16.825 -18.741  1.00  0.00    -0.383 OA
ATOM     19  H2  UNL     1     -14.689  16.258 -19.502  1.00  0.00     0.210 HD
ENDBRANCH   1  18
BRANCH   7  20
HETATM   20  O3  UNL     1     -12.277  18.177 -18.682  1.00  0.00    -0.367 OA
ATOM     21  H3  UNL     1     -12.159  17.526 -19.365  1.00  0.00     0.212 HD
ENDBRANCH   7  20
TORSDOF 4
ENDMDL
MODEL 5
REMARK VINA RESULT: -6.007057351      2.042      2.868
REMARK  4 active torsions:
REMARK  status: ('A' for Active; 'I' for Inactive)
REMARK    1  A    between atoms: O1_1  and  C1_3 
REMARK    2  A    between atoms: C1_3  and  C2_4 
REMARK    3  A    between atoms: C2_4  and  O2_5 
REMARK    4  A    between atoms: C5_12  and  O3_13 
ROOT
HETATM    1  C2  UNL     1     -14.617  16.807 -17.889  1.00  0.00     0.132 C 
HETATM    2  C3  UNL     1     -15.468  17.752 -17.066  1.00  0.00     0.084 C 
HETATM    3  C4  UNL     1     -14.672  17.887 -15.791  1.00  0.00     0.139 C 
HETATM    4  N1  UNL     1     -13.550  17.017 -15.870  1.00  0.00    -0.036 N 
ATOM      5  H11 UNL     1     -13.191  16.697 -14.969  1.00  0.00     0.281 HD
ATOM      6  H12 UNL     1     -12.683  17.461 -16.170  1.00  0.00     0.281 HD
HETATM    7  C5  UNL     1     -14.038  15.948 -16.757  1.00  0.00     0.356 C 
HETATM    8  C6  UNL     1     -15.579  17.651 -14.628  1.00  0.00     0.023 C 
HETATM    9  C7  UNL     1     -14.822  17.989 -13.365  1.00  0.00     0.012 C 
HETATM   10  C8  UNL     1     -14.504  19.469 -13.584  1.00  0.00    -0.009 C 
HETATM   11  C9  UNL     1     -13.309  19.623 -14.534  1.00  0.00     0.012 C 
HETATM   12  C10 UNL     1     -14.300  19.353 -15.655  1.00  0.00     0.027 C 
HETATM   13  C11 UNL     1     -15.364  19.916 -14.731  1.00  0.00    -0.004 C 
HETATM   14  C12 UNL     1     -16.479  18.893 -14.748  1.00  0.00     0.012 C 
ENDROOT
BRANCH   1  15
HETATM   15  C1  UNL     1     -15.466  15.957 -18.808  1.00  0.00     0.206 C 
BRANCH  15  16
HETATM   16  O1  UNL     1     -15.642  14.697 -18.291  1.00  0.00    -0.398 OA
ATOM     17  H1  UNL     1     -15.346  14.654 -17.390  1.00  0.00     0.209 HD
ENDBRANCH  15  16
ENDBRANCH   1  15
BRANCH   1  18
HETATM   18  O2  UNL     1     -13.586  17.453 -18.546  1.00  0.00    -0.383 OA
ATOM     19  H2  UNL     1     -12.740  17.044 -18.405  1.00  0.00     0.210 HD
ENDBRANCH   1  18
BRANCH   7  20
HETATM   20  O3  UNL     1     -13.042  15.118 -17.182  1.00  0.00    -0.367 OA
ATOM     21  H3  UNL     1     -13.343  14.477 -17.815  1.00  0.00     0.212 HD
ENDBRANCH   7  20
TORSDOF 4
ENDMDL
