MODEL 1
REMARK VINA RESULT: -7.467961189      0.000      0.000
REMARK  7 active torsions:
REMARK  status: ('A' for Active; 'I' for Inactive)
REMARK    1  A    between atoms: O1_2  and  C2_3 
REMARK    2  A    between atoms: C2_3  and  C3_5 
REMARK    3  A    between atoms: C3_5  and  N1_6 
REMARK    4  A    between atoms: C3_5  and  C10_23 
REMARK       I    between atoms: N1_6  and  C4_8 
REMARK    5  A    between atoms: C4_8  and  C5_10 
REMARK    6  A    between atoms: C9_15  and  N2_16 
REMARK    7  A    between atoms: N2_16  and  N3_18 
ROOT
HETATM    1  C5  UNL     1      -3.311   4.900  14.220  1.00  0.00     0.163 C 
HETATM    2  S1  UNL     1      -4.980   5.494  13.737  1.00  0.00    -0.152 SA
HETATM    3  C6  UNL     1      -4.778   6.071  12.007  1.00  0.00     0.075 C 
HETATM    4  C7  UNL     1      -3.504   6.842  11.911  1.00  0.00     0.012 C 
HETATM    5  C8  UNL     1      -2.288   6.116  12.365  1.00  0.00     0.029 C 
HETATM    6  C9  UNL     1      -2.544   4.745  12.915  1.00  0.00     0.123 C 
ENDROOT
BRANCH   1   7
HETATM    7  C4  UNL     1      -3.443   3.632  14.939  1.00  0.00     0.234 C 
HETATM    8  N1  UNL     1      -4.626   2.844  14.940  1.00  0.00    -0.346 N 
ATOM      9  H1  UNL     1      -5.436   3.170  14.414  1.00  0.00     0.163 HD
HETATM   10  O3  UNL     1      -2.453   3.215  15.594  1.00  0.00    -0.272 OA
BRANCH   8  11
HETATM   11  C3  UNL     1      -4.720   1.614  15.652  1.00  0.00     0.188 C 
BRANCH  11  12
HETATM   12  C2  UNL     1      -4.555   0.422  14.784  1.00  0.00     0.281 C 
HETATM   13  O2  UNL     1      -4.806  -0.702  15.286  1.00  0.00    -0.263 OA
BRANCH  12  14
HETATM   14  O1  UNL     1      -4.150   0.478  13.476  1.00  0.00    -0.325 OA
HETATM   15  C1  UNL     1      -4.206  -0.587  12.558  1.00  0.00     0.213 C 
ENDBRANCH  12  14
ENDBRANCH  11  12
BRANCH  11  16
HETATM   16  C10 UNL     1      -6.003   1.444  16.416  1.00  0.00     0.018 C 
HETATM   17  C11 UNL     1      -6.757   2.694  16.737  1.00  0.00     0.007 C 
HETATM   18  C12 UNL     1      -6.986   2.149  18.132  1.00  0.00     0.001 C 
HETATM   19  C13 UNL     1      -5.763   1.272  17.917  1.00  0.00     0.007 C 
ENDBRANCH  11  16
ENDBRANCH   8  11
ENDBRANCH   1   7
BRANCH   6  20
HETATM   20  N2  UNL     1      -1.260   4.152  13.245  1.00  0.00    -0.316 N 
ATOM     21  H2  UNL     1      -0.952   4.054  14.213  1.00  0.00     0.182 HD
BRANCH  20  22
HETATM   22  N3  UNL     1      -0.559   3.773  12.304  1.00  0.00    -0.253 N 
HETATM   23  N4  UNL     1       0.434   3.689  11.554  1.00  0.00    -0.331 N 
ATOM     24  H42 UNL     1       1.027   4.363  12.039  1.00  0.00     0.178 HD
ATOM     25  H41 UNL     1       1.013   3.376  10.775  1.00  0.00     0.178 HD
ATOM     26  H3  UNL     1      -1.190   3.109  11.857  1.00  0.00     0.207 HD
ENDBRANCH  20  22
ENDBRANCH   6  20
TORSDOF 7
ENDMDL
MODEL 2
REMARK VINA RESULT: -6.877177734      1.964      2.231
REMARK  7 active torsions:
REMARK  status: ('A' for Active; 'I' for Inactive)
REMARK    1  A    between atoms: O1_2  and  C2_3 
REMARK    2  A    between atoms: C2_3  and  C3_5 
REMARK    3  A    between atoms: C3_5  and  N1_6 
REMARK    4  A    between atoms: C3_5  and  C10_23 
REMARK       I    between atoms: N1_6  and  C4_8 
REMARK    5  A    between atoms: C4_8  and  C5_10 
REMARK    6  A    between atoms: C9_15  and  N2_16 
REMARK    7  A    between atoms: N2_16  and  N3_18 
ROOT
HETATM    1  C5  UNL     1      -4.281   4.569  12.968  1.00  0.00     0.163 C 
HETATM    2  S1  UNL     1      -3.991   3.695  11.380  1.00  0.00    -0.152 SA
HETATM    3  C6  UNL     1      -2.957   4.852  10.402  1.00  0.00     0.075 C 
HETATM    4  C7  UNL     1      -3.507   6.230  10.564  1.00  0.00     0.012 C 
HETATM    5  C8  UNL     1      -3.633   6.701  11.969  1.00  0.00     0.029 C 
HETATM    6  C9  UNL     1      -3.251   5.689  13.007  1.00  0.00     0.123 C 
ENDROOT
BRANCH   1   7
HETATM    7  C4  UNL     1      -4.114   3.624  14.074  1.00  0.00     0.234 C 
HETATM    8  N1  UNL     1      -5.145   2.764  14.541  1.00  0.00    -0.346 N 
ATOM      9  H1  UNL     1      -6.057   2.797  14.087  1.00  0.00     0.163 HD
HETATM   10  O3  UNL     1      -2.994   3.571  14.644  1.00  0.00    -0.272 OA
BRANCH   8  11
HETATM   11  C3  UNL     1      -4.947   1.856  15.620  1.00  0.00     0.188 C 
BRANCH  11  12
HETATM   12  C2  UNL     1      -4.474   0.520  15.181  1.00  0.00     0.281 C 
HETATM   13  O2  UNL     1      -3.636  -0.068  15.908  1.00  0.00    -0.263 OA
BRANCH  12  14
HETATM   14  O1  UNL     1      -4.899  -0.104  14.038  1.00  0.00    -0.325 OA
HETATM   15  C1  UNL     1      -4.209  -0.119  12.811  1.00  0.00     0.213 C 
ENDBRANCH  12  14
ENDBRANCH  11  12
BRANCH  11  16
HETATM   16  C10 UNL     1      -6.164   1.647  16.476  1.00  0.00     0.018 C 
HETATM   17  C11 UNL     1      -6.885   2.879  16.921  1.00  0.00     0.007 C 
HETATM   18  C12 UNL     1      -7.001   2.263  18.300  1.00  0.00     0.001 C 
HETATM   19  C13 UNL     1      -5.804   1.398  17.941  1.00  0.00     0.007 C 
ENDBRANCH  11  16
ENDBRANCH   8  11
ENDBRANCH   1   7
BRANCH   6  20
HETATM   20  N2  UNL     1      -3.364   6.324  14.308  1.00  0.00    -0.316 N 
ATOM     21  H2  UNL     1      -4.020   5.984  15.012  1.00  0.00     0.182 HD
BRANCH  20  22
HETATM   22  N3  UNL     1      -2.632   7.291  14.524  1.00  0.00    -0.253 N 
HETATM   23  N4  UNL     1      -2.087   8.219  15.155  1.00  0.00    -0.331 N 
ATOM     24  H42 UNL     1      -2.550   8.064  16.051  1.00  0.00     0.178 HD
ATOM     25  H41 UNL     1      -1.481   9.021  15.334  1.00  0.00     0.178 HD
ATOM     26  H3  UNL     1      -2.196   7.405  13.609  1.00  0.00     0.207 HD
ENDBRANCH  20  22
ENDBRANCH   6  20
TORSDOF 7
ENDMDL
MODEL 3
REMARK VINA RESULT: -6.627379414      2.177      2.677
REMARK  7 active torsions:
REMARK  status: ('A' for Active; 'I' for Inactive)
REMARK    1  A    between atoms: O1_2  and  C2_3 
REMARK    2  A    between atoms: C2_3  and  C3_5 
REMARK    3  A    between atoms: C3_5  and  N1_6 
REMARK    4  A    between atoms: C3_5  and  C10_23 
REMARK       I    between atoms: N1_6  and  C4_8 
REMARK    5  A    between atoms: C4_8  and  C5_10 
REMARK    6  A    between atoms: C9_15  and  N2_16 
REMARK    7  A    between atoms: N2_16  and  N3_18 
ROOT
HETATM    1  C5  UNL     1      -2.652   4.762  13.067  1.00  0.00     0.163 C 
HETATM    2  S1  UNL     1      -1.388   3.898  12.054  1.00  0.00    -0.152 SA
HETATM    3  C6  UNL     1      -0.129   5.185  11.697  1.00  0.00     0.075 C 
HETATM    4  C7  UNL     1      -0.835   6.450  11.340  1.00  0.00     0.012 C 
HETATM    5  C8  UNL     1      -1.811   6.939  12.350  1.00  0.00     0.029 C 
HETATM    6  C9  UNL     1      -1.984   6.044  13.540  1.00  0.00     0.123 C 
ENDROOT
BRANCH   1   7
HETATM    7  C4  UNL     1      -3.044   3.898  14.183  1.00  0.00     0.234 C 
HETATM    8  N1  UNL     1      -4.269   3.177  14.231  1.00  0.00    -0.346 N 
ATOM      9  H1  UNL     1      -4.919   3.258  13.450  1.00  0.00     0.163 HD
HETATM   10  O3  UNL     1      -2.253   3.787  15.154  1.00  0.00    -0.272 OA
BRANCH   8  11
HETATM   11  C3  UNL     1      -4.619   2.346  15.333  1.00  0.00     0.188 C 
BRANCH  11  12
HETATM   12  C2  UNL     1      -4.365   0.905  15.082  1.00  0.00     0.281 C 
HETATM   13  O2  UNL     1      -3.644   0.290  15.906  1.00  0.00    -0.263 OA
BRANCH  12  14
HETATM   14  O1  UNL     1      -4.869   0.214  14.012  1.00  0.00    -0.325 OA
HETATM   15  C1  UNL     1      -4.137  -0.183  12.878  1.00  0.00     0.213 C 
ENDBRANCH  12  14
ENDBRANCH  11  12
BRANCH  11  16
HETATM   16  C10 UNL     1      -6.048   2.483  15.775  1.00  0.00     0.018 C 
HETATM   17  C11 UNL     1      -6.535   3.873  16.031  1.00  0.00     0.007 C 
HETATM   18  C12 UNL     1      -7.211   3.361  17.287  1.00  0.00     0.001 C 
HETATM   19  C13 UNL     1      -6.219   2.209  17.270  1.00  0.00     0.007 C 
ENDBRANCH  11  16
ENDBRANCH   8  11
ENDBRANCH   1   7
BRANCH   6  20
HETATM   20  N2  UNL     1      -2.909   6.693  14.453  1.00  0.00    -0.316 N 
ATOM     21  H2  UNL     1      -3.814   6.279  14.677  1.00  0.00     0.182 HD
BRANCH  20  22
HETATM   22  N3  UNL     1      -2.551   7.765  14.944  1.00  0.00    -0.253 N 
HETATM   23  N4  UNL     1      -1.860   8.572  15.598  1.00  0.00    -0.331 N 
ATOM     24  H42 UNL     1      -1.152   7.912  15.920  1.00  0.00     0.178 HD
ATOM     25  H41 UNL     1      -1.564   9.460  16.005  1.00  0.00     0.178 HD
ATOM     26  H3  UNL     1      -3.283   8.384  14.595  1.00  0.00     0.207 HD
ENDBRANCH  20  22
ENDBRANCH   6  20
TORSDOF 7
ENDMDL
MODEL 4
REMARK VINA RESULT: -6.544372599      1.699      2.128
REMARK  7 active torsions:
REMARK  status: ('A' for Active; 'I' for Inactive)
REMARK    1  A    between atoms: O1_2  and  C2_3 
REMARK    2  A    between atoms: C2_3  and  C3_5 
REMARK    3  A    between atoms: C3_5  and  N1_6 
REMARK    4  A    between atoms: C3_5  and  C10_23 
REMARK       I    between atoms: N1_6  and  C4_8 
REMARK    5  A    between atoms: C4_8  and  C5_10 
REMARK    6  A    between atoms: C9_15  and  N2_16 
REMARK    7  A    between atoms: N2_16  and  N3_18 
ROOT
HETATM    1  C5  UNL     1      -1.793   5.622  13.798  1.00  0.00     0.163 C 
HETATM    2  S1  UNL     1      -2.982   7.019  13.727  1.00  0.00    -0.152 SA
HETATM    3  C6  UNL     1      -2.531   7.927  12.197  1.00  0.00     0.075 C 
HETATM    4  C7  UNL     1      -1.044   8.027  12.127  1.00  0.00     0.012 C 
HETATM    5  C8  UNL     1      -0.317   6.732  12.200  1.00  0.00     0.029 C 
HETATM    6  C9  UNL     1      -1.192   5.531  12.403  1.00  0.00     0.123 C 
ENDROOT
BRANCH   1   7
HETATM    7  C4  UNL     1      -2.510   4.401  14.172  1.00  0.00     0.234 C 
HETATM    8  N1  UNL     1      -3.796   4.055  13.674  1.00  0.00    -0.346 N 
ATOM      9  H1  UNL     1      -4.255   4.686  13.017  1.00  0.00     0.163 HD
HETATM   10  O3  UNL     1      -1.957   3.614  14.983  1.00  0.00    -0.272 OA
BRANCH   8  11
HETATM   11  C3  UNL     1      -4.465   2.860  14.061  1.00  0.00     0.188 C 
BRANCH  11  12
HETATM   12  C2  UNL     1      -4.602   1.882  12.952  1.00  0.00     0.281 C 
HETATM   13  O2  UNL     1      -5.529   2.067  12.125  1.00  0.00    -0.263 OA
BRANCH  12  14
HETATM   14  O1  UNL     1      -3.780   0.799  12.781  1.00  0.00    -0.325 OA
HETATM   15  C1  UNL     1      -4.200  -0.543  12.729  1.00  0.00     0.213 C 
ENDBRANCH  12  14
ENDBRANCH  11  12
BRANCH  11  16
HETATM   16  C10 UNL     1      -5.833   3.082  14.640  1.00  0.00     0.018 C 
HETATM   17  C11 UNL     1      -6.058   4.386  15.336  1.00  0.00     0.007 C 
HETATM   18  C12 UNL     1      -6.776   3.629  16.434  1.00  0.00     0.001 C 
HETATM   19  C13 UNL     1      -6.006   2.395  15.995  1.00  0.00     0.007 C 
ENDBRANCH  11  16
ENDBRANCH   8  11
ENDBRANCH   1   7
BRANCH   6  20
HETATM   20  N2  UNL     1      -0.342   4.354  12.383  1.00  0.00    -0.316 N 
ATOM     21  H2  UNL     1      -0.607   3.497  12.868  1.00  0.00     0.182 HD
BRANCH  20  22
HETATM   22  N3  UNL     1       0.715   4.438  11.754  1.00  0.00    -0.253 N 
HETATM   23  N4  UNL     1       1.863   4.143  11.365  1.00  0.00    -0.331 N 
ATOM     24  H42 UNL     1       1.989   3.307  11.936  1.00  0.00     0.178 HD
ATOM     25  H41 UNL     1       2.738   4.212  10.845  1.00  0.00     0.178 HD
ATOM     26  H3  UNL     1       0.540   5.279  11.205  1.00  0.00     0.207 HD
ENDBRANCH  20  22
ENDBRANCH   6  20
TORSDOF 7
ENDMDL
MODEL 5
REMARK VINA RESULT: -6.526052884      2.301      2.814
REMARK  7 active torsions:
REMARK  status: ('A' for Active; 'I' for Inactive)
REMARK    1  A    between atoms: O1_2  and  C2_3 
REMARK    2  A    between atoms: C2_3  and  C3_5 
REMARK    3  A    between atoms: C3_5  and  N1_6 
REMARK    4  A    between atoms: C3_5  and  C10_23 
REMARK       I    between atoms: N1_6  and  C4_8 
REMARK    5  A    between atoms: C4_8  and  C5_10 
REMARK    6  A    between atoms: C9_15  and  N2_16 
REMARK    7  A    between atoms: N2_16  and  N3_18 
ROOT
HETATM    1  C5  UNL     1      -2.865   4.288  12.459  1.00  0.00     0.163 C 
HETATM    2  S1  UNL     1      -1.083   3.998  12.122  1.00  0.00    -0.152 SA
HETATM    3  C6  UNL     1      -0.453   5.625  11.554  1.00  0.00     0.075 C 
HETATM    4  C7  UNL     1      -1.447   6.213  10.610  1.00  0.00     0.012 C 
HETATM    5  C8  UNL     1      -2.828   6.345  11.143  1.00  0.00     0.029 C 
HETATM    6  C9  UNL     1      -3.022   5.800  12.527  1.00  0.00     0.123 C 
ENDROOT
BRANCH   1   7
HETATM    7  C4  UNL     1      -3.227   3.637  13.719  1.00  0.00     0.234 C 
HETATM    8  N1  UNL     1      -4.244   2.651  13.836  1.00  0.00    -0.346 N 
ATOM      9  H1  UNL     1      -4.758   2.373  13.000  1.00  0.00     0.163 HD
HETATM   10  O3  UNL     1      -2.602   3.969  14.760  1.00  0.00    -0.272 OA
BRANCH   8  11
HETATM   11  C3  UNL     1      -4.571   2.038  15.079  1.00  0.00     0.188 C 
BRANCH  11  12
HETATM   12  C2  UNL     1      -4.359   0.569  15.080  1.00  0.00     0.281 C 
HETATM   13  O2  UNL     1      -3.710   0.077  16.035  1.00  0.00    -0.263 OA
BRANCH  12  14
HETATM   14  O1  UNL     1      -4.828  -0.272  14.106  1.00  0.00    -0.325 OA
HETATM   15  C1  UNL     1      -4.199  -0.525  12.873  1.00  0.00     0.213 C 
ENDBRANCH  12  14
ENDBRANCH  11  12
BRANCH  11  16
HETATM   16  C10 UNL     1      -5.979   2.293  15.536  1.00  0.00     0.018 C 
HETATM   17  C11 UNL     1      -6.385   3.725  15.677  1.00  0.00     0.007 C 
HETATM   18  C12 UNL     1      -7.055   3.363  16.987  1.00  0.00     0.001 C 
HETATM   19  C13 UNL     1      -6.126   2.161  17.053  1.00  0.00     0.007 C 
ENDBRANCH  11  16
ENDBRANCH   8  11
ENDBRANCH   1   7
BRANCH   6  20
HETATM   20  N2  UNL     1      -4.394   6.067  12.921  1.00  0.00    -0.316 N 
ATOM     21  H2  UNL     1      -4.714   5.905  13.876  1.00  0.00     0.182 HD
BRANCH  20  22
HETATM   22  N3  UNL     1      -5.153   6.498  12.051  1.00  0.00    -0.253 N 
HETATM   23  N4  UNL     1      -6.184   6.981  11.543  1.00  0.00    -0.331 N 
ATOM     24  H42 UNL     1      -6.729   7.068  12.401  1.00  0.00     0.178 HD
ATOM     25  H41 UNL     1      -6.813   7.337  10.822  1.00  0.00     0.178 HD
ATOM     26  H3  UNL     1      -4.567   6.391  11.222  1.00  0.00     0.207 HD
ENDBRANCH  20  22
ENDBRANCH   6  20
TORSDOF 7
ENDMDL
