MODEL 1
REMARK VINA RESULT: -6.008533479      0.000      0.000
REMARK  9 active torsions:
REMARK  status: ('A' for Active; 'I' for Inactive)
REMARK    1  A    between atoms: C2_3  and  C3_4 
REMARK    2  A    between atoms: C2_3  and  C8_16 
REMARK    3  A    between atoms: C3_4  and  O1_5 
REMARK    4  A    between atoms: O1_5  and  C4_6 
REMARK    5  A    between atoms: C4_6  and  N2_8 
REMARK    6  A    between atoms: N2_8  and  C5_10 
REMARK    7  A    between atoms: C8_16  and  N4_17 
REMARK    8  A    between atoms: C12_21  and  C13_22 
REMARK    9  A    between atoms: C13_22  and  O2_23 
ROOT
HETATM    1  N1  UNL     1      -5.532   1.636  11.350  1.00  0.00    -0.197 NA
HETATM    2  C1  UNL     1      -4.767   2.195  11.993  1.00  0.00     0.068 C 
HETATM    3  C2  UNL     1      -3.790   2.929  12.798  1.00  0.00     0.145 C 
ENDROOT
BRANCH   3   4
HETATM    4  C3  UNL     1      -3.552   4.286  12.130  1.00  0.00     0.199 C 
BRANCH   4   5
HETATM    5  O1  UNL     1      -2.427   4.230  11.272  1.00  0.00    -0.326 OA
BRANCH   5   6
HETATM    6  C4  UNL     1      -1.203   4.558  11.812  1.00  0.00     0.216 C 
HETATM    7  S1  UNL     1      -1.024   5.992  12.610  1.00  0.00    -0.033 SA
BRANCH   6   8
HETATM    8  N2  UNL     1      -0.055   3.734  11.732  1.00  0.00    -0.308 N 
ATOM      9  H2  UNL     1      -0.023   2.824  12.193  1.00  0.00     0.171 HD
BRANCH   8  10
HETATM   10  C5  UNL     1       0.969   4.186  11.039  1.00  0.00     0.150 A 
HETATM   11  N3  UNL     1       2.219   4.378  11.460  1.00  0.00    -0.346 N 
HETATM   12  C6  UNL     1       3.101   4.839  10.615  1.00  0.00     0.097 A 
ATOM     13  H3  UNL     1       2.481   4.170  12.423  1.00  0.00     0.167 HD
HETATM   14  C7  UNL     1       2.684   5.099   9.335  1.00  0.00     0.070 A 
HETATM   15  S2  UNL     1       1.036   4.669   9.403  1.00  0.00    -0.064 SA
ENDBRANCH   8  10
ENDBRANCH   6   8
ENDBRANCH   5   6
ENDBRANCH   4   5
ENDBRANCH   3   4
BRANCH   3  16
HETATM   16  C8  UNL     1      -4.273   3.204  14.181  1.00  0.00     0.294 C 
BRANCH  16  17
HETATM   17  N4  UNL     1      -5.058   2.174  14.782  1.00  0.00     0.096 N 
HETATM   18  C9  UNL     1      -6.318   2.807  15.206  1.00  0.00     0.273 C 
HETATM   19  C10 UNL     1      -6.678   2.167  16.515  1.00  0.00     0.032 C 
HETATM   20  C11 UNL     1      -5.344   1.893  17.129  1.00  0.00     0.040 C 
HETATM   21  C12 UNL     1      -4.494   1.553  15.930  1.00  0.00     0.246 C 
BRANCH  21  22
HETATM   22  C13 UNL     1      -4.541   0.037  15.766  1.00  0.00     0.199 C 
BRANCH  22  23
HETATM   23  O2  UNL     1      -4.794  -0.310  14.434  1.00  0.00    -0.399 OA
ATOM     24  H2  UNL     1      -5.329  -1.094  14.387  1.00  0.00     0.209 HD
ENDBRANCH  22  23
ENDBRANCH  21  22
ENDBRANCH  16  17
ENDBRANCH   3  16
TORSDOF 9
ENDMDL
MODEL 2
REMARK VINA RESULT: -5.993791586      3.425      4.575
REMARK  9 active torsions:
REMARK  status: ('A' for Active; 'I' for Inactive)
REMARK    1  A    between atoms: C2_3  and  C3_4 
REMARK    2  A    between atoms: C2_3  and  C8_16 
REMARK    3  A    between atoms: C3_4  and  O1_5 
REMARK    4  A    between atoms: O1_5  and  C4_6 
REMARK    5  A    between atoms: C4_6  and  N2_8 
REMARK    6  A    between atoms: N2_8  and  C5_10 
REMARK    7  A    between atoms: C8_16  and  N4_17 
REMARK    8  A    between atoms: C12_21  and  C13_22 
REMARK    9  A    between atoms: C13_22  and  O2_23 
ROOT
HETATM    1  N1  UNL     1      -4.695   3.755  11.750  1.00  0.00    -0.197 NA
HETATM    2  C1  UNL     1      -4.137   3.770  12.750  1.00  0.00     0.068 C 
HETATM    3  C2  UNL     1      -3.412   3.808  14.020  1.00  0.00     0.145 C 
ENDROOT
BRANCH   3   4
HETATM    4  C3  UNL     1      -2.504   5.041  14.008  1.00  0.00     0.199 C 
BRANCH   4   5
HETATM    5  O1  UNL     1      -3.260   6.216  13.776  1.00  0.00    -0.326 OA
BRANCH   5   6
HETATM    6  C4  UNL     1      -2.764   7.117  12.860  1.00  0.00     0.216 C 
HETATM    7  S1  UNL     1      -1.616   8.205  13.330  1.00  0.00    -0.033 SA
BRANCH   6   8
HETATM    8  N2  UNL     1      -3.176   7.181  11.507  1.00  0.00    -0.308 N 
ATOM      9  H2  UNL     1      -2.531   6.971  10.746  1.00  0.00     0.171 HD
BRANCH   8  10
HETATM   10  C5  UNL     1      -4.426   7.521  11.270  1.00  0.00     0.150 A 
HETATM   11  N3  UNL     1      -5.533   6.909  11.690  1.00  0.00    -0.346 N 
HETATM   12  C6  UNL     1      -6.691   7.402  11.346  1.00  0.00     0.097 A 
ATOM     13  H3  UNL     1      -5.476   6.071  12.268  1.00  0.00     0.167 HD
HETATM   14  C7  UNL     1      -6.699   8.530  10.567  1.00  0.00     0.070 A 
HETATM   15  S2  UNL     1      -5.034   8.832  10.361  1.00  0.00    -0.064 SA
ENDBRANCH   8  10
ENDBRANCH   6   8
ENDBRANCH   5   6
ENDBRANCH   4   5
ENDBRANCH   3   4
BRANCH   3  16
HETATM   16  C8  UNL     1      -4.316   3.947  15.197  1.00  0.00     0.294 C 
BRANCH  16  17
HETATM   17  N4  UNL     1      -5.226   2.869  15.412  1.00  0.00     0.096 N 
HETATM   18  C9  UNL     1      -6.505   3.478  15.813  1.00  0.00     0.273 C 
HETATM   19  C10 UNL     1      -7.082   2.571  16.861  1.00  0.00     0.032 C 
HETATM   20  C11 UNL     1      -5.865   2.050  17.556  1.00  0.00     0.040 C 
HETATM   21  C12 UNL     1      -4.865   1.945  16.431  1.00  0.00     0.246 C 
BRANCH  21  22
HETATM   22  C13 UNL     1      -4.955   0.522  15.887  1.00  0.00     0.199 C 
BRANCH  22  23
HETATM   23  O2  UNL     1      -3.689  -0.072  15.841  1.00  0.00    -0.399 OA
ATOM     24  H2  UNL     1      -3.328  -0.162  16.715  1.00  0.00     0.209 HD
ENDBRANCH  22  23
ENDBRANCH  21  22
ENDBRANCH  16  17
ENDBRANCH   3  16
TORSDOF 9
ENDMDL
MODEL 3
REMARK VINA RESULT: -5.981113670      2.168      2.967
REMARK  9 active torsions:
REMARK  status: ('A' for Active; 'I' for Inactive)
REMARK    1  A    between atoms: C2_3  and  C3_4 
REMARK    2  A    between atoms: C2_3  and  C8_16 
REMARK    3  A    between atoms: C3_4  and  O1_5 
REMARK    4  A    between atoms: O1_5  and  C4_6 
REMARK    5  A    between atoms: C4_6  and  N2_8 
REMARK    6  A    between atoms: N2_8  and  C5_10 
REMARK    7  A    between atoms: C8_16  and  N4_17 
REMARK    8  A    between atoms: C12_21  and  C13_22 
REMARK    9  A    between atoms: C13_22  and  O2_23 
ROOT
HETATM    1  N1  UNL     1      -1.926   4.000  14.613  1.00  0.00    -0.197 NA
HETATM    2  C1  UNL     1      -3.031   4.297  14.609  1.00  0.00     0.068 C 
HETATM    3  C2  UNL     1      -4.448   4.665  14.583  1.00  0.00     0.145 C 
ENDROOT
BRANCH   3   4
HETATM    4  C3  UNL     1      -5.093   3.969  13.382  1.00  0.00     0.199 C 
BRANCH   4   5
HETATM    5  O1  UNL     1      -4.690   4.584  12.172  1.00  0.00    -0.326 OA
BRANCH   5   6
HETATM    6  C4  UNL     1      -4.348   3.757  11.124  1.00  0.00     0.216 C 
HETATM    7  S1  UNL     1      -4.834   2.180  11.142  1.00  0.00    -0.033 SA
BRANCH   6   8
HETATM    8  N2  UNL     1      -3.590   4.171  10.003  1.00  0.00    -0.308 N 
ATOM      9  H2  UNL     1      -3.997   4.196   9.068  1.00  0.00     0.171 HD
BRANCH   8  10
HETATM   10  C5  UNL     1      -2.338   4.524  10.214  1.00  0.00     0.150 A 
HETATM   11  N3  UNL     1      -1.649   4.449  11.352  1.00  0.00    -0.346 N 
HETATM   12  C6  UNL     1      -0.408   4.852  11.361  1.00  0.00     0.097 A 
ATOM     13  H3  UNL     1      -2.083   4.084  12.200  1.00  0.00     0.167 HD
HETATM   14  C7  UNL     1       0.116   5.332  10.189  1.00  0.00     0.070 A 
HETATM   15  S2  UNL     1      -1.204   5.183   9.121  1.00  0.00    -0.064 SA
ENDBRANCH   8  10
ENDBRANCH   6   8
ENDBRANCH   5   6
ENDBRANCH   4   5
ENDBRANCH   3   4
BRANCH   3  16
HETATM   16  C8  UNL     1      -5.184   4.210  15.796  1.00  0.00     0.294 C 
BRANCH  16  17
HETATM   17  N4  UNL     1      -5.723   2.889  15.737  1.00  0.00     0.096 N 
HETATM   18  C9  UNL     1      -7.044   2.950  16.385  1.00  0.00     0.273 C 
HETATM   19  C10 UNL     1      -7.187   1.665  17.148  1.00  0.00     0.032 C 
HETATM   20  C11 UNL     1      -5.784   1.374  17.573  1.00  0.00     0.040 C 
HETATM   21  C12 UNL     1      -4.975   1.882  16.406  1.00  0.00     0.246 C 
BRANCH  21  22
HETATM   22  C13 UNL     1      -4.755   0.699  15.468  1.00  0.00     0.199 C 
BRANCH  22  23
HETATM   23  O2  UNL     1      -3.673  -0.079  15.897  1.00  0.00    -0.399 OA
ATOM     24  H2  UNL     1      -3.137  -0.344  15.159  1.00  0.00     0.209 HD
ENDBRANCH  22  23
ENDBRANCH  21  22
ENDBRANCH  16  17
ENDBRANCH   3  16
TORSDOF 9
ENDMDL
MODEL 4
REMARK VINA RESULT: -5.970041967      1.113      1.141
REMARK  9 active torsions:
REMARK  status: ('A' for Active; 'I' for Inactive)
REMARK    1  A    between atoms: C2_3  and  C3_4 
REMARK    2  A    between atoms: C2_3  and  C8_16 
REMARK    3  A    between atoms: C3_4  and  O1_5 
REMARK    4  A    between atoms: O1_5  and  C4_6 
REMARK    5  A    between atoms: C4_6  and  N2_8 
REMARK    6  A    between atoms: N2_8  and  C5_10 
REMARK    7  A    between atoms: C8_16  and  N4_17 
REMARK    8  A    between atoms: C12_21  and  C13_22 
REMARK    9  A    between atoms: C13_22  and  O2_23 
ROOT
HETATM    1  N1  UNL     1      -4.949   2.555  11.764  1.00  0.00    -0.197 NA
HETATM    2  C1  UNL     1      -4.324   2.959  12.634  1.00  0.00     0.068 C 
HETATM    3  C2  UNL     1      -3.518   3.496  13.732  1.00  0.00     0.145 C 
ENDROOT
BRANCH   3   4
HETATM    4  C3  UNL     1      -2.956   4.849  13.286  1.00  0.00     0.199 C 
BRANCH   4   5
HETATM    5  O1  UNL     1      -1.550   4.779  13.133  1.00  0.00    -0.326 OA
BRANCH   5   6
HETATM    6  C4  UNL     1      -1.065   4.461  11.883  1.00  0.00     0.216 C 
HETATM    7  S1  UNL     1      -1.816   5.062  10.543  1.00  0.00    -0.033 SA
BRANCH   6   8
HETATM    8  N2  UNL     1       0.061   3.634  11.658  1.00  0.00    -0.308 N 
ATOM      9  H2  UNL     1       0.028   2.631  11.844  1.00  0.00     0.171 HD
BRANCH   8  10
HETATM   10  C5  UNL     1       1.154   4.209  11.198  1.00  0.00     0.150 A 
HETATM   11  N3  UNL     1       1.917   5.116  11.807  1.00  0.00    -0.346 N 
HETATM   12  C6  UNL     1       2.968   5.571  11.182  1.00  0.00     0.097 A 
ATOM     13  H3  UNL     1       1.683   5.449  12.742  1.00  0.00     0.167 HD
HETATM   14  C7  UNL     1       3.226   5.084   9.927  1.00  0.00     0.070 A 
HETATM   15  S2  UNL     1       1.939   3.989   9.699  1.00  0.00    -0.064 SA
ENDBRANCH   8  10
ENDBRANCH   6   8
ENDBRANCH   5   6
ENDBRANCH   4   5
ENDBRANCH   3   4
BRANCH   3  16
HETATM   16  C8  UNL     1      -4.317   3.743  14.966  1.00  0.00     0.294 C 
BRANCH  16  17
HETATM   17  N4  UNL     1      -5.237   2.713  15.327  1.00  0.00     0.096 N 
HETATM   18  C9  UNL     1      -6.514   3.382  15.622  1.00  0.00     0.273 C 
HETATM   19  C10 UNL     1      -7.107   2.641  16.786  1.00  0.00     0.032 C 
HETATM   20  C11 UNL     1      -5.901   2.219  17.560  1.00  0.00     0.040 C 
HETATM   21  C12 UNL     1      -4.892   1.945  16.473  1.00  0.00     0.246 C 
BRANCH  21  22
HETATM   22  C13 UNL     1      -4.988   0.459  16.141  1.00  0.00     0.199 C 
BRANCH  22  23
HETATM   23  O2  UNL     1      -3.726  -0.064  15.840  1.00  0.00    -0.399 OA
ATOM     24  H2  UNL     1      -3.389  -0.570  16.570  1.00  0.00     0.209 HD
ENDBRANCH  22  23
ENDBRANCH  21  22
ENDBRANCH  16  17
ENDBRANCH   3  16
TORSDOF 9
ENDMDL
MODEL 5
REMARK VINA RESULT: -5.963458276      2.129      2.632
REMARK  9 active torsions:
REMARK  status: ('A' for Active; 'I' for Inactive)
REMARK    1  A    between atoms: C2_3  and  C3_4 
REMARK    2  A    between atoms: C2_3  and  C8_16 
REMARK    3  A    between atoms: C3_4  and  O1_5 
REMARK    4  A    between atoms: O1_5  and  C4_6 
REMARK    5  A    between atoms: C4_6  and  N2_8 
REMARK    6  A    between atoms: N2_8  and  C5_10 
REMARK    7  A    between atoms: C8_16  and  N4_17 
REMARK    8  A    between atoms: C12_21  and  C13_22 
REMARK    9  A    between atoms: C13_22  and  O2_23 
ROOT
HETATM    1  N1  UNL     1      -4.486   3.697  11.971  1.00  0.00    -0.197 NA
HETATM    2  C1  UNL     1      -4.345   3.963  13.075  1.00  0.00     0.068 C 
HETATM    3  C2  UNL     1      -4.158   4.327  14.481  1.00  0.00     0.145 C 
ENDROOT
BRANCH   3   4
HETATM    4  C3  UNL     1      -3.776   5.809  14.537  1.00  0.00     0.199 C 
BRANCH   4   5
HETATM    5  O1  UNL     1      -2.369   5.963  14.523  1.00  0.00    -0.326 OA
BRANCH   5   6
HETATM    6  C4  UNL     1      -1.869   7.176  14.103  1.00  0.00     0.216 C 
HETATM    7  S1  UNL     1      -1.892   8.466  15.132  1.00  0.00    -0.033 SA
BRANCH   6   8
HETATM    8  N2  UNL     1      -1.322   7.405  12.817  1.00  0.00    -0.308 N 
ATOM      9  H2  UNL     1      -1.318   8.336  12.401  1.00  0.00     0.171 HD
BRANCH   8  10
HETATM   10  C5  UNL     1      -0.817   6.368  12.180  1.00  0.00     0.150 A 
HETATM   11  N3  UNL     1      -1.463   5.293  11.729  1.00  0.00    -0.346 N 
HETATM   12  C6  UNL     1      -0.781   4.364  11.118  1.00  0.00     0.097 A 
ATOM     13  H3  UNL     1      -2.470   5.199  11.859  1.00  0.00     0.167 HD
HETATM   14  C7  UNL     1       0.569   4.550  10.976  1.00  0.00     0.070 A 
HETATM   15  S2  UNL     1       0.801   6.061  11.732  1.00  0.00    -0.064 SA
ENDBRANCH   8  10
ENDBRANCH   6   8
ENDBRANCH   5   6
ENDBRANCH   4   5
ENDBRANCH   3   4
BRANCH   3  16
HETATM   16  C8  UNL     1      -5.400   4.168  15.288  1.00  0.00     0.294 C 
BRANCH  16  17
HETATM   17  N4  UNL     1      -5.853   2.827  15.474  1.00  0.00     0.096 N 
HETATM   18  C9  UNL     1      -7.110   2.915  16.235  1.00  0.00     0.273 C 
HETATM   19  C10 UNL     1      -7.097   1.753  17.186  1.00  0.00     0.032 C 
HETATM   20  C11 UNL     1      -5.645   1.604  17.507  1.00  0.00     0.040 C 
HETATM   21  C12 UNL     1      -4.981   1.972  16.204  1.00  0.00     0.246 C 
BRANCH  21  22
HETATM   22  C13 UNL     1      -4.769   0.675  15.429  1.00  0.00     0.199 C 
BRANCH  22  23
HETATM   23  O2  UNL     1      -3.683  -0.039  15.948  1.00  0.00    -0.399 OA
ATOM     24  H2  UNL     1      -3.950  -0.562  16.694  1.00  0.00     0.209 HD
ENDBRANCH  22  23
ENDBRANCH  21  22
ENDBRANCH  16  17
ENDBRANCH   3  16
TORSDOF 9
ENDMDL
