MODEL 1
REMARK VINA RESULT: -8.009885348      0.000      0.000
REMARK  6 active torsions:
REMARK  status: ('A' for Active; 'I' for Inactive)
REMARK    1  A    between atoms: C6_6  and  C7_8 
REMARK    2  A    between atoms: C18_22  and  C20_24 
REMARK    3  A    between atoms: C20_24  and  C21_25 
REMARK    4  A    between atoms: C21_25  and  C22_26 
REMARK    5  A    between atoms: C22_26  and  O5_28 
REMARK    6  A    between atoms: C24_30  and  C25_31 
ROOT
HETATM    1  C1  UNL     1      40.335  13.434  25.169  1.00  0.00     0.020 C 
HETATM    2  C2  UNL     1      39.073  13.655  24.746  1.00  0.00    -0.052 C 
HETATM    3  C3  UNL     1      38.724  12.865  23.601  1.00  0.00     0.007 C 
HETATM    4  C4  UNL     1      37.516  12.731  22.840  1.00  0.00     0.007 C 
HETATM    5  C5  UNL     1      36.782  13.818  22.170  1.00  0.00    -0.037 C 
HETATM    6  C6  UNL     1      37.205  14.147  20.810  1.00  0.00     0.149 C 
HETATM    7 CL1  UNL     1      37.815  12.677  19.901  1.00  0.00    -0.102 Cl
HETATM    8  C8  UNL     1      38.542  14.954  20.857  1.00  0.00     0.049 C 
HETATM    9  C9  UNL     1      38.444  16.214  21.646  1.00  0.00     0.086 C 
HETATM   10  C10 UNL     1      39.297  16.291  22.862  1.00  0.00     0.155 C 
HETATM   11  O3  UNL     1      40.438  15.908  22.612  1.00  0.00    -0.293 OA
HETATM   12  C11 UNL     1      39.005  16.722  24.204  1.00  0.00    -0.009 C 
HETATM   13  C12 UNL     1      40.275  17.256  24.917  1.00  0.00     0.052 C 
HETATM   14  C13 UNL     1      38.115  16.003  25.153  1.00  0.00    -0.034 C 
HETATM   15  C14 UNL     1      36.665  16.255  24.773  1.00  0.00     0.005 C 
HETATM   16  C15 UNL     1      35.640  15.275  24.771  1.00  0.00    -0.021 C 
HETATM   17  C16 UNL     1      35.369  14.027  24.105  1.00  0.00     0.016 C 
HETATM   18  C17 UNL     1      34.132  13.473  24.790  1.00  0.00     0.015 C 
HETATM   19  C18 UNL     1      35.299  13.939  22.580  1.00  0.00    -0.011 C 
HETATM   20  C19 UNL     1      34.579  15.133  22.162  1.00  0.00     0.021 C 
HETATM   21  C24 UNL     1      38.394  14.629  25.592  1.00  0.00     0.112 C 
ENDROOT
BRANCH  19  22
HETATM   22  C20 UNL     1      34.667  12.694  22.062  1.00  0.00     0.024 C 
BRANCH  22  23
HETATM   23  C21 UNL     1      33.335  12.747  21.420  1.00  0.00     0.112 C 
BRANCH  23  24
HETATM   24  C22 UNL     1      32.526  11.575  21.947  1.00  0.00     0.258 C 
HETATM   25  O4  UNL     1      31.361  11.332  21.599  1.00  0.00    -0.265 OA
BRANCH  24  26
HETATM   26  O5  UNL     1      33.164  10.768  22.859  1.00  0.00    -0.326 OA
HETATM   27  C23 UNL     1      32.494   9.999  23.834  1.00  0.00     0.213 C 
ENDBRANCH  24  26
ENDBRANCH  23  24
ENDBRANCH  22  23
ENDBRANCH  19  22
BRANCH   6  28
HETATM   28  C7  UNL     1      36.356  14.745  19.806  1.00  0.00     0.202 C 
HETATM   29  O1  UNL     1      35.698  13.958  19.023  1.00  0.00    -0.646 OA
HETATM   30  O2  UNL     1      36.103  16.065  19.514  1.00  0.00    -0.646 OA
ENDBRANCH   6  28
BRANCH  21  31
HETATM   31  C25 UNL     1      38.987  14.609  27.020  1.00  0.00     0.245 C 
HETATM   32  O6  UNL     1      38.314  14.854  27.979  1.00  0.00    -0.306 OA
ENDBRANCH  21  31
TORSDOF 6
ENDMDL
MODEL 2
REMARK VINA RESULT: -7.528032721      2.300      6.301
REMARK  6 active torsions:
REMARK  status: ('A' for Active; 'I' for Inactive)
REMARK    1  A    between atoms: C6_6  and  C7_8 
REMARK    2  A    between atoms: C18_22  and  C20_24 
REMARK    3  A    between atoms: C20_24  and  C21_25 
REMARK    4  A    between atoms: C21_25  and  C22_26 
REMARK    5  A    between atoms: C22_26  and  O5_28 
REMARK    6  A    between atoms: C24_30  and  C25_31 
ROOT
HETATM    1  C1  UNL     1      35.352  11.317  23.962  1.00  0.00     0.020 C 
HETATM    2  C2  UNL     1      35.881  12.342  23.262  1.00  0.00    -0.052 C 
HETATM    3  C3  UNL     1      37.313  12.304  23.216  1.00  0.00     0.007 C 
HETATM    4  C4  UNL     1      38.291  13.135  22.577  1.00  0.00     0.007 C 
HETATM    5  C5  UNL     1      38.450  14.589  22.754  1.00  0.00    -0.037 C 
HETATM    6  C6  UNL     1      39.300  15.021  23.863  1.00  0.00     0.149 C 
HETATM    7 CL1  UNL     1      40.667  13.843  24.185  1.00  0.00    -0.102 Cl
HETATM    8  C8  UNL     1      38.530  14.847  25.212  1.00  0.00     0.049 C 
HETATM    9  C9  UNL     1      37.251  15.609  25.264  1.00  0.00     0.086 C 
HETATM   10  C10 UNL     1      36.012  14.795  25.386  1.00  0.00     0.155 C 
HETATM   11  O3  UNL     1      36.149  13.928  26.246  1.00  0.00    -0.293 OA
HETATM   12  C11 UNL     1      34.753  14.869  24.692  1.00  0.00    -0.009 C 
HETATM   13  C12 UNL     1      33.592  14.319  25.563  1.00  0.00     0.052 C 
HETATM   14  C13 UNL     1      34.552  14.540  23.256  1.00  0.00    -0.034 C 
HETATM   15  C14 UNL     1      35.073  15.683  22.401  1.00  0.00     0.005 C 
HETATM   16  C15 UNL     1      35.823  15.533  21.206  1.00  0.00    -0.021 C 
HETATM   17  C16 UNL     1      37.081  14.954  20.811  1.00  0.00     0.016 C 
HETATM   18  C17 UNL     1      37.094  15.032  19.294  1.00  0.00     0.015 C 
HETATM   19  C18 UNL     1      38.397  15.404  21.445  1.00  0.00    -0.011 C 
HETATM   20  C19 UNL     1      38.290  16.852  21.556  1.00  0.00     0.021 C 
HETATM   21  C24 UNL     1      34.839  13.204  22.717  1.00  0.00     0.112 C 
ENDROOT
BRANCH  19  22
HETATM   22  C20 UNL     1      39.617  14.990  20.697  1.00  0.00     0.024 C 
BRANCH  22  23
HETATM   23  C21 UNL     1      40.464  16.004  20.033  1.00  0.00     0.112 C 
BRANCH  23  24
HETATM   24  C22 UNL     1      40.871  15.446  18.680  1.00  0.00     0.258 C 
HETATM   25  O4  UNL     1      40.488  14.351  18.246  1.00  0.00    -0.265 OA
BRANCH  24  26
HETATM   26  O5  UNL     1      41.711  16.237  17.934  1.00  0.00    -0.326 OA
HETATM   27  C23 UNL     1      42.765  17.000  18.480  1.00  0.00     0.213 C 
ENDBRANCH  24  26
ENDBRANCH  23  24
ENDBRANCH  22  23
ENDBRANCH  19  22
BRANCH   6  28
HETATM   28  C7  UNL     1      40.014  16.275  23.913  1.00  0.00     0.202 C 
HETATM   29  O1  UNL     1      41.206  16.312  23.422  1.00  0.00    -0.646 OA
HETATM   30  O2  UNL     1      39.640  17.502  24.411  1.00  0.00    -0.646 OA
ENDBRANCH   6  28
BRANCH  21  31
HETATM   31  C25 UNL     1      33.535  12.400  22.496  1.00  0.00     0.245 C 
HETATM   32  O6  UNL     1      33.051  12.284  21.408  1.00  0.00    -0.306 OA
ENDBRANCH  21  31
TORSDOF 6
ENDMDL
MODEL 3
REMARK VINA RESULT: -7.510659322      2.191      6.020
REMARK  6 active torsions:
REMARK  status: ('A' for Active; 'I' for Inactive)
REMARK    1  A    between atoms: C6_6  and  C7_8 
REMARK    2  A    between atoms: C18_22  and  C20_24 
REMARK    3  A    between atoms: C20_24  and  C21_25 
REMARK    4  A    between atoms: C21_25  and  C22_26 
REMARK    5  A    between atoms: C22_26  and  O5_28 
REMARK    6  A    between atoms: C24_30  and  C25_31 
ROOT
HETATM    1  C1  UNL     1      35.068  11.439  24.174  1.00  0.00     0.020 C 
HETATM    2  C2  UNL     1      35.539  12.336  23.283  1.00  0.00    -0.052 C 
HETATM    3  C3  UNL     1      36.904  12.092  22.919  1.00  0.00     0.007 C 
HETATM    4  C4  UNL     1      37.799  12.737  22.003  1.00  0.00     0.007 C 
HETATM    5  C5  UNL     1      38.175  14.162  22.008  1.00  0.00    -0.037 C 
HETATM    6  C6  UNL     1      39.309  14.533  22.853  1.00  0.00     0.149 C 
HETATM    7 CL1  UNL     1      40.557  13.195  22.963  1.00  0.00    -0.102 Cl
HETATM    8  C8  UNL     1      38.863  14.550  24.351  1.00  0.00     0.049 C 
HETATM    9  C9  UNL     1      37.738  15.487  24.621  1.00  0.00     0.086 C 
HETATM   10  C10 UNL     1      36.471  14.866  25.093  1.00  0.00     0.155 C 
HETATM   11  O3  UNL     1      36.699  14.041  25.974  1.00  0.00    -0.293 OA
HETATM   12  C11 UNL     1      35.104  15.077  24.698  1.00  0.00    -0.009 C 
HETATM   13  C12 UNL     1      34.122  14.749  25.854  1.00  0.00     0.052 C 
HETATM   14  C13 UNL     1      34.531  14.696  23.380  1.00  0.00    -0.034 C 
HETATM   15  C14 UNL     1      34.973  15.701  22.329  1.00  0.00     0.005 C 
HETATM   16  C15 UNL     1      35.395  15.376  21.015  1.00  0.00    -0.021 C 
HETATM   17  C16 UNL     1      36.442  14.603  20.400  1.00  0.00     0.016 C 
HETATM   18  C17 UNL     1      36.106  14.589  18.919  1.00  0.00     0.015 C 
HETATM   19  C18 UNL     1      37.916  14.898  20.677  1.00  0.00    -0.011 C 
HETATM   20  C19 UNL     1      38.020  16.350  20.678  1.00  0.00     0.021 C 
HETATM   21  C24 UNL     1      34.514  13.303  22.913  1.00  0.00     0.112 C 
ENDROOT
BRANCH  19  22
HETATM   22  C20 UNL     1      38.864  14.271  19.713  1.00  0.00     0.024 C 
BRANCH  22  23
HETATM   23  C21 UNL     1      39.714  15.117  18.847  1.00  0.00     0.112 C 
BRANCH  23  24
HETATM   24  C22 UNL     1      41.028  14.384  18.639  1.00  0.00     0.258 C 
HETATM   25  O4  UNL     1      41.402  13.433  19.339  1.00  0.00    -0.265 OA
BRANCH  24  26
HETATM   26  O5  UNL     1      41.809  14.838  17.604  1.00  0.00    -0.326 OA
HETATM   27  C23 UNL     1      42.387  16.125  17.559  1.00  0.00     0.213 C 
ENDBRANCH  24  26
ENDBRANCH  23  24
ENDBRANCH  22  23
ENDBRANCH  19  22
BRANCH   6  28
HETATM   28  C7  UNL     1      40.165  15.674  22.627  1.00  0.00     0.202 C 
HETATM   29  O1  UNL     1      40.014  16.704  23.390  1.00  0.00    -0.646 OA
HETATM   30  O2  UNL     1      41.165  15.878  21.705  1.00  0.00    -0.646 OA
ENDBRANCH   6  28
BRANCH  21  31
HETATM   31  C25 UNL     1      33.105  12.681  23.065  1.00  0.00     0.245 C 
HETATM   32  O6  UNL     1      32.509  12.247  22.122  1.00  0.00    -0.306 OA
ENDBRANCH  21  31
TORSDOF 6
ENDMDL
MODEL 4
REMARK VINA RESULT: -7.050761618      2.531      5.919
REMARK  6 active torsions:
REMARK  status: ('A' for Active; 'I' for Inactive)
REMARK    1  A    between atoms: C6_6  and  C7_8 
REMARK    2  A    between atoms: C18_22  and  C20_24 
REMARK    3  A    between atoms: C20_24  and  C21_25 
REMARK    4  A    between atoms: C21_25  and  C22_26 
REMARK    5  A    between atoms: C22_26  and  O5_28 
REMARK    6  A    between atoms: C24_30  and  C25_31 
ROOT
HETATM    1  C1  UNL     1      39.157  11.985  20.067  1.00  0.00     0.020 C 
HETATM    2  C2  UNL     1      39.143  12.759  21.173  1.00  0.00    -0.052 C 
HETATM    3  C3  UNL     1      38.237  12.278  22.175  1.00  0.00     0.007 C 
HETATM    4  C4  UNL     1      37.915  12.732  23.496  1.00  0.00     0.007 C 
HETATM    5  C5  UNL     1      37.428  14.073  23.864  1.00  0.00    -0.037 C 
HETATM    6  C6  UNL     1      35.982  14.280  23.803  1.00  0.00     0.149 C 
HETATM    7 CL1  UNL     1      35.048  12.757  24.214  1.00  0.00    -0.102 Cl
HETATM    8  C8  UNL     1      35.535  14.424  22.313  1.00  0.00     0.049 C 
HETATM    9  C9  UNL     1      36.208  15.545  21.601  1.00  0.00     0.086 C 
HETATM   10  C10 UNL     1      37.078  15.161  20.457  1.00  0.00     0.155 C 
HETATM   11  O3  UNL     1      36.510  14.341  19.739  1.00  0.00    -0.293 OA
HETATM   12  C11 UNL     1      38.404  15.583  20.085  1.00  0.00    -0.009 C 
HETATM   13  C12 UNL     1      38.629  15.465  18.555  1.00  0.00     0.052 C 
HETATM   14  C13 UNL     1      39.642  15.255  20.839  1.00  0.00    -0.034 C 
HETATM   15  C14 UNL     1      39.725  16.135  22.076  1.00  0.00     0.005 C 
HETATM   16  C15 UNL     1      40.130  15.697  23.363  1.00  0.00    -0.021 C 
HETATM   17  C16 UNL     1      39.689  14.738  24.343  1.00  0.00     0.016 C 
HETATM   18  C17 UNL     1      40.775  14.728  25.404  1.00  0.00     0.015 C 
HETATM   19  C18 UNL     1      38.278  14.794  24.930  1.00  0.00    -0.011 C 
HETATM   20  C19 UNL     1      38.017  16.207  25.159  1.00  0.00     0.021 C 
HETATM   21  C24 UNL     1      40.079  13.869  21.054  1.00  0.00     0.112 C 
ENDROOT
BRANCH  19  22
HETATM   22  C20 UNL     1      38.092  13.983  26.167  1.00  0.00     0.024 C 
BRANCH  22  23
HETATM   23  C21 UNL     1      37.512  14.599  27.380  1.00  0.00     0.112 C 
BRANCH  23  24
HETATM   24  C22 UNL     1      38.370  14.179  28.561  1.00  0.00     0.258 C 
HETATM   25  O4  UNL     1      37.989  13.397  29.443  1.00  0.00    -0.265 OA
BRANCH  24  26
HETATM   26  O5  UNL     1      39.631  14.725  28.609  1.00  0.00    -0.326 OA
HETATM   27  C23 UNL     1      40.489  14.626  29.725  1.00  0.00     0.213 C 
ENDBRANCH  24  26
ENDBRANCH  23  24
ENDBRANCH  22  23
ENDBRANCH  19  22
BRANCH   6  28
HETATM   28  C7  UNL     1      35.256  15.253  24.585  1.00  0.00     0.202 C 
HETATM   29  O1  UNL     1      34.653  14.845  25.650  1.00  0.00    -0.646 OA
HETATM   30  O2  UNL     1      35.081  16.605  24.399  1.00  0.00    -0.646 OA
ENDBRANCH   6  28
BRANCH  21  31
HETATM   31  C25 UNL     1      41.240  13.496  20.102  1.00  0.00     0.245 C 
HETATM   32  O6  UNL     1      41.664  14.277  19.299  1.00  0.00    -0.306 OA
ENDBRANCH  21  31
TORSDOF 6
ENDMDL
MODEL 5
REMARK VINA RESULT: -6.889997299      2.605      5.373
REMARK  6 active torsions:
REMARK  status: ('A' for Active; 'I' for Inactive)
REMARK    1  A    between atoms: C6_6  and  C7_8 
REMARK    2  A    between atoms: C18_22  and  C20_24 
REMARK    3  A    between atoms: C20_24  and  C21_25 
REMARK    4  A    between atoms: C21_25  and  C22_26 
REMARK    5  A    between atoms: C22_26  and  O5_28 
REMARK    6  A    between atoms: C24_30  and  C25_31 
ROOT
HETATM    1  C1  UNL     1      41.325  15.983  22.323  1.00  0.00     0.020 C 
HETATM    2  C2  UNL     1      40.097  15.596  21.918  1.00  0.00    -0.052 C 
HETATM    3  C3  UNL     1      39.043  16.290  22.598  1.00  0.00     0.007 C 
HETATM    4  C4  UNL     1      37.615  16.247  22.483  1.00  0.00     0.007 C 
HETATM    5  C5  UNL     1      36.763  15.053  22.623  1.00  0.00    -0.037 C 
HETATM    6  C6  UNL     1      36.328  14.719  23.979  1.00  0.00     0.149 C 
HETATM    7 CL1  UNL     1      36.093  16.211  25.016  1.00  0.00    -0.102 Cl
HETATM    8  C8  UNL     1      37.515  14.079  24.768  1.00  0.00     0.049 C 
HETATM    9  C9  UNL     1      38.059  12.852  24.124  1.00  0.00     0.086 C 
HETATM   10  C10 UNL     1      39.470  12.928  23.660  1.00  0.00     0.155 C 
HETATM   11  O3  UNL     1      40.181  13.433  24.527  1.00  0.00    -0.293 OA
HETATM   12  C11 UNL     1      40.090  12.523  22.427  1.00  0.00    -0.009 C 
HETATM   13  C12 UNL     1      41.588  12.174  22.632  1.00  0.00     0.052 C 
HETATM   14  C13 UNL     1      39.863  13.171  21.108  1.00  0.00    -0.034 C 
HETATM   15  C14 UNL     1      38.516  12.732  20.557  1.00  0.00     0.005 C 
HETATM   16  C15 UNL     1      37.583  13.582  19.911  1.00  0.00    -0.021 C 
HETATM   17  C16 UNL     1      36.820  14.759  20.237  1.00  0.00     0.016 C 
HETATM   18  C17 UNL     1      36.179  15.190  18.929  1.00  0.00     0.015 C 
HETATM   19  C18 UNL     1      35.845  14.774  21.415  1.00  0.00    -0.011 C 
HETATM   20  C19 UNL     1      35.168  13.486  21.365  1.00  0.00     0.021 C 
HETATM   21  C24 UNL     1      40.180  14.585  20.871  1.00  0.00     0.112 C 
ENDROOT
BRANCH  19  22
HETATM   22  C20 UNL     1      34.884  15.912  21.406  1.00  0.00     0.024 C 
BRANCH  22  23
HETATM   23  C21 UNL     1      33.723  15.899  20.489  1.00  0.00     0.112 C 
BRANCH  23  24
HETATM   24  C22 UNL     1      33.455  17.334  20.070  1.00  0.00     0.258 C 
HETATM   25  O4  UNL     1      32.774  18.128  20.735  1.00  0.00    -0.265 OA
BRANCH  24  26
HETATM   26  O5  UNL     1      34.020  17.726  18.881  1.00  0.00    -0.326 OA
HETATM   27  C23 UNL     1      33.375  18.554  17.937  1.00  0.00     0.213 C 
ENDBRANCH  24  26
ENDBRANCH  23  24
ENDBRANCH  22  23
ENDBRANCH  19  22
BRANCH   6  28
HETATM   28  C7  UNL     1      35.128  13.983  24.299  1.00  0.00     0.202 C 
HETATM   29  O1  UNL     1      34.040  14.650  24.487  1.00  0.00    -0.646 OA
HETATM   30  O2  UNL     1      34.916  12.631  24.448  1.00  0.00    -0.646 OA
ENDBRANCH   6  28
BRANCH  21  31
HETATM   31  C25 UNL     1      41.500  14.736  20.079  1.00  0.00     0.245 C 
HETATM   32  O6  UNL     1      41.512  14.747  18.882  1.00  0.00    -0.306 OA
ENDBRANCH  21  31
TORSDOF 6
ENDMDL
