MODEL 1
REMARK VINA RESULT: -5.684406938      0.000      0.000
REMARK  1 active torsions:
REMARK  status: ('A' for Active; 'I' for Inactive)
REMARK    1  A    between atoms: N2_3  and  C2_5 
ROOT
HETATM    1  N1  UNL     1      15.232  -0.333  17.495  1.00  0.00    -0.172 NA
HETATM    2  C1  UNL     1      15.171   0.816  17.429  1.00  0.00     0.183 C 
HETATM    3  N2  UNL     1      15.105   2.204  17.359  1.00  0.00    -0.283 N 
ATOM      4  H2  UNL     1      14.960   2.745  18.212  1.00  0.00     0.179 HD
ENDROOT
BRANCH   3   5
HETATM    5  C2  UNL     1      15.236   2.882  16.111  1.00  0.00     0.086 C 
HETATM    6  N3  UNL     1      15.840   2.159  15.226  1.00  0.00    -0.379 N 
HETATM    7  C3  UNL     1      16.122   2.570  13.870  1.00  0.00     0.121 C 
ATOM      8  H3  UNL     1      16.142   1.226  15.507  1.00  0.00     0.160 HD
HETATM    9  C4  UNL     1      17.033   3.770  13.896  1.00  0.00     0.020 C 
HETATM   10  C5  UNL     1      16.549   4.905  14.713  1.00  0.00     0.002 C 
HETATM   11  C6  UNL     1      15.071   5.006  14.864  1.00  0.00     0.007 C 
HETATM   12  C7  UNL     1      14.664   4.237  16.099  1.00  0.00     0.077 C 
ENDBRANCH   3   5
TORSDOF 1
ENDMDL
MODEL 2
REMARK VINA RESULT: -5.594827803      1.192      2.023
REMARK  1 active torsions:
REMARK  status: ('A' for Active; 'I' for Inactive)
REMARK    1  A    between atoms: N2_3  and  C2_5 
ROOT
HETATM    1  N1  UNL     1      15.227  -0.397  17.576  1.00  0.00    -0.172 NA
HETATM    2  C1  UNL     1      14.859   0.690  17.478  1.00  0.00     0.183 C 
HETATM    3  N2  UNL     1      14.413   2.004  17.370  1.00  0.00    -0.283 N 
ATOM      4  H2  UNL     1      13.580   2.296  17.882  1.00  0.00     0.179 HD
ENDROOT
BRANCH   3   5
HETATM    5  C2  UNL     1      15.104   2.948  16.555  1.00  0.00     0.086 C 
HETATM    6  N3  UNL     1      14.526   4.105  16.551  1.00  0.00    -0.379 N 
HETATM    7  C3  UNL     1      14.989   5.261  15.819  1.00  0.00     0.121 C 
ATOM      8  H3  UNL     1      13.678   4.208  17.108  1.00  0.00     0.160 HD
HETATM    9  C4  UNL     1      14.970   4.953  14.345  1.00  0.00     0.020 C 
HETATM   10  C5  UNL     1      15.712   3.735  13.950  1.00  0.00     0.002 C 
HETATM   11  C6  UNL     1      16.839   3.350  14.844  1.00  0.00     0.007 C 
HETATM   12  C7  UNL     1      16.309   2.411  15.902  1.00  0.00     0.077 C 
ENDBRANCH   3   5
TORSDOF 1
ENDMDL
MODEL 3
REMARK VINA RESULT: -5.573725020      1.725      3.673
REMARK  1 active torsions:
REMARK  status: ('A' for Active; 'I' for Inactive)
REMARK    1  A    between atoms: N2_3  and  C2_5 
ROOT
HETATM    1  N1  UNL     1      16.733  -0.006  12.849  1.00  0.00    -0.172 NA
HETATM    2  C1  UNL     1      16.657   0.951  13.486  1.00  0.00     0.183 C 
HETATM    3  N2  UNL     1      16.560   2.113  14.246  1.00  0.00    -0.283 N 
ATOM      4  H2  UNL     1      16.955   2.982  13.888  1.00  0.00     0.179 HD
ENDROOT
BRANCH   3   5
HETATM    5  C2  UNL     1      15.918   2.103  15.519  1.00  0.00     0.086 C 
HETATM    6  N3  UNL     1      15.941   0.933  16.068  1.00  0.00    -0.379 N 
HETATM    7  C3  UNL     1      15.372   0.608  17.356  1.00  0.00     0.121 C 
ATOM      8  H3  UNL     1      16.397   0.180  15.552  1.00  0.00     0.160 HD
HETATM    9  C4  UNL     1      13.886   0.849  17.314  1.00  0.00     0.020 C 
HETATM   10  C5  UNL     1      13.483   2.204  16.874  1.00  0.00     0.002 C 
HETATM   11  C6  UNL     1      14.473   3.286  17.135  1.00  0.00     0.007 C 
HETATM   12  C7  UNL     1      15.376   3.408  15.930  1.00  0.00     0.077 C 
ENDBRANCH   3   5
TORSDOF 1
ENDMDL
MODEL 4
REMARK VINA RESULT: -5.545299247      1.121      1.260
REMARK  1 active torsions:
REMARK  status: ('A' for Active; 'I' for Inactive)
REMARK    1  A    between atoms: N2_3  and  C2_5 
ROOT
HETATM    1  N1  UNL     1      15.191  -0.123  17.308  1.00  0.00    -0.172 NA
HETATM    2  C1  UNL     1      15.899   0.606  16.765  1.00  0.00     0.183 C 
HETATM    3  N2  UNL     1      16.760   1.477  16.103  1.00  0.00    -0.283 N 
ATOM      4  H2  UNL     1      17.766   1.320  16.148  1.00  0.00     0.179 HD
ENDROOT
BRANCH   3   5
HETATM    5  C2  UNL     1      16.253   2.586  15.364  1.00  0.00     0.086 C 
HETATM    6  N3  UNL     1      16.849   2.728  14.226  1.00  0.00    -0.379 N 
HETATM    7  C3  UNL     1      16.557   3.759  13.257  1.00  0.00     0.121 C 
ATOM      8  H3  UNL     1      17.584   2.059  13.994  1.00  0.00     0.160 HD
HETATM    9  C4  UNL     1      16.839   5.106  13.871  1.00  0.00     0.020 C 
HETATM   10  C5  UNL     1      16.152   5.365  15.156  1.00  0.00     0.002 C 
HETATM   11  C6  UNL     1      14.871   4.633  15.360  1.00  0.00     0.007 C 
HETATM   12  C7  UNL     1      15.175   3.321  16.045  1.00  0.00     0.077 C 
ENDBRANCH   3   5
TORSDOF 1
ENDMDL
MODEL 5
REMARK VINA RESULT: -5.272064349      1.364      1.512
REMARK  1 active torsions:
REMARK  status: ('A' for Active; 'I' for Inactive)
REMARK    1  A    between atoms: N2_3  and  C2_5 
ROOT
HETATM    1  N1  UNL     1      16.709   0.008  16.243  1.00  0.00    -0.172 NA
HETATM    2  C1  UNL     1      16.344   1.101  16.223  1.00  0.00     0.183 C 
HETATM    3  N2  UNL     1      15.909   2.423  16.209  1.00  0.00    -0.283 N 
ATOM      4  H2  UNL     1      15.453   2.811  17.034  1.00  0.00     0.179 HD
ENDROOT
BRANCH   3   5
HETATM    5  C2  UNL     1      16.093   3.242  15.056  1.00  0.00     0.086 C 
HETATM    6  N3  UNL     1      17.010   2.780  14.271  1.00  0.00    -0.379 N 
HETATM    7  C3  UNL     1      17.423   3.389  13.027  1.00  0.00     0.121 C 
ATOM      8  H3  UNL     1      17.480   1.919  14.552  1.00  0.00     0.160 HD
HETATM    9  C4  UNL     1      17.983   4.759  13.310  1.00  0.00     0.020 C 
HETATM   10  C5  UNL     1      17.090   5.655  14.077  1.00  0.00     0.002 C 
HETATM   11  C6  UNL     1      15.631   5.390  13.929  1.00  0.00     0.007 C 
HETATM   12  C7  UNL     1      15.211   4.419  15.007  1.00  0.00     0.077 C 
ENDBRANCH   3   5
TORSDOF 1
ENDMDL
