MODEL 1
REMARK VINA RESULT: -6.389265430      0.000      0.000
REMARK  1 active torsions:
REMARK  status: ('A' for Active; 'I' for Inactive)
REMARK    1  A    between atoms: C8_9  and  O1_10 
ROOT
HETATM    1  N1  UNL     1      16.890   0.973  13.091  1.00  0.00    -0.197 NA
HETATM    2  C1  UNL     1      16.343   1.427  14.010  1.00  0.00     0.066 C 
HETATM    3  C2  UNL     1      15.653   1.976  15.168  1.00  0.00     0.121 C 
HETATM    4  C3  UNL     1      15.873   3.460  15.216  1.00  0.00     0.022 C 
HETATM    5  C4  UNL     1      15.211   4.143  16.355  1.00  0.00     0.001 C 
HETATM    6  C5  UNL     1      14.101   3.374  16.997  1.00  0.00     0.000 C 
HETATM    7  C6  UNL     1      14.557   2.339  17.972  1.00  0.00     0.002 C 
HETATM    8  C7  UNL     1      15.042   1.070  17.341  1.00  0.00     0.033 C 
HETATM    9  C8  UNL     1      16.208   1.387  16.446  1.00  0.00     0.135 C 
ENDROOT
BRANCH   9  10
HETATM   10  O1  UNL     1      17.031   0.298  16.209  1.00  0.00    -0.394 OA
ATOM     11  H1  UNL     1      17.879   0.390  16.628  1.00  0.00     0.210 HD
ENDBRANCH   9  10
TORSDOF 1
ENDMDL
MODEL 2
REMARK VINA RESULT: -6.163414899      2.252      3.054
REMARK  1 active torsions:
REMARK  status: ('A' for Active; 'I' for Inactive)
REMARK    1  A    between atoms: C8_9  and  O1_10 
ROOT
HETATM    1  N1  UNL     1      15.179  -0.465  17.572  1.00  0.00    -0.197 NA
HETATM    2  C1  UNL     1      15.181   0.589  17.083  1.00  0.00     0.066 C 
HETATM    3  C2  UNL     1      15.164   1.915  16.482  1.00  0.00     0.121 C 
HETATM    4  C3  UNL     1      16.472   2.157  15.786  1.00  0.00     0.022 C 
HETATM    5  C4  UNL     1      16.579   3.480  15.122  1.00  0.00     0.001 C 
HETATM    6  C5  UNL     1      15.276   4.164  14.859  1.00  0.00     0.000 C 
HETATM    7  C6  UNL     1      14.711   4.881  16.042  1.00  0.00     0.002 C 
HETATM    8  C7  UNL     1      14.019   3.991  17.027  1.00  0.00     0.033 C 
HETATM    9  C8  UNL     1      15.005   2.979  17.544  1.00  0.00     0.135 C 
ENDROOT
BRANCH   9  10
HETATM   10  O1  UNL     1      14.651   2.446  18.774  1.00  0.00    -0.394 OA
ATOM     11  H1  UNL     1      13.817   1.994  18.743  1.00  0.00     0.210 HD
ENDBRANCH   9  10
TORSDOF 1
ENDMDL
MODEL 3
REMARK VINA RESULT: -6.108097306      1.937      2.553
REMARK  1 active torsions:
REMARK  status: ('A' for Active; 'I' for Inactive)
REMARK    1  A    between atoms: C8_9  and  O1_10 
ROOT
HETATM    1  N1  UNL     1      14.975   4.990  13.829  1.00  0.00    -0.197 NA
HETATM    2  C1  UNL     1      14.902   4.156  14.635  1.00  0.00     0.066 C 
HETATM    3  C2  UNL     1      14.820   3.097  15.632  1.00  0.00     0.121 C 
HETATM    4  C3  UNL     1      14.375   3.685  16.940  1.00  0.00     0.022 C 
HETATM    5  C4  UNL     1      14.245   2.701  18.042  1.00  0.00     0.001 C 
HETATM    6  C5  UNL     1      14.135   1.274  17.609  1.00  0.00     0.000 C 
HETATM    7  C6  UNL     1      15.443   0.631  17.281  1.00  0.00     0.002 C 
HETATM    8  C7  UNL     1      15.976   0.978  15.926  1.00  0.00     0.033 C 
HETATM    9  C8  UNL     1      16.177   2.466  15.850  1.00  0.00     0.135 C 
ENDROOT
BRANCH   9  10
HETATM   10  O1  UNL     1      17.096   2.848  14.884  1.00  0.00    -0.394 OA
ATOM     11  H1  UNL     1      17.358   3.756  14.977  1.00  0.00     0.210 HD
ENDBRANCH   9  10
TORSDOF 1
ENDMDL
MODEL 4
REMARK VINA RESULT: -6.035601818      1.900      3.074
REMARK  1 active torsions:
REMARK  status: ('A' for Active; 'I' for Inactive)
REMARK    1  A    between atoms: C8_9  and  O1_10 
ROOT
HETATM    1  N1  UNL     1      15.875   0.036  16.963  1.00  0.00    -0.197 NA
HETATM    2  C1  UNL     1      15.919   1.102  16.503  1.00  0.00     0.066 C 
HETATM    3  C2  UNL     1      15.993   2.432  15.915  1.00  0.00     0.121 C 
HETATM    4  C3  UNL     1      14.728   3.179  16.226  1.00  0.00     0.022 C 
HETATM    5  C4  UNL     1      14.681   4.559  15.684  1.00  0.00     0.001 C 
HETATM    6  C5  UNL     1      16.009   5.143  15.321  1.00  0.00     0.000 C 
HETATM    7  C6  UNL     1      16.524   4.711  13.987  1.00  0.00     0.002 C 
HETATM    8  C7  UNL     1      17.146   3.349  13.980  1.00  0.00     0.033 C 
HETATM    9  C8  UNL     1      16.115   2.342  14.410  1.00  0.00     0.135 C 
ENDROOT
BRANCH   9  10
HETATM   10  O1  UNL     1      16.393   1.054  13.981  1.00  0.00    -0.394 OA
ATOM     11  H1  UNL     1      15.901   0.820  13.203  1.00  0.00     0.210 HD
ENDBRANCH   9  10
TORSDOF 1
ENDMDL
MODEL 5
REMARK VINA RESULT: -6.019045652      1.412      1.749
REMARK  1 active torsions:
REMARK  status: ('A' for Active; 'I' for Inactive)
REMARK    1  A    between atoms: C8_9  and  O1_10 
ROOT
HETATM    1  N1  UNL     1      16.664  -0.469  15.140  1.00  0.00    -0.197 NA
HETATM    2  C1  UNL     1      16.227   0.587  15.344  1.00  0.00     0.066 C 
HETATM    3  C2  UNL     1      15.662   1.902  15.610  1.00  0.00     0.121 C 
HETATM    4  C3  UNL     1      16.646   2.956  15.190  1.00  0.00     0.022 C 
HETATM    5  C4  UNL     1      16.183   4.349  15.405  1.00  0.00     0.001 C 
HETATM    6  C5  UNL     1      14.705   4.508  15.570  1.00  0.00     0.000 C 
HETATM    7  C6  UNL     1      14.207   4.204  16.945  1.00  0.00     0.002 C 
HETATM    8  C7  UNL     1      14.060   2.742  17.237  1.00  0.00     0.033 C 
HETATM    9  C8  UNL     1      15.402   2.080  17.090  1.00  0.00     0.135 C 
ENDROOT
BRANCH   9  10
HETATM   10  O1  UNL     1      15.507   0.888  17.788  1.00  0.00    -0.394 OA
ATOM     11  H1  UNL     1      14.969   0.202  17.412  1.00  0.00     0.210 HD
ENDBRANCH   9  10
TORSDOF 1
ENDMDL
