MODEL 1
REMARK VINA RESULT: -4.930073298      0.000      0.000
REMARK  3 active torsions:
REMARK  status: ('A' for Active; 'I' for Inactive)
REMARK    1  A    between atoms: C2_2  and  N1_5 
REMARK    2  A    between atoms: N2_7  and  C5_9 
REMARK    3  A    between atoms: C5_9  and  N3_12 
ROOT
HETATM    1  N1  UNL     1      16.394   1.683  13.811  1.00  0.00    -0.330 N 
ATOM      2  H1  UNL     1      15.803   0.853  13.765  1.00  0.00     0.180 HD
HETATM    3  N2  UNL     1      17.250   1.915  12.906  1.00  0.00    -0.305 N 
ATOM      4  H2  UNL     1      17.875   2.722  12.885  1.00  0.00     0.182 HD
ENDROOT
BRANCH   3   5
HETATM    5  C5  UNL     1      17.212   0.861  11.898  1.00  0.00     0.200 C 
HETATM    6  C6  UNL     1      18.526   0.924  11.188  1.00  0.00     0.071 C 
HETATM    7  C7  UNL     1      16.874  -0.466  12.474  1.00  0.00     0.071 C 
BRANCH   5   8
HETATM    8  N3  UNL     1      16.104   1.251  11.015  1.00  0.00    -0.052 N 
ATOM      9  H33 UNL     1      15.178   1.151  11.433  1.00  0.00     0.277 HD
ATOM     10  H32 UNL     1      16.038   2.254  10.842  1.00  0.00     0.277 HD
ATOM     11  H31 UNL     1      16.246   0.689  10.176  1.00  0.00     0.277 HD
ENDBRANCH   5   8
ENDBRANCH   3   5
BRANCH   1  12
HETATM   12  C2  UNL     1      16.274   2.601  14.893  1.00  0.00     0.034 C 
HETATM   13  C1  UNL     1      17.455   3.520  14.891  1.00  0.00     0.039 C 
HETATM   14  C3  UNL     1      14.991   3.404  14.641  1.00  0.00     0.039 C 
HETATM   15  C4  UNL     1      16.155   1.797  16.171  1.00  0.00     0.039 C 
ENDBRANCH   1  12
TORSDOF 3
ENDMDL
MODEL 2
REMARK VINA RESULT: -4.927264201      0.888      1.920
REMARK  3 active torsions:
REMARK  status: ('A' for Active; 'I' for Inactive)
REMARK    1  A    between atoms: C2_2  and  N1_5 
REMARK    2  A    between atoms: N2_7  and  C5_9 
REMARK    3  A    between atoms: C5_9  and  N3_12 
ROOT
HETATM    1  N1  UNL     1      16.387   1.666  13.890  1.00  0.00    -0.330 N 
ATOM      2  H1  UNL     1      15.822   0.818  13.919  1.00  0.00     0.180 HD
HETATM    3  N2  UNL     1      17.228   1.848  12.960  1.00  0.00    -0.305 N 
ATOM      4  H2  UNL     1      17.827   2.668  12.865  1.00  0.00     0.182 HD
ENDROOT
BRANCH   3   5
HETATM    5  C5  UNL     1      17.215   0.712  12.043  1.00  0.00     0.200 C 
HETATM    6  C6  UNL     1      16.070   0.948  11.112  1.00  0.00     0.071 C 
HETATM    7  C7  UNL     1      18.528   0.500  11.381  1.00  0.00     0.071 C 
BRANCH   5   8
HETATM    8  N3  UNL     1      16.971  -0.447  12.914  1.00  0.00    -0.052 N 
ATOM      9  H33 UNL     1      16.014  -0.801  12.882  1.00  0.00     0.277 HD
ATOM     10  H32 UNL     1      17.418  -1.309  12.600  1.00  0.00     0.277 HD
ATOM     11  H31 UNL     1      17.270  -0.132  13.836  1.00  0.00     0.277 HD
ENDBRANCH   5   8
ENDBRANCH   3   5
BRANCH   1  12
HETATM   12  C2  UNL     1      16.247   2.667  14.893  1.00  0.00     0.034 C 
HETATM   13  C1  UNL     1      14.993   3.445  14.638  1.00  0.00     0.039 C 
HETATM   14  C3  UNL     1      16.135   1.928  16.233  1.00  0.00     0.039 C 
HETATM   15  C4  UNL     1      17.491   3.530  14.865  1.00  0.00     0.039 C 
ENDBRANCH   1  12
TORSDOF 3
ENDMDL
MODEL 3
REMARK VINA RESULT: -4.921210556      1.094      2.006
REMARK  3 active torsions:
REMARK  status: ('A' for Active; 'I' for Inactive)
REMARK    1  A    between atoms: C2_2  and  N1_5 
REMARK    2  A    between atoms: N2_7  and  C5_9 
REMARK    3  A    between atoms: C5_9  and  N3_12 
ROOT
HETATM    1  N1  UNL     1      16.425   1.981  13.546  1.00  0.00    -0.330 N 
ATOM      2  H1  UNL     1      16.324   2.527  12.691  1.00  0.00     0.180 HD
HETATM    3  N2  UNL     1      16.789   0.769  13.497  1.00  0.00    -0.305 N 
ATOM      4  H2  UNL     1      16.911   0.161  14.308  1.00  0.00     0.182 HD
ENDROOT
BRANCH   3   5
HETATM    5  C5  UNL     1      17.009   0.367  12.111  1.00  0.00     0.200 C 
HETATM    6  C6  UNL     1      16.916  -1.125  12.096  1.00  0.00     0.071 C 
HETATM    7  C7  UNL     1      16.096   1.060  11.166  1.00  0.00     0.071 C 
BRANCH   5   8
HETATM    8  N3  UNL     1      18.375   0.825  11.819  1.00  0.00    -0.052 N 
ATOM      9  H33 UNL     1      18.762   1.461  12.516  1.00  0.00     0.277 HD
ATOM     10  H32 UNL     1      19.089   0.103  11.919  1.00  0.00     0.277 HD
ATOM     11  H31 UNL     1      18.308   1.221  10.882  1.00  0.00     0.277 HD
ENDBRANCH   5   8
ENDBRANCH   3   5
BRANCH   1  12
HETATM   12  C2  UNL     1      16.158   2.566  14.816  1.00  0.00     0.034 C 
HETATM   13  C1  UNL     1      15.992   1.480  15.833  1.00  0.00     0.039 C 
HETATM   14  C3  UNL     1      17.383   3.421  15.167  1.00  0.00     0.039 C 
HETATM   15  C4  UNL     1      14.927   3.436  14.677  1.00  0.00     0.039 C 
ENDBRANCH   1  12
TORSDOF 3
ENDMDL
MODEL 4
REMARK VINA RESULT: -4.916951182      0.879      1.352
REMARK  3 active torsions:
REMARK  status: ('A' for Active; 'I' for Inactive)
REMARK    1  A    between atoms: C2_2  and  N1_5 
REMARK    2  A    between atoms: N2_7  and  C5_9 
REMARK    3  A    between atoms: C5_9  and  N3_12 
ROOT
HETATM    1  N1  UNL     1      16.418   1.663  13.927  1.00  0.00    -0.330 N 
ATOM      2  H1  UNL     1      15.880   0.798  13.965  1.00  0.00     0.180 HD
HETATM    3  N2  UNL     1      17.219   1.881  12.970  1.00  0.00    -0.305 N 
ATOM      4  H2  UNL     1      17.789   2.721  12.865  1.00  0.00     0.182 HD
ENDROOT
BRANCH   3   5
HETATM    5  C5  UNL     1      17.207   0.757  12.040  1.00  0.00     0.200 C 
HETATM    6  C6  UNL     1      16.055   0.997  11.119  1.00  0.00     0.071 C 
HETATM    7  C7  UNL     1      18.517   0.562  11.365  1.00  0.00     0.071 C 
BRANCH   5   8
HETATM    8  N3  UNL     1      16.977  -0.414  12.897  1.00  0.00    -0.052 N 
ATOM      9  H33 UNL     1      17.763  -1.063  12.942  1.00  0.00     0.277 HD
ATOM     10  H32 UNL     1      16.951  -0.204  13.895  1.00  0.00     0.277 HD
ATOM     11  H31 UNL     1      16.117  -0.824  12.533  1.00  0.00     0.277 HD
ENDBRANCH   5   8
ENDBRANCH   3   5
BRANCH   1  12
HETATM   12  C2  UNL     1      16.284   2.647  14.947  1.00  0.00     0.034 C 
HETATM   13  C1  UNL     1      17.483   3.543  14.926  1.00  0.00     0.039 C 
HETATM   14  C3  UNL     1      15.025   3.456  14.608  1.00  0.00     0.039 C 
HETATM   15  C4  UNL     1      16.112   1.925  16.267  1.00  0.00     0.039 C 
ENDBRANCH   1  12
TORSDOF 3
ENDMDL
MODEL 5
REMARK VINA RESULT: -4.908460180      0.029      1.371
REMARK  3 active torsions:
REMARK  status: ('A' for Active; 'I' for Inactive)
REMARK    1  A    between atoms: C2_2  and  N1_5 
REMARK    2  A    between atoms: N2_7  and  C5_9 
REMARK    3  A    between atoms: C5_9  and  N3_12 
ROOT
HETATM    1  N1  UNL     1      16.382   1.692  13.802  1.00  0.00    -0.330 N 
ATOM      2  H1  UNL     1      15.805   0.852  13.767  1.00  0.00     0.180 HD
HETATM    3  N2  UNL     1      17.234   1.927  12.895  1.00  0.00    -0.305 N 
ATOM      4  H2  UNL     1      17.844   2.744  12.863  1.00  0.00     0.182 HD
ENDROOT
BRANCH   3   5
HETATM    5  C5  UNL     1      17.216   0.858  11.901  1.00  0.00     0.200 C 
HETATM    6  C6  UNL     1      18.540   0.916  11.212  1.00  0.00     0.071 C 
HETATM    7  C7  UNL     1      16.874  -0.462  12.492  1.00  0.00     0.071 C 
BRANCH   5   8
HETATM    8  N3  UNL     1      16.120   1.231  10.995  1.00  0.00    -0.052 N 
ATOM      9  H33 UNL     1      15.791   2.190  11.107  1.00  0.00     0.277 HD
ATOM     10  H32 UNL     1      16.397   1.323  10.018  1.00  0.00     0.277 HD
ATOM     11  H31 UNL     1      15.407   0.522  11.164  1.00  0.00     0.277 HD
ENDBRANCH   5   8
ENDBRANCH   3   5
BRANCH   1  12
HETATM   12  C2  UNL     1      16.244   2.623  14.871  1.00  0.00     0.034 C 
HETATM   13  C1  UNL     1      14.977   3.399  14.686  1.00  0.00     0.039 C 
HETATM   14  C3  UNL     1      16.162   1.795  16.161  1.00  0.00     0.039 C 
HETATM   15  C4  UNL     1      17.476   3.502  14.883  1.00  0.00     0.039 C 
ENDBRANCH   1  12
TORSDOF 3
ENDMDL
