MODEL 1
REMARK VINA RESULT: -6.011445422      0.000      0.000
REMARK  0 active torsions:
REMARK  status: ('A' for Active; 'I' for Inactive)
ROOT
HETATM    1  C1  UNL     1      14.251   3.933  16.763  1.00  0.00     0.000 C 
HETATM    2  C2  UNL     1      14.657   2.555  16.889  1.00  0.00     0.002 C 
HETATM    3  C3  UNL     1      14.290   1.552  17.886  1.00  0.00     0.021 C 
HETATM    4  C4  UNL     1      14.903   0.265  17.264  1.00  0.00     0.141 C 
HETATM    5  N1  UNL     1      16.187   0.432  16.683  1.00  0.00    -0.322 N 
ATOM      6  H1  UNL     1      16.891   0.141  17.360  1.00  0.00     0.181 HD
HETATM    7  N2  UNL     1      16.729   0.784  15.702  1.00  0.00    -0.252 N 
ATOM      8  H2  UNL     1      17.727   0.674  15.880  1.00  0.00     0.207 HD
HETATM    9  N3  UNL     1      16.627   1.269  14.446  1.00  0.00    -0.322 N 
ATOM     10  H3  UNL     1      17.075   0.719  13.715  1.00  0.00     0.181 HD
HETATM   11  C5  UNL     1      15.943   2.499  14.007  1.00  0.00     0.141 C 
HETATM   12  C6  UNL     1      16.038   3.661  14.929  1.00  0.00     0.021 C 
HETATM   13  C7  UNL     1      14.787   4.329  15.365  1.00  0.00     0.002 C 
ENDROOT
TORSDOF 0
ENDMDL
MODEL 2
REMARK VINA RESULT: -5.970959010      0.876      3.045
REMARK  0 active torsions:
REMARK  status: ('A' for Active; 'I' for Inactive)
ROOT
HETATM    1  C1  UNL     1      14.079   3.503  16.821  1.00  0.00     0.000 C 
HETATM    2  C2  UNL     1      15.135   3.302  15.861  1.00  0.00     0.002 C 
HETATM    3  C3  UNL     1      15.773   4.248  14.949  1.00  0.00     0.021 C 
HETATM    4  C4  UNL     1      16.957   3.398  14.405  1.00  0.00     0.141 C 
HETATM    5  N1  UNL     1      16.642   2.046  14.116  1.00  0.00    -0.322 N 
ATOM      6  H1  UNL     1      16.449   1.962  13.118  1.00  0.00     0.181 HD
HETATM    7  N2  UNL     1      16.523   0.987  14.612  1.00  0.00    -0.252 N 
ATOM      8  H2  UNL     1      16.264   0.352  13.858  1.00  0.00     0.207 HD
HETATM    9  N3  UNL     1      16.575   0.234  15.731  1.00  0.00    -0.322 N 
ATOM     10  H3  UNL     1      17.194  -0.576  15.698  1.00  0.00     0.181 HD
HETATM   11  C5  UNL     1      15.844   0.442  16.994  1.00  0.00     0.141 C 
HETATM   12  C6  UNL     1      14.455   0.956  16.865  1.00  0.00     0.021 C 
HETATM   13  C7  UNL     1      14.074   2.176  17.619  1.00  0.00     0.002 C 
ENDROOT
TORSDOF 0
ENDMDL
MODEL 3
REMARK VINA RESULT: -5.813211047      0.851      1.099
REMARK  0 active torsions:
REMARK  status: ('A' for Active; 'I' for Inactive)
ROOT
HETATM    1  C1  UNL     1      14.835   4.631  15.440  1.00  0.00     0.000 C 
HETATM    2  C2  UNL     1      14.856   3.275  15.929  1.00  0.00     0.002 C 
HETATM    3  C3  UNL     1      14.144   2.667  17.050  1.00  0.00     0.021 C 
HETATM    4  C4  UNL     1      14.462   1.160  16.831  1.00  0.00     0.141 C 
HETATM    5  N1  UNL     1      15.796   0.878  16.439  1.00  0.00    -0.322 N 
ATOM      6  H1  UNL     1      16.331   0.615  17.267  1.00  0.00     0.181 HD
HETATM    7  N2  UNL     1      16.506   0.838  15.504  1.00  0.00    -0.252 N 
ATOM      8  H2  UNL     1      17.419   0.553  15.857  1.00  0.00     0.207 HD
HETATM    9  N3  UNL     1      16.658   1.001  14.172  1.00  0.00    -0.322 N 
ATOM     10  H3  UNL     1      17.019   0.197  13.660  1.00  0.00     0.181 HD
HETATM   11  C5  UNL     1      16.364   2.203  13.371  1.00  0.00     0.141 C 
HETATM   12  C6  UNL     1      16.664   3.507  14.018  1.00  0.00     0.021 C 
HETATM   13  C7  UNL     1      15.592   4.530  14.093  1.00  0.00     0.002 C 
ENDROOT
TORSDOF 0
ENDMDL
MODEL 4
REMARK VINA RESULT: -5.444715381      1.271      3.352
REMARK  0 active torsions:
REMARK  status: ('A' for Active; 'I' for Inactive)
ROOT
HETATM    1  C1  UNL     1      14.760   5.011  15.621  1.00  0.00     0.000 C 
HETATM    2  C2  UNL     1      15.832   4.411  14.866  1.00  0.00     0.002 C 
HETATM    3  C3  UNL     1      16.771   5.013  13.923  1.00  0.00     0.021 C 
HETATM    4  C4  UNL     1      17.766   3.839  13.693  1.00  0.00     0.141 C 
HETATM    5  N1  UNL     1      17.168   2.559  13.571  1.00  0.00    -0.322 N 
ATOM      6  H1  UNL     1      17.067   2.339  12.580  1.00  0.00     0.181 HD
HETATM    7  N2  UNL     1      16.746   1.661  14.201  1.00  0.00    -0.252 N 
ATOM      8  H2  UNL     1      16.423   0.971  13.523  1.00  0.00     0.207 HD
HETATM    9  N3  UNL     1      16.497   1.131  15.417  1.00  0.00    -0.322 N 
ATOM     10  H3  UNL     1      16.903   0.214  15.599  1.00  0.00     0.181 HD
HETATM   11  C5  UNL     1      15.708   1.721  16.513  1.00  0.00     0.141 C 
HETATM   12  C6  UNL     1      14.505   2.495  16.107  1.00  0.00     0.021 C 
HETATM   13  C7  UNL     1      14.351   3.885  16.603  1.00  0.00     0.002 C 
ENDROOT
TORSDOF 0
ENDMDL
MODEL 5
REMARK VINA RESULT: -5.238267418      1.155      1.708
REMARK  0 active torsions:
REMARK  status: ('A' for Active; 'I' for Inactive)
ROOT
HETATM    1  C1  UNL     1      15.824   4.168  14.994  1.00  0.00     0.000 C 
HETATM    2  C2  UNL     1      15.750   2.831  15.529  1.00  0.00     0.002 C 
HETATM    3  C3  UNL     1      15.243   2.358  16.814  1.00  0.00     0.021 C 
HETATM    4  C4  UNL     1      15.261   0.817  16.601  1.00  0.00     0.141 C 
HETATM    5  N1  UNL     1      16.401   0.318  15.920  1.00  0.00    -0.322 N 
ATOM      6  H1  UNL     1      17.071  -0.020  16.610  1.00  0.00     0.181 HD
HETATM    7  N2  UNL     1      16.850   0.155  14.847  1.00  0.00    -0.252 N 
ATOM      8  H2  UNL     1      17.765  -0.272  14.989  1.00  0.00     0.207 HD
HETATM    9  N3  UNL     1      16.701   0.277  13.511  1.00  0.00    -0.322 N 
ATOM     10  H3  UNL     1      16.799  -0.580  12.968  1.00  0.00     0.181 HD
HETATM   11  C5  UNL     1      16.414   1.503  12.743  1.00  0.00     0.141 C 
HETATM   12  C6  UNL     1      17.060   2.747  13.238  1.00  0.00     0.021 C 
HETATM   13  C7  UNL     1      16.209   3.931  13.513  1.00  0.00     0.002 C 
ENDROOT
TORSDOF 0
ENDMDL
