MODEL 1
REMARK VINA RESULT: -4.131472996      0.000      0.000
REMARK  1 active torsions:
REMARK  status: ('A' for Active; 'I' for Inactive)
REMARK    1  A    between atoms: O1_1  and  C1_3 
ROOT
HETATM    1  C1  UNL     1      17.964  -0.393  10.655  1.00  0.00     0.190 C 
HETATM    2  C2  UNL     1      16.637   0.018  11.225  1.00  0.00     0.043 C 
HETATM    3  C3  UNL     1      16.758   0.735  12.549  1.00  0.00     0.004 C 
HETATM    4  C4  UNL     1      16.338   2.186  12.458  1.00  0.00     0.011 C 
HETATM    5  C5  UNL     1      17.530   3.111  12.435  1.00  0.00     0.086 C 
HETATM    6  S1  UNL     1      18.672   2.760  11.099  1.00  0.00    -0.095 SA
HETATM    7  S2  UNL     1      19.276   0.760  10.991  1.00  0.00    -0.066 SA
ENDROOT
BRANCH   1   8
HETATM    8  O1  UNL     1      17.794  -0.684   9.312  1.00  0.00    -0.384 OA
ATOM      9  H1  UNL     1      17.033  -1.245   9.218  1.00  0.00     0.211 HD
ENDBRANCH   1   8
TORSDOF 1
ENDMDL
MODEL 2
REMARK VINA RESULT: -4.114535483      2.276      2.927
REMARK  1 active torsions:
REMARK  status: ('A' for Active; 'I' for Inactive)
REMARK    1  A    between atoms: O1_1  and  C1_3 
ROOT
HETATM    1  C1  UNL     1      16.775   0.213  12.288  1.00  0.00     0.190 C 
HETATM    2  C2  UNL     1      18.015  -0.362  11.667  1.00  0.00     0.043 C 
HETATM    3  C3  UNL     1      18.405   0.325  10.380  1.00  0.00     0.004 C 
HETATM    4  C4  UNL     1      19.708   1.084  10.504  1.00  0.00     0.011 C 
HETATM    5  C5  UNL     1      19.478   2.570  10.625  1.00  0.00     0.086 C 
HETATM    6  S1  UNL     1      18.421   3.014  12.003  1.00  0.00    -0.095 SA
HETATM    7  S2  UNL     1      16.610   1.970  12.064  1.00  0.00    -0.066 SA
ENDROOT
BRANCH   1   8
HETATM    8  O1  UNL     1      16.712  -0.200  13.608  1.00  0.00    -0.384 OA
ATOM      9  H1  UNL     1      16.790   0.565  14.167  1.00  0.00     0.211 HD
ENDBRANCH   1   8
TORSDOF 1
ENDMDL
MODEL 3
REMARK VINA RESULT: -3.950713727      1.254      1.646
REMARK  1 active torsions:
REMARK  status: ('A' for Active; 'I' for Inactive)
REMARK    1  A    between atoms: O1_1  and  C1_3 
ROOT
HETATM    1  C1  UNL     1      16.594   0.121  10.819  1.00  0.00     0.190 C 
HETATM    2  C2  UNL     1      16.219   1.501  11.280  1.00  0.00     0.043 C 
HETATM    3  C3  UNL     1      17.043   1.976  12.453  1.00  0.00     0.004 C 
HETATM    4  C4  UNL     1      17.940   3.140  12.092  1.00  0.00     0.011 C 
HETATM    5  C5  UNL     1      19.375   2.705  11.923  1.00  0.00     0.086 C 
HETATM    6  S1  UNL     1      19.585   1.417  10.695  1.00  0.00    -0.095 SA
HETATM    7  S2  UNL     1      18.331  -0.236  10.964  1.00  0.00    -0.066 SA
ENDROOT
BRANCH   1   8
HETATM    8  O1  UNL     1      16.079  -0.073   9.548  1.00  0.00    -0.384 OA
ATOM      9  H1  UNL     1      16.099  -1.002   9.354  1.00  0.00     0.211 HD
ENDBRANCH   1   8
TORSDOF 1
ENDMDL
MODEL 4
REMARK VINA RESULT: -3.943357197      2.592      3.756
REMARK  1 active torsions:
REMARK  status: ('A' for Active; 'I' for Inactive)
REMARK    1  A    between atoms: O1_1  and  C1_3 
ROOT
HETATM    1  C1  UNL     1      17.167   3.226  11.352  1.00  0.00     0.190 C 
HETATM    2  C2  UNL     1      18.493   2.905  10.724  1.00  0.00     0.043 C 
HETATM    3  C3  UNL     1      19.236   1.803  11.441  1.00  0.00     0.004 C 
HETATM    4  C4  UNL     1      19.365   0.553  10.598  1.00  0.00     0.011 C 
HETATM    5  C5  UNL     1      18.397  -0.518  11.036  1.00  0.00     0.086 C 
HETATM    6  S1  UNL     1      16.687   0.018  11.008  1.00  0.00    -0.095 SA
HETATM    7  S2  UNL     1      16.334   1.808  12.031  1.00  0.00    -0.066 SA
ENDROOT
BRANCH   1   8
HETATM    8  O1  UNL     1      16.413   3.946  10.441  1.00  0.00    -0.384 OA
ATOM      9  H1  UNL     1      15.934   4.619  10.912  1.00  0.00     0.211 HD
ENDBRANCH   1   8
TORSDOF 1
ENDMDL
MODEL 5
REMARK VINA RESULT: -3.911546916      2.257      3.210
REMARK  1 active torsions:
REMARK  status: ('A' for Active; 'I' for Inactive)
REMARK    1  A    between atoms: O1_1  and  C1_3 
ROOT
HETATM    1  C1  UNL     1      19.392   2.657  11.598  1.00  0.00     0.190 C 
HETATM    2  C2  UNL     1      17.981   2.896  12.054  1.00  0.00     0.043 C 
HETATM    3  C3  UNL     1      16.952   2.512  11.018  1.00  0.00     0.004 C 
HETATM    4  C4  UNL     1      16.111   1.331  11.451  1.00  0.00     0.011 C 
HETATM    5  C5  UNL     1      16.533   0.061  10.754  1.00  0.00     0.086 C 
HETATM    6  S1  UNL     1      18.261  -0.343  11.002  1.00  0.00    -0.095 SA
HETATM    7  S2  UNL     1      19.579   1.222  10.564  1.00  0.00    -0.066 SA
ENDROOT
BRANCH   1   8
HETATM    8  O1  UNL     1      20.220   2.669  12.708  1.00  0.00    -0.384 OA
ATOM      9  H1  UNL     1      21.114   2.524  12.418  1.00  0.00     0.211 HD
ENDBRANCH   1   8
TORSDOF 1
ENDMDL
