MODEL 1
REMARK VINA RESULT: -4.658547249      0.000      0.000
REMARK  1 active torsions:
REMARK  status: ('A' for Active; 'I' for Inactive)
REMARK    1  A    between atoms: N1_2  and  C1_4 
ROOT
HETATM    1  C1  UNL     1      15.786   1.899  16.729  1.00  0.00     0.126 A 
HETATM    2  S1  UNL     1      17.068   1.373  15.739  1.00  0.00     0.007 SA
HETATM    3  N2  UNL     1      17.394   2.814  14.948  1.00  0.00    -0.314 N 
ATOM      4  H2  UNL     1      18.106   2.984  14.238  1.00  0.00     0.175 HD
HETATM    5  C2  UNL     1      16.520   3.689  15.446  1.00  0.00     0.134 A 
HETATM    6 CL2  UNL     1      16.533   5.381  14.855  1.00  0.00    -0.062 Cl
HETATM    7  C3  UNL     1      15.663   3.221  16.389  1.00  0.00     0.109 A 
HETATM    8 CL3  UNL     1      14.414   4.239  17.180  1.00  0.00    -0.078 Cl
ENDROOT
BRANCH   1   9
HETATM    9  N1  UNL     1      15.001   1.163  17.697  1.00  0.00    -0.290 N 
HETATM   10 CL1  UNL     1      13.356   0.830  17.275  1.00  0.00     0.011 Cl
ATOM     11  H1  UNL     1      15.399   0.854  18.584  1.00  0.00     0.181 HD
ENDBRANCH   1   9
TORSDOF 1
ENDMDL
MODEL 2
REMARK VINA RESULT: -4.622966181      2.309      3.148
REMARK  1 active torsions:
REMARK  status: ('A' for Active; 'I' for Inactive)
REMARK    1  A    between atoms: N1_2  and  C1_4 
ROOT
HETATM    1  C1  UNL     1      16.170   0.969  16.323  1.00  0.00     0.126 A 
HETATM    2  S1  UNL     1      15.084   0.495  17.547  1.00  0.00     0.007 SA
HETATM    3  N2  UNL     1      14.401   1.988  17.882  1.00  0.00    -0.314 N 
ATOM      4  H2  UNL     1      13.679   2.199  18.569  1.00  0.00     0.175 HD
HETATM    5  C2  UNL     1      15.008   2.840  17.056  1.00  0.00     0.134 A 
HETATM    6 CL2  UNL     1      14.559   4.575  17.093  1.00  0.00    -0.062 Cl
HETATM    7  C3  UNL     1      15.946   2.317  16.225  1.00  0.00     0.109 A 
HETATM    8 CL3  UNL     1      16.873   3.297  15.041  1.00  0.00    -0.078 Cl
ENDROOT
BRANCH   1   9
HETATM    9  N1  UNL     1      17.107   0.174  15.558  1.00  0.00    -0.290 N 
HETATM   10 CL1  UNL     1      16.807   0.036  13.859  1.00  0.00     0.011 Cl
ATOM     11  H1  UNL     1      17.905  -0.283  15.999  1.00  0.00     0.181 HD
ENDBRANCH   1   9
TORSDOF 1
ENDMDL
MODEL 3
REMARK VINA RESULT: -4.589095064      2.453      3.252
REMARK  1 active torsions:
REMARK  status: ('A' for Active; 'I' for Inactive)
REMARK    1  A    between atoms: N1_2  and  C1_4 
ROOT
HETATM    1  C1  UNL     1      16.473   1.575  15.273  1.00  0.00     0.126 A 
HETATM    2  S1  UNL     1      16.750   3.160  14.715  1.00  0.00     0.007 SA
HETATM    3  N2  UNL     1      15.976   4.005  15.937  1.00  0.00    -0.314 N 
ATOM      4  H2  UNL     1      15.882   5.016  16.028  1.00  0.00     0.175 HD
HETATM    5  C2  UNL     1      15.510   3.070  16.765  1.00  0.00     0.134 A 
HETATM    6 CL2  UNL     1      14.603   3.562  18.230  1.00  0.00    -0.062 Cl
HETATM    7  C3  UNL     1      15.765   1.779  16.427  1.00  0.00     0.109 A 
HETATM    8 CL3  UNL     1      15.223   0.377  17.408  1.00  0.00    -0.078 Cl
ENDROOT
BRANCH   1   9
HETATM    9  N1  UNL     1      16.871   0.308  14.696  1.00  0.00    -0.290 N 
HETATM   10 CL1  UNL     1      16.856   0.199  12.969  1.00  0.00     0.011 Cl
ATOM     11  H1  UNL     1      17.147  -0.481  15.279  1.00  0.00     0.181 HD
ENDBRANCH   1   9
TORSDOF 1
ENDMDL
MODEL 4
REMARK VINA RESULT: -4.489424011      1.160      1.160
REMARK  1 active torsions:
REMARK  status: ('A' for Active; 'I' for Inactive)
REMARK    1  A    between atoms: N1_2  and  C1_4 
ROOT
HETATM    1  C1  UNL     1      15.485   1.881  16.456  1.00  0.00     0.126 A 
HETATM    2  S1  UNL     1      16.591   0.850  15.673  1.00  0.00     0.007 SA
HETATM    3  N2  UNL     1      17.368   1.983  14.713  1.00  0.00    -0.314 N 
ATOM      4  H2  UNL     1      18.128   1.820  14.053  1.00  0.00     0.175 HD
HETATM    5  C2  UNL     1      16.776   3.143  14.997  1.00  0.00     0.134 A 
HETATM    6 CL2  UNL     1      17.320   4.637  14.170  1.00  0.00    -0.062 Cl
HETATM    7  C3  UNL     1      15.778   3.106  15.918  1.00  0.00     0.109 A 
HETATM    8 CL3  UNL     1      14.859   4.558  16.436  1.00  0.00    -0.078 Cl
ENDROOT
BRANCH   1   9
HETATM    9  N1  UNL     1      14.475   1.573  17.447  1.00  0.00    -0.290 N 
HETATM   10 CL1  UNL     1      14.751   2.165  19.050  1.00  0.00     0.011 Cl
ATOM     11  H1  UNL     1      13.642   1.034  17.212  1.00  0.00     0.181 HD
ENDBRANCH   1   9
TORSDOF 1
ENDMDL
MODEL 5
REMARK VINA RESULT: -4.418711014      1.749      3.437
REMARK  1 active torsions:
REMARK  status: ('A' for Active; 'I' for Inactive)
REMARK    1  A    between atoms: N1_2  and  C1_4 
ROOT
HETATM    1  C1  UNL     1      16.840   2.351  15.098  1.00  0.00     0.126 A 
HETATM    2  S1  UNL     1      16.626   0.832  15.839  1.00  0.00     0.007 SA
HETATM    3  N2  UNL     1      15.671   1.305  17.132  1.00  0.00    -0.314 N 
ATOM      4  H2  UNL     1      15.288   0.713  17.869  1.00  0.00     0.175 HD
HETATM    5  C2  UNL     1      15.521   2.622  16.990  1.00  0.00     0.134 A 
HETATM    6 CL2  UNL     1      14.548   3.534  18.188  1.00  0.00    -0.062 Cl
HETATM    7  C3  UNL     1      16.133   3.190  15.919  1.00  0.00     0.109 A 
HETATM    8 CL3  UNL     1      16.053   4.946  15.553  1.00  0.00    -0.078 Cl
ENDROOT
BRANCH   1   9
HETATM    9  N1  UNL     1      17.576   2.702  13.903  1.00  0.00    -0.290 N 
HETATM   10 CL1  UNL     1      17.307   1.717  12.505  1.00  0.00     0.011 Cl
ATOM     11  H1  UNL     1      18.221   3.492  13.885  1.00  0.00     0.181 HD
ENDBRANCH   1   9
TORSDOF 1
ENDMDL
