MODEL 1
REMARK VINA RESULT: -5.599699102      0.000      0.000
REMARK  4 active torsions:
REMARK  status: ('A' for Active; 'I' for Inactive)
REMARK    1  A    between atoms: N1_1  and  N2_4 
REMARK    2  A    between atoms: N3_6  and  C1_8 
REMARK    3  A    between atoms: C1_8  and  C2_13 
REMARK    4  A    between atoms: N4_9  and  O1_11 
ROOT
HETATM    1  C1  UNL     1      15.934   1.829  16.622  1.00  0.00     0.172 C 
HETATM    2  N4  UNL     1      16.285   0.594  16.682  1.00  0.00    -0.252 N 
ATOM      3  H4  UNL     1      15.705  -0.064  17.204  1.00  0.00     0.195 HD
ENDROOT
BRANCH   1   4
HETATM    4  N3  UNL     1      16.742   2.707  15.904  1.00  0.00    -0.270 N 
HETATM    5  N2  UNL     1      16.832   2.648  14.684  1.00  0.00    -0.248 N 
ATOM      6  H2  UNL     1      16.010   3.121  14.308  1.00  0.00     0.207 HD
ATOM      7  H3  UNL     1      17.271   3.419  16.407  1.00  0.00     0.190 HD
BRANCH   5   8
HETATM    8  N1  UNL     1      17.500   2.257  13.702  1.00  0.00    -0.331 N 
ATOM      9  H12 UNL     1      17.607   3.086  13.116  1.00  0.00     0.178 HD
ATOM     10  H11 UNL     1      17.972   1.476  13.247  1.00  0.00     0.178 HD
ENDBRANCH   5   8
ENDBRANCH   1   4
BRANCH   1  11
HETATM   11  C2  UNL     1      14.690   2.228  17.327  1.00  0.00     0.249 C 
HETATM   12 CL1  UNL     1      13.328   1.160  16.887  1.00  0.00    -0.075 Cl
HETATM   13 CL2  UNL     1      14.289   3.911  16.939  1.00  0.00    -0.075 Cl
HETATM   14 CL3  UNL     1      14.892   2.135  19.091  1.00  0.00    -0.075 Cl
ENDBRANCH   1  11
BRANCH   2  15
HETATM   15  O1  UNL     1      17.403   0.147  16.070  1.00  0.00    -0.288 OA
ATOM     16  H1  UNL     1      17.562  -0.781  15.941  1.00  0.00     0.244 HD
ENDBRANCH   2  15
TORSDOF 4
ENDMDL
MODEL 2
REMARK VINA RESULT: -5.565943494      0.033      1.581
REMARK  4 active torsions:
REMARK  status: ('A' for Active; 'I' for Inactive)
REMARK    1  A    between atoms: N1_1  and  N2_4 
REMARK    2  A    between atoms: N3_6  and  C1_8 
REMARK    3  A    between atoms: C1_8  and  C2_13 
REMARK    4  A    between atoms: N4_9  and  O1_11 
ROOT
HETATM    1  C1  UNL     1      15.936   1.834  16.622  1.00  0.00     0.172 C 
HETATM    2  N4  UNL     1      16.288   0.601  16.698  1.00  0.00    -0.252 N 
ATOM      3  H4  UNL     1      15.712  -0.050  17.233  1.00  0.00     0.195 HD
ENDROOT
BRANCH   1   4
HETATM    4  N3  UNL     1      16.739   2.703  15.887  1.00  0.00    -0.270 N 
HETATM    5  N2  UNL     1      16.820   2.629  14.667  1.00  0.00    -0.248 N 
ATOM      6  H2  UNL     1      15.995   3.099  14.292  1.00  0.00     0.207 HD
ATOM      7  H3  UNL     1      17.273   3.420  16.378  1.00  0.00     0.190 HD
BRANCH   5   8
HETATM    8  N1  UNL     1      17.478   2.226  13.684  1.00  0.00    -0.331 N 
ATOM      9  H12 UNL     1      17.853   3.074  13.259  1.00  0.00     0.178 HD
ATOM     10  H11 UNL     1      17.793   1.423  13.139  1.00  0.00     0.178 HD
ENDBRANCH   5   8
ENDBRANCH   1   4
BRANCH   1  11
HETATM   11  C2  UNL     1      14.694   2.242  17.326  1.00  0.00     0.249 C 
HETATM   12 CL1  UNL     1      14.241   3.921  16.916  1.00  0.00    -0.075 Cl
HETATM   13 CL2  UNL     1      14.913   2.086  19.079  1.00  0.00    -0.075 Cl
HETATM   14 CL3  UNL     1      13.327   1.197  16.878  1.00  0.00    -0.075 Cl
ENDBRANCH   1  11
BRANCH   2  15
HETATM   15  O1  UNL     1      17.404   0.146  16.088  1.00  0.00    -0.288 OA
ATOM     16  H1  UNL     1      17.748  -0.722  16.264  1.00  0.00     0.244 HD
ENDBRANCH   2  15
TORSDOF 4
ENDMDL
MODEL 3
REMARK VINA RESULT: -5.551238771      0.083      1.604
REMARK  4 active torsions:
REMARK  status: ('A' for Active; 'I' for Inactive)
REMARK    1  A    between atoms: N1_1  and  N2_4 
REMARK    2  A    between atoms: N3_6  and  C1_8 
REMARK    3  A    between atoms: C1_8  and  C2_13 
REMARK    4  A    between atoms: N4_9  and  O1_11 
ROOT
HETATM    1  C1  UNL     1      15.922   1.783  16.645  1.00  0.00     0.172 C 
HETATM    2  N4  UNL     1      16.268   0.546  16.673  1.00  0.00    -0.252 N 
ATOM      3  H4  UNL     1      15.684  -0.124  17.174  1.00  0.00     0.195 HD
ENDROOT
BRANCH   1   4
HETATM    4  N3  UNL     1      16.736   2.678  15.955  1.00  0.00    -0.270 N 
HETATM    5  N2  UNL     1      16.827   2.656  14.734  1.00  0.00    -0.248 N 
ATOM      6  H2  UNL     1      16.008   3.146  14.372  1.00  0.00     0.207 HD
ATOM      7  H3  UNL     1      17.270   3.370  16.481  1.00  0.00     0.190 HD
BRANCH   5   8
HETATM    8  N1  UNL     1      17.493   2.291  13.741  1.00  0.00    -0.331 N 
ATOM      9  H12 UNL     1      18.438   2.153  14.099  1.00  0.00     0.178 HD
ATOM     10  H11 UNL     1      17.490   2.077  12.743  1.00  0.00     0.178 HD
ENDBRANCH   5   8
ENDBRANCH   1   4
BRANCH   1  11
HETATM   11  C2  UNL     1      14.677   2.167  17.356  1.00  0.00     0.249 C 
HETATM   12 CL1  UNL     1      14.916   2.164  19.126  1.00  0.00    -0.075 Cl
HETATM   13 CL2  UNL     1      13.364   1.058  16.920  1.00  0.00    -0.075 Cl
HETATM   14 CL3  UNL     1      14.151   3.802  16.893  1.00  0.00    -0.075 Cl
ENDBRANCH   1  11
BRANCH   2  15
HETATM   15  O1  UNL     1      17.387   0.111  16.053  1.00  0.00    -0.288 OA
ATOM     16  H1  UNL     1      18.218   0.055  16.510  1.00  0.00     0.244 HD
ENDBRANCH   2  15
TORSDOF 4
ENDMDL
MODEL 4
REMARK VINA RESULT: -5.131259892      1.680      2.424
REMARK  4 active torsions:
REMARK  status: ('A' for Active; 'I' for Inactive)
REMARK    1  A    between atoms: N1_1  and  N2_4 
REMARK    2  A    between atoms: N3_6  and  C1_8 
REMARK    3  A    between atoms: C1_8  and  C2_13 
REMARK    4  A    between atoms: N4_9  and  O1_11 
ROOT
HETATM    1  C1  UNL     1      16.666   2.923  15.495  1.00  0.00     0.172 C 
HETATM    2  N4  UNL     1      16.728   1.911  16.284  1.00  0.00    -0.252 N 
ATOM      3  H4  UNL     1      16.031   1.811  17.023  1.00  0.00     0.195 HD
ENDROOT
BRANCH   1   4
HETATM    4  N3  UNL     1      17.629   3.038  14.496  1.00  0.00    -0.270 N 
HETATM    5  N2  UNL     1      17.542   2.417  13.443  1.00  0.00    -0.248 N 
ATOM      6  H2  UNL     1      16.890   2.935  12.853  1.00  0.00     0.207 HD
ATOM      7  H3  UNL     1      18.427   3.655  14.643  1.00  0.00     0.190 HD
BRANCH   5   8
HETATM    8  N1  UNL     1      17.909   1.422  12.782  1.00  0.00    -0.331 N 
ATOM      9  H12 UNL     1      17.531   0.621  13.289  1.00  0.00     0.178 HD
ATOM     10  H11 UNL     1      18.416   1.078  11.966  1.00  0.00     0.178 HD
ENDBRANCH   5   8
ENDBRANCH   1   4
BRANCH   1  11
HETATM   11  C2  UNL     1      15.569   3.900  15.711  1.00  0.00     0.249 C 
HETATM   12 CL1  UNL     1      14.785   3.651  17.297  1.00  0.00    -0.075 Cl
HETATM   13 CL2  UNL     1      14.368   3.757  14.414  1.00  0.00    -0.075 Cl
HETATM   14 CL3  UNL     1      16.178   5.570  15.674  1.00  0.00    -0.075 Cl
ENDBRANCH   1  11
BRANCH   2  15
HETATM   15  O1  UNL     1      17.695   0.975  16.158  1.00  0.00    -0.288 OA
ATOM     16  H1  UNL     1      17.758   0.242  16.759  1.00  0.00     0.244 HD
ENDBRANCH   2  15
TORSDOF 4
ENDMDL
MODEL 5
REMARK VINA RESULT: -5.111326766      1.690      2.719
REMARK  4 active torsions:
REMARK  status: ('A' for Active; 'I' for Inactive)
REMARK    1  A    between atoms: N1_1  and  N2_4 
REMARK    2  A    between atoms: N3_6  and  C1_8 
REMARK    3  A    between atoms: C1_8  and  C2_13 
REMARK    4  A    between atoms: N4_9  and  O1_11 
ROOT
HETATM    1  C1  UNL     1      16.685   2.938  15.481  1.00  0.00     0.172 C 
HETATM    2  N4  UNL     1      16.747   1.933  16.280  1.00  0.00    -0.252 N 
ATOM      3  H4  UNL     1      16.056   1.845  17.025  1.00  0.00     0.195 HD
ENDROOT
BRANCH   1   4
HETATM    4  N3  UNL     1      17.640   3.037  14.473  1.00  0.00    -0.270 N 
HETATM    5  N2  UNL     1      17.541   2.404  13.428  1.00  0.00    -0.248 N 
ATOM      6  H2  UNL     1      16.887   2.918  12.838  1.00  0.00     0.207 HD
ATOM      7  H3  UNL     1      18.442   3.653  14.606  1.00  0.00     0.190 HD
BRANCH   5   8
HETATM    8  N1  UNL     1      17.899   1.400  12.776  1.00  0.00    -0.331 N 
ATOM      9  H12 UNL     1      18.815   1.158  13.154  1.00  0.00     0.178 HD
ATOM     10  H11 UNL     1      17.666   0.733  12.040  1.00  0.00     0.178 HD
ENDBRANCH   5   8
ENDBRANCH   1   4
BRANCH   1  11
HETATM   11  C2  UNL     1      15.595   3.924  15.696  1.00  0.00     0.249 C 
HETATM   12 CL1  UNL     1      16.218   5.597  15.640  1.00  0.00    -0.075 Cl
HETATM   13 CL2  UNL     1      14.806   3.624  17.255  1.00  0.00    -0.075 Cl
HETATM   14 CL3  UNL     1      14.342   3.780  14.443  1.00  0.00    -0.075 Cl
ENDBRANCH   1  11
BRANCH   2  15
HETATM   15  O1  UNL     1      17.707   0.991  16.155  1.00  0.00    -0.288 OA
ATOM     16  H1  UNL     1      17.747   0.419  15.398  1.00  0.00     0.244 HD
ENDBRANCH   2  15
TORSDOF 4
ENDMDL
