MODEL 1
REMARK VINA RESULT: -5.526354797      0.000      0.000
REMARK  0 active torsions:
REMARK  status: ('A' for Active; 'I' for Inactive)
ROOT
HETATM    1  S1  UNL     1      16.866   2.539  11.833  1.00  0.00    -0.052 SA
HETATM    2  C1  UNL     1      16.324   2.377  13.396  1.00  0.00     0.144 A 
HETATM    3  N1  UNL     1      16.559   1.357  14.222  1.00  0.00    -0.327 N 
ATOM      4  H1  UNL     1      17.123   0.560  13.928  1.00  0.00     0.169 HD
HETATM    5  C2  UNL     1      16.037   1.413  15.434  1.00  0.00     0.116 A 
HETATM    6  C3  UNL     1      15.295   2.511  15.750  1.00  0.00     0.029 A 
HETATM    7  S2  UNL     1      15.360   3.431  14.321  1.00  0.00    -0.061 SA
HETATM    8  C4  UNL     1      14.676   2.629  17.121  1.00  0.00     0.052 C 
HETATM    9  C5  UNL     1      13.979   1.293  17.408  1.00  0.00     0.025 C 
HETATM   10  C6  UNL     1      15.016   0.222  17.424  1.00  0.00     0.121 C 
HETATM   11  N2  UNL     1      16.129   0.448  16.526  1.00  0.00    -0.375 N 
ATOM     12  H2  UNL     1      16.993  -0.076  16.659  1.00  0.00     0.161 HD
ENDROOT
TORSDOF 0
ENDMDL
MODEL 2
REMARK VINA RESULT: -5.103877757      1.147      1.147
REMARK  0 active torsions:
REMARK  status: ('A' for Active; 'I' for Inactive)
ROOT
HETATM    1  S1  UNL     1      16.997   4.544  12.173  1.00  0.00    -0.052 SA
HETATM    2  C1  UNL     1      16.412   3.883  13.581  1.00  0.00     0.144 A 
HETATM    3  N1  UNL     1      16.854   2.786  14.193  1.00  0.00    -0.327 N 
ATOM      4  H1  UNL     1      17.631   2.246  13.811  1.00  0.00     0.169 HD
HETATM    5  C2  UNL     1      16.253   2.419  15.311  1.00  0.00     0.116 A 
HETATM    6  C3  UNL     1      15.224   3.192  15.755  1.00  0.00     0.029 A 
HETATM    7  S2  UNL     1      15.138   4.414  14.577  1.00  0.00    -0.061 SA
HETATM    8  C4  UNL     1      14.502   2.821  17.028  1.00  0.00     0.052 C 
HETATM    9  C5  UNL     1      14.171   1.326  16.930  1.00  0.00     0.025 C 
HETATM   10  C6  UNL     1      15.454   0.572  16.852  1.00  0.00     0.121 C 
HETATM   11  N2  UNL     1      16.525   1.273  16.175  1.00  0.00    -0.375 N 
ATOM     12  H2  UNL     1      17.487   0.961  16.303  1.00  0.00     0.161 HD
ENDROOT
TORSDOF 0
ENDMDL
MODEL 3
REMARK VINA RESULT: -5.005554502      1.517      1.922
REMARK  0 active torsions:
REMARK  status: ('A' for Active; 'I' for Inactive)
ROOT
HETATM    1  S1  UNL     1      17.178  -0.194  10.733  1.00  0.00    -0.052 SA
HETATM    2  C1  UNL     1      16.822   0.535  12.185  1.00  0.00     0.144 A 
HETATM    3  N1  UNL     1      16.869  -0.025  13.393  1.00  0.00    -0.327 N 
ATOM      4  H1  UNL     1      17.145  -1.000  13.512  1.00  0.00     0.169 HD
HETATM    5  C2  UNL     1      16.547   0.724  14.432  1.00  0.00     0.116 A 
HETATM    6  C3  UNL     1      16.189   2.016  14.190  1.00  0.00     0.029 A 
HETATM    7  S2  UNL     1      16.320   2.130  12.499  1.00  0.00    -0.061 SA
HETATM    8  C4  UNL     1      15.813   2.918  15.340  1.00  0.00     0.052 C 
HETATM    9  C5  UNL     1      14.814   2.138  16.206  1.00  0.00     0.025 C 
HETATM   10  C6  UNL     1      15.505   0.927  16.733  1.00  0.00     0.121 C 
HETATM   11  N2  UNL     1      16.508   0.373  15.849  1.00  0.00    -0.375 N 
ATOM     12  H2  UNL     1      17.202  -0.274  16.223  1.00  0.00     0.161 HD
ENDROOT
TORSDOF 0
ENDMDL
MODEL 4
REMARK VINA RESULT: -4.604358119      2.194      2.911
REMARK  0 active torsions:
REMARK  status: ('A' for Active; 'I' for Inactive)
ROOT
HETATM    1  S1  UNL     1      17.008  -0.093  11.807  1.00  0.00    -0.052 SA
HETATM    2  C1  UNL     1      16.727   1.279  12.703  1.00  0.00     0.144 A 
HETATM    3  N1  UNL     1      16.292   1.337  13.961  1.00  0.00    -0.327 N 
ATOM      4  H1  UNL     1      16.090   0.487  14.489  1.00  0.00     0.169 HD
HETATM    5  C2  UNL     1      16.129   2.531  14.503  1.00  0.00     0.116 A 
HETATM    6  C3  UNL     1      16.420   3.616  13.733  1.00  0.00     0.029 A 
HETATM    7  S2  UNL     1      16.913   2.913  12.266  1.00  0.00    -0.061 SA
HETATM    8  C4  UNL     1      16.255   5.004  14.301  1.00  0.00     0.052 C 
HETATM    9  C5  UNL     1      14.870   5.051  14.960  1.00  0.00     0.025 C 
HETATM   10  C6  UNL     1      14.852   4.058  16.071  1.00  0.00     0.121 C 
HETATM   11  N2  UNL     1      15.669   2.884  15.843  1.00  0.00    -0.375 N 
ATOM     12  H2  UNL     1      15.927   2.293  16.632  1.00  0.00     0.161 HD
ENDROOT
TORSDOF 0
ENDMDL
MODEL 5
REMARK VINA RESULT: -4.592174534      2.434      4.244
REMARK  0 active torsions:
REMARK  status: ('A' for Active; 'I' for Inactive)
ROOT
HETATM    1  S1  UNL     1      15.148   0.640  17.389  1.00  0.00    -0.052 SA
HETATM    2  C1  UNL     1      15.509   1.835  16.290  1.00  0.00     0.144 A 
HETATM    3  N1  UNL     1      16.488   1.821  15.386  1.00  0.00    -0.327 N 
ATOM      4  H1  UNL     1      17.119   1.023  15.306  1.00  0.00     0.169 HD
HETATM    5  C2  UNL     1      16.614   2.873  14.598  1.00  0.00     0.116 A 
HETATM    6  C3  UNL     1      15.732   3.897  14.768  1.00  0.00     0.029 A 
HETATM    7  S2  UNL     1      14.751   3.338  16.040  1.00  0.00    -0.061 SA
HETATM    8  C4  UNL     1      15.828   5.123  13.894  1.00  0.00     0.052 C 
HETATM    9  C5  UNL     1      17.301   5.553  13.895  1.00  0.00     0.025 C 
HETATM   10  C6  UNL     1      18.105   4.452  13.292  1.00  0.00     0.121 C 
HETATM   11  N2  UNL     1      17.586   3.123  13.537  1.00  0.00    -0.375 N 
ATOM     12  H2  UNL     1      17.904   2.346  12.958  1.00  0.00     0.161 HD
ENDROOT
TORSDOF 0
ENDMDL
