MODEL 1
REMARK VINA RESULT: -6.536913779      0.000      0.000
REMARK  0 active torsions:
REMARK  status: ('A' for Active; 'I' for Inactive)
ROOT
HETATM    1  C1  UNL     1      14.855   5.391  15.974  1.00  0.00     0.070 C 
HETATM    2  C2  UNL     1      15.430   4.165  15.276  1.00  0.00     0.025 A 
HETATM    3  N1  UNL     1      15.902   4.301  14.040  1.00  0.00    -0.329 N 
ATOM      4  H1  UNL     1      15.930   5.149  13.473  1.00  0.00     0.174 HD
HETATM    5  S1  UNL     1      16.440   2.766  13.620  1.00  0.00    -0.010 SA
HETATM    6  C3  UNL     1      16.049   1.947  15.062  1.00  0.00     0.076 A 
HETATM    7  C4  UNL     1      16.073   0.722  15.721  1.00  0.00     0.136 A 
HETATM    8  N2  UNL     1      16.590  -0.461  15.147  1.00  0.00    -0.081 NA
HETATM    9  N3  UNL     1      15.536   0.958  16.901  1.00  0.00    -0.346 N 
ATOM     10  H3  UNL     1      15.411   0.251  17.626  1.00  0.00     0.167 HD
HETATM   11  C5  UNL     1      15.173   2.252  17.032  1.00  0.00     0.020 A 
HETATM   12  C6  UNL     1      14.541   2.837  18.241  1.00  0.00     0.069 C 
HETATM   13  C7  UNL     1      15.502   2.921  15.832  1.00  0.00     0.031 A 
ENDROOT
TORSDOF 0
ENDMDL
MODEL 2
REMARK VINA RESULT: -6.412377004      1.960      2.909
REMARK  0 active torsions:
REMARK  status: ('A' for Active; 'I' for Inactive)
ROOT
HETATM    1  C1  UNL     1      14.281   4.348  17.537  1.00  0.00     0.070 C 
HETATM    2  C2  UNL     1      14.662   2.893  17.296  1.00  0.00     0.025 A 
HETATM    3  N1  UNL     1      14.300   1.984  18.198  1.00  0.00    -0.329 N 
ATOM      4  H1  UNL     1      13.782   2.137  19.063  1.00  0.00     0.174 HD
HETATM    5  S1  UNL     1      14.886   0.530  17.593  1.00  0.00    -0.010 SA
HETATM    6  C3  UNL     1      15.604   1.111  16.161  1.00  0.00     0.076 A 
HETATM    7  C4  UNL     1      16.314   0.761  15.017  1.00  0.00     0.136 A 
HETATM    8  N2  UNL     1      16.704  -0.564  14.718  1.00  0.00    -0.081 NA
HETATM    9  N3  UNL     1      16.494   1.893  14.367  1.00  0.00    -0.346 N 
ATOM     10  H3  UNL     1      16.987   1.970  13.477  1.00  0.00     0.167 HD
HETATM   11  C5  UNL     1      15.947   2.938  15.025  1.00  0.00     0.020 A 
HETATM   12  C6  UNL     1      15.978   4.346  14.557  1.00  0.00     0.069 C 
HETATM   13  C7  UNL     1      15.355   2.445  16.210  1.00  0.00     0.031 A 
ENDROOT
TORSDOF 0
ENDMDL
MODEL 3
REMARK VINA RESULT: -6.346635449      1.956      2.771
REMARK  0 active torsions:
REMARK  status: ('A' for Active; 'I' for Inactive)
ROOT
HETATM    1  C1  UNL     1      14.733   5.408  16.136  1.00  0.00     0.070 C 
HETATM    2  C2  UNL     1      14.906   3.921  16.418  1.00  0.00     0.025 A 
HETATM    3  N1  UNL     1      14.394   3.424  17.541  1.00  0.00    -0.329 N 
ATOM      4  H1  UNL     1      13.882   3.925  18.268  1.00  0.00     0.174 HD
HETATM    5  S1  UNL     1      14.779   1.789  17.495  1.00  0.00    -0.010 SA
HETATM    6  C3  UNL     1      15.608   1.756  16.007  1.00  0.00     0.076 A 
HETATM    7  C4  UNL     1      16.288   0.953  15.096  1.00  0.00     0.136 A 
HETATM    8  N2  UNL     1      16.489  -0.433  15.280  1.00  0.00    -0.081 NA
HETATM    9  N3  UNL     1      16.646   1.766  14.124  1.00  0.00    -0.346 N 
ATOM     10  H3  UNL     1      17.166   1.475  13.296  1.00  0.00     0.167 HD
HETATM   11  C5  UNL     1      16.239   3.033  14.358  1.00  0.00     0.020 A 
HETATM   12  C6  UNL     1      16.485   4.184  13.454  1.00  0.00     0.069 C 
HETATM   13  C7  UNL     1      15.553   3.048  15.594  1.00  0.00     0.031 A 
ENDROOT
TORSDOF 0
ENDMDL
MODEL 4
REMARK VINA RESULT: -6.268922315      1.951      2.726
REMARK  0 active torsions:
REMARK  status: ('A' for Active; 'I' for Inactive)
ROOT
HETATM    1  C1  UNL     1      15.302   5.384  14.756  1.00  0.00     0.070 C 
HETATM    2  C2  UNL     1      15.098   4.249  15.752  1.00  0.00     0.025 A 
HETATM    3  N1  UNL     1      14.466   4.513  16.893  1.00  0.00    -0.329 N 
ATOM      4  H1  UNL     1      14.086   5.408  17.203  1.00  0.00     0.174 HD
HETATM    5  S1  UNL     1      14.435   3.045  17.709  1.00  0.00    -0.010 SA
HETATM    6  C3  UNL     1      15.247   2.087  16.558  1.00  0.00     0.076 A 
HETATM    7  C4  UNL     1      15.717   0.811  16.262  1.00  0.00     0.136 A 
HETATM    8  N2  UNL     1      15.568  -0.294  17.129  1.00  0.00    -0.081 NA
HETATM    9  N3  UNL     1      16.277   0.920  15.074  1.00  0.00    -0.346 N 
ATOM     10  H3  UNL     1      16.718   0.147  14.576  1.00  0.00     0.167 HD
HETATM   11  C5  UNL     1      16.193   2.181  14.598  1.00  0.00     0.020 A 
HETATM   12  C6  UNL     1      16.727   2.631  13.288  1.00  0.00     0.069 C 
HETATM   13  C7  UNL     1      15.518   2.966  15.560  1.00  0.00     0.031 A 
ENDROOT
TORSDOF 0
ENDMDL
MODEL 5
REMARK VINA RESULT: -6.267818091      1.300      1.427
REMARK  0 active torsions:
REMARK  status: ('A' for Active; 'I' for Inactive)
ROOT
HETATM    1  C1  UNL     1      15.143   5.197  14.627  1.00  0.00     0.070 C 
HETATM    2  C2  UNL     1      15.453   3.714  14.787  1.00  0.00     0.025 A 
HETATM    3  N1  UNL     1      16.043   3.076  13.780  1.00  0.00    -0.329 N 
ATOM      4  H1  UNL     1      16.326   3.462  12.879  1.00  0.00     0.174 HD
HETATM    5  S1  UNL     1      16.217   1.496  14.323  1.00  0.00    -0.010 SA
HETATM    6  C3  UNL     1      15.519   1.670  15.867  1.00  0.00     0.076 A 
HETATM    7  C4  UNL     1      15.185   1.016  17.050  1.00  0.00     0.136 A 
HETATM    8  N2  UNL     1      15.439  -0.354  17.279  1.00  0.00    -0.081 NA
HETATM    9  N3  UNL     1      14.629   1.940  17.806  1.00  0.00    -0.346 N 
ATOM     10  H3  UNL     1      14.274   1.773  18.748  1.00  0.00     0.167 HD
HETATM   11  C5  UNL     1      14.587   3.137  17.180  1.00  0.00     0.020 A 
HETATM   12  C6  UNL     1      14.022   4.380  17.764  1.00  0.00     0.069 C 
HETATM   13  C7  UNL     1      15.168   2.981  15.902  1.00  0.00     0.031 A 
ENDROOT
TORSDOF 0
ENDMDL
