MODEL 1
REMARK VINA RESULT: -5.103223864      0.000      0.000
REMARK  1 active torsions:
REMARK  status: ('A' for Active; 'I' for Inactive)
REMARK    1  A    between atoms: N1_1  and  N2_4 
ROOT
HETATM    1  N2  UNL     1      16.517   0.675  16.265  1.00  0.00    -0.293 N 
HETATM    2  C1  UNL     1      16.757   2.031  15.977  1.00  0.00     0.087 C 
HETATM    3  C2  UNL     1      15.852   2.642  14.961  1.00  0.00     0.046 C 
HETATM    4  C3  UNL     1      14.998   3.749  15.490  1.00  0.00     0.005 C 
HETATM    5  C4  UNL     1      14.169   3.415  16.662  1.00  0.00     0.001 C 
HETATM    6  C5  UNL     1      13.844   1.981  16.856  1.00  0.00     0.005 C 
HETATM    7  C6  UNL     1      14.809   1.409  17.879  1.00  0.00     0.046 C 
HETATM    8  C7  UNL     1      15.653   0.327  17.298  1.00  0.00     0.087 C 
ENDROOT
BRANCH   1   9
HETATM    9  N1  UNL     1      16.830  -0.245  15.323  1.00  0.00    -0.340 N 
ATOM     10  H12 UNL     1      16.980   0.056  14.361  1.00  0.00     0.177 HD
ATOM     11  H11 UNL     1      17.174  -1.155  15.632  1.00  0.00     0.177 HD
ENDBRANCH   1   9
TORSDOF 1
ENDMDL
MODEL 2
REMARK VINA RESULT: -4.753298448      1.445      2.757
REMARK  1 active torsions:
REMARK  status: ('A' for Active; 'I' for Inactive)
REMARK    1  A    between atoms: N1_1  and  N2_4 
ROOT
HETATM    1  N2  UNL     1      16.776   2.628  15.056  1.00  0.00    -0.293 N 
HETATM    2  C1  UNL     1      16.309   1.315  15.248  1.00  0.00     0.087 C 
HETATM    3  C2  UNL     1      16.265   0.848  16.664  1.00  0.00     0.046 C 
HETATM    4  C3  UNL     1      14.890   0.539  17.163  1.00  0.00     0.005 C 
HETATM    5  C4  UNL     1      13.903   1.626  17.035  1.00  0.00     0.001 C 
HETATM    6  C5  UNL     1      14.442   3.005  16.957  1.00  0.00     0.005 C 
HETATM    7  C6  UNL     1      14.485   3.416  15.495  1.00  0.00     0.046 C 
HETATM    8  C7  UNL     1      15.877   3.689  15.039  1.00  0.00     0.087 C 
ENDROOT
BRANCH   1   9
HETATM    9  N1  UNL     1      18.092   2.875  15.257  1.00  0.00    -0.340 N 
ATOM     10  H12 UNL     1      18.423   3.839  15.268  1.00  0.00     0.177 HD
ATOM     11  H11 UNL     1      18.667   2.134  15.660  1.00  0.00     0.177 HD
ENDBRANCH   1   9
TORSDOF 1
ENDMDL
MODEL 3
REMARK VINA RESULT: -4.443322837      4.570      5.763
REMARK  1 active torsions:
REMARK  status: ('A' for Active; 'I' for Inactive)
REMARK    1  A    between atoms: N1_1  and  N2_4 
ROOT
HETATM    1  N2  UNL     1      18.889   2.770  12.174  1.00  0.00    -0.293 N 
HETATM    2  C1  UNL     1      18.894   2.018  10.985  1.00  0.00     0.087 C 
HETATM    3  C2  UNL     1      19.148   0.557  11.148  1.00  0.00     0.046 C 
HETATM    4  C3  UNL     1      18.006  -0.312  10.731  1.00  0.00     0.005 C 
HETATM    5  C4  UNL     1      16.713  -0.024  11.374  1.00  0.00     0.001 C 
HETATM    6  C5  UNL     1      16.764   0.666  12.686  1.00  0.00     0.005 C 
HETATM    7  C6  UNL     1      16.523   2.147  12.454  1.00  0.00     0.046 C 
HETATM    8  C7  UNL     1      17.697   2.969  12.863  1.00  0.00     0.087 C 
ENDROOT
BRANCH   1   9
HETATM    9  N1  UNL     1      20.066   2.970  12.811  1.00  0.00    -0.340 N 
ATOM     10  H12 UNL     1      20.743   2.209  12.862  1.00  0.00     0.177 HD
ATOM     11  H11 UNL     1      20.365   3.930  12.982  1.00  0.00     0.177 HD
ENDBRANCH   1   9
TORSDOF 1
ENDMDL
MODEL 4
REMARK VINA RESULT: -4.427351032      2.934      4.243
REMARK  1 active torsions:
REMARK  status: ('A' for Active; 'I' for Inactive)
REMARK    1  A    between atoms: N1_1  and  N2_4 
ROOT
HETATM    1  N2  UNL     1      18.579   3.914  14.112  1.00  0.00    -0.293 N 
HETATM    2  C1  UNL     1      17.447   3.086  13.997  1.00  0.00     0.087 C 
HETATM    3  C2  UNL     1      16.684   2.862  15.259  1.00  0.00     0.046 C 
HETATM    4  C3  UNL     1      15.287   3.394  15.231  1.00  0.00     0.005 C 
HETATM    5  C4  UNL     1      15.152   4.821  14.892  1.00  0.00     0.001 C 
HETATM    6  C5  UNL     1      16.337   5.677  15.143  1.00  0.00     0.005 C 
HETATM    7  C6  UNL     1      17.085   5.851  13.833  1.00  0.00     0.046 C 
HETATM    8  C7  UNL     1      18.461   5.284  13.903  1.00  0.00     0.087 C 
ENDROOT
BRANCH   1   9
HETATM    9  N1  UNL     1      19.661   3.433  14.769  1.00  0.00    -0.340 N 
ATOM     10  H12 UNL     1      20.562   3.404  14.293  1.00  0.00     0.177 HD
ATOM     11  H11 UNL     1      19.619   3.370  15.786  1.00  0.00     0.177 HD
ENDBRANCH   1   9
TORSDOF 1
ENDMDL
MODEL 5
REMARK VINA RESULT: -4.377283837      1.316      2.492
REMARK  1 active torsions:
REMARK  status: ('A' for Active; 'I' for Inactive)
REMARK    1  A    between atoms: N1_1  and  N2_4 
ROOT
HETATM    1  N2  UNL     1      15.255   0.606  16.722  1.00  0.00    -0.293 N 
HETATM    2  C1  UNL     1      14.218   1.525  16.483  1.00  0.00     0.087 C 
HETATM    3  C2  UNL     1      14.398   2.872  17.099  1.00  0.00     0.046 C 
HETATM    4  C3  UNL     1      14.512   3.986  16.109  1.00  0.00     0.005 C 
HETATM    5  C4  UNL     1      15.564   3.833  15.089  1.00  0.00     0.001 C 
HETATM    6  C5  UNL     1      16.699   2.943  15.437  1.00  0.00     0.005 C 
HETATM    7  C6  UNL     1      16.449   1.585  14.805  1.00  0.00     0.046 C 
HETATM    8  C7  UNL     1      16.319   0.513  15.832  1.00  0.00     0.087 C 
ENDROOT
BRANCH   1   9
HETATM    9  N1  UNL     1      15.387   0.100  17.971  1.00  0.00    -0.340 N 
ATOM     10  H12 UNL     1      15.344   0.729  18.772  1.00  0.00     0.177 HD
ATOM     11  H11 UNL     1      15.253  -0.903  18.102  1.00  0.00     0.177 HD
ENDBRANCH   1   9
TORSDOF 1
ENDMDL
