MODEL 1
REMARK VINA RESULT: -4.957560035      0.000      0.000
REMARK  1 active torsions:
REMARK  status: ('A' for Active; 'I' for Inactive)
REMARK    1  A    between atoms: O1_1  and  C1_3 
ROOT
HETATM    1  C1  UNL     1      16.459   1.250  16.491  1.00  0.00     0.179 C 
HETATM    2  C2  UNL     1      15.236   0.627  17.169  1.00  0.00     0.042 C 
HETATM    3  C3  UNL     1      14.053   1.497  16.727  1.00  0.00     0.003 C 
HETATM    4  C4  UNL     1      14.343   2.875  17.198  1.00  0.00     0.001 C 
HETATM    5  C5  UNL     1      14.470   3.904  16.143  1.00  0.00     0.010 C 
HETATM    6  C6  UNL     1      15.284   3.553  14.964  1.00  0.00     0.076 C 
HETATM    7  S1  UNL     1      15.938   1.906  14.918  1.00  0.00    -0.138 SA
ENDROOT
BRANCH   1   8
HETATM    8  O1  UNL     1      17.329   0.166  16.233  1.00  0.00    -0.385 OA
ATOM      9  H1  UNL     1      16.758  -0.571  16.049  1.00  0.00     0.211 HD
ENDBRANCH   1   8
TORSDOF 1
ENDMDL
MODEL 2
REMARK VINA RESULT: -4.439462907      5.606      6.218
REMARK  1 active torsions:
REMARK  status: ('A' for Active; 'I' for Inactive)
REMARK    1  A    between atoms: O1_1  and  C1_3 
ROOT
HETATM    1  C1  UNL     1      16.501   1.450  10.959  1.00  0.00     0.179 C 
HETATM    2  C2  UNL     1      16.689  -0.052  11.189  1.00  0.00     0.042 C 
HETATM    3  C3  UNL     1      18.105  -0.190  11.762  1.00  0.00     0.003 C 
HETATM    4  C4  UNL     1      19.029   0.364  10.740  1.00  0.00     0.001 C 
HETATM    5  C5  UNL     1      19.829   1.535  11.162  1.00  0.00     0.010 C 
HETATM    6  C6  UNL     1      19.113   2.606  11.882  1.00  0.00     0.076 C 
HETATM    7  S1  UNL     1      17.400   2.315  12.232  1.00  0.00    -0.138 SA
ENDROOT
BRANCH   1   8
HETATM    8  O1  UNL     1      15.124   1.686  11.175  1.00  0.00    -0.385 OA
ATOM      9  H1  UNL     1      14.676   1.028  10.656  1.00  0.00     0.211 HD
ENDBRANCH   1   8
TORSDOF 1
ENDMDL
MODEL 3
REMARK VINA RESULT: -4.418170689      1.587      2.277
REMARK  1 active torsions:
REMARK  status: ('A' for Active; 'I' for Inactive)
REMARK    1  A    between atoms: O1_1  and  C1_3 
ROOT
HETATM    1  C1  UNL     1      15.188   0.530  16.712  1.00  0.00     0.179 C 
HETATM    2  C2  UNL     1      16.597   0.697  16.137  1.00  0.00     0.042 C 
HETATM    3  C3  UNL     1      16.768   2.209  15.941  1.00  0.00     0.003 C 
HETATM    4  C4  UNL     1      15.700   2.636  15.002  1.00  0.00     0.001 C 
HETATM    5  C5  UNL     1      14.728   3.616  15.534  1.00  0.00     0.010 C 
HETATM    6  C6  UNL     1      14.190   3.357  16.883  1.00  0.00     0.076 C 
HETATM    7  S1  UNL     1      14.844   1.948  17.737  1.00  0.00    -0.138 SA
ENDROOT
BRANCH   1   8
HETATM    8  O1  UNL     1      15.268  -0.598  17.559  1.00  0.00    -0.385 OA
ATOM      9  H1  UNL     1      15.868  -1.192  17.124  1.00  0.00     0.211 HD
ENDBRANCH   1   8
TORSDOF 1
ENDMDL
MODEL 4
REMARK VINA RESULT: -4.056777834      5.001      5.611
REMARK  1 active torsions:
REMARK  status: ('A' for Active; 'I' for Inactive)
REMARK    1  A    between atoms: O1_1  and  C1_3 
ROOT
HETATM    1  C1  UNL     1      18.882   0.859  11.055  1.00  0.00     0.179 C 
HETATM    2  C2  UNL     1      17.961  -0.265  10.573  1.00  0.00     0.042 C 
HETATM    3  C3  UNL     1      16.622  -0.007  11.276  1.00  0.00     0.003 C 
HETATM    4  C4  UNL     1      16.894  -0.061  12.735  1.00  0.00     0.001 C 
HETATM    5  C5  UNL     1      16.623   1.183  13.488  1.00  0.00     0.010 C 
HETATM    6  C6  UNL     1      17.112   2.442  12.892  1.00  0.00     0.076 C 
HETATM    7  S1  UNL     1      17.885   2.316  11.302  1.00  0.00    -0.138 SA
ENDROOT
BRANCH   1   8
HETATM    8  O1  UNL     1      19.749   1.115   9.969  1.00  0.00    -0.385 OA
ATOM      9  H1  UNL     1      20.184   1.932  10.187  1.00  0.00     0.211 HD
ENDBRANCH   1   8
TORSDOF 1
ENDMDL
MODEL 5
REMARK VINA RESULT: -4.016520081      5.087      6.062
REMARK  1 active torsions:
REMARK  status: ('A' for Active; 'I' for Inactive)
REMARK    1  A    between atoms: O1_1  and  C1_3 
ROOT
HETATM    1  C1  UNL     1      16.719   2.126  10.859  1.00  0.00     0.179 C 
HETATM    2  C2  UNL     1      15.933   1.653  12.084  1.00  0.00     0.042 C 
HETATM    3  C3  UNL     1      16.854   0.640  12.777  1.00  0.00     0.003 C 
HETATM    4  C4  UNL     1      17.108  -0.442  11.793  1.00  0.00     0.001 C 
HETATM    5  C5  UNL     1      18.519  -0.631  11.391  1.00  0.00     0.010 C 
HETATM    6  C6  UNL     1      19.288   0.586  11.068  1.00  0.00     0.076 C 
HETATM    7  S1  UNL     1      18.449   2.133  11.287  1.00  0.00    -0.138 SA
ENDROOT
BRANCH   1   8
HETATM    8  O1  UNL     1      16.323   3.469  10.665  1.00  0.00    -0.385 OA
ATOM      9  H1  UNL     1      16.482   3.897  11.498  1.00  0.00     0.211 HD
ENDBRANCH   1   8
TORSDOF 1
ENDMDL
