MODEL 1
REMARK VINA RESULT: -5.800354691      0.000      0.000
REMARK  5 active torsions:
REMARK  status: ('A' for Active; 'I' for Inactive)
REMARK    1  A    between atoms: C2_2  and  C5_5 
REMARK    2  A    between atoms: C7_8  and  O2_9 
REMARK    3  A    between atoms: C8_11  and  N1_12 
REMARK    4  A    between atoms: N1_12  and  C9_14 
REMARK    5  A    between atoms: C9_14  and  C10_18 
ROOT
HETATM    1  C5  UNL     1     -11.516  12.947  -9.009  1.00  0.00     0.089 A 
HETATM    2  O1  UNL     1     -12.767  13.188  -8.672  1.00  0.00    -0.321 OA
HETATM    3  C6  UNL     1     -13.013  14.459  -8.578  1.00  0.00     0.181 A 
HETATM    4  C7  UNL     1     -11.844  15.130  -8.870  1.00  0.00     0.117 A 
HETATM    5  C8  UNL     1     -10.920  14.156  -9.137  1.00  0.00     0.099 A 
ENDROOT
BRANCH   5   6
HETATM    6  N1  UNL     1      -9.571  14.400  -9.486  1.00  0.00    -0.342 N 
ATOM      7  H1  UNL     1      -8.854  14.160  -8.800  1.00  0.00     0.167 HD
BRANCH   6   8
HETATM    8  C9  UNL     1      -9.141  14.952 -10.718  1.00  0.00     0.079 C 
HETATM    9  N2  UNL     1      -9.032  16.228 -10.803  1.00  0.00    -0.389 N 
ATOM     10  H22 UNL     1      -9.259  16.794  -9.985  1.00  0.00     0.157 HD
ATOM     11  H21 UNL     1      -8.722  16.626 -11.689  1.00  0.00     0.157 HD
BRANCH   8  12
HETATM   12  C10 UNL     1      -8.812  14.132 -11.901  1.00  0.00     0.053 A 
HETATM   13  C11 UNL     1      -7.852  12.991 -11.702  1.00  0.00     0.013 A 
HETATM   14  C12 UNL     1      -7.473  14.166 -12.534  1.00  0.00     0.013 A 
ENDBRANCH   8  12
ENDBRANCH   6   8
ENDBRANCH   5   6
BRANCH   1  15
HETATM   15  C2  UNL     1     -10.985  11.575  -9.181  1.00  0.00     0.001 C 
HETATM   16  C1  UNL     1      -9.599  11.423  -8.602  1.00  0.00     0.021 C 
HETATM   17  C3  UNL     1     -11.905  10.575  -8.546  1.00  0.00     0.021 C 
HETATM   18  C4  UNL     1     -10.880  11.222 -10.646  1.00  0.00     0.021 C 
ENDBRANCH   1  15
BRANCH   4  19
HETATM   19  O2  UNL     1     -11.659  16.528  -8.886  1.00  0.00    -0.357 OA
ATOM     20  H2  UNL     1     -10.921  16.998  -9.257  1.00  0.00     0.218 HD
ENDBRANCH   4  19
TORSDOF 5
ENDMDL
MODEL 2
REMARK VINA RESULT: -5.790104664      0.046      1.055
REMARK  5 active torsions:
REMARK  status: ('A' for Active; 'I' for Inactive)
REMARK    1  A    between atoms: C2_2  and  C5_5 
REMARK    2  A    between atoms: C7_8  and  O2_9 
REMARK    3  A    between atoms: C8_11  and  N1_12 
REMARK    4  A    between atoms: N1_12  and  C9_14 
REMARK    5  A    between atoms: C9_14  and  C10_18 
ROOT
HETATM    1  C5  UNL     1     -11.524  12.934  -9.049  1.00  0.00     0.089 A 
HETATM    2  O1  UNL     1     -12.778  13.163  -8.718  1.00  0.00    -0.321 OA
HETATM    3  C6  UNL     1     -13.030  14.431  -8.606  1.00  0.00     0.181 A 
HETATM    4  C7  UNL     1     -11.863  15.112  -8.879  1.00  0.00     0.117 A 
HETATM    5  C8  UNL     1     -10.932  14.148  -9.154  1.00  0.00     0.099 A 
ENDROOT
BRANCH   5   6
HETATM    6  N1  UNL     1      -9.582  14.403  -9.489  1.00  0.00    -0.342 N 
ATOM      7  H1  UNL     1      -8.870  14.161  -8.800  1.00  0.00     0.167 HD
BRANCH   6   8
HETATM    8  C9  UNL     1      -9.145  14.970 -10.712  1.00  0.00     0.079 C 
HETATM    9  N2  UNL     1      -9.037  16.248 -10.780  1.00  0.00    -0.389 N 
ATOM     10  H22 UNL     1      -9.269  16.803  -9.957  1.00  0.00     0.157 HD
ATOM     11  H21 UNL     1      -8.722  16.656 -11.660  1.00  0.00     0.157 HD
BRANCH   8  12
HETATM   12  C10 UNL     1      -8.809  14.165 -11.903  1.00  0.00     0.053 A 
HETATM   13  C11 UNL     1      -7.844  13.027 -11.714  1.00  0.00     0.013 A 
HETATM   14  C12 UNL     1      -7.469  14.213 -12.532  1.00  0.00     0.013 A 
ENDBRANCH   8  12
ENDBRANCH   6   8
ENDBRANCH   5   6
BRANCH   1  15
HETATM   15  C2  UNL     1     -10.984  11.567  -9.239  1.00  0.00     0.001 C 
HETATM   16  C1  UNL     1     -11.842  10.517  -8.576  1.00  0.00     0.021 C 
HETATM   17  C3  UNL     1     -10.854  11.256 -10.701  1.00  0.00     0.021 C 
HETATM   18  C4  UNL     1      -9.608  11.445  -8.629  1.00  0.00     0.021 C 
ENDBRANCH   1  15
BRANCH   4  19
HETATM   19  O2  UNL     1     -11.685  16.512  -8.872  1.00  0.00    -0.357 OA
ATOM     20  H2  UNL     1     -12.059  17.133  -9.485  1.00  0.00     0.218 HD
ENDBRANCH   4  19
TORSDOF 5
ENDMDL
MODEL 3
REMARK VINA RESULT: -5.780538257      0.045      1.042
REMARK  5 active torsions:
REMARK  status: ('A' for Active; 'I' for Inactive)
REMARK    1  A    between atoms: C2_2  and  C5_5 
REMARK    2  A    between atoms: C7_8  and  O2_9 
REMARK    3  A    between atoms: C8_11  and  N1_12 
REMARK    4  A    between atoms: N1_12  and  C9_14 
REMARK    5  A    between atoms: C9_14  and  C10_18 
ROOT
HETATM    1  C5  UNL     1     -11.511  12.934  -9.023  1.00  0.00     0.089 A 
HETATM    2  O1  UNL     1     -12.763  13.160  -8.680  1.00  0.00    -0.321 OA
HETATM    3  C6  UNL     1     -13.015  14.428  -8.561  1.00  0.00     0.181 A 
HETATM    4  C7  UNL     1     -11.851  15.111  -8.843  1.00  0.00     0.117 A 
HETATM    5  C8  UNL     1     -10.922  14.149  -9.131  1.00  0.00     0.099 A 
ENDROOT
BRANCH   5   6
HETATM    6  N1  UNL     1      -9.576  14.407  -9.478  1.00  0.00    -0.342 N 
ATOM      7  H1  UNL     1      -8.857  14.168  -8.795  1.00  0.00     0.167 HD
BRANCH   6   8
HETATM    8  C9  UNL     1      -9.151  14.973 -10.705  1.00  0.00     0.079 C 
HETATM    9  N2  UNL     1      -9.051  16.251 -10.778  1.00  0.00    -0.389 N 
ATOM     10  H22 UNL     1      -9.281  16.808  -9.955  1.00  0.00     0.157 HD
ATOM     11  H21 UNL     1      -8.745  16.659 -11.661  1.00  0.00     0.157 HD
BRANCH   8  12
HETATM   12  C10 UNL     1      -8.819  14.167 -11.896  1.00  0.00     0.053 A 
HETATM   13  C11 UNL     1      -7.855  13.027 -11.709  1.00  0.00     0.013 A 
HETATM   14  C12 UNL     1      -7.479  14.212 -12.528  1.00  0.00     0.013 A 
ENDBRANCH   8  12
ENDBRANCH   6   8
ENDBRANCH   5   6
BRANCH   1  15
HETATM   15  C2  UNL     1     -10.971  11.568  -9.223  1.00  0.00     0.001 C 
HETATM   16  C1  UNL     1     -10.832  11.218 -10.685  1.00  0.00     0.021 C 
HETATM   17  C3  UNL     1      -9.639  11.429  -8.546  1.00  0.00     0.021 C 
HETATM   18  C4  UNL     1     -11.892  10.535  -8.620  1.00  0.00     0.021 C 
ENDBRANCH   1  15
BRANCH   4  19
HETATM   19  O2  UNL     1     -11.675  16.511  -8.833  1.00  0.00    -0.357 OA
ATOM     20  H2  UNL     1     -10.869  16.981  -9.011  1.00  0.00     0.218 HD
ENDBRANCH   4  19
TORSDOF 5
ENDMDL
MODEL 4
REMARK VINA RESULT: -5.490181220      2.410      4.295
REMARK  5 active torsions:
REMARK  status: ('A' for Active; 'I' for Inactive)
REMARK    1  A    between atoms: C2_2  and  C5_5 
REMARK    2  A    between atoms: C7_8  and  O2_9 
REMARK    3  A    between atoms: C8_11  and  N1_12 
REMARK    4  A    between atoms: N1_12  and  C9_14 
REMARK    5  A    between atoms: C9_14  and  C10_18 
ROOT
HETATM    1  C5  UNL     1      -8.983  11.881  -9.798  1.00  0.00     0.089 A 
HETATM    2  O1  UNL     1      -7.806  11.644 -10.340  1.00  0.00    -0.321 OA
HETATM    3  C6  UNL     1      -7.709  12.140 -11.535  1.00  0.00     0.181 A 
HETATM    4  C7  UNL     1      -8.907  12.758 -11.826  1.00  0.00     0.117 A 
HETATM    5  C8  UNL     1      -9.690  12.580 -10.718  1.00  0.00     0.099 A 
ENDROOT
BRANCH   5   6
HETATM    6  N1  UNL     1     -11.014  13.056 -10.582  1.00  0.00    -0.342 N 
ATOM      7  H1  UNL     1     -11.757  12.527 -11.040  1.00  0.00     0.167 HD
BRANCH   6   8
HETATM    8  C9  UNL     1     -11.387  14.215  -9.857  1.00  0.00     0.079 C 
HETATM    9  N2  UNL     1     -10.544  15.180  -9.785  1.00  0.00    -0.389 N 
ATOM     10  H22 UNL     1      -9.642  15.078 -10.250  1.00  0.00     0.157 HD
ATOM     11  H21 UNL     1     -10.812  16.014  -9.264  1.00  0.00     0.157 HD
BRANCH   8  12
HETATM   12  C10 UNL     1     -12.693  14.363  -9.184  1.00  0.00     0.053 A 
HETATM   13  C11 UNL     1     -12.780  13.926  -7.747  1.00  0.00     0.013 A 
HETATM   14  C12 UNL     1     -13.521  13.193  -8.809  1.00  0.00     0.013 A 
ENDBRANCH   8  12
ENDBRANCH   6   8
ENDBRANCH   5   6
BRANCH   1  15
HETATM   15  C2  UNL     1      -9.345  11.418  -8.437  1.00  0.00     0.001 C 
HETATM   16  C1  UNL     1      -9.449  12.560  -7.455  1.00  0.00     0.021 C 
HETATM   17  C3  UNL     1     -10.643  10.667  -8.469  1.00  0.00     0.021 C 
HETATM   18  C4  UNL     1      -8.295  10.479  -7.894  1.00  0.00     0.021 C 
ENDBRANCH   1  15
BRANCH   4  19
HETATM   19  O2  UNL     1      -9.238  13.428 -13.023  1.00  0.00    -0.357 OA
ATOM     20  H2  UNL     1      -9.086  14.345 -13.219  1.00  0.00     0.218 HD
ENDBRANCH   4  19
TORSDOF 5
ENDMDL
MODEL 5
REMARK VINA RESULT: -5.348958140      2.245      3.395
REMARK  5 active torsions:
REMARK  status: ('A' for Active; 'I' for Inactive)
REMARK    1  A    between atoms: C2_2  and  C5_5 
REMARK    2  A    between atoms: C7_8  and  O2_9 
REMARK    3  A    between atoms: C8_11  and  N1_12 
REMARK    4  A    between atoms: N1_12  and  C9_14 
REMARK    5  A    between atoms: C9_14  and  C10_18 
ROOT
HETATM    1  C5  UNL     1     -10.984  12.011  -7.587  1.00  0.00     0.089 A 
HETATM    2  O1  UNL     1     -10.958  10.739  -7.244  1.00  0.00    -0.321 OA
HETATM    3  C6  UNL     1      -9.802  10.194  -7.472  1.00  0.00     0.181 A 
HETATM    4  C7  UNL     1      -8.984  11.166  -8.010  1.00  0.00     0.117 A 
HETATM    5  C8  UNL     1      -9.752  12.297  -8.071  1.00  0.00     0.099 A 
ENDROOT
BRANCH   5   6
HETATM    6  N1  UNL     1      -9.307  13.546  -8.564  1.00  0.00    -0.342 N 
ATOM      7  H1  UNL     1      -8.754  14.132  -7.938  1.00  0.00     0.167 HD
BRANCH   6   8
HETATM    8  C9  UNL     1      -9.573  14.044  -9.864  1.00  0.00     0.079 C 
HETATM    9  N2  UNL     1      -9.914  15.277  -9.980  1.00  0.00    -0.389 N 
ATOM     10  H22 UNL     1      -9.981  15.848  -9.138  1.00  0.00     0.157 HD
ATOM     11  H21 UNL     1     -10.105  15.635 -10.915  1.00  0.00     0.157 HD
BRANCH   8  12
HETATM   12  C10 UNL     1      -9.477  13.217 -11.082  1.00  0.00     0.053 A 
HETATM   13  C11 UNL     1      -8.115  12.702 -11.458  1.00  0.00     0.013 A 
HETATM   14  C12 UNL     1      -8.809  13.703 -12.312  1.00  0.00     0.013 A 
ENDBRANCH   8  12
ENDBRANCH   6   8
ENDBRANCH   5   6
BRANCH   1  15
HETATM   15  C2  UNL     1     -12.189  12.858  -7.426  1.00  0.00     0.001 C 
HETATM   16  C1  UNL     1     -11.871  14.186  -6.782  1.00  0.00     0.021 C 
HETATM   17  C3  UNL     1     -12.844  13.091  -8.755  1.00  0.00     0.021 C 
HETATM   18  C4  UNL     1     -13.204  12.181  -6.536  1.00  0.00     0.021 C 
ENDBRANCH   1  15
BRANCH   4  19
HETATM   19  O2  UNL     1      -7.640  11.007  -8.408  1.00  0.00    -0.357 OA
ATOM     20  H2  UNL     1      -6.952  11.659  -8.348  1.00  0.00     0.218 HD
ENDBRANCH   4  19
TORSDOF 5
ENDMDL
