MODEL 1
REMARK VINA RESULT: -8.881612298      0.000      0.000
REMARK  4 active torsions:
REMARK  status: ('A' for Active; 'I' for Inactive)
REMARK    1  A    between atoms: C3_5  and  N2_6 
REMARK    2  A    between atoms: N2_6  and  N3_8 
REMARK    3  A    between atoms: N3_8  and  O1_10 
REMARK    4  A    between atoms: C4_14  and  C5_15 
ROOT
HETATM    1  N1  UNL     1     -44.084 -44.220  30.126  1.00  0.00    -0.191 NA
HETATM    2  C1  UNL     1     -44.151 -45.217  29.531  1.00  0.00     0.109 C 
HETATM    3  C2  UNL     1     -44.227 -46.432  28.745  1.00  0.00     0.116 A 
HETATM    4  S1  UNL     1     -42.962 -46.991  27.686  1.00  0.00    -0.039 SA
HETATM    5  C3  UNL     1     -43.766 -48.340  27.041  1.00  0.00     0.166 A 
HETATM    6  N4  UNL     1     -44.938 -48.308  27.648  1.00  0.00    -0.333 N 
ATOM      7  H4  UNL     1     -45.639 -49.020  27.444  1.00  0.00     0.168 HD
HETATM    8  C4  UNL     1     -45.200 -47.351  28.519  1.00  0.00     0.074 A 
ENDROOT
BRANCH   8   9
HETATM    9  C5  UNL     1     -46.531 -47.251  29.125  1.00  0.00     0.016 A 
HETATM   10  C6  UNL     1     -47.611 -47.368  28.234  1.00  0.00     0.041 A 
HETATM   11  C7  UNL     1     -48.919 -47.374  28.624  1.00  0.00     0.056 A 
HETATM   12 CL1  UNL     1     -50.227 -47.524  27.467  1.00  0.00    -0.083 Cl
HETATM   13  C8  UNL     1     -49.212 -47.258  29.964  1.00  0.00     0.057 A 
HETATM   14 CL2  UNL     1     -50.870 -47.259  30.505  1.00  0.00    -0.082 Cl
HETATM   15  C9  UNL     1     -48.175 -47.145  30.853  1.00  0.00     0.050 A 
HETATM   16  C10 UNL     1     -46.836 -47.143  30.433  1.00  0.00     0.048 A 
HETATM   17 CL3  UNL     1     -45.590 -47.140  31.681  1.00  0.00    -0.083 Cl
ENDBRANCH   8   9
BRANCH   5  18
HETATM   18  N2  UNL     1     -43.297 -49.170  26.166  1.00  0.00    -0.260 N 
ATOM     19  H2  UNL     1     -42.293 -49.222  25.994  1.00  0.00     0.191 HD
BRANCH  18  20
HETATM   20  N3  UNL     1     -44.187 -50.009  25.445  1.00  0.00    -0.208 N 
ATOM     21  H3  UNL     1     -44.327 -50.990  25.688  1.00  0.00     0.215 HD
BRANCH  20  22
HETATM   22  O1  UNL     1     -44.795 -49.463  24.482  1.00  0.00    -0.274 OA
ATOM     23  H1  UNL     1     -44.265 -49.271  23.718  1.00  0.00     0.246 HD
ENDBRANCH  20  22
ENDBRANCH  18  20
ENDBRANCH   5  18
TORSDOF 4
ENDMDL
MODEL 2
REMARK VINA RESULT: -8.305578980      2.054      2.161
REMARK  4 active torsions:
REMARK  status: ('A' for Active; 'I' for Inactive)
REMARK    1  A    between atoms: C3_5  and  N2_6 
REMARK    2  A    between atoms: N2_6  and  N3_8 
REMARK    3  A    between atoms: N3_8  and  O1_10 
REMARK    4  A    between atoms: C4_14  and  C5_15 
ROOT
HETATM    1  N1  UNL     1     -44.793 -42.913  30.713  1.00  0.00    -0.191 NA
HETATM    2  C1  UNL     1     -44.457 -43.903  30.205  1.00  0.00     0.109 C 
HETATM    3  C2  UNL     1     -44.032 -45.112  29.527  1.00  0.00     0.116 A 
HETATM    4  S1  UNL     1     -42.512 -45.280  28.694  1.00  0.00    -0.039 SA
HETATM    5  C3  UNL     1     -42.750 -46.843  28.073  1.00  0.00     0.166 A 
HETATM    6  N4  UNL     1     -43.950 -47.162  28.519  1.00  0.00    -0.333 N 
ATOM      7  H4  UNL     1     -44.356 -48.070  28.292  1.00  0.00     0.168 HD
HETATM    8  C4  UNL     1     -44.624 -46.303  29.262  1.00  0.00     0.074 A 
ENDROOT
BRANCH   8   9
HETATM    9  C5  UNL     1     -45.995 -46.609  29.680  1.00  0.00     0.016 A 
HETATM   10  C6  UNL     1     -46.891 -46.914  28.642  1.00  0.00     0.041 A 
HETATM   11  C7  UNL     1     -48.186 -47.296  28.844  1.00  0.00     0.056 A 
HETATM   12 CL1  UNL     1     -49.259 -47.664  27.509  1.00  0.00    -0.083 Cl
HETATM   13  C8  UNL     1     -48.656 -47.390  30.135  1.00  0.00     0.057 A 
HETATM   14 CL2  UNL     1     -50.305 -47.871  30.438  1.00  0.00    -0.082 Cl
HETATM   15  C9  UNL     1     -47.799 -47.100  31.165  1.00  0.00     0.050 A 
HETATM   16  C10 UNL     1     -46.471 -46.712  30.937  1.00  0.00     0.048 A 
HETATM   17 CL3  UNL     1     -45.428 -46.508  32.345  1.00  0.00    -0.083 Cl
ENDBRANCH   8   9
BRANCH   5  18
HETATM   18  N2  UNL     1     -41.920 -47.516  27.342  1.00  0.00    -0.260 N 
ATOM     19  H2  UNL     1     -41.897 -47.377  26.332  1.00  0.00     0.191 HD
BRANCH  18  20
HETATM   20  N3  UNL     1     -41.041 -48.449  27.953  1.00  0.00    -0.208 N 
ATOM     21  H3  UNL     1     -40.421 -49.049  27.408  1.00  0.00     0.215 HD
BRANCH  20  22
HETATM   22  O1  UNL     1     -41.077 -48.489  29.215  1.00  0.00    -0.274 OA
ATOM     23  H1  UNL     1     -41.355 -49.315  29.592  1.00  0.00     0.246 HD
ENDBRANCH  20  22
ENDBRANCH  18  20
ENDBRANCH   5  18
TORSDOF 4
ENDMDL
MODEL 3
REMARK VINA RESULT: -7.952678032      2.370      4.058
REMARK  4 active torsions:
REMARK  status: ('A' for Active; 'I' for Inactive)
REMARK    1  A    between atoms: C3_5  and  N2_6 
REMARK    2  A    between atoms: N2_6  and  N3_8 
REMARK    3  A    between atoms: N3_8  and  O1_10 
REMARK    4  A    between atoms: C4_14  and  C5_15 
ROOT
HETATM    1  N1  UNL     1     -44.357 -48.998  27.343  1.00  0.00    -0.191 NA
HETATM    2  C1  UNL     1     -44.454 -47.971  27.879  1.00  0.00     0.109 C 
HETATM    3  C2  UNL     1     -44.535 -46.703  28.578  1.00  0.00     0.116 A 
HETATM    4  S1  UNL     1     -43.223 -45.562  28.684  1.00  0.00    -0.039 SA
HETATM    5  C3  UNL     1     -43.971 -44.431  29.706  1.00  0.00     0.166 A 
HETATM    6  N4  UNL     1     -45.162 -44.958  29.916  1.00  0.00    -0.333 N 
ATOM      7  H4  UNL     1     -45.837 -44.478  30.509  1.00  0.00     0.168 HD
HETATM    8  C4  UNL     1     -45.477 -46.111  29.354  1.00  0.00     0.074 A 
ENDROOT
BRANCH   8   9
HETATM    9  C5  UNL     1     -46.760 -46.752  29.659  1.00  0.00     0.016 A 
HETATM   10  C6  UNL     1     -47.667 -46.828  28.588  1.00  0.00     0.041 A 
HETATM   11  C7  UNL     1     -48.878 -47.454  28.662  1.00  0.00     0.056 A 
HETATM   12 CL1  UNL     1     -49.970 -47.517  27.294  1.00  0.00    -0.083 Cl
HETATM   13  C8  UNL     1     -49.245 -48.049  29.848  1.00  0.00     0.057 A 
HETATM   14 CL2  UNL     1     -50.784 -48.857  29.987  1.00  0.00    -0.082 Cl
HETATM   15  C9  UNL     1     -48.375 -47.991  30.906  1.00  0.00     0.050 A 
HETATM   16  C10 UNL     1     -47.134 -47.344  30.810  1.00  0.00     0.048 A 
HETATM   17 CL3  UNL     1     -46.043 -47.463  32.191  1.00  0.00    -0.083 Cl
ENDBRANCH   8   9
BRANCH   5  18
HETATM   18  N2  UNL     1     -43.453 -43.328  30.145  1.00  0.00    -0.260 N 
ATOM     19  H2  UNL     1     -42.440 -43.215  30.177  1.00  0.00     0.191 HD
BRANCH  18  20
HETATM   20  N3  UNL     1     -44.302 -42.277  30.582  1.00  0.00    -0.208 N 
ATOM     21  H3  UNL     1     -44.206 -41.849  31.503  1.00  0.00     0.215 HD
BRANCH  20  22
HETATM   22  O1  UNL     1     -45.183 -41.907  29.757  1.00  0.00    -0.274 OA
ATOM     23  H1  UNL     1     -45.824 -42.566  29.518  1.00  0.00     0.246 HD
ENDBRANCH  20  22
ENDBRANCH  18  20
ENDBRANCH   5  18
TORSDOF 4
ENDMDL
MODEL 4
REMARK VINA RESULT: -7.738620239      3.816      4.779
REMARK  4 active torsions:
REMARK  status: ('A' for Active; 'I' for Inactive)
REMARK    1  A    between atoms: C3_5  and  N2_6 
REMARK    2  A    between atoms: N2_6  and  N3_8 
REMARK    3  A    between atoms: N3_8  and  O1_10 
REMARK    4  A    between atoms: C4_14  and  C5_15 
ROOT
HETATM    1  N1  UNL     1     -41.242 -44.943  26.575  1.00  0.00    -0.191 NA
HETATM    2  C1  UNL     1     -41.035 -45.868  27.249  1.00  0.00     0.109 C 
HETATM    3  C2  UNL     1     -40.758 -47.044  28.049  1.00  0.00     0.116 A 
HETATM    4  S1  UNL     1     -39.175 -47.745  28.238  1.00  0.00    -0.039 SA
HETATM    5  C3  UNL     1     -39.619 -49.098  29.162  1.00  0.00     0.166 A 
HETATM    6  N4  UNL     1     -40.926 -48.960  29.286  1.00  0.00    -0.333 N 
ATOM      7  H4  UNL     1     -41.467 -49.650  29.807  1.00  0.00     0.168 HD
HETATM    8  C4  UNL     1     -41.532 -47.925  28.732  1.00  0.00     0.074 A 
ENDROOT
BRANCH   8   9
HETATM    9  C5  UNL     1     -42.993 -47.814  28.781  1.00  0.00     0.016 A 
HETATM   10  C6  UNL     1     -43.521 -47.319  29.985  1.00  0.00     0.041 A 
HETATM   11  C7  UNL     1     -44.849 -47.078  30.189  1.00  0.00     0.056 A 
HETATM   12 CL1  UNL     1     -45.453 -46.459  31.713  1.00  0.00    -0.083 Cl
HETATM   13  C8  UNL     1     -45.734 -47.330  29.164  1.00  0.00     0.057 A 
HETATM   14 CL2  UNL     1     -47.439 -47.039  29.382  1.00  0.00    -0.082 Cl
HETATM   15  C9  UNL     1     -45.241 -47.812  27.979  1.00  0.00     0.050 A 
HETATM   16  C10 UNL     1     -43.872 -48.051  27.788  1.00  0.00     0.048 A 
HETATM   17 CL3  UNL     1     -43.345 -48.530  26.174  1.00  0.00    -0.083 Cl
ENDBRANCH   8   9
BRANCH   5  18
HETATM   18  N2  UNL     1     -38.827 -50.017  29.613  1.00  0.00    -0.260 N 
ATOM     19  H2  UNL     1     -38.140 -49.794  30.333  1.00  0.00     0.191 HD
BRANCH  18  20
HETATM   20  N3  UNL     1     -38.918 -51.339  29.101  1.00  0.00    -0.208 N 
ATOM     21  H3  UNL     1     -38.092 -51.888  28.863  1.00  0.00     0.215 HD
BRANCH  20  22
HETATM   22  O1  UNL     1     -40.089 -51.790  28.959  1.00  0.00    -0.274 OA
ATOM     23  H1  UNL     1     -40.568 -51.460  28.208  1.00  0.00     0.246 HD
ENDBRANCH  20  22
ENDBRANCH  18  20
ENDBRANCH   5  18
TORSDOF 4
ENDMDL
MODEL 5
REMARK VINA RESULT: -7.485639043      4.329      6.512
REMARK  4 active torsions:
REMARK  status: ('A' for Active; 'I' for Inactive)
REMARK    1  A    between atoms: C3_5  and  N2_6 
REMARK    2  A    between atoms: N2_6  and  N3_8 
REMARK    3  A    between atoms: N3_8  and  O1_10 
REMARK    4  A    between atoms: C4_14  and  C5_15 
ROOT
HETATM    1  N1  UNL     1     -46.775 -47.602  31.658  1.00  0.00    -0.191 NA
HETATM    2  C1  UNL     1     -46.103 -46.714  31.324  1.00  0.00     0.109 C 
HETATM    3  C2  UNL     1     -45.308 -45.581  30.892  1.00  0.00     0.116 A 
HETATM    4  S1  UNL     1     -45.514 -43.959  31.491  1.00  0.00    -0.039 SA
HETATM    5  C3  UNL     1     -44.378 -43.188  30.493  1.00  0.00     0.166 A 
HETATM    6  N4  UNL     1     -43.900 -44.178  29.763  1.00  0.00    -0.333 N 
ATOM      7  H4  UNL     1     -43.183 -43.996  29.061  1.00  0.00     0.168 HD
HETATM    8  C4  UNL     1     -44.353 -45.405  29.945  1.00  0.00     0.074 A 
ENDROOT
BRANCH   8   9
HETATM    9  C5  UNL     1     -43.899 -46.494  29.074  1.00  0.00     0.016 A 
HETATM   10  C6  UNL     1     -42.533 -46.811  29.165  1.00  0.00     0.041 A 
HETATM   11  C7  UNL     1     -41.947 -47.841  28.487  1.00  0.00     0.056 A 
HETATM   12 CL1  UNL     1     -40.237 -48.191  28.639  1.00  0.00    -0.083 Cl
HETATM   13  C8  UNL     1     -42.726 -48.622  27.663  1.00  0.00     0.057 A 
HETATM   14 CL2  UNL     1     -42.018 -49.947  26.778  1.00  0.00    -0.082 Cl
HETATM   15  C9  UNL     1     -44.062 -48.333  27.561  1.00  0.00     0.050 A 
HETATM   16  C10 UNL     1     -44.647 -47.271  28.267  1.00  0.00     0.048 A 
HETATM   17 CL3  UNL     1     -46.399 -47.092  28.167  1.00  0.00    -0.083 Cl
ENDBRANCH   8   9
BRANCH   5  18
HETATM   18  N2  UNL     1     -44.087 -41.926  30.488  1.00  0.00    -0.260 N 
ATOM     19  H2  UNL     1     -43.313 -41.577  31.053  1.00  0.00     0.191 HD
BRANCH  18  20
HETATM   20  N3  UNL     1     -44.850 -41.031  29.693  1.00  0.00    -0.208 N 
ATOM     21  H3  UNL     1     -45.803 -41.245  29.395  1.00  0.00     0.215 HD
BRANCH  20  22
HETATM   22  O1  UNL     1     -44.274 -39.953  29.377  1.00  0.00    -0.274 OA
ATOM     23  H1  UNL     1     -44.390 -39.232  29.985  1.00  0.00     0.246 HD
ENDBRANCH  20  22
ENDBRANCH  18  20
ENDBRANCH   5  18
TORSDOF 4
ENDMDL
