MODEL 1
REMARK VINA RESULT: -7.681759121      0.000      0.000
REMARK  4 active torsions:
REMARK  status: ('A' for Active; 'I' for Inactive)
REMARK    1  A    between atoms: C2_2  and  O1_5 
REMARK    2  A    between atoms: O1_5  and  N1_6 
REMARK    3  A    between atoms: C6_10  and  O3_11 
REMARK    4  A    between atoms: C6_10  and  C7_13 
ROOT
HETATM    1  N1  UNL     1     -45.759 -46.735  29.031  1.00  0.00    -0.243 N 
ATOM      2  H1  UNL     1     -45.583 -45.893  29.581  1.00  0.00     0.196 HD
HETATM    3  C5  UNL     1     -44.787 -47.236  28.354  1.00  0.00     0.178 A 
HETATM    4  O2  UNL     1     -44.774 -48.352  27.545  1.00  0.00    -0.290 OA
HETATM    5  C6  UNL     1     -43.504 -48.563  26.982  1.00  0.00     0.212 A 
HETATM    6  C8  UNL     1     -42.670 -47.453  27.511  1.00  0.00     0.023 A 
HETATM    7  C9  UNL     1     -41.338 -47.156  27.292  1.00  0.00     0.037 A 
HETATM    8  C10 UNL     1     -40.824 -46.044  27.928  1.00  0.00     0.036 A 
HETATM    9 CL2  UNL     1     -39.143 -45.630  27.680  1.00  0.00    -0.084 Cl
HETATM   10  C11 UNL     1     -41.594 -45.243  28.755  1.00  0.00     0.048 A 
HETATM   11  C12 UNL     1     -42.924 -45.539  28.973  1.00  0.00     0.051 A 
HETATM   12 CL3  UNL     1     -43.930 -44.552  30.010  1.00  0.00    -0.083 Cl
HETATM   13  C13 UNL     1     -43.448 -46.650  28.342  1.00  0.00     0.050 A 
ENDROOT
BRANCH   1  14
HETATM   14  O1  UNL     1     -47.022 -47.274  29.052  1.00  0.00    -0.268 OA
BRANCH  14  15
HETATM   15  C2  UNL     1     -47.609 -47.475  30.325  1.00  0.00     0.078 C 
HETATM   16  C1  UNL     1     -47.024 -46.476  31.271  1.00  0.00     0.048 C 
HETATM   17  C3  UNL     1     -49.113 -47.277  30.145  1.00  0.00     0.048 C 
HETATM   18  C4  UNL     1     -47.333 -48.855  30.867  1.00  0.00     0.048 C 
ENDBRANCH  14  15
ENDBRANCH   1  14
BRANCH   5  19
HETATM   19  O3  UNL     1     -43.534 -48.542  25.587  1.00  0.00    -0.360 OA
ATOM     20  H3  UNL     1     -42.664 -48.577  25.207  1.00  0.00     0.213 HD
ENDBRANCH   5  19
BRANCH   5  21
HETATM   21  C7  UNL     1     -42.943 -49.911  27.411  1.00  0.00     0.189 C 
HETATM   22 CL1  UNL     1     -42.869 -49.928  29.193  1.00  0.00    -0.124 Cl
ENDBRANCH   5  21
TORSDOF 4
ENDMDL
MODEL 2
REMARK VINA RESULT: -7.660172148      1.641      1.735
REMARK  4 active torsions:
REMARK  status: ('A' for Active; 'I' for Inactive)
REMARK    1  A    between atoms: C2_2  and  O1_5 
REMARK    2  A    between atoms: O1_5  and  N1_6 
REMARK    3  A    between atoms: C6_10  and  O3_11 
REMARK    4  A    between atoms: C6_10  and  C7_13 
ROOT
HETATM    1  N1  UNL     1     -44.676 -47.705  29.110  1.00  0.00    -0.243 N 
ATOM      2  H1  UNL     1     -44.345 -46.888  29.624  1.00  0.00     0.196 HD
HETATM    3  C5  UNL     1     -44.070 -48.028  28.021  1.00  0.00     0.178 A 
HETATM    4  O2  UNL     1     -44.326 -49.074  27.161  1.00  0.00    -0.290 OA
HETATM    5  C6  UNL     1     -43.429 -49.080  26.079  1.00  0.00     0.212 A 
HETATM    6  C8  UNL     1     -42.544 -47.911  26.320  1.00  0.00     0.023 A 
HETATM    7  C9  UNL     1     -41.480 -47.430  25.580  1.00  0.00     0.037 A 
HETATM    8  C10 UNL     1     -40.833 -46.308  26.056  1.00  0.00     0.036 A 
HETATM    9 CL2  UNL     1     -39.481 -45.664  25.151  1.00  0.00    -0.084 Cl
HETATM   10  C11 UNL     1     -41.217 -45.673  27.225  1.00  0.00     0.048 A 
HETATM   11  C12 UNL     1     -42.279 -46.152  27.964  1.00  0.00     0.051 A 
HETATM   12 CL3  UNL     1     -42.795 -45.378  29.446  1.00  0.00    -0.083 Cl
HETATM   13  C13 UNL     1     -42.933 -47.275  27.497  1.00  0.00     0.050 A 
ENDROOT
BRANCH   1  14
HETATM   14  O1  UNL     1     -45.746 -48.403  29.614  1.00  0.00    -0.268 OA
BRANCH  14  15
HETATM   15  C2  UNL     1     -46.891 -47.649  29.967  1.00  0.00     0.078 C 
HETATM   16  C1  UNL     1     -46.469 -46.580  30.924  1.00  0.00     0.048 C 
HETATM   17  C3  UNL     1     -47.443 -47.064  28.667  1.00  0.00     0.048 C 
HETATM   18  C4  UNL     1     -47.944 -48.494  30.639  1.00  0.00     0.048 C 
ENDBRANCH  14  15
ENDBRANCH   1  14
BRANCH   5  19
HETATM   19  O3  UNL     1     -44.081 -48.965  24.851  1.00  0.00    -0.360 OA
ATOM     20  H3  UNL     1     -44.004 -49.754  24.327  1.00  0.00     0.213 HD
ENDBRANCH   5  19
BRANCH   5  21
HETATM   21  C7  UNL     1     -42.623 -50.371  26.056  1.00  0.00     0.189 C 
HETATM   22 CL1  UNL     1     -43.616 -51.619  25.258  1.00  0.00    -0.124 Cl
ENDBRANCH   5  21
TORSDOF 4
ENDMDL
MODEL 3
REMARK VINA RESULT: -7.634527934      3.004      6.399
REMARK  4 active torsions:
REMARK  status: ('A' for Active; 'I' for Inactive)
REMARK    1  A    between atoms: C2_2  and  O1_5 
REMARK    2  A    between atoms: O1_5  and  N1_6 
REMARK    3  A    between atoms: C6_10  and  O3_11 
REMARK    4  A    between atoms: C6_10  and  C7_13 
ROOT
HETATM    1  N1  UNL     1     -42.094 -45.995  28.936  1.00  0.00    -0.243 N 
ATOM      2  H1  UNL     1     -42.046 -46.881  28.432  1.00  0.00     0.196 HD
HETATM    3  C5  UNL     1     -43.253 -45.532  29.248  1.00  0.00     0.178 A 
HETATM    4  O2  UNL     1     -43.575 -44.372  29.919  1.00  0.00    -0.290 OA
HETATM    5  C6  UNL     1     -44.966 -44.230  30.060  1.00  0.00     0.212 A 
HETATM    6  C8  UNL     1     -45.534 -45.434  29.401  1.00  0.00     0.023 A 
HETATM    7  C9  UNL     1     -46.851 -45.822  29.236  1.00  0.00     0.037 A 
HETATM    8  C10 UNL     1     -47.082 -47.010  28.573  1.00  0.00     0.036 A 
HETATM    9 CL2  UNL     1     -48.733 -47.542  28.341  1.00  0.00    -0.084 Cl
HETATM   10  C11 UNL     1     -46.053 -47.797  28.083  1.00  0.00     0.048 A 
HETATM   11  C12 UNL     1     -44.739 -47.409  28.246  1.00  0.00     0.051 A 
HETATM   12 CL3  UNL     1     -43.411 -48.375  27.642  1.00  0.00    -0.083 Cl
HETATM   13  C13 UNL     1     -44.496 -46.222  28.910  1.00  0.00     0.050 A 
ENDROOT
BRANCH   1  14
HETATM   14  O1  UNL     1     -40.918 -45.358  29.248  1.00  0.00    -0.268 OA
BRANCH  14  15
HETATM   15  C2  UNL     1     -39.913 -45.349  28.249  1.00  0.00     0.078 C 
HETATM   16  C1  UNL     1     -39.148 -44.071  28.369  1.00  0.00     0.048 C 
HETATM   17  C3  UNL     1     -39.031 -46.569  28.510  1.00  0.00     0.048 C 
HETATM   18  C4  UNL     1     -40.493 -45.422  26.859  1.00  0.00     0.048 C 
ENDBRANCH  14  15
ENDBRANCH   1  14
BRANCH   5  19
HETATM   19  O3  UNL     1     -45.441 -43.063  29.460  1.00  0.00    -0.360 OA
ATOM     20  H3  UNL     1     -46.238 -42.747  29.869  1.00  0.00     0.213 HD
ENDBRANCH   5  19
BRANCH   5  21
HETATM   21  C7  UNL     1     -45.355 -44.185  31.530  1.00  0.00     0.189 C 
HETATM   22 CL1  UNL     1     -45.541 -45.866  32.096  1.00  0.00    -0.124 Cl
ENDBRANCH   5  21
TORSDOF 4
ENDMDL
MODEL 4
REMARK VINA RESULT: -7.530375241      1.432      1.728
REMARK  4 active torsions:
REMARK  status: ('A' for Active; 'I' for Inactive)
REMARK    1  A    between atoms: C2_2  and  O1_5 
REMARK    2  A    between atoms: O1_5  and  N1_6 
REMARK    3  A    between atoms: C6_10  and  O3_11 
REMARK    4  A    between atoms: C6_10  and  C7_13 
ROOT
HETATM    1  N1  UNL     1     -44.579 -47.665  29.092  1.00  0.00    -0.243 N 
ATOM      2  H1  UNL     1     -44.259 -46.824  29.571  1.00  0.00     0.196 HD
HETATM    3  C5  UNL     1     -43.979 -48.016  28.008  1.00  0.00     0.178 A 
HETATM    4  O2  UNL     1     -44.223 -49.098  27.190  1.00  0.00    -0.290 OA
HETATM    5  C6  UNL     1     -43.339 -49.125  26.098  1.00  0.00     0.212 A 
HETATM    6  C8  UNL     1     -42.476 -47.931  26.285  1.00  0.00     0.023 A 
HETATM    7  C9  UNL     1     -41.431 -47.456  25.514  1.00  0.00     0.037 A 
HETATM    8  C10 UNL     1     -40.802 -46.304  25.941  1.00  0.00     0.036 A 
HETATM    9 CL2  UNL     1     -39.475 -45.666  24.997  1.00  0.00    -0.084 Cl
HETATM   10  C11 UNL     1     -41.185 -45.634  27.091  1.00  0.00     0.048 A 
HETATM   11  C12 UNL     1     -42.229 -46.107  27.860  1.00  0.00     0.051 A 
HETATM   12 CL3  UNL     1     -42.743 -45.290  29.319  1.00  0.00    -0.083 Cl
HETATM   13  C13 UNL     1     -42.864 -47.260  27.442  1.00  0.00     0.050 A 
ENDROOT
BRANCH   1  14
HETATM   14  O1  UNL     1     -45.628 -48.366  29.634  1.00  0.00    -0.268 OA
BRANCH  14  15
HETATM   15  C2  UNL     1     -46.770 -47.617  30.009  1.00  0.00     0.078 C 
HETATM   16  C1  UNL     1     -47.385 -47.053  28.769  1.00  0.00     0.048 C 
HETATM   17  C3  UNL     1     -47.710 -48.588  30.722  1.00  0.00     0.048 C 
HETATM   18  C4  UNL     1     -46.422 -46.472  30.926  1.00  0.00     0.048 C 
ENDBRANCH  14  15
ENDBRANCH   1  14
BRANCH   5  19
HETATM   19  O3  UNL     1     -44.007 -49.070  24.875  1.00  0.00    -0.360 OA
ATOM     20  H3  UNL     1     -43.507 -48.608  24.212  1.00  0.00     0.213 HD
ENDBRANCH   5  19
BRANCH   5  21
HETATM   21  C7  UNL     1     -42.507 -50.400  26.113  1.00  0.00     0.189 C 
HETATM   22 CL1  UNL     1     -42.749 -51.191  27.693  1.00  0.00    -0.124 Cl
ENDBRANCH   5  21
TORSDOF 4
ENDMDL
MODEL 5
REMARK VINA RESULT: -7.371034959      1.082      1.135
REMARK  4 active torsions:
REMARK  status: ('A' for Active; 'I' for Inactive)
REMARK    1  A    between atoms: C2_2  and  O1_5 
REMARK    2  A    between atoms: O1_5  and  N1_6 
REMARK    3  A    between atoms: C6_10  and  O3_11 
REMARK    4  A    between atoms: C6_10  and  C7_13 
ROOT
HETATM    1  N1  UNL     1     -44.854 -47.462  29.578  1.00  0.00    -0.243 N 
ATOM      2  H1  UNL     1     -44.865 -46.516  29.961  1.00  0.00     0.196 HD
HETATM    3  C5  UNL     1     -43.839 -47.824  28.874  1.00  0.00     0.178 A 
HETATM    4  O2  UNL     1     -43.594 -49.032  28.257  1.00  0.00    -0.290 OA
HETATM    5  C6  UNL     1     -42.362 -49.023  27.583  1.00  0.00     0.212 A 
HETATM    6  C8  UNL     1     -41.813 -47.664  27.822  1.00  0.00     0.023 A 
HETATM    7  C9  UNL     1     -40.628 -47.093  27.397  1.00  0.00     0.037 A 
HETATM    8  C10 UNL     1     -40.380 -45.790  27.780  1.00  0.00     0.036 A 
HETATM    9 CL2  UNL     1     -38.892 -45.027  27.264  1.00  0.00    -0.084 Cl
HETATM   10  C11 UNL     1     -41.267 -45.066  28.557  1.00  0.00     0.048 A 
HETATM   11  C12 UNL     1     -42.450 -45.635  28.982  1.00  0.00     0.051 A 
HETATM   12 CL3  UNL     1     -43.597 -44.753  29.965  1.00  0.00    -0.083 Cl
HETATM   13  C13 UNL     1     -42.708 -46.938  28.605  1.00  0.00     0.050 A 
ENDROOT
BRANCH   1  14
HETATM   14  O1  UNL     1     -45.923 -48.283  29.839  1.00  0.00    -0.268 OA
BRANCH  14  15
HETATM   15  C2  UNL     1     -47.165 -47.652  30.094  1.00  0.00     0.078 C 
HETATM   16  C1  UNL     1     -46.941 -46.571  31.103  1.00  0.00     0.048 C 
HETATM   17  C3  UNL     1     -47.650 -47.093  28.757  1.00  0.00     0.048 C 
HETATM   18  C4  UNL     1     -48.186 -48.612  30.651  1.00  0.00     0.048 C 
ENDBRANCH  14  15
ENDBRANCH   1  14
BRANCH   5  19
HETATM   19  O3  UNL     1     -42.505 -49.269  26.216  1.00  0.00    -0.360 OA
ATOM     20  H3  UNL     1     -42.289 -50.165  25.987  1.00  0.00     0.213 HD
ENDBRANCH   5  19
BRANCH   5  21
HETATM   21  C7  UNL     1     -41.433 -50.087  28.148  1.00  0.00     0.189 C 
HETATM   22 CL1  UNL     1     -42.421 -51.218  29.111  1.00  0.00    -0.124 Cl
ENDBRANCH   5  21
TORSDOF 4
ENDMDL
