MODEL 1
REMARK VINA RESULT: -6.537346880      0.000      0.000
REMARK  3 active torsions:
REMARK  status: ('A' for Active; 'I' for Inactive)
REMARK    1  A    between atoms: C2_2  and  C4_4 
REMARK    2  A    between atoms: C4_4  and  O1_5 
REMARK    3  A    between atoms: N1_9  and  C7_10 
ROOT
HETATM    1  C4  UNL     1      -5.171  23.842   7.221  1.00  0.00     0.193 C 
HETATM    2  C5  UNL     1      -5.217  22.408   7.699  1.00  0.00     0.094 C 
HETATM    3  C6  UNL     1      -6.314  22.450   8.735  1.00  0.00     0.181 C 
HETATM    4  N1  UNL     1      -6.468  23.870   8.957  1.00  0.00    -0.083 N 
HETATM    5  O2  UNL     1      -5.392  24.529   8.431  1.00  0.00    -0.224 OA
ENDROOT
BRANCH   4   6
HETATM    6  C7  UNL     1      -7.578  24.458   9.617  1.00  0.00     0.721 A 
HETATM    7  N2  UNL     1      -8.838  24.014   9.759  1.00  0.00    -0.128 N 
HETATM    8  N3  UNL     1      -9.567  24.880  10.456  1.00  0.00    -0.261 N 
ATOM      9  H2  UNL     1      -9.187  23.133   9.385  1.00  0.00     0.205 HD
HETATM   10  C8  UNL     1      -8.781  25.918  10.785  1.00  0.00     0.205 A 
ATOM     11  H3  UNL     1     -10.552  24.775  10.698  1.00  0.00     0.190 HD
HETATM   12  S1  UNL     1      -9.180  27.253  11.638  1.00  0.00    -0.039 SA
HETATM   13  N4  UNL     1      -7.574  25.657  10.273  1.00  0.00    -0.162 N 
ATOM     14  H4  UNL     1      -6.762  26.268  10.362  1.00  0.00     0.187 HD
ENDBRANCH   4   6
BRANCH   1  15
HETATM   15  C2  UNL     1      -3.833  24.102   6.620  1.00  0.00     0.042 C 
HETATM   16  C1  UNL     1      -2.911  24.494   7.773  1.00  0.00     0.015 C 
HETATM   17  C3  UNL     1      -3.237  22.932   5.893  1.00  0.00     0.015 C 
ENDBRANCH   1  15
BRANCH   1  18
HETATM   18  O1  UNL     1      -6.218  24.120   6.344  1.00  0.00    -0.363 OA
ATOM     19  H1  UNL     1      -6.881  23.441   6.338  1.00  0.00     0.213 HD
ENDBRANCH   1  18
TORSDOF 3
ENDMDL
MODEL 2
REMARK VINA RESULT: -6.349492605      3.290      6.072
REMARK  3 active torsions:
REMARK  status: ('A' for Active; 'I' for Inactive)
REMARK    1  A    between atoms: C2_2  and  C4_4 
REMARK    2  A    between atoms: C4_4  and  O1_5 
REMARK    3  A    between atoms: N1_9  and  C7_10 
ROOT
HETATM    1  C4  UNL     1      -9.379  26.402   9.584  1.00  0.00     0.193 C 
HETATM    2  C5  UNL     1      -8.941  27.837   9.391  1.00  0.00     0.094 C 
HETATM    3  C6  UNL     1      -7.745  27.687   8.483  1.00  0.00     0.181 C 
HETATM    4  N1  UNL     1      -7.461  26.273   8.583  1.00  0.00    -0.083 N 
HETATM    5  O2  UNL     1      -8.130  25.754   9.656  1.00  0.00    -0.224 OA
ENDROOT
BRANCH   4   6
HETATM    6  C7  UNL     1      -6.619  25.563   7.689  1.00  0.00     0.721 A 
HETATM    7  N2  UNL     1      -6.177  25.895   6.464  1.00  0.00    -0.128 N 
HETATM    8  N3  UNL     1      -5.400  24.938   5.968  1.00  0.00    -0.261 N 
ATOM      9  H2  UNL     1      -6.406  26.764   5.981  1.00  0.00     0.205 HD
HETATM   10  C8  UNL     1      -5.321  23.952   6.876  1.00  0.00     0.205 A 
ATOM     11  H3  UNL     1      -4.944  24.949   5.056  1.00  0.00     0.190 HD
HETATM   12  S1  UNL     1      -4.496  22.546   6.767  1.00  0.00    -0.039 SA
HETATM   13  N4  UNL     1      -6.062  24.337   7.920  1.00  0.00    -0.162 N 
ATOM     14  H4  UNL     1      -6.194  23.790   8.771  1.00  0.00     0.187 HD
ENDBRANCH   4   6
BRANCH   1  15
HETATM   15  C2  UNL     1     -10.175  26.312  10.839  1.00  0.00     0.042 C 
HETATM   16  C1  UNL     1      -9.202  26.575  11.987  1.00  0.00     0.015 C 
HETATM   17  C3  UNL     1     -11.313  27.285  10.930  1.00  0.00     0.015 C 
ENDBRANCH   1  15
BRANCH   1  18
HETATM   18  O1  UNL     1     -10.073  25.928   8.472  1.00  0.00    -0.363 OA
ATOM     19  H1  UNL     1      -9.559  25.969   7.675  1.00  0.00     0.213 HD
ENDBRANCH   1  18
TORSDOF 3
ENDMDL
MODEL 3
REMARK VINA RESULT: -6.089808430      4.247      5.800
REMARK  3 active torsions:
REMARK  status: ('A' for Active; 'I' for Inactive)
REMARK    1  A    between atoms: C2_2  and  C4_4 
REMARK    2  A    between atoms: C4_4  and  O1_5 
REMARK    3  A    between atoms: N1_9  and  C7_10 
ROOT
HETATM    1  C4  UNL     1      -2.436  26.759   4.592  1.00  0.00     0.193 C 
HETATM    2  C5  UNL     1      -1.001  26.462   4.965  1.00  0.00     0.094 C 
HETATM    3  C6  UNL     1      -1.130  25.167   5.728  1.00  0.00     0.181 C 
HETATM    4  N1  UNL     1      -2.551  25.108   5.991  1.00  0.00    -0.083 N 
HETATM    5  O2  UNL     1      -3.104  26.336   5.759  1.00  0.00    -0.224 OA
ENDROOT
BRANCH   4   6
HETATM    6  C7  UNL     1      -3.236  23.940   6.416  1.00  0.00     0.721 A 
HETATM    7  N2  UNL     1      -3.149  22.674   5.976  1.00  0.00    -0.128 N 
HETATM    8  N3  UNL     1      -3.971  21.881   6.656  1.00  0.00    -0.261 N 
ATOM      9  H2  UNL     1      -2.535  22.363   5.224  1.00  0.00     0.205 HD
HETATM   10  C8  UNL     1      -4.616  22.630   7.565  1.00  0.00     0.205 A 
ATOM     11  H3  UNL     1      -4.092  20.879   6.512  1.00  0.00     0.190 HD
HETATM   12  S1  UNL     1      -5.735  22.150   8.654  1.00  0.00    -0.039 SA
HETATM   13  N4  UNL     1      -4.165  23.880   7.416  1.00  0.00    -0.162 N 
ATOM     14  H4  UNL     1      -4.473  24.678   7.972  1.00  0.00     0.187 HD
ENDBRANCH   4   6
BRANCH   1  15
HETATM   15  C2  UNL     1      -2.567  28.218   4.323  1.00  0.00     0.042 C 
HETATM   16  C1  UNL     1      -3.886  28.657   4.955  1.00  0.00     0.015 C 
HETATM   17  C3  UNL     1      -1.455  29.058   4.880  1.00  0.00     0.015 C 
ENDBRANCH   1  15
BRANCH   1  18
HETATM   18  O1  UNL     1      -2.857  25.975   3.519  1.00  0.00    -0.363 OA
ATOM     19  H1  UNL     1      -3.798  26.001   3.394  1.00  0.00     0.213 HD
ENDBRANCH   1  18
TORSDOF 3
ENDMDL
MODEL 4
REMARK VINA RESULT: -6.064411443      0.553      1.052
REMARK  3 active torsions:
REMARK  status: ('A' for Active; 'I' for Inactive)
REMARK    1  A    between atoms: C2_2  and  C4_4 
REMARK    2  A    between atoms: C4_4  and  O1_5 
REMARK    3  A    between atoms: N1_9  and  C7_10 
ROOT
HETATM    1  C4  UNL     1      -4.684  23.566   7.575  1.00  0.00     0.193 C 
HETATM    2  C5  UNL     1      -4.909  22.115   7.935  1.00  0.00     0.094 C 
HETATM    3  C6  UNL     1      -6.173  22.180   8.756  1.00  0.00     0.181 C 
HETATM    4  N1  UNL     1      -6.276  23.593   9.047  1.00  0.00    -0.083 N 
HETATM    5  O2  UNL     1      -5.081  24.198   8.771  1.00  0.00    -0.224 OA
ENDROOT
BRANCH   4   6
HETATM    6  C7  UNL     1      -7.449  24.224   9.535  1.00  0.00     0.721 A 
HETATM    7  N2  UNL     1      -8.687  23.735   9.715  1.00  0.00    -0.128 N 
HETATM    8  N3  UNL     1      -9.498  24.671  10.199  1.00  0.00    -0.261 N 
ATOM      9  H2  UNL     1      -8.967  22.777   9.508  1.00  0.00     0.205 HD
HETATM   10  C8  UNL     1      -8.789  25.801  10.346  1.00  0.00     0.205 A 
ATOM     11  H3  UNL     1     -10.486  24.551  10.420  1.00  0.00     0.190 HD
HETATM   12  S1  UNL     1      -9.304  27.248  10.904  1.00  0.00    -0.039 SA
HETATM   13  N4  UNL     1      -7.545  25.525   9.942  1.00  0.00    -0.162 N 
ATOM     14  H4  UNL     1      -6.774  26.193   9.939  1.00  0.00     0.187 HD
ENDBRANCH   4   6
BRANCH   1  15
HETATM   15  C2  UNL     1      -3.245  23.758   7.245  1.00  0.00     0.042 C 
HETATM   16  C1  UNL     1      -3.077  23.337   5.786  1.00  0.00     0.015 C 
HETATM   17  C3  UNL     1      -2.749  25.165   7.407  1.00  0.00     0.015 C 
ENDBRANCH   1  15
BRANCH   1  18
HETATM   18  O1  UNL     1      -5.531  23.973   6.545  1.00  0.00    -0.363 OA
ATOM     19  H1  UNL     1      -6.443  23.997   6.809  1.00  0.00     0.213 HD
ENDBRANCH   1  18
TORSDOF 3
ENDMDL
MODEL 5
REMARK VINA RESULT: -5.938389294      4.181      5.428
REMARK  3 active torsions:
REMARK  status: ('A' for Active; 'I' for Inactive)
REMARK    1  A    between atoms: C2_2  and  C4_4 
REMARK    2  A    between atoms: C4_4  and  O1_5 
REMARK    3  A    between atoms: N1_9  and  C7_10 
ROOT
HETATM    1  C4  UNL     1      -2.274  27.065   4.684  1.00  0.00     0.193 C 
HETATM    2  C5  UNL     1      -1.106  26.254   5.198  1.00  0.00     0.094 C 
HETATM    3  C6  UNL     1      -1.793  25.152   5.966  1.00  0.00     0.181 C 
HETATM    4  N1  UNL     1      -3.140  25.662   6.091  1.00  0.00    -0.083 N 
HETATM    5  O2  UNL     1      -3.148  26.995   5.788  1.00  0.00    -0.224 OA
ENDROOT
BRANCH   4   6
HETATM    6  C7  UNL     1      -4.260  24.875   6.466  1.00  0.00     0.721 A 
HETATM    7  N2  UNL     1      -5.545  24.954   6.083  1.00  0.00    -0.128 N 
HETATM    8  N3  UNL     1      -6.273  24.016   6.678  1.00  0.00    -0.261 N 
ATOM      9  H2  UNL     1      -5.911  25.641   5.423  1.00  0.00     0.205 HD
HETATM   10  C8  UNL     1      -5.462  23.298   7.471  1.00  0.00     0.205 A 
ATOM     11  H3  UNL     1      -7.275  23.867   6.555  1.00  0.00     0.190 HD
HETATM   12  S1  UNL     1      -5.849  22.029   8.424  1.00  0.00    -0.039 SA
HETATM   13  N4  UNL     1      -4.239  23.823   7.339  1.00  0.00    -0.162 N 
ATOM     14  H4  UNL     1      -3.407  23.485   7.822  1.00  0.00     0.187 HD
ENDBRANCH   4   6
BRANCH   1  15
HETATM   15  C2  UNL     1      -1.801  28.444   4.381  1.00  0.00     0.042 C 
HETATM   16  C1  UNL     1      -3.036  29.341   4.418  1.00  0.00     0.015 C 
HETATM   17  C3  UNL     1      -0.779  28.979   5.340  1.00  0.00     0.015 C 
ENDBRANCH   1  15
BRANCH   1  18
HETATM   18  O1  UNL     1      -2.877  26.450   3.588  1.00  0.00    -0.363 OA
ATOM     19  H1  UNL     1      -3.805  26.642   3.526  1.00  0.00     0.213 HD
ENDBRANCH   1  18
TORSDOF 3
ENDMDL
