MODEL 1
REMARK VINA RESULT: -7.073739248      0.000      0.000
REMARK  5 active torsions:
REMARK  status: ('A' for Active; 'I' for Inactive)
REMARK    1  A    between atoms: C2_2  and  N1_3 
REMARK    2  A    between atoms: N1_3  and  C3_4 
REMARK       I    between atoms: N1_3  and  C10_13 
REMARK    3  A    between atoms: C3_4  and  C4_5 
REMARK       I    between atoms: C4_5  and  N2_7 
REMARK    4  A    between atoms: N2_7  and  C5_8 
REMARK       I    between atoms: C10_13  and  N5_18 
REMARK    5  A    between atoms: N5_18  and  C12_20 
ROOT
HETATM    1  N1  UNL     1      24.910  51.317  -1.112  1.00  0.00    -0.208 N 
HETATM    2  C10 UNL     1      26.259  50.758  -1.430  1.00  0.00     0.685 C 
HETATM    3  N3  UNL     1      27.104  51.033  -0.570  1.00  0.00    -0.126 N 
ATOM      4  H3  UNL     1      26.656  51.589   0.158  1.00  0.00     0.197 HD
HETATM    5  C11 UNL     1      28.386  50.869  -0.247  1.00  0.00     0.196 C 
HETATM    6  N4  UNL     1      29.486  50.724   0.054  1.00  0.00    -0.171 NA
HETATM    7  N5  UNL     1      26.303  50.012  -2.608  1.00  0.00    -0.221 N 
ATOM      8  H5  UNL     1      25.562  49.313  -2.670  1.00  0.00     0.178 HD
ENDROOT
BRANCH   1   9
HETATM    9  C2  UNL     1      24.252  52.039  -2.129  1.00  0.00     0.137 C 
HETATM   10  C1  UNL     1      25.007  53.309  -2.524  1.00  0.00     0.027 C 
ENDBRANCH   1   9
BRANCH   1  11
HETATM   11  C3  UNL     1      24.441  51.072   0.218  1.00  0.00     0.260 C 
BRANCH  11  12
HETATM   12  C4  UNL     1      23.208  50.195   0.234  1.00  0.00     0.305 C 
HETATM   13  O1  UNL     1      22.146  50.809   0.029  1.00  0.00    -0.256 OA
HETATM   14  N2  UNL     1      23.336  48.849   0.457  1.00  0.00    -0.408 NA
BRANCH  14  15
HETATM   15  C5  UNL     1      23.465  47.494   0.684  1.00  0.00     0.167 C 
HETATM   16  C6  UNL     1      22.424  46.850   1.613  1.00  0.00     0.039 C 
HETATM   17  C7  UNL     1      23.039  46.921   2.965  1.00  0.00     0.003 C 
HETATM   18  C8  UNL     1      24.519  46.967   2.773  1.00  0.00     0.003 C 
HETATM   19  C9  UNL     1      24.775  47.137   1.302  1.00  0.00     0.039 C 
ENDBRANCH  14  15
ENDBRANCH  11  12
ENDBRANCH   1  11
BRANCH   7  20
HETATM   20  C12 UNL     1      27.149  50.019  -3.725  1.00  0.00     0.099 C 
HETATM   21  C13 UNL     1      28.357  49.142  -3.737  1.00  0.00     0.026 C 
HETATM   22  C14 UNL     1      28.783  49.105  -5.189  1.00  0.00     0.002 C 
HETATM   23  C15 UNL     1      27.776  49.964  -5.937  1.00  0.00     0.002 C 
HETATM   24  C16 UNL     1      26.512  49.666  -5.068  1.00  0.00     0.026 C 
ENDBRANCH   7  20
TORSDOF 5
ENDMDL
MODEL 2
REMARK VINA RESULT: -6.803304137      1.666      2.882
REMARK  5 active torsions:
REMARK  status: ('A' for Active; 'I' for Inactive)
REMARK    1  A    between atoms: C2_2  and  N1_3 
REMARK    2  A    between atoms: N1_3  and  C3_4 
REMARK       I    between atoms: N1_3  and  C10_13 
REMARK    3  A    between atoms: C3_4  and  C4_5 
REMARK       I    between atoms: C4_5  and  N2_7 
REMARK    4  A    between atoms: N2_7  and  C5_8 
REMARK       I    between atoms: C10_13  and  N5_18 
REMARK    5  A    between atoms: N5_18  and  C12_20 
ROOT
HETATM    1  N1  UNL     1      25.202  50.524   0.015  1.00  0.00    -0.208 N 
HETATM    2  C10 UNL     1      25.402  51.003  -1.386  1.00  0.00     0.685 C 
HETATM    3  N3  UNL     1      24.498  50.642  -2.148  1.00  0.00    -0.126 N 
ATOM      4  H3  UNL     1      23.825  50.093  -1.613  1.00  0.00     0.197 HD
HETATM    5  C11 UNL     1      24.080  50.710  -3.411  1.00  0.00     0.196 C 
HETATM    6  N4  UNL     1      23.697  50.771  -4.493  1.00  0.00    -0.171 NA
HETATM    7  N5  UNL     1      26.545  51.786  -1.562  1.00  0.00    -0.221 N 
ATOM      8  H5  UNL     1      26.630  52.533  -0.873  1.00  0.00     0.178 HD
ENDROOT
BRANCH   1   9
HETATM    9  C2  UNL     1      26.290  49.884   0.643  1.00  0.00     0.137 C 
HETATM   10  C1  UNL     1      26.447  50.302   2.106  1.00  0.00     0.027 C 
ENDBRANCH   1   9
BRANCH   1  11
HETATM   11  C3  UNL     1      23.900  50.753   0.562  1.00  0.00     0.260 C 
BRANCH  11  12
HETATM   12  C4  UNL     1      22.928  49.652   0.200  1.00  0.00     0.305 C 
HETATM   13  O1  UNL     1      21.947  50.037  -0.461  1.00  0.00    -0.256 OA
HETATM   14  N2  UNL     1      23.181  48.366   0.601  1.00  0.00    -0.408 NA
BRANCH  14  15
HETATM   15  C5  UNL     1      23.434  47.072   1.005  1.00  0.00     0.167 C 
HETATM   16  C6  UNL     1      22.455  46.464   2.021  1.00  0.00     0.039 C 
HETATM   17  C7  UNL     1      23.055  46.771   3.346  1.00  0.00     0.003 C 
HETATM   18  C8  UNL     1      24.525  46.929   3.136  1.00  0.00     0.003 C 
HETATM   19  C9  UNL     1      24.770  46.924   1.654  1.00  0.00     0.039 C 
ENDBRANCH  14  15
ENDBRANCH  11  12
ENDBRANCH   1  11
BRANCH   7  20
HETATM   20  C12 UNL     1      27.599  51.761  -2.485  1.00  0.00     0.099 C 
HETATM   21  C13 UNL     1      28.060  50.454  -3.039  1.00  0.00     0.026 C 
HETATM   22  C14 UNL     1      28.889  50.828  -4.249  1.00  0.00     0.002 C 
HETATM   23  C15 UNL     1      28.845  52.345  -4.327  1.00  0.00     0.002 C 
HETATM   24  C16 UNL     1      27.406  52.574  -3.764  1.00  0.00     0.026 C 
ENDBRANCH   7  20
TORSDOF 5
ENDMDL
MODEL 3
REMARK VINA RESULT: -6.746736931      2.143      3.491
REMARK  5 active torsions:
REMARK  status: ('A' for Active; 'I' for Inactive)
REMARK    1  A    between atoms: C2_2  and  N1_3 
REMARK    2  A    between atoms: N1_3  and  C3_4 
REMARK       I    between atoms: N1_3  and  C10_13 
REMARK    3  A    between atoms: C3_4  and  C4_5 
REMARK       I    between atoms: C4_5  and  N2_7 
REMARK    4  A    between atoms: N2_7  and  C5_8 
REMARK       I    between atoms: C10_13  and  N5_18 
REMARK    5  A    between atoms: N5_18  and  C12_20 
ROOT
HETATM    1  N1  UNL     1      24.623  50.628  -0.120  1.00  0.00    -0.208 N 
HETATM    2  C10 UNL     1      24.518  51.597  -1.253  1.00  0.00     0.685 C 
HETATM    3  N3  UNL     1      23.462  51.480  -1.885  1.00  0.00    -0.126 N 
ATOM      4  H3  UNL     1      22.915  50.730  -1.463  1.00  0.00     0.197 HD
HETATM    5  C11 UNL     1      22.777  51.975  -2.914  1.00  0.00     0.196 C 
HETATM    6  N4  UNL     1      22.166  52.401  -3.790  1.00  0.00    -0.171 NA
HETATM    7  N5  UNL     1      25.606  52.464  -1.363  1.00  0.00    -0.221 N 
ATOM      8  H5  UNL     1      25.853  52.913  -0.481  1.00  0.00     0.178 HD
ENDROOT
BRANCH   1   9
HETATM    9  C2  UNL     1      25.813  49.877  -0.018  1.00  0.00     0.137 C 
HETATM   10  C1  UNL     1      26.527  50.095   1.317  1.00  0.00     0.027 C 
ENDBRANCH   1   9
BRANCH   1  11
HETATM   11  C3  UNL     1      23.478  50.555   0.734  1.00  0.00     0.260 C 
BRANCH  11  12
HETATM   12  C4  UNL     1      22.613  49.352   0.426  1.00  0.00     0.305 C 
HETATM   13  O1  UNL     1      21.595  49.615  -0.238  1.00  0.00    -0.256 OA
HETATM   14  N2  UNL     1      22.992  48.113   0.872  1.00  0.00    -0.408 NA
BRANCH  14  15
HETATM   15  C5  UNL     1      23.373  46.866   1.323  1.00  0.00     0.167 C 
HETATM   16  C6  UNL     1      22.476  46.216   2.389  1.00  0.00     0.039 C 
HETATM   17  C7  UNL     1      23.075  46.634   3.684  1.00  0.00     0.003 C 
HETATM   18  C8  UNL     1      24.519  46.915   3.429  1.00  0.00     0.003 C 
HETATM   19  C9  UNL     1      24.730  46.868   1.942  1.00  0.00     0.039 C 
ENDBRANCH  14  15
ENDBRANCH  11  12
ENDBRANCH   1  11
BRANCH   7  20
HETATM   20  C12 UNL     1      26.431  52.848  -2.429  1.00  0.00     0.099 C 
HETATM   21  C13 UNL     1      26.682  51.890  -3.545  1.00  0.00     0.026 C 
HETATM   22  C14 UNL     1      27.248  52.746  -4.658  1.00  0.00     0.002 C 
HETATM   23  C15 UNL     1      27.278  54.164  -4.113  1.00  0.00     0.002 C 
HETATM   24  C16 UNL     1      26.012  54.099  -3.200  1.00  0.00     0.026 C 
ENDBRANCH   7  20
TORSDOF 5
ENDMDL
MODEL 4
REMARK VINA RESULT: -6.673208801      2.220      3.032
REMARK  5 active torsions:
REMARK  status: ('A' for Active; 'I' for Inactive)
REMARK    1  A    between atoms: C2_2  and  N1_3 
REMARK    2  A    between atoms: N1_3  and  C3_4 
REMARK       I    between atoms: N1_3  and  C10_13 
REMARK    3  A    between atoms: C3_4  and  C4_5 
REMARK       I    between atoms: C4_5  and  N2_7 
REMARK    4  A    between atoms: N2_7  and  C5_8 
REMARK       I    between atoms: C10_13  and  N5_18 
REMARK    5  A    between atoms: N5_18  and  C12_20 
ROOT
HETATM    1  N1  UNL     1      24.279  50.765  -0.966  1.00  0.00    -0.208 N 
HETATM    2  C10 UNL     1      24.968  51.436  -2.110  1.00  0.00     0.685 C 
HETATM    3  N3  UNL     1      25.200  52.630  -1.894  1.00  0.00    -0.126 N 
ATOM      4  H3  UNL     1      24.850  52.865  -0.965  1.00  0.00     0.197 HD
HETATM    5  C11 UNL     1      25.738  53.724  -2.431  1.00  0.00     0.196 C 
HETATM    6  N4  UNL     1      26.213  54.673  -2.873  1.00  0.00    -0.171 NA
HETATM    7  N5  UNL     1      25.247  50.586  -3.182  1.00  0.00    -0.221 N 
ATOM      8  H5  UNL     1      25.703  49.718  -2.900  1.00  0.00     0.178 HD
ENDROOT
BRANCH   1   9
HETATM    9  C2  UNL     1      23.124  50.010  -1.258  1.00  0.00     0.137 C 
HETATM   10  C1  UNL     1      21.978  50.301  -0.287  1.00  0.00     0.027 C 
ENDBRANCH   1   9
BRANCH   1  11
HETATM   11  C3  UNL     1      24.865  50.988   0.320  1.00  0.00     0.260 C 
BRANCH  11  12
HETATM   12  C4  UNL     1      25.798  49.866   0.722  1.00  0.00     0.305 C 
HETATM   13  O1  UNL     1      26.989  50.209   0.825  1.00  0.00    -0.256 OA
HETATM   14  N2  UNL     1      25.294  48.610   0.938  1.00  0.00    -0.408 NA
BRANCH  14  15
HETATM   15  C5  UNL     1      24.787  47.345   1.154  1.00  0.00     0.167 C 
HETATM   16  C6  UNL     1      23.384  47.062   0.595  1.00  0.00     0.039 C 
HETATM   17  C7  UNL     1      22.464  47.392   1.716  1.00  0.00     0.003 C 
HETATM   18  C8  UNL     1      23.240  47.231   2.982  1.00  0.00     0.003 C 
HETATM   19  C9  UNL     1      24.677  47.010   2.603  1.00  0.00     0.039 C 
ENDBRANCH  14  15
ENDBRANCH  11  12
ENDBRANCH   1  11
BRANCH   7  20
HETATM   20  C12 UNL     1      25.033  50.675  -4.564  1.00  0.00     0.099 C 
HETATM   21  C13 UNL     1      25.697  49.696  -5.475  1.00  0.00     0.026 C 
HETATM   22  C14 UNL     1      24.950  49.831  -6.784  1.00  0.00     0.002 C 
HETATM   23  C15 UNL     1      23.880  50.882  -6.543  1.00  0.00     0.002 C 
HETATM   24  C16 UNL     1      23.584  50.584  -5.038  1.00  0.00     0.026 C 
ENDBRANCH   7  20
TORSDOF 5
ENDMDL
MODEL 5
REMARK VINA RESULT: -6.502824064      2.059      2.705
REMARK  5 active torsions:
REMARK  status: ('A' for Active; 'I' for Inactive)
REMARK    1  A    between atoms: C2_2  and  N1_3 
REMARK    2  A    between atoms: N1_3  and  C3_4 
REMARK       I    between atoms: N1_3  and  C10_13 
REMARK    3  A    between atoms: C3_4  and  C4_5 
REMARK       I    between atoms: C4_5  and  N2_7 
REMARK    4  A    between atoms: N2_7  and  C5_8 
REMARK       I    between atoms: C10_13  and  N5_18 
REMARK    5  A    between atoms: N5_18  and  C12_20 
ROOT
HETATM    1  N1  UNL     1      25.324  50.355  -1.660  1.00  0.00    -0.208 N 
HETATM    2  C10 UNL     1      26.005  50.846  -2.897  1.00  0.00     0.685 C 
HETATM    3  N3  UNL     1      26.716  51.835  -2.690  1.00  0.00    -0.126 N 
ATOM      4  H3  UNL     1      26.656  52.075  -1.700  1.00  0.00     0.197 HD
HETATM    5  C11 UNL     1      27.532  52.703  -3.286  1.00  0.00     0.196 C 
HETATM    6  N4  UNL     1      28.251  53.451  -3.781  1.00  0.00    -0.171 NA
HETATM    7  N5  UNL     1      25.737  50.083  -4.035  1.00  0.00    -0.221 N 
ATOM      8  H5  UNL     1      25.862  49.081  -3.886  1.00  0.00     0.178 HD
ENDROOT
BRANCH   1   9
HETATM    9  C2  UNL     1      23.935  50.124  -1.734  1.00  0.00     0.137 C 
HETATM   10  C1  UNL     1      23.140  51.414  -1.944  1.00  0.00     0.027 C 
ENDBRANCH   1   9
BRANCH   1  11
HETATM   11  C3  UNL     1      26.169  50.194  -0.517  1.00  0.00     0.260 C 
BRANCH  11  12
HETATM   12  C4  UNL     1      25.381  49.869   0.733  1.00  0.00     0.305 C 
HETATM   13  O1  UNL     1      25.175  50.849   1.472  1.00  0.00    -0.256 OA
HETATM   14  N2  UNL     1      24.963  48.583   0.956  1.00  0.00    -0.408 NA
BRANCH  14  15
HETATM   15  C5  UNL     1      24.544  47.288   1.181  1.00  0.00     0.167 C 
HETATM   16  C6  UNL     1      23.132  46.927   0.694  1.00  0.00     0.039 C 
HETATM   17  C7  UNL     1      22.256  47.191   1.865  1.00  0.00     0.003 C 
HETATM   18  C8  UNL     1      23.105  47.064   3.086  1.00  0.00     0.003 C 
HETATM   19  C9  UNL     1      24.531  46.933   2.630  1.00  0.00     0.039 C 
ENDBRANCH  14  15
ENDBRANCH  11  12
ENDBRANCH   1  11
BRANCH   7  20
HETATM   20  C12 UNL     1      25.332  50.402  -5.338  1.00  0.00     0.099 C 
HETATM   21  C13 UNL     1      25.640  49.461  -6.454  1.00  0.00     0.026 C 
HETATM   22  C14 UNL     1      24.740  49.909  -7.586  1.00  0.00     0.002 C 
HETATM   23  C15 UNL     1      23.950  51.087  -7.043  1.00  0.00     0.002 C 
HETATM   24  C16 UNL     1      23.838  50.636  -5.551  1.00  0.00     0.026 C 
ENDBRANCH   7  20
TORSDOF 5
ENDMDL
