MODEL 1
REMARK VINA RESULT: -6.941764120      0.000      0.000
REMARK  10 active torsions:
REMARK  status: ('A' for Active; 'I' for Inactive)
REMARK    1  A    between atoms: C2_2  and  C3_3 
REMARK    2  A    between atoms: C9_9  and  C10_10 
REMARK    3  A    between atoms: C10_10  and  C11_11 
REMARK    4  A    between atoms: C11_11  and  C12_12 
REMARK    5  A    between atoms: C16_16  and  C17_17 
REMARK    6  A    between atoms: C20_24  and  O1_25 
REMARK    7  A    between atoms: C22_28  and  O2_29 
REMARK    8  A    between atoms: C23_32  and  C25_34 
REMARK    9  A    between atoms: C25_34  and  O4_35 
REMARK   10  A    between atoms: O4_35  and  C26_36 
ROOT
HETATM    1  C3  UNL     1       3.867  24.957  20.040  1.00  0.00     0.078 C 
HETATM    2  C4  UNL     1       3.441  26.387  19.955  1.00  0.00     0.051 C 
HETATM    3  C5  UNL     1       3.431  24.519  21.429  1.00  0.00     0.012 C 
HETATM    4  C6  UNL     1       2.308  23.941  21.862  1.00  0.00     0.016 C 
HETATM    5  C7  UNL     1       1.095  23.516  21.189  1.00  0.00     0.032 A 
HETATM    6  C8  UNL     1       0.681  23.454  19.896  1.00  0.00     0.092 A 
HETATM    7  C9  UNL     1      -0.575  22.983  19.469  1.00  0.00    -0.011 A 
HETATM    8  C15 UNL     1      -1.430  22.539  20.504  1.00  0.00     0.002 A 
HETATM    9  C16 UNL     1      -2.678  22.127  20.155  1.00  0.00     0.017 A 
HETATM   10  C18 UNL     1      -3.597  21.787  21.228  1.00  0.00     0.018 A 
HETATM   11  C19 UNL     1      -3.222  21.860  22.515  1.00  0.00     0.038 A 
HETATM   12  C20 UNL     1      -1.906  22.272  22.853  1.00  0.00     0.079 A 
HETATM   13  C21 UNL     1      -1.024  22.606  21.845  1.00  0.00     0.043 A 
HETATM   14  C22 UNL     1       0.248  23.097  22.172  1.00  0.00     0.092 A 
HETATM   15  O3  UNL     1       1.295  23.794  18.673  1.00  0.00    -0.311 OA
HETATM   16  C23 UNL     1       2.627  24.002  18.194  1.00  0.00     0.189 C 
HETATM   17  C24 UNL     1       2.970  22.697  17.478  1.00  0.00     0.082 C 
HETATM   18  O6  UNL     1       3.564  24.085  19.124  1.00  0.00    -0.338 OA
ENDROOT
BRANCH  16  19
HETATM   19  C25 UNL     1       2.599  25.093  17.172  1.00  0.00     0.247 C 
BRANCH  19  20
HETATM   20  O4  UNL     1       3.674  25.427  16.427  1.00  0.00    -0.316 OA
BRANCH  20  21
HETATM   21  C26 UNL     1       4.947  25.789  16.542  1.00  0.00     0.254 C 
HETATM   22  C27 UNL     1       6.123  24.856  16.418  1.00  0.00     0.126 C 
HETATM   23  O5  UNL     1       5.230  26.986  16.770  1.00  0.00    -0.266 OA
ENDBRANCH  20  21
ENDBRANCH  19  20
ENDBRANCH  16  19
BRANCH   1  24
HETATM   24  C2  UNL     1       5.388  24.941  20.123  1.00  0.00     0.037 C 
HETATM   25  C1  UNL     1       6.049  26.238  20.344  1.00  0.00     0.008 C 
ENDBRANCH   1  24
BRANCH   7  26
HETATM   26  C10 UNL     1      -1.089  23.215  18.147  1.00  0.00     0.043 C 
BRANCH  26  27
HETATM   27  C11 UNL     1      -1.575  24.562  17.723  1.00  0.00     0.008 C 
BRANCH  27  28
HETATM   28  C12 UNL     1      -2.685  25.261  18.377  1.00  0.00    -0.023 C 
HETATM   29  C13 UNL     1      -2.085  26.315  19.365  1.00  0.00     0.009 C 
HETATM   30  C14 UNL     1      -3.613  26.056  17.476  1.00  0.00     0.009 C 
ENDBRANCH  27  28
ENDBRANCH  26  27
ENDBRANCH   7  26
BRANCH  14  31
HETATM   31  O2  UNL     1       0.551  23.120  23.474  1.00  0.00    -0.359 OA
ATOM     32  H2  UNL     1       0.705  23.919  23.966  1.00  0.00     0.217 HD
ENDBRANCH  14  31
BRANCH   9  33
HETATM   33  C17 UNL     1      -3.062  21.530  18.919  1.00  0.00     0.121 C 
HETATM   34  N1  UNL     1      -4.088  21.966  18.277  1.00  0.00    -0.387 N 
ATOM     35  H12 UNL     1      -4.405  22.882  18.593  1.00  0.00     0.157 HD
ATOM     36  H11 UNL     1      -4.364  21.539  17.392  1.00  0.00     0.157 HD
HETATM   37  N2  UNL     1      -2.629  20.278  18.487  1.00  0.00    -0.082 NA
ENDBRANCH   9  33
BRANCH  12  38
HETATM   38  O1  UNL     1      -1.647  22.295  24.168  1.00  0.00    -0.360 OA
ATOM     39  H1  UNL     1      -1.583  21.440  24.575  1.00  0.00     0.217 HD
ENDBRANCH  12  38
TORSDOF 10
ENDMDL
MODEL 2
REMARK VINA RESULT: -6.874538823      1.031      1.635
REMARK  10 active torsions:
REMARK  status: ('A' for Active; 'I' for Inactive)
REMARK    1  A    between atoms: C2_2  and  C3_3 
REMARK    2  A    between atoms: C9_9  and  C10_10 
REMARK    3  A    between atoms: C10_10  and  C11_11 
REMARK    4  A    between atoms: C11_11  and  C12_12 
REMARK    5  A    between atoms: C16_16  and  C17_17 
REMARK    6  A    between atoms: C20_24  and  O1_25 
REMARK    7  A    between atoms: C22_28  and  O2_29 
REMARK    8  A    between atoms: C23_32  and  C25_34 
REMARK    9  A    between atoms: C25_34  and  O4_35 
REMARK   10  A    between atoms: O4_35  and  C26_36 
ROOT
HETATM    1  C3  UNL     1       3.824  25.054  19.973  1.00  0.00     0.078 C 
HETATM    2  C4  UNL     1       3.371  26.476  19.895  1.00  0.00     0.051 C 
HETATM    3  C5  UNL     1       3.421  24.609  21.369  1.00  0.00     0.012 C 
HETATM    4  C6  UNL     1       2.316  24.011  21.823  1.00  0.00     0.016 C 
HETATM    5  C7  UNL     1       1.099  23.564  21.171  1.00  0.00     0.032 A 
HETATM    6  C8  UNL     1       0.663  23.494  19.886  1.00  0.00     0.092 A 
HETATM    7  C9  UNL     1      -0.591  23.000  19.482  1.00  0.00    -0.011 A 
HETATM    8  C15 UNL     1      -1.420  22.542  20.532  1.00  0.00     0.002 A 
HETATM    9  C16 UNL     1      -2.666  22.107  20.206  1.00  0.00     0.017 A 
HETATM   10  C18 UNL     1      -3.560  21.752  21.295  1.00  0.00     0.018 A 
HETATM   11  C19 UNL     1      -3.163  21.832  22.575  1.00  0.00     0.038 A 
HETATM   12  C20 UNL     1      -1.849  22.268  22.890  1.00  0.00     0.079 A 
HETATM   13  C21 UNL     1      -0.991  22.616  21.865  1.00  0.00     0.043 A 
HETATM   14  C22 UNL     1       0.277  23.130  22.170  1.00  0.00     0.092 A 
HETATM   15  O3  UNL     1       1.249  23.844  18.652  1.00  0.00    -0.311 OA
HETATM   16  C23 UNL     1       2.569  24.076  18.150  1.00  0.00     0.189 C 
HETATM   17  C24 UNL     1       2.921  22.777  17.427  1.00  0.00     0.082 C 
HETATM   18  O6  UNL     1       3.520  24.176  19.062  1.00  0.00    -0.338 OA
ENDROOT
BRANCH  16  19
HETATM   19  C25 UNL     1       2.502  25.166  17.128  1.00  0.00     0.247 C 
BRANCH  19  20
HETATM   20  O4  UNL     1       1.413  25.945  16.958  1.00  0.00    -0.316 OA
BRANCH  20  21
HETATM   21  C26 UNL     1       0.997  27.197  17.112  1.00  0.00     0.254 C 
HETATM   22  C27 UNL     1       0.202  27.703  18.287  1.00  0.00     0.126 C 
HETATM   23  O5  UNL     1       1.265  28.049  16.237  1.00  0.00    -0.266 OA
ENDBRANCH  20  21
ENDBRANCH  19  20
ENDBRANCH  16  19
BRANCH   1  24
HETATM   24  C2  UNL     1       5.347  25.065  20.028  1.00  0.00     0.037 C 
HETATM   25  C1  UNL     1       6.053  24.650  18.806  1.00  0.00     0.008 C 
ENDBRANCH   1  24
BRANCH   7  26
HETATM   26  C10 UNL     1      -1.134  23.223  18.170  1.00  0.00     0.043 C 
BRANCH  26  27
HETATM   27  C11 UNL     1      -1.643  24.563  17.751  1.00  0.00     0.008 C 
BRANCH  27  28
HETATM   28  C12 UNL     1      -2.965  25.075  18.124  1.00  0.00    -0.023 C 
HETATM   29  C13 UNL     1      -2.832  25.825  19.490  1.00  0.00     0.009 C 
HETATM   30  C14 UNL     1      -3.592  26.088  17.182  1.00  0.00     0.009 C 
ENDBRANCH  27  28
ENDBRANCH  26  27
ENDBRANCH   7  26
BRANCH  14  31
HETATM   31  O2  UNL     1       0.604  23.160  23.466  1.00  0.00    -0.359 OA
ATOM     32  H2  UNL     1       1.040  22.446  23.917  1.00  0.00     0.217 HD
ENDBRANCH  14  31
BRANCH   9  33
HETATM   33  C17 UNL     1      -3.062  21.504  18.977  1.00  0.00     0.121 C 
HETATM   34  N1  UNL     1      -4.118  21.908  18.363  1.00  0.00    -0.387 N 
ATOM     35  H12 UNL     1      -4.457  22.812  18.691  1.00  0.00     0.157 HD
ATOM     36  H11 UNL     1      -4.402  21.476  17.483  1.00  0.00     0.157 HD
HETATM   37  N2  UNL     1      -2.600  20.268  18.528  1.00  0.00    -0.082 NA
ENDBRANCH   9  33
BRANCH  12  38
HETATM   38  O1  UNL     1      -1.566  22.296  24.199  1.00  0.00    -0.360 OA
ATOM     39  H1  UNL     1      -0.779  21.825  24.446  1.00  0.00     0.217 HD
ENDBRANCH  12  38
TORSDOF 10
ENDMDL
MODEL 3
REMARK VINA RESULT: -6.833222696      1.526      2.034
REMARK  10 active torsions:
REMARK  status: ('A' for Active; 'I' for Inactive)
REMARK    1  A    between atoms: C2_2  and  C3_3 
REMARK    2  A    between atoms: C9_9  and  C10_10 
REMARK    3  A    between atoms: C10_10  and  C11_11 
REMARK    4  A    between atoms: C11_11  and  C12_12 
REMARK    5  A    between atoms: C16_16  and  C17_17 
REMARK    6  A    between atoms: C20_24  and  O1_25 
REMARK    7  A    between atoms: C22_28  and  O2_29 
REMARK    8  A    between atoms: C23_32  and  C25_34 
REMARK    9  A    between atoms: C25_34  and  O4_35 
REMARK   10  A    between atoms: O4_35  and  C26_36 
ROOT
HETATM    1  C3  UNL     1       3.787  24.687  17.641  1.00  0.00     0.078 C 
HETATM    2  C4  UNL     1       3.424  26.135  17.574  1.00  0.00     0.051 C 
HETATM    3  C5  UNL     1       3.958  24.414  19.127  1.00  0.00     0.012 C 
HETATM    4  C6  UNL     1       3.098  23.975  20.050  1.00  0.00     0.016 C 
HETATM    5  C7  UNL     1       1.698  23.598  19.994  1.00  0.00     0.032 A 
HETATM    6  C8  UNL     1       0.777  23.457  19.005  1.00  0.00     0.092 A 
HETATM    7  C9  UNL     1      -0.560  23.059  19.194  1.00  0.00    -0.011 A 
HETATM    8  C15 UNL     1      -0.918  22.785  20.534  1.00  0.00     0.002 A 
HETATM    9  C16 UNL     1      -2.213  22.452  20.783  1.00  0.00     0.017 A 
HETATM   10  C18 UNL     1      -2.609  22.289  22.172  1.00  0.00     0.018 A 
HETATM   11  C19 UNL     1      -1.725  22.444  23.171  1.00  0.00     0.038 A 
HETATM   12  C20 UNL     1      -0.373  22.770  22.883  1.00  0.00     0.079 A 
HETATM   13  C21 UNL     1       0.016  22.935  21.569  1.00  0.00     0.043 A 
HETATM   14  C22 UNL     1       1.327  23.342  21.281  1.00  0.00     0.092 A 
HETATM   15  O3  UNL     1       0.833  23.632  17.607  1.00  0.00    -0.311 OA
HETATM   16  C23 UNL     1       1.848  23.681  16.600  1.00  0.00     0.189 C 
HETATM   17  C24 UNL     1       1.804  22.294  15.963  1.00  0.00     0.082 C 
HETATM   18  O6  UNL     1       3.091  23.766  17.042  1.00  0.00    -0.338 OA
ENDROOT
BRANCH  16  19
HETATM   19  C25 UNL     1       1.437  24.676  15.561  1.00  0.00     0.247 C 
BRANCH  19  20
HETATM   20  O4  UNL     1       2.089  24.822  14.388  1.00  0.00    -0.316 OA
BRANCH  20  21
HETATM   21  C26 UNL     1       3.314  24.952  13.889  1.00  0.00     0.254 C 
HETATM   22  C27 UNL     1       4.060  23.875  13.146  1.00  0.00     0.126 C 
HETATM   23  O5  UNL     1       3.924  26.035  14.024  1.00  0.00    -0.266 OA
ENDBRANCH  20  21
ENDBRANCH  19  20
ENDBRANCH  16  19
BRANCH   1  24
HETATM   24  C2  UNL     1       5.200  24.548  17.089  1.00  0.00     0.037 C 
HETATM   25  C1  UNL     1       5.566  23.231  16.542  1.00  0.00     0.008 C 
ENDBRANCH   1  24
BRANCH   7  26
HETATM   26  C10 UNL     1      -1.573  23.217  18.187  1.00  0.00     0.043 C 
BRANCH  26  27
HETATM   27  C11 UNL     1      -2.050  24.566  17.761  1.00  0.00     0.008 C 
BRANCH  27  28
HETATM   28  C12 UNL     1      -3.300  25.166  18.240  1.00  0.00    -0.023 C 
HETATM   29  C13 UNL     1      -3.029  25.808  19.641  1.00  0.00     0.009 C 
HETATM   30  C14 UNL     1      -3.878  26.291  17.400  1.00  0.00     0.009 C 
ENDBRANCH  27  28
ENDBRANCH  26  27
ENDBRANCH   7  26
BRANCH  14  31
HETATM   31  O2  UNL     1       2.150  23.455  22.328  1.00  0.00    -0.359 OA
ATOM     32  H2  UNL     1       2.277  24.261  22.816  1.00  0.00     0.217 HD
ENDBRANCH  14  31
BRANCH   9  33
HETATM   33  C17 UNL     1      -3.105  21.783  19.896  1.00  0.00     0.121 C 
HETATM   34  N1  UNL     1      -4.323  22.180  19.776  1.00  0.00    -0.387 N 
ATOM     35  H12 UNL     1      -4.485  23.113  20.154  1.00  0.00     0.157 HD
ATOM     36  H11 UNL     1      -4.962  21.701  19.141  1.00  0.00     0.157 HD
HETATM   37  N2  UNL     1      -2.885  20.507  19.380  1.00  0.00    -0.082 NA
ENDBRANCH   9  33
BRANCH  12  38
HETATM   38  O1  UNL     1       0.416  22.888  23.961  1.00  0.00    -0.360 OA
ATOM     39  H1  UNL     1       1.258  23.294  23.793  1.00  0.00     0.217 HD
ENDBRANCH  12  38
TORSDOF 10
ENDMDL
MODEL 4
REMARK VINA RESULT: -6.805075411      1.631      2.465
REMARK  10 active torsions:
REMARK  status: ('A' for Active; 'I' for Inactive)
REMARK    1  A    between atoms: C2_2  and  C3_3 
REMARK    2  A    between atoms: C9_9  and  C10_10 
REMARK    3  A    between atoms: C10_10  and  C11_11 
REMARK    4  A    between atoms: C11_11  and  C12_12 
REMARK    5  A    between atoms: C16_16  and  C17_17 
REMARK    6  A    between atoms: C20_24  and  O1_25 
REMARK    7  A    between atoms: C22_28  and  O2_29 
REMARK    8  A    between atoms: C23_32  and  C25_34 
REMARK    9  A    between atoms: C25_34  and  O4_35 
REMARK   10  A    between atoms: O4_35  and  C26_36 
ROOT
HETATM    1  C3  UNL     1       3.761  24.698  17.635  1.00  0.00     0.078 C 
HETATM    2  C4  UNL     1       3.401  26.147  17.575  1.00  0.00     0.051 C 
HETATM    3  C5  UNL     1       3.938  24.418  19.119  1.00  0.00     0.012 C 
HETATM    4  C6  UNL     1       3.082  23.978  20.045  1.00  0.00     0.016 C 
HETATM    5  C7  UNL     1       1.681  23.605  19.993  1.00  0.00     0.032 A 
HETATM    6  C8  UNL     1       0.754  23.471  19.009  1.00  0.00     0.092 A 
HETATM    7  C9  UNL     1      -0.582  23.076  19.203  1.00  0.00    -0.011 A 
HETATM    8  C15 UNL     1      -0.935  22.797  20.543  1.00  0.00     0.002 A 
HETATM    9  C16 UNL     1      -2.229  22.466  20.797  1.00  0.00     0.017 A 
HETATM   10  C18 UNL     1      -2.619  22.299  22.187  1.00  0.00     0.018 A 
HETATM   11  C19 UNL     1      -1.730  22.448  23.182  1.00  0.00     0.038 A 
HETATM   12  C20 UNL     1      -0.378  22.772  22.890  1.00  0.00     0.079 A 
HETATM   13  C21 UNL     1       0.005  22.941  21.574  1.00  0.00     0.043 A 
HETATM   14  C22 UNL     1       1.315  23.346  21.281  1.00  0.00     0.092 A 
HETATM   15  O3  UNL     1       0.805  23.651  17.611  1.00  0.00    -0.311 OA
HETATM   16  C23 UNL     1       1.815  23.701  16.599  1.00  0.00     0.189 C 
HETATM   17  C24 UNL     1       1.764  22.316  15.958  1.00  0.00     0.082 C 
HETATM   18  O6  UNL     1       3.060  23.781  17.035  1.00  0.00    -0.338 OA
ENDROOT
BRANCH  16  19
HETATM   19  C25 UNL     1       1.402  24.701  15.566  1.00  0.00     0.247 C 
BRANCH  19  20
HETATM   20  O4  UNL     1       0.403  25.587  15.763  1.00  0.00    -0.316 OA
BRANCH  20  21
HETATM   21  C26 UNL     1       0.183  26.888  15.922  1.00  0.00     0.254 C 
HETATM   22  C27 UNL     1      -0.073  27.562  17.245  1.00  0.00     0.126 C 
HETATM   23  O5  UNL     1       0.183  27.641  14.924  1.00  0.00    -0.266 OA
ENDBRANCH  20  21
ENDBRANCH  19  20
ENDBRANCH  16  19
BRANCH   1  24
HETATM   24  C2  UNL     1       5.171  24.557  17.076  1.00  0.00     0.037 C 
HETATM   25  C1  UNL     1       5.541  23.234  16.549  1.00  0.00     0.008 C 
ENDBRANCH   1  24
BRANCH   7  26
HETATM   26  C10 UNL     1      -1.600  23.239  18.200  1.00  0.00     0.043 C 
BRANCH  26  27
HETATM   27  C11 UNL     1      -2.076  24.592  17.783  1.00  0.00     0.008 C 
BRANCH  27  28
HETATM   28  C12 UNL     1      -3.273  25.231  18.338  1.00  0.00    -0.023 C 
HETATM   29  C13 UNL     1      -2.883  25.907  19.693  1.00  0.00     0.009 C 
HETATM   30  C14 UNL     1      -3.895  26.342  17.512  1.00  0.00     0.009 C 
ENDBRANCH  27  28
ENDBRANCH  26  27
ENDBRANCH   7  26
BRANCH  14  31
HETATM   31  O2  UNL     1       2.144  23.453  22.325  1.00  0.00    -0.359 OA
ATOM     32  H2  UNL     1       3.088  23.523  22.245  1.00  0.00     0.217 HD
ENDBRANCH  14  31
BRANCH   9  33
HETATM   33  C17 UNL     1      -3.128  21.803  19.912  1.00  0.00     0.121 C 
HETATM   34  N1  UNL     1      -4.351  22.190  19.815  1.00  0.00    -0.387 N 
ATOM     35  H12 UNL     1      -4.516  23.115  20.210  1.00  0.00     0.157 HD
ATOM     36  H11 UNL     1      -4.994  21.716  19.181  1.00  0.00     0.157 HD
HETATM   37  N2  UNL     1      -2.903  20.538  19.372  1.00  0.00    -0.082 NA
ENDBRANCH   9  33
BRANCH  12  38
HETATM   38  O1  UNL     1       0.416  22.883  23.964  1.00  0.00    -0.360 OA
ATOM     39  H1  UNL     1       0.203  23.606  24.541  1.00  0.00     0.217 HD
ENDBRANCH  12  38
TORSDOF 10
ENDMDL
MODEL 5
REMARK VINA RESULT: -6.787057636      1.782      2.802
REMARK  10 active torsions:
REMARK  status: ('A' for Active; 'I' for Inactive)
REMARK    1  A    between atoms: C2_2  and  C3_3 
REMARK    2  A    between atoms: C9_9  and  C10_10 
REMARK    3  A    between atoms: C10_10  and  C11_11 
REMARK    4  A    between atoms: C11_11  and  C12_12 
REMARK    5  A    between atoms: C16_16  and  C17_17 
REMARK    6  A    between atoms: C20_24  and  O1_25 
REMARK    7  A    between atoms: C22_28  and  O2_29 
REMARK    8  A    between atoms: C23_32  and  C25_34 
REMARK    9  A    between atoms: C25_34  and  O4_35 
REMARK   10  A    between atoms: O4_35  and  C26_36 
ROOT
HETATM    1  C3  UNL     1       3.794  24.690  17.647  1.00  0.00     0.078 C 
HETATM    2  C4  UNL     1       3.433  26.138  17.583  1.00  0.00     0.051 C 
HETATM    3  C5  UNL     1       3.964  24.413  19.132  1.00  0.00     0.012 C 
HETATM    4  C6  UNL     1       3.103  23.974  20.054  1.00  0.00     0.016 C 
HETATM    5  C7  UNL     1       1.702  23.599  19.996  1.00  0.00     0.032 A 
HETATM    6  C8  UNL     1       0.781  23.461  19.007  1.00  0.00     0.092 A 
HETATM    7  C9  UNL     1      -0.556  23.065  19.195  1.00  0.00    -0.011 A 
HETATM    8  C15 UNL     1      -0.915  22.789  20.533  1.00  0.00     0.002 A 
HETATM    9  C16 UNL     1      -2.210  22.457  20.781  1.00  0.00     0.017 A 
HETATM   10  C18 UNL     1      -2.607  22.292  22.170  1.00  0.00     0.018 A 
HETATM   11  C19 UNL     1      -1.724  22.443  23.169  1.00  0.00     0.038 A 
HETATM   12  C20 UNL     1      -0.371  22.768  22.883  1.00  0.00     0.079 A 
HETATM   13  C21 UNL     1       0.019  22.935  21.569  1.00  0.00     0.043 A 
HETATM   14  C22 UNL     1       1.330  23.341  21.283  1.00  0.00     0.092 A 
HETATM   15  O3  UNL     1       0.839  23.639  17.609  1.00  0.00    -0.311 OA
HETATM   16  C23 UNL     1       1.854  23.689  16.602  1.00  0.00     0.189 C 
HETATM   17  C24 UNL     1       1.808  22.303  15.963  1.00  0.00     0.082 C 
HETATM   18  O6  UNL     1       3.097  23.771  17.045  1.00  0.00    -0.338 OA
ENDROOT
BRANCH  16  19
HETATM   19  C25 UNL     1       1.445  24.686  15.566  1.00  0.00     0.247 C 
BRANCH  19  20
HETATM   20  O4  UNL     1       0.524  24.420  14.616  1.00  0.00    -0.316 OA
BRANCH  20  21
HETATM   21  C26 UNL     1      -0.789  24.437  14.408  1.00  0.00     0.254 C 
HETATM   22  C27 UNL     1      -1.654  23.212  14.266  1.00  0.00     0.126 C 
HETATM   23  O5  UNL     1      -1.385  25.531  14.316  1.00  0.00    -0.266 OA
ENDBRANCH  20  21
ENDBRANCH  19  20
ENDBRANCH  16  19
BRANCH   1  24
HETATM   24  C2  UNL     1       5.207  24.549  17.095  1.00  0.00     0.037 C 
HETATM   25  C1  UNL     1       5.569  23.236  16.540  1.00  0.00     0.008 C 
ENDBRANCH   1  24
BRANCH   7  26
HETATM   26  C10 UNL     1      -1.568  23.226  18.187  1.00  0.00     0.043 C 
BRANCH  26  27
HETATM   27  C11 UNL     1      -2.044  24.577  17.765  1.00  0.00     0.008 C 
BRANCH  27  28
HETATM   28  C12 UNL     1      -3.353  25.123  18.139  1.00  0.00    -0.023 C 
HETATM   29  C13 UNL     1      -3.224  25.779  19.552  1.00  0.00     0.009 C 
HETATM   30  C14 UNL     1      -3.911  26.219  17.249  1.00  0.00     0.009 C 
ENDBRANCH  27  28
ENDBRANCH  26  27
ENDBRANCH   7  26
BRANCH  14  31
HETATM   31  O2  UNL     1       2.153  23.450  22.331  1.00  0.00    -0.359 OA
ATOM     32  H2  UNL     1       1.860  23.636  23.216  1.00  0.00     0.217 HD
ENDBRANCH  14  31
BRANCH   9  33
HETATM   33  C17 UNL     1      -3.104  21.791  19.892  1.00  0.00     0.121 C 
HETATM   34  N1  UNL     1      -4.324  22.183  19.780  1.00  0.00    -0.387 N 
ATOM     35  H12 UNL     1      -4.488  23.113  20.166  1.00  0.00     0.157 HD
ATOM     36  H11 UNL     1      -4.963  21.708  19.144  1.00  0.00     0.157 HD
HETATM   37  N2  UNL     1      -2.880  20.521  19.365  1.00  0.00    -0.082 NA
ENDBRANCH   9  33
BRANCH  12  38
HETATM   38  O1  UNL     1       0.417  22.882  23.961  1.00  0.00    -0.360 OA
ATOM     39  H1  UNL     1       0.766  23.753  24.106  1.00  0.00     0.217 HD
ENDBRANCH  12  38
TORSDOF 10
ENDMDL
