MODEL 1
REMARK VINA RESULT: -6.444411934      0.000      0.000
REMARK  11 active torsions:
REMARK  status: ('A' for Active; 'I' for Inactive)
REMARK    1  A    between atoms: C2_2  and  C3_3 
REMARK    2  A    between atoms: C2_2  and  C23_26 
REMARK    3  A    between atoms: C3_3  and  C4_4 
REMARK    4  A    between atoms: C4_4  and  C5_5 
REMARK    5  A    between atoms: C15_17  and  C16_18 
REMARK    6  A    between atoms: C23_26  and  O4_27 
REMARK    7  A    between atoms: C23_26  and  C24_29 
REMARK    8  A    between atoms: C23_26  and  C26_37 
REMARK    9  A    between atoms: C24_29  and  C25_30 
REMARK   10  A    between atoms: C25_30  and  O5_31 
REMARK   11  A    between atoms: N1_33  and  O6_35 
ROOT
HETATM    1  C5  UNL     1      -2.282  22.586  15.254  1.00  0.00     0.023 C 
HETATM    2  C6  UNL     1      -1.542  23.780  15.787  1.00  0.00     0.013 C 
HETATM    3  C7  UNL     1      -0.432  23.529  16.699  1.00  0.00    -0.005 C 
HETATM    4  C8  UNL     1       0.838  23.026  16.069  1.00  0.00     0.008 C 
HETATM    5  C9  UNL     1       0.809  21.523  15.758  1.00  0.00     0.042 C 
HETATM    6  C10 UNL     1      -0.577  21.100  15.996  1.00  0.00     0.099 A 
HETATM    7  O1  UNL     1      -1.389  20.221  15.431  1.00  0.00    -0.362 OA
HETATM    8  C11 UNL     1      -1.365  21.502  14.950  1.00  0.00     0.093 A 
HETATM    9  C12 UNL     1      -0.790  21.493  13.538  1.00  0.00     0.050 C 
HETATM   10  C13 UNL     1      -0.847  21.274  17.465  1.00  0.00     0.056 C 
HETATM   11  C14 UNL     1      -1.980  20.466  17.999  1.00  0.00     0.177 C 
HETATM   12  O2  UNL     1      -2.892  21.004  18.795  1.00  0.00    -0.381 OA
HETATM   13  C15 UNL     1      -2.841  22.244  19.293  1.00  0.00     0.157 C 
HETATM   14  C20 UNL     1      -1.872  23.205  18.742  1.00  0.00     0.047 C 
HETATM   15  C21 UNL     1      -0.740  22.676  17.927  1.00  0.00    -0.029 C 
HETATM   16  C22 UNL     1       0.529  22.910  18.786  1.00  0.00     0.016 C 
ENDROOT
BRANCH   1  17
HETATM   17  C4  UNL     1      -3.363  22.966  14.315  1.00  0.00     0.008 C 
BRANCH  17  18
HETATM   18  C3  UNL     1      -4.482  22.034  14.093  1.00  0.00     0.008 C 
BRANCH  18  19
HETATM   19  C2  UNL     1      -4.276  21.243  12.816  1.00  0.00     0.027 C 
HETATM   20  C1  UNL     1      -5.004  21.797  11.646  1.00  0.00     0.014 C 
BRANCH  19  21
HETATM   21  C23 UNL     1      -4.657  19.817  13.070  1.00  0.00     0.156 C 
BRANCH  21  22
HETATM   22  O4  UNL     1      -4.400  19.597  14.459  1.00  0.00    -0.378 OA
ATOM     23  H4  UNL     1      -5.017  18.926  14.726  1.00  0.00     0.211 HD
ENDBRANCH  21  22
BRANCH  21  24
HETATM   24  C24 UNL     1      -6.073  19.468  12.859  1.00  0.00     0.135 C 
BRANCH  24  25
HETATM   25  C25 UNL     1      -6.717  18.615  13.880  1.00  0.00     0.138 C 
HETATM   26  N1  UNL     1      -6.644  17.318  13.720  1.00  0.00    -0.251 N 
ATOM     27  H1  UNL     1      -6.159  16.917  12.918  1.00  0.00     0.196 HD
BRANCH  25  28
HETATM   28  O5  UNL     1      -7.394  19.067  14.997  1.00  0.00    -0.348 OA
ATOM     29  H5  UNL     1      -7.620  18.543  15.757  1.00  0.00     0.219 HD
ENDBRANCH  25  28
BRANCH  26  30
HETATM   30  O6  UNL     1      -7.232  16.514  14.651  1.00  0.00    -0.288 OA
ATOM     31  H6  UNL     1      -6.697  15.865  15.093  1.00  0.00     0.244 HD
ENDBRANCH  26  30
ENDBRANCH  24  25
ENDBRANCH  21  24
BRANCH  21  32
HETATM   32  C26 UNL     1      -3.766  18.901  12.320  1.00  0.00     0.209 C 
HETATM   33  O7  UNL     1      -2.617  19.153  11.920  1.00  0.00    -0.646 OA
HETATM   34  O8  UNL     1      -4.212  17.596  11.995  1.00  0.00    -0.646 OA
ENDBRANCH  21  32
ENDBRANCH  19  21
ENDBRANCH  18  19
ENDBRANCH  17  18
ENDBRANCH   1  17
BRANCH  13  35
HETATM   35  C16 UNL     1      -2.868  22.137  20.780  1.00  0.00    -0.005 A 
HETATM   36  C17 UNL     1      -1.919  22.775  21.561  1.00  0.00     0.036 A 
HETATM   37  C18 UNL     1      -2.220  22.477  22.873  1.00  0.00     0.142 A 
HETATM   38  O3  UNL     1      -3.269  21.721  22.872  1.00  0.00    -0.334 OA
HETATM   39  C19 UNL     1      -3.688  21.493  21.644  1.00  0.00     0.151 A 
ENDBRANCH  13  35
TORSDOF 11
ENDMDL
MODEL 2
REMARK VINA RESULT: -6.409096505      5.291      7.496
REMARK  11 active torsions:
REMARK  status: ('A' for Active; 'I' for Inactive)
REMARK    1  A    between atoms: C2_2  and  C3_3 
REMARK    2  A    between atoms: C2_2  and  C23_26 
REMARK    3  A    between atoms: C3_3  and  C4_4 
REMARK    4  A    between atoms: C4_4  and  C5_5 
REMARK    5  A    between atoms: C15_17  and  C16_18 
REMARK    6  A    between atoms: C23_26  and  O4_27 
REMARK    7  A    between atoms: C23_26  and  C24_29 
REMARK    8  A    between atoms: C23_26  and  C26_37 
REMARK    9  A    between atoms: C24_29  and  C25_30 
REMARK   10  A    between atoms: C25_30  and  O5_31 
REMARK   11  A    between atoms: N1_33  and  O6_35 
ROOT
HETATM    1  C5  UNL     1       1.321  26.089  18.979  1.00  0.00     0.023 C 
HETATM    2  C6  UNL     1       1.372  26.149  20.480  1.00  0.00     0.013 C 
HETATM    3  C7  UNL     1       1.654  24.907  21.191  1.00  0.00    -0.005 C 
HETATM    4  C8  UNL     1       3.084  24.441  21.163  1.00  0.00     0.008 C 
HETATM    5  C9  UNL     1       3.467  23.731  19.857  1.00  0.00     0.042 C 
HETATM    6  C10 UNL     1       2.328  23.933  18.952  1.00  0.00     0.099 A 
HETATM    7  O1  UNL     1       2.200  24.121  17.648  1.00  0.00    -0.362 OA
HETATM    8  C11 UNL     1       2.354  25.211  18.461  1.00  0.00     0.093 A 
HETATM    9  C12 UNL     1       3.697  25.867  18.163  1.00  0.00     0.050 C 
HETATM   10  C13 UNL     1       1.155  23.205  19.548  1.00  0.00     0.056 C 
HETATM   11  C14 UNL     1       0.068  22.865  18.587  1.00  0.00     0.177 C 
HETATM   12  O2  UNL     1      -1.204  23.084  18.882  1.00  0.00    -0.381 OA
HETATM   13  C15 UNL     1      -1.655  23.502  20.070  1.00  0.00     0.157 C 
HETATM   14  C20 UNL     1      -0.702  24.021  21.064  1.00  0.00     0.047 C 
HETATM   15  C21 UNL     1       0.747  23.721  20.874  1.00  0.00    -0.029 C 
HETATM   16  C22 UNL     1       1.117  22.741  22.018  1.00  0.00     0.016 C 
ENDROOT
BRANCH   1  17
HETATM   17  C4  UNL     1       1.060  27.416  18.372  1.00  0.00     0.008 C 
BRANCH  17  18
HETATM   18  C3  UNL     1      -0.140  27.599  17.537  1.00  0.00     0.008 C 
BRANCH  18  19
HETATM   19  C2  UNL     1      -1.264  26.700  18.012  1.00  0.00     0.027 C 
HETATM   20  C1  UNL     1      -1.840  25.847  16.941  1.00  0.00     0.014 C 
BRANCH  19  21
HETATM   21  C23 UNL     1      -2.317  27.550  18.656  1.00  0.00     0.156 C 
BRANCH  21  22
HETATM   22  O4  UNL     1      -1.959  28.898  18.343  1.00  0.00    -0.378 OA
ATOM     23  H4  UNL     1      -1.962  28.946  17.394  1.00  0.00     0.211 HD
ENDBRANCH  21  22
BRANCH  21  24
HETATM   24  C24 UNL     1      -3.696  27.372  18.166  1.00  0.00     0.135 C 
BRANCH  24  25
HETATM   25  C25 UNL     1      -4.322  28.523  17.482  1.00  0.00     0.138 C 
HETATM   26  N1  UNL     1      -4.364  28.502  16.174  1.00  0.00    -0.251 N 
ATOM     27  H1  UNL     1      -3.977  27.716  15.652  1.00  0.00     0.196 HD
BRANCH  25  28
HETATM   28  O5  UNL     1      -4.872  29.628  18.104  1.00  0.00    -0.348 OA
ATOM     29  H5  UNL     1      -5.793  29.752  18.301  1.00  0.00     0.219 HD
ENDBRANCH  25  28
BRANCH  26  30
HETATM   30  O6  UNL     1      -4.937  29.555  15.525  1.00  0.00    -0.288 OA
ATOM     31  H6  UNL     1      -5.044  29.503  14.582  1.00  0.00     0.244 HD
ENDBRANCH  26  30
ENDBRANCH  24  25
ENDBRANCH  21  24
BRANCH  21  32
HETATM   32  C26 UNL     1      -2.256  27.422  20.130  1.00  0.00     0.209 C 
HETATM   33  O7  UNL     1      -2.956  26.674  20.835  1.00  0.00    -0.646 OA
HETATM   34  O8  UNL     1      -1.331  28.203  20.866  1.00  0.00    -0.646 OA
ENDBRANCH  21  32
ENDBRANCH  19  21
ENDBRANCH  18  19
ENDBRANCH  17  18
ENDBRANCH   1  17
BRANCH  13  35
HETATM   35  C16 UNL     1      -2.619  22.481  20.573  1.00  0.00    -0.005 A 
HETATM   36  C17 UNL     1      -3.108  22.535  21.867  1.00  0.00     0.036 A 
HETATM   37  C18 UNL     1      -3.962  21.462  22.014  1.00  0.00     0.142 A 
HETATM   38  O3  UNL     1      -3.979  20.820  20.892  1.00  0.00    -0.334 OA
HETATM   39  C19 UNL     1      -3.192  21.394  20.005  1.00  0.00     0.151 A 
ENDBRANCH  13  35
TORSDOF 11
ENDMDL
MODEL 3
REMARK VINA RESULT: -6.398107448      3.852      7.543
REMARK  11 active torsions:
REMARK  status: ('A' for Active; 'I' for Inactive)
REMARK    1  A    between atoms: C2_2  and  C3_3 
REMARK    2  A    between atoms: C2_2  and  C23_26 
REMARK    3  A    between atoms: C3_3  and  C4_4 
REMARK    4  A    between atoms: C4_4  and  C5_5 
REMARK    5  A    between atoms: C15_17  and  C16_18 
REMARK    6  A    between atoms: C23_26  and  O4_27 
REMARK    7  A    between atoms: C23_26  and  C24_29 
REMARK    8  A    between atoms: C23_26  and  C26_37 
REMARK    9  A    between atoms: C24_29  and  C25_30 
REMARK   10  A    between atoms: C25_30  and  O5_31 
REMARK   11  A    between atoms: N1_33  and  O6_35 
ROOT
HETATM    1  C5  UNL     1       1.345  24.249  20.608  1.00  0.00     0.023 C 
HETATM    2  C6  UNL     1       2.716  23.705  20.320  1.00  0.00     0.013 C 
HETATM    3  C7  UNL     1       3.382  24.174  19.110  1.00  0.00    -0.005 C 
HETATM    4  C8  UNL     1       3.949  25.567  19.166  1.00  0.00     0.008 C 
HETATM    5  C9  UNL     1       2.893  26.661  18.958  1.00  0.00     0.042 C 
HETATM    6  C10 UNL     1       1.599  25.967  18.981  1.00  0.00     0.099 A 
HETATM    7  O1  UNL     1       0.390  26.274  19.422  1.00  0.00    -0.362 OA
HETATM    8  C11 UNL     1       1.267  25.659  20.273  1.00  0.00     0.093 A 
HETATM    9  C12 UNL     1       1.639  26.629  21.389  1.00  0.00     0.050 C 
HETATM   10  C13 UNL     1       1.563  25.056  17.785  1.00  0.00     0.056 C 
HETATM   11  C14 UNL     1       0.201  24.645  17.344  1.00  0.00     0.177 C 
HETATM   12  O2  UNL     1      -0.076  23.383  17.052  1.00  0.00    -0.381 OA
HETATM   13  C15 UNL     1       0.823  22.393  16.999  1.00  0.00     0.157 C 
HETATM   14  C20 UNL     1       2.170  22.610  17.550  1.00  0.00     0.047 C 
HETATM   15  C21 UNL     1       2.612  24.011  17.803  1.00  0.00    -0.029 C 
HETATM   16  C22 UNL     1       3.724  24.286  16.758  1.00  0.00     0.016 C 
ENDROOT
BRANCH   1  17
HETATM   17  C4  UNL     1       0.787  23.726  21.877  1.00  0.00     0.008 C 
BRANCH  17  18
HETATM   18  C3  UNL     1      -0.147  22.588  21.835  1.00  0.00     0.008 C 
BRANCH  18  19
HETATM   19  C2  UNL     1      -1.564  23.048  22.115  1.00  0.00     0.027 C 
HETATM   20  C1  UNL     1      -2.262  22.238  23.147  1.00  0.00     0.014 C 
BRANCH  19  21
HETATM   21  C23 UNL     1      -2.327  23.061  20.826  1.00  0.00     0.156 C 
BRANCH  21  22
HETATM   22  O4  UNL     1      -1.344  22.886  19.802  1.00  0.00    -0.378 OA
ATOM     23  H4  UNL     1      -0.926  23.733  19.705  1.00  0.00     0.211 HD
ENDBRANCH  21  22
BRANCH  21  24
HETATM   24  C24 UNL     1      -3.310  21.981  20.632  1.00  0.00     0.135 C 
BRANCH  24  25
HETATM   25  C25 UNL     1      -3.348  21.332  19.305  1.00  0.00     0.138 C 
HETATM   26  N1  UNL     1      -2.659  20.230  19.148  1.00  0.00    -0.251 N 
ATOM     27  H1  UNL     1      -2.118  19.839  19.919  1.00  0.00     0.196 HD
BRANCH  25  28
HETATM   28  O5  UNL     1      -4.050  21.788  18.205  1.00  0.00    -0.348 OA
ATOM     29  H5  UNL     1      -3.902  21.524  17.304  1.00  0.00     0.219 HD
ENDBRANCH  25  28
BRANCH  26  30
HETATM   30  O6  UNL     1      -2.680  19.618  17.931  1.00  0.00    -0.288 OA
ATOM     31  H6  UNL     1      -1.890  19.630  17.403  1.00  0.00     0.244 HD
ENDBRANCH  26  30
ENDBRANCH  24  25
ENDBRANCH  21  24
BRANCH  21  32
HETATM   32  C26 UNL     1      -2.945  24.389  20.602  1.00  0.00     0.209 C 
HETATM   33  O7  UNL     1      -3.642  25.023  21.413  1.00  0.00    -0.646 OA
HETATM   34  O8  UNL     1      -2.759  25.052  19.364  1.00  0.00    -0.646 OA
ENDBRANCH  21  32
ENDBRANCH  19  21
ENDBRANCH  18  19
ENDBRANCH  17  18
ENDBRANCH   1  17
BRANCH  13  35
HETATM   35  C16 UNL     1       0.773  21.810  15.627  1.00  0.00    -0.005 A 
HETATM   36  C17 UNL     1       1.411  22.426  14.564  1.00  0.00     0.036 A 
HETATM   37  C18 UNL     1       1.174  21.646  13.452  1.00  0.00     0.142 A 
HETATM   38  O3  UNL     1       0.451  20.642  13.827  1.00  0.00    -0.334 OA
HETATM   39  C19 UNL     1       0.188  20.701  15.116  1.00  0.00     0.151 A 
ENDBRANCH  13  35
TORSDOF 11
ENDMDL
MODEL 4
REMARK VINA RESULT: -6.364557595      4.159      7.166
REMARK  11 active torsions:
REMARK  status: ('A' for Active; 'I' for Inactive)
REMARK    1  A    between atoms: C2_2  and  C3_3 
REMARK    2  A    between atoms: C2_2  and  C23_26 
REMARK    3  A    between atoms: C3_3  and  C4_4 
REMARK    4  A    between atoms: C4_4  and  C5_5 
REMARK    5  A    between atoms: C15_17  and  C16_18 
REMARK    6  A    between atoms: C23_26  and  O4_27 
REMARK    7  A    between atoms: C23_26  and  C24_29 
REMARK    8  A    between atoms: C23_26  and  C26_37 
REMARK    9  A    between atoms: C24_29  and  C25_30 
REMARK   10  A    between atoms: C25_30  and  O5_31 
REMARK   11  A    between atoms: N1_33  and  O6_35 
ROOT
HETATM    1  C5  UNL     1       0.080  23.949  20.793  1.00  0.00     0.023 C 
HETATM    2  C6  UNL     1       0.124  23.525  19.352  1.00  0.00     0.013 C 
HETATM    3  C7  UNL     1       0.677  24.472  18.392  1.00  0.00    -0.005 C 
HETATM    4  C8  UNL     1       2.175  24.615  18.392  1.00  0.00     0.008 C 
HETATM    5  C9  UNL     1       2.699  25.516  19.519  1.00  0.00     0.042 C 
HETATM    6  C10 UNL     1       1.539  25.783  20.380  1.00  0.00     0.099 A 
HETATM    7  O1  UNL     1       1.367  25.942  21.682  1.00  0.00    -0.362 OA
HETATM    8  C11 UNL     1       1.280  24.683  21.153  1.00  0.00     0.093 A 
HETATM    9  C12 UNL     1       2.443  23.845  21.670  1.00  0.00     0.050 C 
HETATM   10  C13 UNL     1       0.559  26.582  19.566  1.00  0.00     0.056 C 
HETATM   11  C14 UNL     1      -0.430  27.365  20.360  1.00  0.00     0.177 C 
HETATM   12  O2  UNL     1      -1.718  27.359  20.051  1.00  0.00    -0.381 OA
HETATM   13  C15 UNL     1      -2.245  26.778  18.967  1.00  0.00     0.157 C 
HETATM   14  C20 UNL     1      -1.425  25.846  18.176  1.00  0.00     0.047 C 
HETATM   15  C21 UNL     1       0.053  25.865  18.373  1.00  0.00    -0.029 C 
HETATM   16  C22 UNL     1       0.636  26.443  17.058  1.00  0.00     0.016 C 
ENDROOT
BRANCH   1  17
HETATM   17  C4  UNL     1      -0.470  22.892  21.675  1.00  0.00     0.008 C 
BRANCH  17  18
HETATM   18  C3  UNL     1      -1.906  22.908  22.003  1.00  0.00     0.008 C 
BRANCH  18  19
HETATM   19  C2  UNL     1      -2.727  23.317  20.795  1.00  0.00     0.027 C 
HETATM   20  C1  UNL     1      -3.693  24.411  21.073  1.00  0.00     0.014 C 
BRANCH  19  21
HETATM   21  C23 UNL     1      -3.418  22.104  20.253  1.00  0.00     0.156 C 
BRANCH  21  22
HETATM   22  O4  UNL     1      -4.014  22.525  19.023  1.00  0.00    -0.378 OA
ATOM     23  H4  UNL     1      -3.509  23.280  18.744  1.00  0.00     0.211 HD
ENDBRANCH  21  22
BRANCH  21  24
HETATM   24  C24 UNL     1      -2.559  20.955  19.914  1.00  0.00     0.135 C 
BRANCH  24  25
HETATM   25  C25 UNL     1      -2.368  20.655  18.479  1.00  0.00     0.138 C 
HETATM   26  N1  UNL     1      -2.526  19.415  18.092  1.00  0.00    -0.251 N 
ATOM     27  H1  UNL     1      -2.772  18.686  18.763  1.00  0.00     0.196 HD
BRANCH  25  28
HETATM   28  O5  UNL     1      -2.035  21.574  17.501  1.00  0.00    -0.348 OA
ATOM     29  H5  UNL     1      -2.062  21.419  16.564  1.00  0.00     0.219 HD
ENDBRANCH  25  28
BRANCH  26  30
HETATM   30  O6  UNL     1      -2.353  19.118  16.773  1.00  0.00    -0.288 OA
ATOM     31  H6  UNL     1      -3.124  18.968  16.238  1.00  0.00     0.244 HD
ENDBRANCH  26  30
ENDBRANCH  24  25
ENDBRANCH  21  24
BRANCH  21  32
HETATM   32  C26 UNL     1      -4.526  21.694  21.147  1.00  0.00     0.209 C 
HETATM   33  O7  UNL     1      -4.426  20.997  22.171  1.00  0.00    -0.646 OA
HETATM   34  O8  UNL     1      -5.850  22.105  20.859  1.00  0.00    -0.646 OA
ENDBRANCH  21  32
ENDBRANCH  19  21
ENDBRANCH  18  19
ENDBRANCH  17  18
ENDBRANCH   1  17
BRANCH  13  35
HETATM   35  C16 UNL     1      -2.956  27.831  18.189  1.00  0.00    -0.005 A 
HETATM   36  C17 UNL     1      -4.258  27.645  17.755  1.00  0.00     0.036 A 
HETATM   37  C18 UNL     1      -4.617  28.789  17.073  1.00  0.00     0.142 A 
HETATM   38  O3  UNL     1      -3.606  29.593  17.100  1.00  0.00    -0.334 OA
HETATM   39  C19 UNL     1      -2.594  29.062  17.755  1.00  0.00     0.151 A 
ENDBRANCH  13  35
TORSDOF 11
ENDMDL
MODEL 5
REMARK VINA RESULT: -6.352894565      5.511      7.510
REMARK  11 active torsions:
REMARK  status: ('A' for Active; 'I' for Inactive)
REMARK    1  A    between atoms: C2_2  and  C3_3 
REMARK    2  A    between atoms: C2_2  and  C23_26 
REMARK    3  A    between atoms: C3_3  and  C4_4 
REMARK    4  A    between atoms: C4_4  and  C5_5 
REMARK    5  A    between atoms: C15_17  and  C16_18 
REMARK    6  A    between atoms: C23_26  and  O4_27 
REMARK    7  A    between atoms: C23_26  and  C24_29 
REMARK    8  A    between atoms: C23_26  and  C26_37 
REMARK    9  A    between atoms: C24_29  and  C25_30 
REMARK   10  A    between atoms: C25_30  and  O5_31 
REMARK   11  A    between atoms: N1_33  and  O6_35 
ROOT
HETATM    1  C5  UNL     1       1.095  26.134  19.150  1.00  0.00     0.023 C 
HETATM    2  C6  UNL     1       1.118  26.144  20.652  1.00  0.00     0.013 C 
HETATM    3  C7  UNL     1       1.447  24.893  21.326  1.00  0.00    -0.005 C 
HETATM    4  C8  UNL     1       2.898  24.496  21.308  1.00  0.00     0.008 C 
HETATM    5  C9  UNL     1       3.336  23.850  19.987  1.00  0.00     0.042 C 
HETATM    6  C10 UNL     1       2.204  24.030  19.068  1.00  0.00     0.099 A 
HETATM    7  O1  UNL     1       2.090  24.256  17.770  1.00  0.00    -0.362 OA
HETATM    8  C11 UNL     1       2.178  25.324  18.621  1.00  0.00     0.093 A 
HETATM    9  C12 UNL     1       3.493  26.053  18.370  1.00  0.00     0.050 C 
HETATM   10  C13 UNL     1       1.057  23.227  19.618  1.00  0.00     0.056 C 
HETATM   11  C14 UNL     1       0.004  22.870  18.626  1.00  0.00     0.177 C 
HETATM   12  O2  UNL     1      -1.282  23.019  18.905  1.00  0.00    -0.381 OA
HETATM   13  C15 UNL     1      -1.772  23.374  20.098  1.00  0.00     0.157 C 
HETATM   14  C20 UNL     1      -0.861  23.902  21.126  1.00  0.00     0.047 C 
HETATM   15  C21 UNL     1       0.603  23.678  20.953  1.00  0.00    -0.029 C 
HETATM   16  C22 UNL     1       1.000  22.677  22.069  1.00  0.00     0.016 C 
ENDROOT
BRANCH   1  17
HETATM   17  C4  UNL     1       0.782  27.467  18.582  1.00  0.00     0.008 C 
BRANCH  17  18
HETATM   18  C3  UNL     1      -0.617  27.929  18.566  1.00  0.00     0.008 C 
BRANCH  18  19
HETATM   19  C2  UNL     1      -1.462  27.044  17.671  1.00  0.00     0.027 C 
HETATM   20  C1  UNL     1      -0.936  26.914  16.289  1.00  0.00     0.014 C 
BRANCH  19  21
HETATM   21  C23 UNL     1      -2.867  27.565  17.672  1.00  0.00     0.156 C 
BRANCH  21  22
HETATM   22  O4  UNL     1      -3.174  27.825  19.044  1.00  0.00    -0.378 OA
ATOM     23  H4  UNL     1      -2.341  27.794  19.500  1.00  0.00     0.211 HD
ENDBRANCH  21  22
BRANCH  21  24
HETATM   24  C24 UNL     1      -3.097  28.835  16.959  1.00  0.00     0.135 C 
BRANCH  24  25
HETATM   25  C25 UNL     1      -3.764  29.919  17.709  1.00  0.00     0.138 C 
HETATM   26  N1  UNL     1      -3.010  30.868  18.204  1.00  0.00    -0.251 N 
ATOM     27  H1  UNL     1      -1.999  30.853  18.071  1.00  0.00     0.196 HD
BRANCH  25  28
HETATM   28  O5  UNL     1      -5.123  30.023  17.938  1.00  0.00    -0.348 OA
ATOM     29  H5  UNL     1      -5.767  29.346  17.767  1.00  0.00     0.219 HD
ENDBRANCH  25  28
BRANCH  26  30
HETATM   30  O6  UNL     1      -3.607  31.876  18.900  1.00  0.00    -0.288 OA
ATOM     31  H6  UNL     1      -3.847  31.721  19.806  1.00  0.00     0.244 HD
ENDBRANCH  26  30
ENDBRANCH  24  25
ENDBRANCH  21  24
BRANCH  21  32
HETATM   32  C26 UNL     1      -3.809  26.519  17.212  1.00  0.00     0.209 C 
HETATM   33  O7  UNL     1      -4.765  26.679  16.434  1.00  0.00    -0.646 OA
HETATM   34  O8  UNL     1      -3.659  25.187  17.670  1.00  0.00    -0.646 OA
ENDBRANCH  21  32
ENDBRANCH  19  21
ENDBRANCH  18  19
ENDBRANCH  17  18
ENDBRANCH   1  17
BRANCH  13  35
HETATM   35  C16 UNL     1      -2.695  22.292  20.548  1.00  0.00    -0.005 A 
HETATM   36  C17 UNL     1      -3.203  22.275  21.836  1.00  0.00     0.036 A 
HETATM   37  C18 UNL     1      -4.008  21.159  21.930  1.00  0.00     0.142 A 
HETATM   38  O3  UNL     1      -3.981  20.560  20.785  1.00  0.00    -0.334 OA
HETATM   39  C19 UNL     1      -3.210  21.202  19.931  1.00  0.00     0.151 A 
ENDBRANCH  13  35
TORSDOF 11
ENDMDL
