MODEL 1
REMARK VINA RESULT: -7.056332150      0.000      0.000
REMARK  3 active torsions:
REMARK  status: ('A' for Active; 'I' for Inactive)
REMARK    1  A    between atoms: O1_1  and  N1_3 
REMARK    2  A    between atoms: C6_10  and  N2_11 
REMARK    3  A    between atoms: N2_11  and  C7_13 
ROOT
HETATM    1  N1  UNL     1      -4.176  17.028   4.546  1.00  0.00    -0.277 N 
ATOM      2  H1  UNL     1      -3.930  17.218   3.574  1.00  0.00     0.193 HD
HETATM    3  C1  UNL     1      -4.255  18.036   5.377  1.00  0.00     0.014 C 
HETATM    4  C2  UNL     1      -4.591  18.000   6.825  1.00  0.00     0.055 C 
HETATM    5  C3  UNL     1      -4.917  19.444   7.109  1.00  0.00     0.011 C 
HETATM    6  C4  UNL     1      -3.899  20.168   6.259  1.00  0.00    -0.003 C 
HETATM    7  C5  UNL     1      -4.313  21.612   6.148  1.00  0.00     0.030 C 
HETATM    8  C6  UNL     1      -4.250  22.142   4.757  1.00  0.00     0.082 C 
HETATM    9  C11 UNL     1      -5.106  21.367   3.786  1.00  0.00     0.026 C 
HETATM   10  C12 UNL     1      -5.188  19.900   4.139  1.00  0.00     0.013 C 
HETATM   11  C13 UNL     1      -3.998  19.435   4.944  1.00  0.00     0.037 C 
ENDROOT
BRANCH   8  12
HETATM   12  N2  UNL     1      -4.619  23.535   4.763  1.00  0.00    -0.384 N 
ATOM     13  H2  UNL     1      -3.877  24.222   4.896  1.00  0.00     0.160 HD
BRANCH  12  14
HETATM   14  C7  UNL     1      -5.950  24.016   4.598  1.00  0.00     0.045 A 
HETATM   15  C8  UNL     1      -7.051  23.738   5.365  1.00  0.00     0.047 A 
HETATM   16  C9  UNL     1      -8.119  24.436   4.802  1.00  0.00     0.090 A 
HETATM   17  N3  UNL     1      -7.674  25.125   3.713  1.00  0.00    -0.373 N 
HETATM   18  C10 UNL     1      -6.365  24.879   3.580  1.00  0.00     0.116 A 
ATOM     19  H3  UNL     1      -8.239  25.721   3.107  1.00  0.00     0.164 HD
ENDBRANCH  12  14
ENDBRANCH   8  12
BRANCH   1  20
HETATM   20  O1  UNL     1      -4.407  15.740   4.915  1.00  0.00    -0.290 OA
ATOM     21  H1  UNL     1      -4.300  15.003   4.324  1.00  0.00     0.244 HD
ENDBRANCH   1  20
TORSDOF 3
ENDMDL
MODEL 2
REMARK VINA RESULT: -7.011683896      4.034      6.982
REMARK  3 active torsions:
REMARK  status: ('A' for Active; 'I' for Inactive)
REMARK    1  A    between atoms: O1_1  and  N1_3 
REMARK    2  A    between atoms: C6_10  and  N2_11 
REMARK    3  A    between atoms: N2_11  and  C7_13 
ROOT
HETATM    1  N1  UNL     1      -9.268  26.854   7.450  1.00  0.00    -0.277 N 
ATOM      2  H1  UNL     1      -8.394  27.252   7.105  1.00  0.00     0.193 HD
HETATM    3  C1  UNL     1      -9.568  25.625   7.114  1.00  0.00     0.014 C 
HETATM    4  C2  UNL     1     -10.776  24.846   7.491  1.00  0.00     0.055 C 
HETATM    5  C3  UNL     1     -10.357  23.436   7.164  1.00  0.00     0.011 C 
HETATM    6  C4  UNL     1      -9.556  23.633   5.898  1.00  0.00    -0.003 C 
HETATM    7  C5  UNL     1      -8.768  22.377   5.634  1.00  0.00     0.030 C 
HETATM    8  C6  UNL     1      -7.341  22.633   5.289  1.00  0.00     0.082 C 
HETATM    9  C11 UNL     1      -6.600  23.397   6.357  1.00  0.00     0.026 C 
HETATM   10  C12 UNL     1      -7.491  24.374   7.086  1.00  0.00     0.013 C 
HETATM   11  C13 UNL     1      -8.676  24.805   6.254  1.00  0.00     0.037 C 
ENDROOT
BRANCH   8  12
HETATM   12  N2  UNL     1      -6.688  21.379   5.011  1.00  0.00    -0.384 N 
ATOM     13  H2  UNL     1      -7.271  20.544   4.945  1.00  0.00     0.160 HD
BRANCH  12  14
HETATM   14  C7  UNL     1      -5.285  21.226   4.823  1.00  0.00     0.045 A 
HETATM   15  C8  UNL     1      -4.415  20.448   5.541  1.00  0.00     0.047 A 
HETATM   16  C9  UNL     1      -3.151  20.637   4.984  1.00  0.00     0.090 A 
HETATM   17  N3  UNL     1      -3.251  21.516   3.946  1.00  0.00    -0.373 N 
HETATM   18  C10 UNL     1      -4.536  21.878   3.839  1.00  0.00     0.116 A 
ATOM     19  H3  UNL     1      -2.484  21.840   3.357  1.00  0.00     0.164 HD
ENDBRANCH  12  14
ENDBRANCH   8  12
BRANCH   1  20
HETATM   20  O1  UNL     1     -10.065  27.627   8.236  1.00  0.00    -0.290 OA
ATOM     21  H1  UNL     1     -10.246  28.541   8.052  1.00  0.00     0.244 HD
ENDBRANCH   1  20
TORSDOF 3
ENDMDL
MODEL 3
REMARK VINA RESULT: -6.985928463      2.971      6.730
REMARK  3 active torsions:
REMARK  status: ('A' for Active; 'I' for Inactive)
REMARK    1  A    between atoms: O1_1  and  N1_3 
REMARK    2  A    between atoms: C6_10  and  N2_11 
REMARK    3  A    between atoms: N2_11  and  C7_13 
ROOT
HETATM    1  N1  UNL     1      -5.082  23.870   3.553  1.00  0.00    -0.277 N 
ATOM      2  H1  UNL     1      -4.337  23.650   2.891  1.00  0.00     0.193 HD
HETATM    3  C1  UNL     1      -5.594  22.895   4.262  1.00  0.00     0.014 C 
HETATM    4  C2  UNL     1      -6.679  22.976   5.274  1.00  0.00     0.055 C 
HETATM    5  C3  UNL     1      -6.529  21.665   6.003  1.00  0.00     0.011 C 
HETATM    6  C4  UNL     1      -6.177  20.720   4.876  1.00  0.00    -0.003 C 
HETATM    7  C5  UNL     1      -5.645  19.444   5.476  1.00  0.00     0.030 C 
HETATM    8  C6  UNL     1      -4.395  18.959   4.826  1.00  0.00     0.082 C 
HETATM    9  C11 UNL     1      -3.272  19.965   4.874  1.00  0.00     0.026 C 
HETATM   10  C12 UNL     1      -3.774  21.388   4.806  1.00  0.00     0.013 C 
HETATM   11  C13 UNL     1      -5.119  21.493   4.128  1.00  0.00     0.037 C 
ENDROOT
BRANCH   8  12
HETATM   12  N2  UNL     1      -3.995  17.717   5.437  1.00  0.00    -0.384 N 
ATOM     13  H2  UNL     1      -4.119  17.622   6.445  1.00  0.00     0.160 HD
BRANCH  12  14
HETATM   14  C7  UNL     1      -3.438  16.614   4.728  1.00  0.00     0.045 A 
HETATM   15  C8  UNL     1      -2.226  16.543   4.093  1.00  0.00     0.047 A 
HETATM   16  C9  UNL     1      -2.135  15.266   3.541  1.00  0.00     0.090 A 
HETATM   17  N3  UNL     1      -3.272  14.574   3.836  1.00  0.00    -0.373 N 
HETATM   18  C10 UNL     1      -4.067  15.379   4.554  1.00  0.00     0.116 A 
ATOM     19  H3  UNL     1      -3.481  13.614   3.559  1.00  0.00     0.164 HD
ENDBRANCH  12  14
ENDBRANCH   8  12
BRANCH   1  20
HETATM   20  O1  UNL     1      -5.496  25.161   3.655  1.00  0.00    -0.290 OA
ATOM     21  H1  UNL     1      -4.897  25.895   3.721  1.00  0.00     0.244 HD
ENDBRANCH   1  20
TORSDOF 3
ENDMDL
MODEL 4
REMARK VINA RESULT: -6.923828281      3.484      6.787
REMARK  3 active torsions:
REMARK  status: ('A' for Active; 'I' for Inactive)
REMARK    1  A    between atoms: O1_1  and  N1_3 
REMARK    2  A    between atoms: C6_10  and  N2_11 
REMARK    3  A    between atoms: N2_11  and  C7_13 
ROOT
HETATM    1  N1  UNL     1      -7.739  26.497   4.589  1.00  0.00    -0.277 N 
ATOM      2  H1  UNL     1      -8.188  26.369   5.497  1.00  0.00     0.193 HD
HETATM    3  C1  UNL     1      -6.946  25.553   4.148  1.00  0.00     0.014 C 
HETATM    4  C2  UNL     1      -6.190  25.522   2.869  1.00  0.00     0.055 C 
HETATM    5  C3  UNL     1      -5.820  24.065   2.757  1.00  0.00     0.011 C 
HETATM    6  C4  UNL     1      -5.518  23.707   4.194  1.00  0.00    -0.003 C 
HETATM    7  C5  UNL     1      -5.479  22.206   4.311  1.00  0.00     0.030 C 
HETATM    8  C6  UNL     1      -6.246  21.681   5.476  1.00  0.00     0.082 C 
HETATM    9  C11 UNL     1      -7.701  22.080   5.457  1.00  0.00     0.026 C 
HETATM   10  C12 UNL     1      -7.915  23.439   4.835  1.00  0.00     0.013 C 
HETATM   11  C13 UNL     1      -6.688  24.315   4.928  1.00  0.00     0.037 C 
ENDROOT
BRANCH   8  12
HETATM   12  N2  UNL     1      -6.109  20.248   5.527  1.00  0.00    -0.384 N 
ATOM     13  H2  UNL     1      -6.600  19.698   4.821  1.00  0.00     0.160 HD
BRANCH  12  14
HETATM   14  C7  UNL     1      -5.335  19.547   6.496  1.00  0.00     0.045 A 
HETATM   15  C8  UNL     1      -4.705  20.054   7.602  1.00  0.00     0.047 A 
HETATM   16  C9  UNL     1      -4.074  18.982   8.233  1.00  0.00     0.090 A 
HETATM   17  N3  UNL     1      -4.316  17.845   7.521  1.00  0.00    -0.373 N 
HETATM   18  C10 UNL     1      -5.078  18.174   6.470  1.00  0.00     0.116 A 
ATOM     19  H3  UNL     1      -3.978  16.909   7.749  1.00  0.00     0.164 HD
ENDBRANCH  12  14
ENDBRANCH   8  12
BRANCH   1  20
HETATM   20  O1  UNL     1      -7.994  27.639   3.896  1.00  0.00    -0.290 OA
ATOM     21  H1  UNL     1      -7.787  28.505   4.228  1.00  0.00     0.244 HD
ENDBRANCH   1  20
TORSDOF 3
ENDMDL
MODEL 5
REMARK VINA RESULT: -6.860641450      3.019      6.438
REMARK  3 active torsions:
REMARK  status: ('A' for Active; 'I' for Inactive)
REMARK    1  A    between atoms: O1_1  and  N1_3 
REMARK    2  A    between atoms: C6_10  and  N2_11 
REMARK    3  A    between atoms: N2_11  and  C7_13 
ROOT
HETATM    1  N1  UNL     1      -8.696  24.576   5.591  1.00  0.00    -0.277 N 
ATOM      2  H1  UNL     1      -8.991  24.013   6.390  1.00  0.00     0.193 HD
HETATM    3  C1  UNL     1      -7.523  24.337   5.060  1.00  0.00     0.014 C 
HETATM    4  C2  UNL     1      -6.889  25.024   3.905  1.00  0.00     0.055 C 
HETATM    5  C3  UNL     1      -5.787  24.064   3.533  1.00  0.00     0.011 C 
HETATM    6  C4  UNL     1      -5.321  23.584   4.888  1.00  0.00    -0.003 C 
HETATM    7  C5  UNL     1      -4.470  22.357   4.689  1.00  0.00     0.030 C 
HETATM    8  C6  UNL     1      -4.813  21.240   5.615  1.00  0.00     0.082 C 
HETATM    9  C11 UNL     1      -6.250  20.797   5.504  1.00  0.00     0.026 C 
HETATM   10  C12 UNL     1      -7.178  21.939   5.162  1.00  0.00     0.013 C 
HETATM   11  C13 UNL     1      -6.623  23.278   5.587  1.00  0.00     0.037 C 
ENDROOT
BRANCH   8  12
HETATM   12  N2  UNL     1      -3.918  20.136   5.378  1.00  0.00    -0.384 N 
ATOM     13  H2  UNL     1      -3.021  20.338   4.936  1.00  0.00     0.160 HD
BRANCH  12  14
HETATM   14  C7  UNL     1      -4.202  18.782   5.718  1.00  0.00     0.045 A 
HETATM   15  C8  UNL     1      -4.565  18.276   6.939  1.00  0.00     0.047 A 
HETATM   16  C9  UNL     1      -4.725  16.901   6.772  1.00  0.00     0.090 A 
HETATM   17  N3  UNL     1      -4.462  16.578   5.474  1.00  0.00    -0.373 N 
HETATM   18  C10 UNL     1      -4.145  17.707   4.827  1.00  0.00     0.116 A 
ATOM     19  H3  UNL     1      -4.500  15.643   5.067  1.00  0.00     0.164 HD
ENDBRANCH  12  14
ENDBRANCH   8  12
BRANCH   1  20
HETATM   20  O1  UNL     1      -9.540  25.537   5.129  1.00  0.00    -0.290 OA
ATOM     21  H1  UNL     1     -10.144  26.010   5.689  1.00  0.00     0.244 HD
ENDBRANCH   1  20
TORSDOF 3
ENDMDL
