MODEL 1
REMARK VINA RESULT: -7.592929355      0.000      0.000
REMARK  4 active torsions:
REMARK  status: ('A' for Active; 'I' for Inactive)
REMARK    1  A    between atoms: C1_1  and  C18_26 
REMARK    2  A    between atoms: C2_2  and  C3_3 
REMARK    3  A    between atoms: C6_8  and  C7_9 
REMARK    4  A    between atoms: C18_26  and  N5_27 
ROOT
HETATM    1  C3  UNL     1      22.507   4.235  -9.805  1.00  0.00     0.163 A 
HETATM    2  N1  UNL     1      22.595   2.909  -9.718  1.00  0.00    -0.332 N 
ATOM      3  H1  UNL     1      22.336   2.355  -8.903  1.00  0.00     0.168 HD
HETATM    4  C4  UNL     1      23.081   2.413 -10.876  1.00  0.00     0.079 A 
HETATM    5  C5  UNL     1      23.366   1.119 -11.314  1.00  0.00     0.048 A 
HETATM    6  C6  UNL     1      23.866   0.898 -12.575  1.00  0.00     0.008 A 
HETATM    7  C16 UNL     1      24.063   2.014 -13.360  1.00  0.00     0.103 A 
HETATM    8  N3  UNL     1      23.802   3.261 -12.974  1.00  0.00    -0.349 N 
ATOM      9  H3  UNL     1      23.971   4.045 -13.605  1.00  0.00     0.166 HD
HETATM   10  C17 UNL     1      23.309   3.473 -11.727  1.00  0.00     0.134 A 
HETATM   11  N4  UNL     1      22.945   4.564 -11.033  1.00  0.00    -0.319 N 
ATOM     12  H4  UNL     1      22.994   5.518 -11.392  1.00  0.00     0.169 HD
ENDROOT
BRANCH   6  13
HETATM   13  C7  UNL     1      24.188  -0.425 -13.103  1.00  0.00     0.044 A 
HETATM   14  C8  UNL     1      23.873  -0.822 -14.368  1.00  0.00     0.031 A 
HETATM   15  C9  UNL     1      24.209  -2.095 -14.805  1.00  0.00     0.016 A 
HETATM   16  C10 UNL     1      24.854  -2.937 -13.956  1.00  0.00    -0.009 A 
HETATM   17  C11 UNL     1      25.184  -4.199 -14.398  1.00  0.00     0.013 A 
HETATM   18  C15 UNL     1      25.175  -2.539 -12.674  1.00  0.00     0.043 A 
HETATM   19  C12 UNL     1      25.838  -5.071 -13.556  1.00  0.00     0.001 A 
HETATM   20  C13 UNL     1      26.155  -4.666 -12.277  1.00  0.00     0.002 A 
HETATM   21  C14 UNL     1      25.826  -3.406 -11.836  1.00  0.00     0.030 A 
HETATM   22  N2  UNL     1      24.827  -1.304 -12.307  1.00  0.00    -0.355 N 
ATOM     23  H2  UNL     1      25.062  -1.005 -11.361  1.00  0.00     0.166 HD
ENDBRANCH   6  13
BRANCH   1  24
HETATM   24  C2  UNL     1      22.037   5.164  -8.792  1.00  0.00    -0.028 C 
HETATM   25  C1  UNL     1      21.647   5.914  -7.942  1.00  0.00    -0.068 C 
BRANCH  25  26
HETATM   26  C18 UNL     1      21.168   6.810  -6.890  1.00  0.00     0.366 C 
BRANCH  26  27
HETATM   27  N5  UNL     1      21.788   6.436  -5.624  1.00  0.00     0.105 N 
HETATM   28  C19 UNL     1      21.287   7.328  -4.582  1.00  0.00     0.301 C 
HETATM   29  C20 UNL     1      20.068   6.636  -4.107  1.00  0.00     0.001 C 
HETATM   30  C21 UNL     1      20.092   5.345  -4.460  1.00  0.00     0.001 C 
HETATM   31  C22 UNL     1      21.374   5.104  -5.214  1.00  0.00     0.301 C 
ENDBRANCH  26  27
ENDBRANCH  25  26
ENDBRANCH   1  24
TORSDOF 4
ENDMDL
MODEL 2
REMARK VINA RESULT: -7.408975124      7.632      8.865
REMARK  4 active torsions:
REMARK  status: ('A' for Active; 'I' for Inactive)
REMARK    1  A    between atoms: C1_1  and  C18_26 
REMARK    2  A    between atoms: C2_2  and  C3_3 
REMARK    3  A    between atoms: C6_8  and  C7_9 
REMARK    4  A    between atoms: C18_26  and  N5_27 
ROOT
HETATM    1  C3  UNL     1      19.567   4.139  -5.510  1.00  0.00     0.163 A 
HETATM    2  N1  UNL     1      18.786   3.814  -6.538  1.00  0.00    -0.332 N 
ATOM      3  H1  UNL     1      18.732   4.323  -7.420  1.00  0.00     0.168 HD
HETATM    4  C4  UNL     1      18.077   2.705  -6.233  1.00  0.00     0.079 A 
HETATM    5  C5  UNL     1      17.132   1.954  -6.934  1.00  0.00     0.048 A 
HETATM    6  C6  UNL     1      16.557   0.844  -6.366  1.00  0.00     0.008 A 
HETATM    7  C16 UNL     1      16.964   0.528  -5.088  1.00  0.00     0.103 A 
HETATM    8  N3  UNL     1      17.862   1.222  -4.392  1.00  0.00    -0.349 N 
ATOM      9  H3  UNL     1      18.121   0.934  -3.447  1.00  0.00     0.166 HD
HETATM   10  C17 UNL     1      18.428   2.318  -4.957  1.00  0.00     0.134 A 
HETATM   11  N4  UNL     1      19.338   3.220  -4.555  1.00  0.00    -0.319 N 
ATOM     12  H4  UNL     1      19.797   3.209  -3.643  1.00  0.00     0.169 HD
ENDROOT
BRANCH   6  13
HETATM   13  C7  UNL     1      15.563   0.010  -7.036  1.00  0.00     0.044 A 
HETATM   14  C8  UNL     1      14.221   0.132  -6.828  1.00  0.00     0.031 A 
HETATM   15  C9  UNL     1      13.332  -0.695  -7.499  1.00  0.00     0.016 A 
HETATM   16  C10 UNL     1      13.816  -1.624  -8.364  1.00  0.00    -0.009 A 
HETATM   17  C11 UNL     1      12.926  -2.440  -9.027  1.00  0.00     0.013 A 
HETATM   18  C15 UNL     1      15.174  -1.751  -8.578  1.00  0.00     0.043 A 
HETATM   19  C12 UNL     1      13.393  -3.390  -9.908  1.00  0.00     0.001 A 
HETATM   20  C13 UNL     1      14.751  -3.511 -10.116  1.00  0.00     0.002 A 
HETATM   21  C14 UNL     1      15.639  -2.695  -9.455  1.00  0.00     0.030 A 
HETATM   22  N2  UNL     1      15.983  -0.930  -7.905  1.00  0.00    -0.355 N 
ATOM     23  H2  UNL     1      16.987  -1.020  -8.059  1.00  0.00     0.166 HD
ENDBRANCH   6  13
BRANCH   1  24
HETATM   24  C2  UNL     1      20.489   5.257  -5.411  1.00  0.00    -0.028 C 
HETATM   25  C1  UNL     1      21.236   6.193  -5.339  1.00  0.00    -0.068 C 
BRANCH  25  26
HETATM   26  C18 UNL     1      22.130   7.347  -5.264  1.00  0.00     0.366 C 
BRANCH  26  27
HETATM   27  N5  UNL     1      21.332   8.567  -5.201  1.00  0.00     0.105 N 
HETATM   28  C19 UNL     1      22.225   9.691  -4.933  1.00  0.00     0.301 C 
HETATM   29  C20 UNL     1      22.641  10.118  -6.287  1.00  0.00     0.001 C 
HETATM   30  C21 UNL     1      21.791   9.650  -7.211  1.00  0.00     0.001 C 
HETATM   31  C22 UNL     1      20.729   8.862  -6.491  1.00  0.00     0.301 C 
ENDBRANCH  26  27
ENDBRANCH  25  26
ENDBRANCH   1  24
TORSDOF 4
ENDMDL
MODEL 3
REMARK VINA RESULT: -7.391272403      8.363     10.210
REMARK  4 active torsions:
REMARK  status: ('A' for Active; 'I' for Inactive)
REMARK    1  A    between atoms: C1_1  and  C18_26 
REMARK    2  A    between atoms: C2_2  and  C3_3 
REMARK    3  A    between atoms: C6_8  and  C7_9 
REMARK    4  A    between atoms: C18_26  and  N5_27 
ROOT
HETATM    1  C3  UNL     1      21.530   9.828  -8.311  1.00  0.00     0.163 A 
HETATM    2  N1  UNL     1      21.360   8.510  -8.385  1.00  0.00    -0.332 N 
ATOM      3  H1  UNL     1      21.334   7.967  -9.248  1.00  0.00     0.168 HD
HETATM    4  C4  UNL     1      21.227   8.002  -7.140  1.00  0.00     0.079 A 
HETATM    5  C5  UNL     1      21.030   6.709  -6.653  1.00  0.00     0.048 A 
HETATM    6  C6  UNL     1      20.928   6.475  -5.304  1.00  0.00     0.008 A 
HETATM    7  C16 UNL     1      21.029   7.576  -4.481  1.00  0.00     0.103 A 
HETATM    8  N3  UNL     1      21.216   8.822  -4.912  1.00  0.00    -0.349 N 
ATOM      9  H3  UNL     1      21.283   9.595  -4.249  1.00  0.00     0.166 HD
HETATM   10  C17 UNL     1      21.316   9.048  -6.246  1.00  0.00     0.134 A 
HETATM   11  N4  UNL     1      21.501  10.142  -7.004  1.00  0.00    -0.319 N 
ATOM     12  H4  UNL     1      21.607  11.087  -6.635  1.00  0.00     0.169 HD
ENDROOT
BRANCH   6  13
HETATM   13  C7  UNL     1      20.723   5.152  -4.720  1.00  0.00     0.044 A 
HETATM   14  C8  UNL     1      21.614   4.561  -3.875  1.00  0.00     0.031 A 
HETATM   15  C9  UNL     1      21.355   3.300  -3.358  1.00  0.00     0.016 A 
HETATM   16  C10 UNL     1      20.204   2.667  -3.703  1.00  0.00    -0.009 A 
HETATM   17  C11 UNL     1      19.954   1.415  -3.184  1.00  0.00     0.013 A 
HETATM   18  C15 UNL     1      19.299   3.261  -4.559  1.00  0.00     0.043 A 
HETATM   19  C12 UNL     1      18.795   0.752  -3.520  1.00  0.00     0.001 A 
HETATM   20  C13 UNL     1      17.896   1.353  -4.375  1.00  0.00     0.002 A 
HETATM   21  C14 UNL     1      18.145   2.602  -4.893  1.00  0.00     0.030 A 
HETATM   22  N2  UNL     1      19.600   4.474  -5.027  1.00  0.00    -0.355 N 
ATOM     23  H2  UNL     1      18.934   4.918  -5.660  1.00  0.00     0.166 HD
ENDBRANCH   6  13
BRANCH   1  24
HETATM   24  C2  UNL     1      21.711  10.765  -9.407  1.00  0.00    -0.028 C 
HETATM   25  C1  UNL     1      21.842  11.547 -10.306  1.00  0.00    -0.068 C 
BRANCH  25  26
HETATM   26  C18 UNL     1      21.978  12.510 -11.398  1.00  0.00     0.366 C 
BRANCH  26  27
HETATM   27  N5  UNL     1      20.702  12.627 -12.094  1.00  0.00     0.105 N 
HETATM   28  C19 UNL     1      19.745  13.276 -11.200  1.00  0.00     0.301 C 
HETATM   29  C20 UNL     1      19.949  14.715 -11.480  1.00  0.00     0.001 C 
HETATM   30  C21 UNL     1      20.567  14.883 -12.657  1.00  0.00     0.001 C 
HETATM   31  C22 UNL     1      20.812  13.516 -13.240  1.00  0.00     0.301 C 
ENDBRANCH  26  27
ENDBRANCH  25  26
ENDBRANCH   1  24
TORSDOF 4
ENDMDL
MODEL 4
REMARK VINA RESULT: -7.390075032      7.842      9.610
REMARK  4 active torsions:
REMARK  status: ('A' for Active; 'I' for Inactive)
REMARK    1  A    between atoms: C1_1  and  C18_26 
REMARK    2  A    between atoms: C2_2  and  C3_3 
REMARK    3  A    between atoms: C6_8  and  C7_9 
REMARK    4  A    between atoms: C18_26  and  N5_27 
ROOT
HETATM    1  C3  UNL     1      21.963   9.347  -4.984  1.00  0.00     0.163 A 
HETATM    2  N1  UNL     1      21.181   8.540  -4.270  1.00  0.00    -0.332 N 
ATOM      3  H1  UNL     1      20.806   8.751  -3.346  1.00  0.00     0.168 HD
HETATM    4  C4  UNL     1      20.962   7.399  -4.959  1.00  0.00     0.079 A 
HETATM    5  C5  UNL     1      20.231   6.243  -4.682  1.00  0.00     0.048 A 
HETATM    6  C6  UNL     1      20.180   5.210  -5.587  1.00  0.00     0.008 A 
HETATM    7  C16 UNL     1      20.882   5.388  -6.760  1.00  0.00     0.103 A 
HETATM    8  N3  UNL     1      21.588   6.477  -7.056  1.00  0.00    -0.349 N 
ATOM      9  H3  UNL     1      22.087   6.546  -7.944  1.00  0.00     0.166 HD
HETATM   10  C17 UNL     1      21.636   7.494  -6.158  1.00  0.00     0.134 A 
HETATM   11  N4  UNL     1      22.232   8.698  -6.131  1.00  0.00    -0.319 N 
ATOM     12  H4  UNL     1      22.812   9.070  -6.883  1.00  0.00     0.169 HD
ENDROOT
BRANCH   6  13
HETATM   13  C7  UNL     1      19.438   3.972  -5.368  1.00  0.00     0.044 A 
HETATM   14  C8  UNL     1      18.504   3.496  -6.239  1.00  0.00     0.031 A 
HETATM   15  C9  UNL     1      17.835   2.311  -5.968  1.00  0.00     0.016 A 
HETATM   16  C10 UNL     1      18.125   1.635  -4.826  1.00  0.00    -0.009 A 
HETATM   17  C11 UNL     1      17.456   0.458  -4.564  1.00  0.00     0.013 A 
HETATM   18  C15 UNL     1      19.069   2.113  -3.941  1.00  0.00     0.043 A 
HETATM   19  C12 UNL     1      17.732  -0.245  -3.413  1.00  0.00     0.001 A 
HETATM   20  C13 UNL     1      18.677   0.240  -2.534  1.00  0.00     0.002 A 
HETATM   21  C14 UNL     1      19.344   1.413  -2.795  1.00  0.00     0.030 A 
HETATM   22  N2  UNL     1      19.681   3.258  -4.252  1.00  0.00    -0.355 N 
ATOM     23  H2  UNL     1      20.380   3.616  -3.602  1.00  0.00     0.166 HD
ENDBRANCH   6  13
BRANCH   1  24
HETATM   24  C2  UNL     1      22.444  10.669  -4.623  1.00  0.00    -0.028 C 
HETATM   25  C1  UNL     1      22.844  11.753  -4.303  1.00  0.00    -0.068 C 
BRANCH  25  26
HETATM   26  C18 UNL     1      23.331  13.069  -3.890  1.00  0.00     0.366 C 
BRANCH  26  27
HETATM   27  N5  UNL     1      24.606  12.911  -3.199  1.00  0.00     0.105 N 
HETATM   28  C19 UNL     1      24.988  14.202  -2.633  1.00  0.00     0.301 C 
HETATM   29  C20 UNL     1      24.345  14.185  -1.299  1.00  0.00     0.001 C 
HETATM   30  C21 UNL     1      24.036  12.932  -0.942  1.00  0.00     0.001 C 
HETATM   31  C22 UNL     1      24.474  12.020  -2.058  1.00  0.00     0.301 C 
ENDBRANCH  26  27
ENDBRANCH  25  26
ENDBRANCH   1  24
TORSDOF 4
ENDMDL
MODEL 5
REMARK VINA RESULT: -7.385721739      8.375     10.229
REMARK  4 active torsions:
REMARK  status: ('A' for Active; 'I' for Inactive)
REMARK    1  A    between atoms: C1_1  and  C18_26 
REMARK    2  A    between atoms: C2_2  and  C3_3 
REMARK    3  A    between atoms: C6_8  and  C7_9 
REMARK    4  A    between atoms: C18_26  and  N5_27 
ROOT
HETATM    1  C3  UNL     1      21.513   9.748  -8.317  1.00  0.00     0.163 A 
HETATM    2  N1  UNL     1      21.348   8.428  -8.370  1.00  0.00    -0.332 N 
ATOM      3  H1  UNL     1      21.337   7.870  -9.224  1.00  0.00     0.168 HD
HETATM    4  C4  UNL     1      21.197   7.942  -7.119  1.00  0.00     0.079 A 
HETATM    5  C5  UNL     1      20.997   6.656  -6.613  1.00  0.00     0.048 A 
HETATM    6  C6  UNL     1      20.875   6.446  -5.261  1.00  0.00     0.008 A 
HETATM    7  C16 UNL     1      20.960   7.562  -4.456  1.00  0.00     0.103 A 
HETATM    8  N3  UNL     1      21.150   8.800  -4.906  1.00  0.00    -0.349 N 
ATOM      9  H3  UNL     1      21.204   9.585  -4.256  1.00  0.00     0.166 HD
HETATM   10  C17 UNL     1      21.270   9.003  -6.242  1.00  0.00     0.134 A 
HETATM   11  N4  UNL     1      21.464  10.084  -7.016  1.00  0.00    -0.319 N 
ATOM     12  H4  UNL     1      21.561  11.036  -6.662  1.00  0.00     0.169 HD
ENDROOT
BRANCH   6  13
HETATM   13  C7  UNL     1      20.664   5.132  -4.657  1.00  0.00     0.044 A 
HETATM   14  C8  UNL     1      21.514   4.584  -3.744  1.00  0.00     0.031 A 
HETATM   15  C9  UNL     1      21.253   3.330  -3.211  1.00  0.00     0.016 A 
HETATM   16  C10 UNL     1      20.141   2.660  -3.611  1.00  0.00    -0.009 A 
HETATM   17  C11 UNL     1      19.889   1.416  -3.076  1.00  0.00     0.013 A 
HETATM   18  C15 UNL     1      19.278   3.211  -4.536  1.00  0.00     0.043 A 
HETATM   19  C12 UNL     1      18.769   0.716  -3.466  1.00  0.00     0.001 A 
HETATM   20  C13 UNL     1      17.911   1.274  -4.391  1.00  0.00     0.002 A 
HETATM   21  C14 UNL     1      18.162   2.516  -4.924  1.00  0.00     0.030 A 
HETATM   22  N2  UNL     1      19.579   4.420  -5.015  1.00  0.00    -0.355 N 
ATOM     23  H2  UNL     1      18.944   4.832  -5.699  1.00  0.00     0.166 HD
ENDBRANCH   6  13
BRANCH   1  24
HETATM   24  C2  UNL     1      21.709  10.666  -9.426  1.00  0.00    -0.028 C 
HETATM   25  C1  UNL     1      21.849  11.421 -10.346  1.00  0.00    -0.068 C 
BRANCH  25  26
HETATM   26  C18 UNL     1      21.997  12.338 -11.476  1.00  0.00     0.366 C 
BRANCH  26  27
HETATM   27  N5  UNL     1      22.940  13.391 -11.116  1.00  0.00     0.105 N 
HETATM   28  C19 UNL     1      23.082  14.294 -12.256  1.00  0.00     0.301 C 
HETATM   29  C20 UNL     1      22.003  15.283 -12.035  1.00  0.00     0.001 C 
HETATM   30  C21 UNL     1      21.596  15.260 -10.760  1.00  0.00     0.001 C 
HETATM   31  C22 UNL     1      22.413  14.218 -10.042  1.00  0.00     0.301 C 
ENDBRANCH  26  27
ENDBRANCH  25  26
ENDBRANCH   1  24
TORSDOF 4
ENDMDL
