MODEL 1
REMARK VINA RESULT: -6.991539314      0.000      0.000
REMARK  4 active torsions:
REMARK  status: ('A' for Active; 'I' for Inactive)
REMARK    1  A    between atoms: C2_2  and  N1_3 
REMARK    2  A    between atoms: C4_5  and  N2_6 
REMARK       I    between atoms: N2_6  and  C5_8 
REMARK    3  A    between atoms: C5_8  and  C6_10 
REMARK    4  A    between atoms: C6_10  and  N3_11 
REMARK       I    between atoms: N3_11  and  C7_13 
ROOT
HETATM    1  N2  UNL     1      61.815 -27.765 -33.690  1.00  0.00    -0.352 N 
ATOM      2  H2  UNL     1      62.304 -26.873 -33.760  1.00  0.00     0.163 HD
HETATM    3  C5  UNL     1      62.221 -28.713 -32.739  1.00  0.00     0.246 C 
HETATM    4  O1  UNL     1      61.601 -29.805 -32.675  1.00  0.00    -0.271 OA
ENDROOT
BRANCH   3   5
HETATM    5  C6  UNL     1      63.359 -28.426 -31.829  1.00  0.00     0.117 A 
HETATM    6  C8  UNL     1      64.028 -29.556 -31.132  1.00  0.00     0.048 A 
HETATM    7  C9  UNL     1      64.706 -29.033 -32.330  1.00  0.00     0.022 A 
HETATM    8  C10 UNL     1      65.912 -28.155 -32.250  1.00  0.00     0.013 C 
BRANCH   5   9
HETATM    9  N3  UNL     1      63.461 -27.160 -31.151  1.00  0.00    -0.346 N 
HETATM   10  C7  UNL     1      62.489 -26.638 -30.266  1.00  0.00     0.182 C 
HETATM   11  N4  UNL     1      61.740 -27.376 -29.526  1.00  0.00    -0.374 N 
HETATM   12  N5  UNL     1      62.332 -25.232 -30.191  1.00  0.00    -0.064 NA
ATOM     13  H42 UNL     1      61.852 -28.388 -29.580  1.00  0.00     0.158 HD
ATOM     14  H41 UNL     1      61.039 -27.000 -28.888  1.00  0.00     0.158 HD
ATOM     15  H3  UNL     1      64.295 -26.599 -31.322  1.00  0.00     0.163 HD
ENDBRANCH   5   9
ENDBRANCH   3   5
BRANCH   1  16
HETATM   16  C4  UNL     1      60.704 -28.050 -34.571  1.00  0.00     0.119 C 
HETATM   17  C3  UNL     1      59.878 -26.853 -34.874  1.00  0.00     0.298 C 
HETATM   18  N1  UNL     1      59.573 -26.886 -36.252  1.00  0.00     0.095 N 
HETATM   19  C13 UNL     1      60.253 -27.905 -36.940  1.00  0.00     0.229 A 
HETATM   20  C11 UNL     1      61.163 -28.523 -35.931  1.00  0.00     0.045 A 
HETATM   21  C12 UNL     1      60.144 -29.340 -36.660  1.00  0.00     0.045 A 
BRANCH  18  22
HETATM   22  C2  UNL     1      59.551 -25.610 -36.908  1.00  0.00     0.268 C 
HETATM   23  C1  UNL     1      60.760 -24.763 -36.602  1.00  0.00     0.037 C 
ENDBRANCH  18  22
ENDBRANCH   1  16
TORSDOF 4
ENDMDL
MODEL 2
REMARK VINA RESULT: -6.640598342      4.397      6.363
REMARK  4 active torsions:
REMARK  status: ('A' for Active; 'I' for Inactive)
REMARK    1  A    between atoms: C2_2  and  N1_3 
REMARK    2  A    between atoms: C4_5  and  N2_6 
REMARK       I    between atoms: N2_6  and  C5_8 
REMARK    3  A    between atoms: C5_8  and  C6_10 
REMARK    4  A    between atoms: C6_10  and  N3_11 
REMARK       I    between atoms: N3_11  and  C7_13 
ROOT
HETATM    1  N2  UNL     1      63.641 -31.819 -33.371  1.00  0.00    -0.352 N 
ATOM      2  H2  UNL     1      62.936 -32.068 -32.678  1.00  0.00     0.163 HD
HETATM    3  C5  UNL     1      64.088 -32.780 -34.290  1.00  0.00     0.246 C 
HETATM    4  O1  UNL     1      64.960 -32.447 -35.133  1.00  0.00    -0.271 OA
ENDROOT
BRANCH   3   5
HETATM    5  C6  UNL     1      63.539 -34.159 -34.263  1.00  0.00     0.117 A 
HETATM    6  C8  UNL     1      64.349 -35.270 -34.833  1.00  0.00     0.048 A 
HETATM    7  C9  UNL     1      64.372 -35.128 -33.367  1.00  0.00     0.022 A 
HETATM    8  C10 UNL     1      63.605 -36.036 -32.462  1.00  0.00     0.013 C 
BRANCH   5   9
HETATM    9  N3  UNL     1      62.118 -34.389 -34.273  1.00  0.00    -0.346 N 
HETATM   10  C7  UNL     1      61.168 -33.539 -34.887  1.00  0.00     0.182 C 
HETATM   11  N4  UNL     1      61.421 -32.838 -35.935  1.00  0.00    -0.374 N 
HETATM   12  N5  UNL     1      59.873 -33.454 -34.318  1.00  0.00    -0.064 NA
ATOM     13  H42 UNL     1      62.352 -32.899 -36.344  1.00  0.00     0.158 HD
ATOM     14  H41 UNL     1      60.736 -32.226 -36.378  1.00  0.00     0.158 HD
ATOM     15  H3  UNL     1      61.771 -35.225 -33.804  1.00  0.00     0.163 HD
ENDBRANCH   5   9
ENDBRANCH   3   5
BRANCH   1  16
HETATM   16  C4  UNL     1      64.179 -30.477 -33.404  1.00  0.00     0.119 C 
HETATM   17  C3  UNL     1      63.363 -29.542 -34.223  1.00  0.00     0.298 C 
HETATM   18  N1  UNL     1      63.274 -28.325 -33.514  1.00  0.00     0.095 N 
HETATM   19  C13 UNL     1      63.815 -28.404 -32.218  1.00  0.00     0.229 A 
HETATM   20  C11 UNL     1      64.194 -29.836 -32.036  1.00  0.00     0.045 A 
HETATM   21  C12 UNL     1      65.204 -28.741 -31.895  1.00  0.00     0.045 A 
BRANCH  18  22
HETATM   22  C2  UNL     1      62.014 -27.645 -33.613  1.00  0.00     0.268 C 
HETATM   23  C1  UNL     1      60.858 -28.573 -33.888  1.00  0.00     0.037 C 
ENDBRANCH  18  22
ENDBRANCH   1  16
TORSDOF 4
ENDMDL
MODEL 3
REMARK VINA RESULT: -6.633814316      2.621      6.387
REMARK  4 active torsions:
REMARK  status: ('A' for Active; 'I' for Inactive)
REMARK    1  A    between atoms: C2_2  and  N1_3 
REMARK    2  A    between atoms: C4_5  and  N2_6 
REMARK       I    between atoms: N2_6  and  C5_8 
REMARK    3  A    between atoms: C5_8  and  C6_10 
REMARK    4  A    between atoms: C6_10  and  N3_11 
REMARK       I    between atoms: N3_11  and  C7_13 
ROOT
HETATM    1  N2  UNL     1      61.682 -26.057 -33.616  1.00  0.00    -0.352 N 
ATOM      2  H2  UNL     1      61.566 -27.048 -33.827  1.00  0.00     0.163 HD
HETATM    3  C5  UNL     1      60.868 -25.108 -34.250  1.00  0.00     0.246 C 
HETATM    4  O1  UNL     1      61.033 -23.892 -33.973  1.00  0.00    -0.271 OA
ENDROOT
BRANCH   3   5
HETATM    5  C6  UNL     1      59.834 -25.535 -35.227  1.00  0.00     0.117 A 
HETATM    6  C8  UNL     1      59.828 -24.925 -36.584  1.00  0.00     0.048 A 
HETATM    7  C9  UNL     1      60.435 -26.262 -36.470  1.00  0.00     0.022 A 
HETATM    8  C10 UNL     1      59.739 -27.501 -36.929  1.00  0.00     0.013 C 
BRANCH   5   9
HETATM    9  N3  UNL     1      58.554 -26.019 -34.783  1.00  0.00    -0.346 N 
HETATM   10  C7  UNL     1      57.833 -25.500 -33.681  1.00  0.00     0.182 C 
HETATM   11  N4  UNL     1      57.891 -24.269 -33.316  1.00  0.00    -0.374 N 
HETATM   12  N5  UNL     1      57.005 -26.382 -32.943  1.00  0.00    -0.064 NA
ATOM     13  H42 UNL     1      58.487 -23.635 -33.848  1.00  0.00     0.158 HD
ATOM     14  H41 UNL     1      57.372 -23.895 -32.523  1.00  0.00     0.158 HD
ATOM     15  H3  UNL     1      58.136 -26.792 -35.300  1.00  0.00     0.163 HD
ENDBRANCH   5   9
ENDBRANCH   3   5
BRANCH   1  16
HETATM   16  C4  UNL     1      62.685 -25.635 -32.664  1.00  0.00     0.119 C 
HETATM   17  C3  UNL     1      62.335 -25.971 -31.260  1.00  0.00     0.298 C 
HETATM   18  N1  UNL     1      63.505 -26.456 -30.636  1.00  0.00     0.095 N 
HETATM   19  C13 UNL     1      64.572 -26.633 -31.534  1.00  0.00     0.229 A 
HETATM   20  C11 UNL     1      64.007 -26.333 -32.882  1.00  0.00     0.045 A 
HETATM   21  C12 UNL     1      65.183 -25.578 -32.348  1.00  0.00     0.045 A 
BRANCH  18  22
HETATM   22  C2  UNL     1      63.305 -27.525 -29.700  1.00  0.00     0.268 C 
HETATM   23  C1  UNL     1      63.834 -27.217 -28.322  1.00  0.00     0.037 C 
ENDBRANCH  18  22
ENDBRANCH   1  16
TORSDOF 4
ENDMDL
MODEL 4
REMARK VINA RESULT: -6.625173047      1.475      1.928
REMARK  4 active torsions:
REMARK  status: ('A' for Active; 'I' for Inactive)
REMARK    1  A    between atoms: C2_2  and  N1_3 
REMARK    2  A    between atoms: C4_5  and  N2_6 
REMARK       I    between atoms: N2_6  and  C5_8 
REMARK    3  A    between atoms: C5_8  and  C6_10 
REMARK    4  A    between atoms: C6_10  and  N3_11 
REMARK       I    between atoms: N3_11  and  C7_13 
ROOT
HETATM    1  N2  UNL     1      62.397 -29.062 -33.343  1.00  0.00    -0.352 N 
ATOM      2  H2  UNL     1      62.950 -28.429 -33.921  1.00  0.00     0.163 HD
HETATM    3  C5  UNL     1      62.703 -29.215 -31.983  1.00  0.00     0.246 C 
HETATM    4  O1  UNL     1      62.005 -30.003 -31.294  1.00  0.00    -0.271 OA
ENDROOT
BRANCH   3   5
HETATM    5  C6  UNL     1      63.827 -28.460 -31.375  1.00  0.00     0.117 A 
HETATM    6  C8  UNL     1      64.923 -29.211 -30.706  1.00  0.00     0.048 A 
HETATM    7  C9  UNL     1      65.194 -28.737 -32.073  1.00  0.00     0.022 A 
HETATM    8  C10 UNL     1      66.061 -27.552 -32.354  1.00  0.00     0.013 C 
BRANCH   5   9
HETATM    9  N3  UNL     1      63.638 -27.118 -30.889  1.00  0.00    -0.346 N 
HETATM   10  C7  UNL     1      62.476 -26.656 -30.227  1.00  0.00     0.182 C 
HETATM   11  N4  UNL     1      61.738 -27.407 -29.489  1.00  0.00    -0.374 N 
HETATM   12  N5  UNL     1      62.105 -25.298 -30.386  1.00  0.00    -0.064 NA
ATOM     13  H42 UNL     1      62.005 -28.384 -29.374  1.00  0.00     0.158 HD
ATOM     14  H41 UNL     1      60.901 -27.074 -29.012  1.00  0.00     0.158 HD
ATOM     15  H3  UNL     1      64.397 -26.453 -31.031  1.00  0.00     0.163 HD
ENDBRANCH   5   9
ENDBRANCH   3   5
BRANCH   1  16
HETATM   16  C4  UNL     1      61.299 -29.799 -33.928  1.00  0.00     0.119 C 
HETATM   17  C3  UNL     1      60.402 -28.951 -34.756  1.00  0.00     0.298 C 
HETATM   18  N1  UNL     1      60.091 -29.678 -35.925  1.00  0.00     0.095 N 
HETATM   19  C13 UNL     1      60.825 -30.871 -36.041  1.00  0.00     0.229 A 
HETATM   20  C11 UNL     1      61.776 -30.862 -34.890  1.00  0.00     0.045 A 
HETATM   21  C12 UNL     1      60.801 -31.981 -35.083  1.00  0.00     0.045 A 
BRANCH  18  22
HETATM   22  C2  UNL     1      59.991 -28.899 -37.126  1.00  0.00     0.268 C 
HETATM   23  C1  UNL     1      59.736 -27.436 -36.867  1.00  0.00     0.037 C 
ENDBRANCH  18  22
ENDBRANCH   1  16
TORSDOF 4
ENDMDL
MODEL 5
REMARK VINA RESULT: -6.499732705      4.092      6.458
REMARK  4 active torsions:
REMARK  status: ('A' for Active; 'I' for Inactive)
REMARK    1  A    between atoms: C2_2  and  N1_3 
REMARK    2  A    between atoms: C4_5  and  N2_6 
REMARK       I    between atoms: N2_6  and  C5_8 
REMARK    3  A    between atoms: C5_8  and  C6_10 
REMARK    4  A    between atoms: C6_10  and  N3_11 
REMARK       I    between atoms: N3_11  and  C7_13 
ROOT
HETATM    1  N2  UNL     1      63.522 -31.327 -33.297  1.00  0.00    -0.352 N 
ATOM      2  H2  UNL     1      62.680 -31.602 -32.791  1.00  0.00     0.163 HD
HETATM    3  C5  UNL     1      64.222 -32.273 -34.059  1.00  0.00     0.246 C 
HETATM    4  O1  UNL     1      65.258 -31.906 -34.671  1.00  0.00    -0.271 OA
ENDROOT
BRANCH   3   5
HETATM    5  C6  UNL     1      63.746 -33.678 -34.136  1.00  0.00     0.117 A 
HETATM    6  C8  UNL     1      64.623 -34.704 -34.760  1.00  0.00     0.048 A 
HETATM    7  C9  UNL     1      64.610 -34.661 -33.289  1.00  0.00     0.022 A 
HETATM    8  C10 UNL     1      63.874 -35.667 -32.464  1.00  0.00     0.013 C 
BRANCH   5   9
HETATM    9  N3  UNL     1      62.339 -33.977 -34.195  1.00  0.00    -0.346 N 
HETATM   10  C7  UNL     1      61.398 -33.281 -34.990  1.00  0.00     0.182 C 
HETATM   11  N4  UNL     1      61.691 -32.738 -36.118  1.00  0.00    -0.374 N 
HETATM   12  N5  UNL     1      60.066 -33.176 -34.519  1.00  0.00    -0.064 NA
ATOM     13  H42 UNL     1      62.649 -32.814 -36.457  1.00  0.00     0.158 HD
ATOM     14  H41 UNL     1      61.013 -32.237 -36.691  1.00  0.00     0.158 HD
ATOM     15  H3  UNL     1      61.996 -34.748 -33.622  1.00  0.00     0.163 HD
ENDBRANCH   5   9
ENDBRANCH   3   5
BRANCH   1  16
HETATM   16  C4  UNL     1      63.991 -29.960 -33.227  1.00  0.00     0.119 C 
HETATM   17  C3  UNL     1      62.887 -28.965 -33.205  1.00  0.00     0.298 C 
HETATM   18  N1  UNL     1      63.219 -27.985 -32.245  1.00  0.00     0.095 N 
HETATM   19  C13 UNL     1      64.365 -28.313 -31.500  1.00  0.00     0.229 A 
HETATM   20  C11 UNL     1      64.749 -29.683 -31.950  1.00  0.00     0.045 A 
HETATM   21  C12 UNL     1      65.704 -28.536 -32.053  1.00  0.00     0.045 A 
BRANCH  18  22
HETATM   22  C2  UNL     1      62.116 -27.472 -31.483  1.00  0.00     0.268 C 
HETATM   23  C1  UNL     1      62.295 -27.633 -29.995  1.00  0.00     0.037 C 
ENDBRANCH  18  22
ENDBRANCH   1  16
TORSDOF 4
ENDMDL
