MODEL 1
REMARK VINA RESULT: -6.483176441      0.000      0.000
REMARK  5 active torsions:
REMARK  status: ('A' for Active; 'I' for Inactive)
REMARK    1  A    between atoms: C2_2  and  C3_3 
REMARK    2  A    between atoms: C8_8  and  C9_9 
REMARK    3  A    between atoms: C9_9  and  N1_10 
REMARK       I    between atoms: N1_10  and  C10_12 
REMARK       I    between atoms: C10_12  and  N2_14 
REMARK    4  A    between atoms: N2_14  and  C11_16 
REMARK    5  A    between atoms: C11_16  and  C12_17 
ROOT
HETATM    1  N1  UNL     1     -18.358   2.047   5.211  1.00  0.00    -0.343 N 
ATOM      2  H1  UNL     1     -18.910   1.227   4.959  1.00  0.00     0.164 HD
HETATM    3  C10 UNL     1     -17.108   1.885   5.867  1.00  0.00     0.316 C 
HETATM    4  O1  UNL     1     -16.433   2.913   6.174  1.00  0.00    -0.247 OA
HETATM    5  N2  UNL     1     -16.605   0.601   6.182  1.00  0.00    -0.335 N 
ATOM      6  H2  UNL     1     -17.163  -0.213   5.924  1.00  0.00     0.164 HD
ENDROOT
BRANCH   1   7
HETATM    7  C9  UNL     1     -18.847   3.358   4.902  1.00  0.00     0.130 C 
BRANCH   7   8
HETATM    8  C8  UNL     1     -20.264   3.627   5.181  1.00  0.00     0.016 C 
HETATM    9  C3  UNL     1     -21.264   3.270   4.111  1.00  0.00     0.017 C 
HETATM   10  C4  UNL     1     -21.941   4.607   3.933  1.00  0.00    -0.006 C 
HETATM   11  C5  UNL     1     -22.111   5.122   5.345  1.00  0.00     0.010 C 
HETATM   12  C7  UNL     1     -20.715   5.539   3.897  1.00  0.00     0.010 C 
HETATM   13  C6  UNL     1     -20.574   5.096   5.341  1.00  0.00    -0.007 C 
BRANCH   9  14
HETATM   14  C2  UNL     1     -20.723   2.788   2.848  1.00  0.00    -0.031 C 
HETATM   15  C1  UNL     1     -20.844   1.524   2.515  1.00  0.00     0.007 C 
ENDBRANCH   9  14
ENDBRANCH   7   8
ENDBRANCH   1   7
BRANCH   5  16
HETATM   16  C11 UNL     1     -15.348   0.381   6.848  1.00  0.00     0.223 C 
BRANCH  16  17
HETATM   17  C12 UNL     1     -15.482  -0.166   8.204  1.00  0.00     0.248 C 
HETATM   18  N3  UNL     1     -15.882   0.702   9.270  1.00  0.00    -0.061 NA
HETATM   19  O2  UNL     1     -15.268  -1.361   8.515  1.00  0.00    -0.275 OA
ENDBRANCH  16  17
ENDBRANCH   5  16
TORSDOF 5
ENDMDL
MODEL 2
REMARK VINA RESULT: -6.074737127      1.431      2.632
REMARK  5 active torsions:
REMARK  status: ('A' for Active; 'I' for Inactive)
REMARK    1  A    between atoms: C2_2  and  C3_3 
REMARK    2  A    between atoms: C8_8  and  C9_9 
REMARK    3  A    between atoms: C9_9  and  N1_10 
REMARK       I    between atoms: N1_10  and  C10_12 
REMARK       I    between atoms: C10_12  and  N2_14 
REMARK    4  A    between atoms: N2_14  and  C11_16 
REMARK    5  A    between atoms: C11_16  and  C12_17 
ROOT
HETATM    1  N1  UNL     1     -17.538   1.697   5.741  1.00  0.00    -0.343 N 
ATOM      2  H1  UNL     1     -17.399   1.202   4.860  1.00  0.00     0.164 HD
HETATM    3  C10 UNL     1     -16.857   1.264   6.911  1.00  0.00     0.316 C 
HETATM    4  O1  UNL     1     -17.039   1.889   7.998  1.00  0.00    -0.247 OA
HETATM    5  N2  UNL     1     -15.982   0.153   6.883  1.00  0.00    -0.335 N 
ATOM      6  H2  UNL     1     -15.847  -0.333   5.997  1.00  0.00     0.164 HD
ENDROOT
BRANCH   1   7
HETATM    7  C9  UNL     1     -18.420   2.824   5.793  1.00  0.00     0.130 C 
BRANCH   7   8
HETATM    8  C8  UNL     1     -19.058   3.235   4.535  1.00  0.00     0.016 C 
HETATM    9  C3  UNL     1     -20.103   4.319   4.608  1.00  0.00     0.017 C 
HETATM   10  C4  UNL     1     -21.260   3.605   3.951  1.00  0.00    -0.006 C 
HETATM   11  C5  UNL     1     -20.629   2.885   2.780  1.00  0.00     0.010 C 
HETATM   12  C7  UNL     1     -21.178   2.236   4.650  1.00  0.00     0.010 C 
HETATM   13  C6  UNL     1     -19.869   2.139   3.889  1.00  0.00    -0.007 C 
BRANCH   9  14
HETATM   14  C2  UNL     1     -20.467   4.786   5.938  1.00  0.00    -0.031 C 
HETATM   15  C1  UNL     1     -21.270   5.815   6.082  1.00  0.00     0.007 C 
ENDBRANCH   9  14
ENDBRANCH   7   8
ENDBRANCH   1   7
BRANCH   5  16
HETATM   16  C11 UNL     1     -15.270  -0.327   8.038  1.00  0.00     0.223 C 
BRANCH  16  17
HETATM   17  C12 UNL     1     -13.812  -0.343   7.874  1.00  0.00     0.248 C 
HETATM   18  N3  UNL     1     -13.003   0.456   8.745  1.00  0.00    -0.061 NA
HETATM   19  O2  UNL     1     -13.199  -1.015   7.011  1.00  0.00    -0.275 OA
ENDBRANCH  16  17
ENDBRANCH   5  16
TORSDOF 5
ENDMDL
MODEL 3
REMARK VINA RESULT: -5.816914839      2.197      2.767
REMARK  5 active torsions:
REMARK  status: ('A' for Active; 'I' for Inactive)
REMARK    1  A    between atoms: C2_2  and  C3_3 
REMARK    2  A    between atoms: C8_8  and  C9_9 
REMARK    3  A    between atoms: C9_9  and  N1_10 
REMARK       I    between atoms: N1_10  and  C10_12 
REMARK       I    between atoms: C10_12  and  N2_14 
REMARK    4  A    between atoms: N2_14  and  C11_16 
REMARK    5  A    between atoms: C11_16  and  C12_17 
ROOT
HETATM    1  N1  UNL     1     -19.768   3.665   8.337  1.00  0.00    -0.343 N 
ATOM      2  H1  UNL     1     -20.592   3.322   8.832  1.00  0.00     0.164 HD
HETATM    3  C10 UNL     1     -18.470   3.375   8.838  1.00  0.00     0.316 C 
HETATM    4  O1  UNL     1     -17.456   3.806   8.212  1.00  0.00    -0.247 OA
HETATM    5  N2  UNL     1     -18.290   2.615  10.017  1.00  0.00    -0.335 N 
ATOM      6  H2  UNL     1     -19.120   2.275  10.504  1.00  0.00     0.164 HD
ENDROOT
BRANCH   1   7
HETATM    7  C9  UNL     1     -19.926   4.436   7.140  1.00  0.00     0.130 C 
BRANCH   7   8
HETATM    8  C8  UNL     1     -20.791   3.879   6.093  1.00  0.00     0.016 C 
HETATM    9  C3  UNL     1     -20.126   3.118   4.973  1.00  0.00     0.017 C 
HETATM   10  C4  UNL     1     -20.654   3.889   3.788  1.00  0.00    -0.006 C 
HETATM   11  C5  UNL     1     -22.110   4.125   4.125  1.00  0.00     0.010 C 
HETATM   12  C7  UNL     1     -20.456   5.334   4.282  1.00  0.00     0.010 C 
HETATM   13  C6  UNL     1     -21.515   4.932   5.291  1.00  0.00    -0.007 C 
BRANCH   9  14
HETATM   14  C2  UNL     1     -18.669   3.098   4.974  1.00  0.00    -0.031 C 
HETATM   15  C1  UNL     1     -18.022   1.956   4.966  1.00  0.00     0.007 C 
ENDBRANCH   9  14
ENDBRANCH   7   8
ENDBRANCH   1   7
BRANCH   5  16
HETATM   16  C11 UNL     1     -17.000   2.296  10.568  1.00  0.00     0.223 C 
BRANCH  16  17
HETATM   17  C12 UNL     1     -16.505   0.966  10.191  1.00  0.00     0.248 C 
HETATM   18  N3  UNL     1     -15.971   0.767   8.878  1.00  0.00    -0.061 NA
HETATM   19  O2  UNL     1     -16.511  -0.036  10.943  1.00  0.00    -0.275 OA
ENDBRANCH  16  17
ENDBRANCH   5  16
TORSDOF 5
ENDMDL
MODEL 4
REMARK VINA RESULT: -5.746353161      1.704      1.720
REMARK  5 active torsions:
REMARK  status: ('A' for Active; 'I' for Inactive)
REMARK    1  A    between atoms: C2_2  and  C3_3 
REMARK    2  A    between atoms: C8_8  and  C9_9 
REMARK    3  A    between atoms: C9_9  and  N1_10 
REMARK       I    between atoms: N1_10  and  C10_12 
REMARK       I    between atoms: C10_12  and  N2_14 
REMARK    4  A    between atoms: N2_14  and  C11_16 
REMARK    5  A    between atoms: C11_16  and  C12_17 
ROOT
HETATM    1  N1  UNL     1     -18.193   2.598   5.940  1.00  0.00    -0.343 N 
ATOM      2  H1  UNL     1     -17.891   1.723   5.509  1.00  0.00     0.164 HD
HETATM    3  C10 UNL     1     -17.989   2.809   7.330  1.00  0.00     0.316 C 
HETATM    4  O1  UNL     1     -18.368   3.901   7.851  1.00  0.00    -0.247 OA
HETATM    5  N2  UNL     1     -17.372   1.827   8.140  1.00  0.00    -0.335 N 
ATOM      6  H2  UNL     1     -17.072   0.957   7.700  1.00  0.00     0.164 HD
ENDROOT
BRANCH   1   7
HETATM    7  C9  UNL     1     -18.820   3.606   5.139  1.00  0.00     0.130 C 
BRANCH   7   8
HETATM    8  C8  UNL     1     -20.272   3.772   5.286  1.00  0.00     0.016 C 
HETATM    9  C3  UNL     1     -21.151   3.194   4.205  1.00  0.00     0.017 C 
HETATM   10  C4  UNL     1     -21.924   4.430   3.813  1.00  0.00    -0.006 C 
HETATM   11  C5  UNL     1     -22.248   5.093   5.133  1.00  0.00     0.010 C 
HETATM   12  C7  UNL     1     -20.784   5.462   3.741  1.00  0.00     0.010 C 
HETATM   13  C6  UNL     1     -20.719   5.213   5.235  1.00  0.00    -0.007 C 
BRANCH   9  14
HETATM   14  C2  UNL     1     -20.473   2.617   3.053  1.00  0.00    -0.031 C 
HETATM   15  C1  UNL     1     -20.500   1.320   2.849  1.00  0.00     0.007 C 
ENDBRANCH   9  14
ENDBRANCH   7   8
ENDBRANCH   1   7
BRANCH   5  16
HETATM   16  C11 UNL     1     -17.145   1.990   9.552  1.00  0.00     0.223 C 
BRANCH  16  17
HETATM   17  C12 UNL     1     -16.347   0.914  10.153  1.00  0.00     0.248 C 
HETATM   18  N3  UNL     1     -15.126   0.514   9.521  1.00  0.00    -0.061 NA
HETATM   19  O2  UNL     1     -16.654   0.300  11.202  1.00  0.00    -0.275 OA
ENDBRANCH  16  17
ENDBRANCH   5  16
TORSDOF 5
ENDMDL
MODEL 5
REMARK VINA RESULT: -5.672763485      4.810      7.073
REMARK  5 active torsions:
REMARK  status: ('A' for Active; 'I' for Inactive)
REMARK    1  A    between atoms: C2_2  and  C3_3 
REMARK    2  A    between atoms: C8_8  and  C9_9 
REMARK    3  A    between atoms: C9_9  and  N1_10 
REMARK       I    between atoms: N1_10  and  C10_12 
REMARK       I    between atoms: C10_12  and  N2_14 
REMARK    4  A    between atoms: N2_14  and  C11_16 
REMARK    5  A    between atoms: C11_16  and  C12_17 
ROOT
HETATM    1  N1  UNL     1     -21.037   7.237   4.722  1.00  0.00    -0.343 N 
ATOM      2  H1  UNL     1     -20.305   7.575   4.096  1.00  0.00     0.164 HD
HETATM    3  C10 UNL     1     -21.103   5.856   5.053  1.00  0.00     0.316 C 
HETATM    4  O1  UNL     1     -22.018   5.451   5.831  1.00  0.00    -0.247 OA
HETATM    5  N2  UNL     1     -20.170   4.930   4.531  1.00  0.00    -0.335 N 
ATOM      6  H2  UNL     1     -19.441   5.278   3.909  1.00  0.00     0.164 HD
ENDROOT
BRANCH   1   7
HETATM    7  C9  UNL     1     -21.993   8.156   5.261  1.00  0.00     0.130 C 
BRANCH   7   8
HETATM    8  C8  UNL     1     -21.888   9.559   4.838  1.00  0.00     0.016 C 
HETATM    9  C3  UNL     1     -21.639  10.592   5.907  1.00  0.00     0.017 C 
HETATM   10  C4  UNL     1     -22.811  11.510   5.657  1.00  0.00    -0.006 C 
HETATM   11  C5  UNL     1     -22.881  11.611   4.150  1.00  0.00     0.010 C 
HETATM   12  C7  UNL     1     -23.944  10.479   5.495  1.00  0.00     0.010 C 
HETATM   13  C6  UNL     1     -23.166  10.104   4.248  1.00  0.00    -0.007 C 
BRANCH   9  14
HETATM   14  C2  UNL     1     -21.635  10.117   7.284  1.00  0.00    -0.031 C 
HETATM   15  C1  UNL     1     -20.638  10.417   8.085  1.00  0.00     0.007 C 
ENDBRANCH   9  14
ENDBRANCH   7   8
ENDBRANCH   1   7
BRANCH   5  16
HETATM   16  C11 UNL     1     -20.195   3.523   4.832  1.00  0.00     0.223 C 
BRANCH  16  17
HETATM   17  C12 UNL     1     -20.661   2.686   3.719  1.00  0.00     0.248 C 
HETATM   18  N3  UNL     1     -20.436   1.273   3.767  1.00  0.00    -0.061 NA
HETATM   19  O2  UNL     1     -21.256   3.117   2.704  1.00  0.00    -0.275 OA
ENDBRANCH  16  17
ENDBRANCH   5  16
TORSDOF 5
ENDMDL
