MODEL 1
REMARK VINA RESULT: -7.320648105      0.000      0.000
REMARK  12 active torsions:
REMARK  status: ('A' for Active; 'I' for Inactive)
REMARK    1  A    between atoms: C2_2  and  C3_3 
REMARK    2  A    between atoms: C3_3  and  C4_4 
REMARK    3  A    between atoms: C4_4  and  C5_5 
REMARK    4  A    between atoms: C5_5  and  C6_6 
REMARK    5  A    between atoms: C8_8  and  O1_9 
REMARK    6  A    between atoms: C9_11  and  N1_12 
REMARK    7  A    between atoms: N1_12  and  C10_14 
REMARK    8  A    between atoms: C11_16  and  C12_17 
REMARK    9  A    between atoms: C12_17  and  C13_18 
REMARK   10  A    between atoms: C13_18  and  C14_19 
REMARK       I    between atoms: N2_20  and  C15_22 
REMARK   11  A    between atoms: N5_27  and  C16_28 
REMARK   12  A    between atoms: C16_28  and  C17_29 
ROOT
HETATM    1  C6  UNL     1      10.699  40.332  -0.965  1.00  0.00    -0.013 C 
HETATM    2  C7  UNL     1      11.943  39.549  -0.673  1.00  0.00     0.086 C 
HETATM    3  C8  UNL     1      13.214  40.292  -0.998  1.00  0.00     0.148 C 
HETATM    4  C9  UNL     1      13.178  40.784  -2.426  1.00  0.00     0.135 C 
HETATM    5  C11 UNL     1      11.944  41.636  -2.601  1.00  0.00     0.109 C 
HETATM    6  N5  UNL     1      10.740  41.012  -2.220  1.00  0.00    -0.380 N 
ENDROOT
BRANCH   5   7
HETATM    7  C12 UNL     1      12.114  42.973  -1.975  1.00  0.00     0.032 C 
BRANCH   7   8
HETATM    8  C13 UNL     1      12.621  44.052  -2.893  1.00  0.00     0.046 C 
BRANCH   8   9
HETATM    9  C14 UNL     1      11.674  44.504  -3.899  1.00  0.00     0.063 C 
HETATM   10  N2  UNL     1      12.046  44.632  -5.115  1.00  0.00    -0.344 N 
HETATM   11  C15 UNL     1      13.327  44.374  -5.618  1.00  0.00     0.185 C 
ATOM     12  H2  UNL     1      11.344  44.952  -5.782  1.00  0.00     0.167 HD
HETATM   13  N3  UNL     1      13.824  45.196  -6.494  1.00  0.00    -0.374 N 
HETATM   14  N4  UNL     1      14.145  43.266  -5.248  1.00  0.00    -0.064 NA
ATOM     15  H32 UNL     1      13.238  45.988  -6.758  1.00  0.00     0.158 HD
ATOM     16  H31 UNL     1      14.757  45.007  -6.861  1.00  0.00     0.158 HD
ENDBRANCH   8   9
ENDBRANCH   7   8
ENDBRANCH   5   7
BRANCH   4  17
HETATM   17  N1  UNL     1      13.280  39.725  -3.383  1.00  0.00    -0.359 N 
ATOM     18  H1  UNL     1      12.464  39.133  -3.544  1.00  0.00     0.162 HD
BRANCH  17  19
HETATM   19  C10 UNL     1      14.445  39.466  -4.105  1.00  0.00     0.349 C 
HETATM   20  O2  UNL     1      15.550  39.870  -3.667  1.00  0.00    -0.284 OA
ENDBRANCH  17  19
ENDBRANCH   4  17
BRANCH   6  21
HETATM   21  C16 UNL     1       9.533  41.678  -2.518  1.00  0.00     0.127 C 
BRANCH  21  22
HETATM   22  C17 UNL     1       8.379  40.778  -2.902  1.00  0.00     0.003 C 
HETATM   23  C18 UNL     1       7.074  41.263  -2.293  1.00  0.00     0.006 C 
HETATM   24  C19 UNL     1       6.222  41.740  -3.432  1.00  0.00     0.000 C 
HETATM   25  C20 UNL     1       6.747  41.085  -4.675  1.00  0.00     0.000 C 
HETATM   26  C21 UNL     1       8.204  40.883  -4.411  1.00  0.00     0.006 C 
ENDBRANCH  21  22
ENDBRANCH   6  21
BRANCH   3  27
HETATM   27  O1  UNL     1      14.277  39.423  -0.791  1.00  0.00    -0.393 OA
ATOM     28  H1  UNL     1      15.045  39.801  -1.205  1.00  0.00     0.210 HD
ENDBRANCH   3  27
BRANCH   1  29
HETATM   29  C5  UNL     1      10.160  41.097   0.194  1.00  0.00     0.052 C 
BRANCH  29  30
HETATM   30  C4  UNL     1       9.257  40.226   1.078  1.00  0.00     0.006 C 
BRANCH  30  31
HETATM   31  C3  UNL     1       7.913  40.897   1.269  1.00  0.00     0.000 C 
BRANCH  31  32
HETATM   32  C2  UNL     1       7.651  40.888   2.774  1.00  0.00    -0.005 C 
HETATM   33  C1  UNL     1       6.160  40.744   3.013  1.00  0.00     0.005 C 
ENDBRANCH  31  32
ENDBRANCH  30  31
ENDBRANCH  29  30
ENDBRANCH   1  29
TORSDOF 12
ENDMDL
MODEL 2
REMARK VINA RESULT: -7.086925410      3.210      7.112
REMARK  12 active torsions:
REMARK  status: ('A' for Active; 'I' for Inactive)
REMARK    1  A    between atoms: C2_2  and  C3_3 
REMARK    2  A    between atoms: C3_3  and  C4_4 
REMARK    3  A    between atoms: C4_4  and  C5_5 
REMARK    4  A    between atoms: C5_5  and  C6_6 
REMARK    5  A    between atoms: C8_8  and  O1_9 
REMARK    6  A    between atoms: C9_11  and  N1_12 
REMARK    7  A    between atoms: N1_12  and  C10_14 
REMARK    8  A    between atoms: C11_16  and  C12_17 
REMARK    9  A    between atoms: C12_17  and  C13_18 
REMARK   10  A    between atoms: C13_18  and  C14_19 
REMARK       I    between atoms: N2_20  and  C15_22 
REMARK   11  A    between atoms: N5_27  and  C16_28 
REMARK   12  A    between atoms: C16_28  and  C17_29 
ROOT
HETATM    1  C6  UNL     1      15.186  40.232  -2.224  1.00  0.00    -0.013 C 
HETATM    2  C7  UNL     1      14.492  39.664  -3.425  1.00  0.00     0.086 C 
HETATM    3  C8  UNL     1      13.245  40.418  -3.814  1.00  0.00     0.148 C 
HETATM    4  C9  UNL     1      12.317  40.533  -2.627  1.00  0.00     0.135 C 
HETATM    5  C11 UNL     1      13.071  41.197  -1.501  1.00  0.00     0.109 C 
HETATM    6  N5  UNL     1      14.291  40.579  -1.166  1.00  0.00    -0.380 N 
ENDROOT
BRANCH   5   7
HETATM    7  C12 UNL     1      13.218  42.658  -1.733  1.00  0.00     0.032 C 
BRANCH   7   8
HETATM    8  C13 UNL     1      12.023  43.334  -2.347  1.00  0.00     0.046 C 
BRANCH   8   9
HETATM    9  C14 UNL     1      12.300  44.598  -3.011  1.00  0.00     0.063 C 
HETATM   10  N2  UNL     1      11.452  45.087  -3.833  1.00  0.00    -0.344 N 
HETATM   11  C15 UNL     1      10.222  44.519  -4.187  1.00  0.00     0.185 C 
ATOM     12  H2  UNL     1      11.694  45.976  -4.273  1.00  0.00     0.167 HD
HETATM   13  N3  UNL     1       9.858  44.562  -5.433  1.00  0.00    -0.374 N 
HETATM   14  N4  UNL     1       9.319  43.889  -3.280  1.00  0.00    -0.064 NA
ATOM     15  H32 UNL     1      10.504  45.013  -6.082  1.00  0.00     0.158 HD
ATOM     16  H31 UNL     1       8.961  44.149  -5.690  1.00  0.00     0.158 HD
ENDBRANCH   8   9
ENDBRANCH   7   8
ENDBRANCH   5   7
BRANCH   4  17
HETATM   17  N1  UNL     1      11.725  39.284  -2.259  1.00  0.00    -0.359 N 
ATOM     18  H1  UNL     1      12.086  38.429  -2.685  1.00  0.00     0.162 HD
BRANCH  17  19
HETATM   19  C10 UNL     1      10.677  39.182  -1.344  1.00  0.00     0.349 C 
HETATM   20  O2  UNL     1       9.755  38.355  -1.546  1.00  0.00    -0.284 OA
ENDBRANCH  17  19
ENDBRANCH   4  17
BRANCH   6  21
HETATM   21  C16 UNL     1      14.963  41.036  -0.014  1.00  0.00     0.127 C 
BRANCH  21  22
HETATM   22  C17 UNL     1      14.484  40.437   1.291  1.00  0.00     0.003 C 
HETATM   23  C18 UNL     1      13.895  39.051   1.079  1.00  0.00     0.006 C 
HETATM   24  C19 UNL     1      14.833  38.083   1.738  1.00  0.00     0.000 C 
HETATM   25  C20 UNL     1      15.630  38.861   2.743  1.00  0.00     0.000 C 
HETATM   26  C21 UNL     1      15.707  40.243   2.178  1.00  0.00     0.006 C 
ENDBRANCH  21  22
ENDBRANCH   6  21
BRANCH   3  27
HETATM   27  O1  UNL     1      12.643  39.729  -4.859  1.00  0.00    -0.393 OA
ATOM     28  H1  UNL     1      11.868  39.300  -4.516  1.00  0.00     0.210 HD
ENDBRANCH   3  27
BRANCH   1  29
HETATM   29  C5  UNL     1      16.267  41.208  -2.534  1.00  0.00     0.052 C 
BRANCH  29  30
HETATM   30  C4  UNL     1      17.611  40.508  -2.774  1.00  0.00     0.006 C 
BRANCH  30  31
HETATM   31  C3  UNL     1      18.737  41.319  -2.168  1.00  0.00     0.000 C 
BRANCH  31  32
HETATM   32  C2  UNL     1      20.022  40.793  -2.805  1.00  0.00    -0.005 C 
HETATM   33  C1  UNL     1      20.975  41.954  -3.021  1.00  0.00     0.005 C 
ENDBRANCH  31  32
ENDBRANCH  30  31
ENDBRANCH  29  30
ENDBRANCH   1  29
TORSDOF 12
ENDMDL
MODEL 3
REMARK VINA RESULT: -6.908365552      2.219      5.198
REMARK  12 active torsions:
REMARK  status: ('A' for Active; 'I' for Inactive)
REMARK    1  A    between atoms: C2_2  and  C3_3 
REMARK    2  A    between atoms: C3_3  and  C4_4 
REMARK    3  A    between atoms: C4_4  and  C5_5 
REMARK    4  A    between atoms: C5_5  and  C6_6 
REMARK    5  A    between atoms: C8_8  and  O1_9 
REMARK    6  A    between atoms: C9_11  and  N1_12 
REMARK    7  A    between atoms: N1_12  and  C10_14 
REMARK    8  A    between atoms: C11_16  and  C12_17 
REMARK    9  A    between atoms: C12_17  and  C13_18 
REMARK   10  A    between atoms: C13_18  and  C14_19 
REMARK       I    between atoms: N2_20  and  C15_22 
REMARK   11  A    between atoms: N5_27  and  C16_28 
REMARK   12  A    between atoms: C16_28  and  C17_29 
ROOT
HETATM    1  C6  UNL     1      10.626  43.000  -3.162  1.00  0.00    -0.013 C 
HETATM    2  C7  UNL     1      11.238  44.122  -3.945  1.00  0.00     0.086 C 
HETATM    3  C8  UNL     1      12.518  43.742  -4.645  1.00  0.00     0.148 C 
HETATM    4  C9  UNL     1      13.493  43.145  -3.658  1.00  0.00     0.135 C 
HETATM    5  C11 UNL     1      12.825  41.970  -2.987  1.00  0.00     0.109 C 
HETATM    6  N5  UNL     1      11.579  42.259  -2.399  1.00  0.00    -0.380 N 
ENDROOT
BRANCH   5   7
HETATM    7  C12 UNL     1      12.768  40.790  -3.890  1.00  0.00     0.032 C 
BRANCH   7   8
HETATM    8  C13 UNL     1      13.696  39.661  -3.531  1.00  0.00     0.046 C 
BRANCH   8   9
HETATM    9  C14 UNL     1      14.880  39.544  -4.368  1.00  0.00     0.063 C 
HETATM   10  N2  UNL     1      16.025  39.871  -3.903  1.00  0.00    -0.344 N 
HETATM   11  C15 UNL     1      16.287  40.354  -2.615  1.00  0.00     0.185 C 
ATOM     12  H2  UNL     1      16.824  39.771  -4.530  1.00  0.00     0.167 HD
HETATM   13  N3  UNL     1      17.138  41.327  -2.482  1.00  0.00    -0.374 N 
HETATM   14  N4  UNL     1      15.692  39.859  -1.418  1.00  0.00    -0.064 NA
ATOM     15  H32 UNL     1      17.564  41.681  -3.339  1.00  0.00     0.158 HD
ATOM     16  H31 UNL     1      17.329  41.678  -1.543  1.00  0.00     0.158 HD
ENDBRANCH   8   9
ENDBRANCH   7   8
ENDBRANCH   5   7
BRANCH   4  17
HETATM   17  N1  UNL     1      14.012  44.108  -2.736  1.00  0.00    -0.359 N 
ATOM     18  H1  UNL     1      13.537  45.007  -2.650  1.00  0.00     0.162 HD
BRANCH  17  19
HETATM   19  C10 UNL     1      15.141  43.873  -1.949  1.00  0.00     0.349 C 
HETATM   20  O2  UNL     1      15.064  43.088  -0.973  1.00  0.00    -0.284 OA
ENDBRANCH  17  19
ENDBRANCH   4  17
BRANCH   6  21
HETATM   21  C16 UNL     1      10.980  41.257  -1.606  1.00  0.00     0.127 C 
BRANCH  21  22
HETATM   22  C17 UNL     1      11.262  41.357  -0.123  1.00  0.00     0.003 C 
HETATM   23  C18 UNL     1      10.014  41.074   0.698  1.00  0.00     0.006 C 
HETATM   24  C19 UNL     1      10.254  39.774   1.407  1.00  0.00     0.000 C 
HETATM   25  C20 UNL     1      11.739  39.567   1.450  1.00  0.00     0.000 C 
HETATM   26  C21 UNL     1      12.253  40.254   0.226  1.00  0.00     0.006 C 
ENDBRANCH  21  22
ENDBRANCH   6  21
BRANCH   3  27
HETATM   27  O1  UNL     1      13.035  44.889  -5.233  1.00  0.00    -0.393 OA
ATOM     28  H1  UNL     1      13.611  45.304  -4.601  1.00  0.00     0.210 HD
ENDBRANCH   3  27
BRANCH   1  29
HETATM   29  C5  UNL     1       9.602  42.211  -3.903  1.00  0.00     0.052 C 
BRANCH  29  30
HETATM   30  C4  UNL     1       8.190  42.771  -3.687  1.00  0.00     0.006 C 
BRANCH  30  31
HETATM   31  C3  UNL     1       7.352  41.782  -2.905  1.00  0.00     0.000 C 
BRANCH  31  32
HETATM   32  C2  UNL     1       5.906  42.031  -3.330  1.00  0.00    -0.005 C 
HETATM   33  C1  UNL     1       5.706  41.489  -4.733  1.00  0.00     0.005 C 
ENDBRANCH  31  32
ENDBRANCH  30  31
ENDBRANCH  29  30
ENDBRANCH   1  29
TORSDOF 12
ENDMDL
MODEL 4
REMARK VINA RESULT: -6.857758209      2.232      4.334
REMARK  12 active torsions:
REMARK  status: ('A' for Active; 'I' for Inactive)
REMARK    1  A    between atoms: C2_2  and  C3_3 
REMARK    2  A    between atoms: C3_3  and  C4_4 
REMARK    3  A    between atoms: C4_4  and  C5_5 
REMARK    4  A    between atoms: C5_5  and  C6_6 
REMARK    5  A    between atoms: C8_8  and  O1_9 
REMARK    6  A    between atoms: C9_11  and  N1_12 
REMARK    7  A    between atoms: N1_12  and  C10_14 
REMARK    8  A    between atoms: C11_16  and  C12_17 
REMARK    9  A    between atoms: C12_17  and  C13_18 
REMARK   10  A    between atoms: C13_18  and  C14_19 
REMARK       I    between atoms: N2_20  and  C15_22 
REMARK   11  A    between atoms: N5_27  and  C16_28 
REMARK   12  A    between atoms: C16_28  and  C17_29 
ROOT
HETATM    1  C6  UNL     1      14.535  40.723  -0.629  1.00  0.00    -0.013 C 
HETATM    2  C7  UNL     1      15.657  40.251  -1.503  1.00  0.00     0.086 C 
HETATM    3  C8  UNL     1      15.856  41.093  -2.738  1.00  0.00     0.148 C 
HETATM    4  C9  UNL     1      14.557  41.210  -3.500  1.00  0.00     0.135 C 
HETATM    5  C11 UNL     1      13.513  41.778  -2.571  1.00  0.00     0.109 C 
HETATM    6  N5  UNL     1      13.359  41.075  -1.360  1.00  0.00    -0.380 N 
ENDROOT
BRANCH   5   7
HETATM    7  C12 UNL     1      13.708  43.237  -2.360  1.00  0.00     0.032 C 
BRANCH   7   8
HETATM    8  C13 UNL     1      12.620  44.116  -2.912  1.00  0.00     0.046 C 
BRANCH   8   9
HETATM    9  C14 UNL     1      12.642  44.295  -4.355  1.00  0.00     0.063 C 
HETATM   10  N2  UNL     1      11.547  44.289  -5.016  1.00  0.00    -0.344 N 
HETATM   11  C15 UNL     1      10.262  44.121  -4.485  1.00  0.00     0.185 C 
ATOM     12  H2  UNL     1      11.616  44.418  -6.026  1.00  0.00     0.167 HD
HETATM   13  N3  UNL     1       9.420  43.372  -5.132  1.00  0.00    -0.374 N 
HETATM   14  N4  UNL     1       9.792  44.712  -3.276  1.00  0.00    -0.064 NA
ATOM     15  H32 UNL     1       9.757  42.949  -5.997  1.00  0.00     0.158 HD
ATOM     16  H31 UNL     1       8.484  43.250  -4.745  1.00  0.00     0.158 HD
ENDBRANCH   8   9
ENDBRANCH   7   8
ENDBRANCH   5   7
BRANCH   4  17
HETATM   17  N1  UNL     1      14.162  39.983  -4.120  1.00  0.00    -0.359 N 
ATOM     18  H1  UNL     1      14.836  39.497  -4.712  1.00  0.00     0.162 HD
BRANCH  17  19
HETATM   19  C10 UNL     1      12.896  39.421  -3.951  1.00  0.00     0.349 C 
HETATM   20  O2  UNL     1      12.718  38.547  -3.068  1.00  0.00    -0.284 OA
ENDBRANCH  17  19
ENDBRANCH   4  17
BRANCH   6  21
HETATM   21  C16 UNL     1      12.286  41.440  -0.521  1.00  0.00     0.127 C 
BRANCH  21  22
HETATM   22  C17 UNL     1      11.147  40.447  -0.465  1.00  0.00     0.003 C 
HETATM   23  C18 UNL     1      10.625  40.283   0.954  1.00  0.00     0.006 C 
HETATM   24  C19 UNL     1       9.244  40.871   0.971  1.00  0.00     0.000 C 
HETATM   25  C20 UNL     1       8.757  40.885  -0.447  1.00  0.00     0.000 C 
HETATM   26  C21 UNL     1       9.995  41.030  -1.272  1.00  0.00     0.006 C 
ENDBRANCH  21  22
ENDBRANCH   6  21
BRANCH   3  27
HETATM   27  O1  UNL     1      16.840  40.488  -3.508  1.00  0.00    -0.393 OA
ATOM     28  H1  UNL     1      17.683  40.729  -3.143  1.00  0.00     0.210 HD
ENDBRANCH   3  27
BRANCH   1  29
HETATM   29  C5  UNL     1      14.944  41.647   0.466  1.00  0.00     0.052 C 
BRANCH  29  30
HETATM   30  C4  UNL     1      15.347  40.880   1.733  1.00  0.00     0.006 C 
BRANCH  30  31
HETATM   31  C3  UNL     1      14.410  39.711   1.953  1.00  0.00     0.000 C 
BRANCH  31  32
HETATM   32  C2  UNL     1      15.268  38.592   2.539  1.00  0.00    -0.005 C 
HETATM   33  C1  UNL     1      15.264  37.415   1.581  1.00  0.00     0.005 C 
ENDBRANCH  31  32
ENDBRANCH  30  31
ENDBRANCH  29  30
ENDBRANCH   1  29
TORSDOF 12
ENDMDL
MODEL 5
REMARK VINA RESULT: -6.856548259      2.859      4.013
REMARK  12 active torsions:
REMARK  status: ('A' for Active; 'I' for Inactive)
REMARK    1  A    between atoms: C2_2  and  C3_3 
REMARK    2  A    between atoms: C3_3  and  C4_4 
REMARK    3  A    between atoms: C4_4  and  C5_5 
REMARK    4  A    between atoms: C5_5  and  C6_6 
REMARK    5  A    between atoms: C8_8  and  O1_9 
REMARK    6  A    between atoms: C9_11  and  N1_12 
REMARK    7  A    between atoms: N1_12  and  C10_14 
REMARK    8  A    between atoms: C11_16  and  C12_17 
REMARK    9  A    between atoms: C12_17  and  C13_18 
REMARK   10  A    between atoms: C13_18  and  C14_19 
REMARK       I    between atoms: N2_20  and  C15_22 
REMARK   11  A    between atoms: N5_27  and  C16_28 
REMARK   12  A    between atoms: C16_28  and  C17_29 
ROOT
HETATM    1  C6  UNL     1       7.776  39.572   0.805  1.00  0.00    -0.013 C 
HETATM    2  C7  UNL     1       8.510  38.325   1.195  1.00  0.00     0.086 C 
HETATM    3  C8  UNL     1       9.738  38.062   0.362  1.00  0.00     0.148 C 
HETATM    4  C9  UNL     1       9.382  38.071  -1.106  1.00  0.00     0.135 C 
HETATM    5  C11 UNL     1       8.734  39.395  -1.427  1.00  0.00     0.109 C 
HETATM    6  N5  UNL     1       7.637  39.726  -0.608  1.00  0.00    -0.380 N 
ENDROOT
BRANCH   5   7
HETATM    7  C12 UNL     1       9.739  40.488  -1.499  1.00  0.00     0.032 C 
BRANCH   7   8
HETATM    8  C13 UNL     1       9.766  41.251  -2.795  1.00  0.00     0.046 C 
BRANCH   8   9
HETATM    9  C14 UNL     1      10.988  41.996  -3.050  1.00  0.00     0.063 C 
HETATM   10  N2  UNL     1      10.937  43.121  -3.655  1.00  0.00    -0.344 N 
HETATM   11  C15 UNL     1       9.780  43.754  -4.124  1.00  0.00     0.185 C 
ATOM     12  H2  UNL     1      11.823  43.604  -3.809  1.00  0.00     0.167 HD
HETATM   13  N3  UNL     1       9.822  44.336  -5.285  1.00  0.00    -0.374 N 
HETATM   14  N4  UNL     1       8.539  43.818  -3.425  1.00  0.00    -0.064 NA
ATOM     15  H32 UNL     1      10.710  44.291  -5.786  1.00  0.00     0.158 HD
ATOM     16  H31 UNL     1       8.979  44.798  -5.627  1.00  0.00     0.158 HD
ENDBRANCH   8   9
ENDBRANCH   7   8
ENDBRANCH   5   7
BRANCH   4  17
HETATM   17  N1  UNL     1       8.594  36.941  -1.495  1.00  0.00    -0.359 N 
ATOM     18  H1  UNL     1       7.590  36.962  -1.314  1.00  0.00     0.162 HD
BRANCH  17  19
HETATM   19  C10 UNL     1       9.138  35.813  -2.110  1.00  0.00     0.349 C 
HETATM   20  O2  UNL     1      10.384  35.683  -2.178  1.00  0.00    -0.284 OA
ENDBRANCH  17  19
ENDBRANCH   4  17
BRANCH   6  21
HETATM   21  C16 UNL     1       6.875  40.860  -0.959  1.00  0.00     0.127 C 
BRANCH  21  22
HETATM   22  C17 UNL     1       5.520  40.564  -1.564  1.00  0.00     0.003 C 
HETATM   23  C18 UNL     1       4.415  41.313  -0.838  1.00  0.00     0.006 C 
HETATM   24  C19 UNL     1       3.889  42.337  -1.801  1.00  0.00     0.000 C 
HETATM   25  C20 UNL     1       4.264  41.875  -3.178  1.00  0.00     0.000 C 
HETATM   26  C21 UNL     1       5.530  41.104  -2.988  1.00  0.00     0.006 C 
ENDBRANCH  21  22
ENDBRANCH   6  21
BRANCH   3  27
HETATM   27  O1  UNL     1      10.256  36.832   0.747  1.00  0.00    -0.393 OA
ATOM     28  H1  UNL     1      10.838  36.534   0.058  1.00  0.00     0.210 HD
ENDBRANCH   3  27
BRANCH   1  29
HETATM   29  C5  UNL     1       8.159  40.787   1.576  1.00  0.00     0.052 C 
BRANCH  29  30
HETATM   30  C4  UNL     1       7.375  40.895   2.890  1.00  0.00     0.006 C 
BRANCH  30  31
HETATM   31  C3  UNL     1       5.888  40.801   2.618  1.00  0.00     0.000 C 
BRANCH  31  32
HETATM   32  C2  UNL     1       5.237  40.472   3.960  1.00  0.00    -0.005 C 
HETATM   33  C1  UNL     1       4.383  39.227   3.800  1.00  0.00     0.005 C 
ENDBRANCH  31  32
ENDBRANCH  30  31
ENDBRANCH  29  30
ENDBRANCH   1  29
TORSDOF 12
ENDMDL
