MODEL 1
REMARK VINA RESULT: -8.661528493      0.000      0.000
REMARK  11 active torsions:
REMARK  status: ('A' for Active; 'I' for Inactive)
REMARK    1  A    between atoms: N1_1  and  C1_4 
REMARK    2  A    between atoms: C3_8  and  C4_9 
REMARK    3  A    between atoms: N3_12  and  C7_13 
REMARK    4  A    between atoms: C7_13  and  C8_14 
REMARK    5  A    between atoms: C8_14  and  C9_15 
REMARK    6  A    between atoms: C12_18  and  N4_19 
REMARK       I    between atoms: N4_19  and  C13_21 
REMARK    7  A    between atoms: C13_21  and  C14_23 
REMARK    8  A    between atoms: C14_23  and  C15_24 
REMARK    9  A    between atoms: C15_24  and  C16_25 
REMARK   10  A    between atoms: C16_25  and  N5_26 
REMARK   11  A    between atoms: C24_37  and  C25_38 
ROOT
HETATM    1  C4  UNL     1      27.930   5.561  10.153  1.00  0.00     0.122 C 
HETATM    2  C5  UNL     1      28.251   6.497  11.329  1.00  0.00     0.036 C 
HETATM    3  C6  UNL     1      29.744   6.741  11.265  1.00  0.00     0.122 C 
HETATM    4  N3  UNL     1      30.181   7.261  10.007  1.00  0.00    -0.188 NA
HETATM    5  O3  UNL     1      29.193   7.343   9.053  1.00  0.00    -0.224 OA
HETATM    6  C22 UNL     1      28.290   6.314   8.938  1.00  0.00     0.284 C 
HETATM    7  O4  UNL     1      27.787   6.024   7.837  1.00  0.00    -0.263 OA
ENDROOT
BRANCH   4   8
HETATM    8  C7  UNL     1      30.836   8.528  10.198  1.00  0.00     0.121 C 
BRANCH   8   9
HETATM    9  C8  UNL     1      30.098   9.633   9.430  1.00  0.00     0.021 C 
BRANCH   9  10
HETATM   10  C9  UNL     1      29.457  10.563  10.414  1.00  0.00    -0.011 C 
HETATM   11  C10 UNL     1      29.954  10.215  11.810  1.00  0.00     0.007 C 
HETATM   12  C11 UNL     1      28.897  10.795  12.749  1.00  0.00     0.025 C 
HETATM   13  C12 UNL     1      27.615  10.686  11.954  1.00  0.00     0.084 C 
HETATM   14  C21 UNL     1      27.971  10.217  10.580  1.00  0.00     0.029 C 
BRANCH  13  15
HETATM   15  N4  UNL     1      26.642   9.843  12.629  1.00  0.00    -0.356 N 
HETATM   16  C13 UNL     1      25.277  10.184  12.734  1.00  0.00     0.217 C 
HETATM   17  O1  UNL     1      24.871  11.249  12.231  1.00  0.00    -0.274 OA
ATOM     18  H4  UNL     1      26.959   8.968  13.043  1.00  0.00     0.162 HD
BRANCH  16  19
HETATM   19  C14 UNL     1      24.341   9.291  13.430  1.00  0.00     0.104 C 
BRANCH  19  20
HETATM   20  C15 UNL     1      25.029   7.975  13.696  1.00  0.00     0.039 C 
BRANCH  20  21
HETATM   21  C16 UNL     1      25.027   7.680  15.159  1.00  0.00     0.273 C 
BRANCH  21  22
HETATM   22  N5  UNL     1      24.467   6.400  15.464  1.00  0.00     0.092 N 
HETATM   23  C17 UNL     1      25.010   5.431  14.554  1.00  0.00     0.298 C 
HETATM   24  C18 UNL     1      23.945   4.480  14.051  1.00  0.00     0.198 C 
HETATM   25  O2  UNL     1      23.297   3.965  15.169  1.00  0.00    -0.388 OA
HETATM   26  C19 UNL     1      22.619   4.937  15.861  1.00  0.00     0.198 C 
HETATM   27  C20 UNL     1      23.040   6.350  15.516  1.00  0.00     0.298 C 
ENDBRANCH  21  22
ENDBRANCH  20  21
ENDBRANCH  19  20
ENDBRANCH  16  19
ENDBRANCH  13  15
ENDBRANCH   9  10
ENDBRANCH   8   9
ENDBRANCH   4   8
BRANCH   1  28
HETATM   28  C3  UNL     1      26.539   5.122  10.172  1.00  0.00    -0.028 A 
HETATM   29  C2  UNL     1      25.548   5.928  10.667  1.00  0.00     0.097 A 
HETATM   30  N2  UNL     1      24.261   5.471  10.663  1.00  0.00    -0.351 N 
HETATM   31  C1  UNL     1      23.900   4.278  10.203  1.00  0.00     0.113 A 
ATOM     32  H2  UNL     1      23.534   6.081  11.035  1.00  0.00     0.166 HD
HETATM   33  C24 UNL     1      24.874   3.439   9.696  1.00  0.00     0.091 A 
HETATM   34  C23 UNL     1      26.205   3.884   9.688  1.00  0.00     0.029 A 
BRANCH  31  35
HETATM   35  N1  UNL     1      22.657   3.866  10.212  1.00  0.00    -0.385 N 
ATOM     36  H12 UNL     1      22.043   4.177  10.965  1.00  0.00     0.157 HD
ATOM     37  H11 UNL     1      22.279   3.247   9.495  1.00  0.00     0.157 HD
ENDBRANCH  31  35
BRANCH  33  38
HETATM   38  C25 UNL     1      24.474   2.113   9.186  1.00  0.00     0.421 C 
HETATM   39  F1  UNL     1      23.353   1.645   9.829  1.00  0.00    -0.166 F 
HETATM   40  F2  UNL     1      24.281   2.213   7.813  1.00  0.00    -0.166 F 
HETATM   41  F3  UNL     1      25.554   1.242   9.358  1.00  0.00    -0.166 F 
ENDBRANCH  33  38
ENDBRANCH   1  28
TORSDOF 11
ENDMDL
MODEL 2
REMARK VINA RESULT: -8.550237075      0.575      1.151
REMARK  11 active torsions:
REMARK  status: ('A' for Active; 'I' for Inactive)
REMARK    1  A    between atoms: N1_1  and  C1_4 
REMARK    2  A    between atoms: C3_8  and  C4_9 
REMARK    3  A    between atoms: N3_12  and  C7_13 
REMARK    4  A    between atoms: C7_13  and  C8_14 
REMARK    5  A    between atoms: C8_14  and  C9_15 
REMARK    6  A    between atoms: C12_18  and  N4_19 
REMARK       I    between atoms: N4_19  and  C13_21 
REMARK    7  A    between atoms: C13_21  and  C14_23 
REMARK    8  A    between atoms: C14_23  and  C15_24 
REMARK    9  A    between atoms: C15_24  and  C16_25 
REMARK   10  A    between atoms: C16_25  and  N5_26 
REMARK   11  A    between atoms: C24_37  and  C25_38 
ROOT
HETATM    1  C4  UNL     1      27.885   5.472  10.276  1.00  0.00     0.122 C 
HETATM    2  C5  UNL     1      28.236   6.462  11.398  1.00  0.00     0.036 C 
HETATM    3  C6  UNL     1      29.713   6.755  11.243  1.00  0.00     0.122 C 
HETATM    4  N3  UNL     1      30.060   7.242   9.944  1.00  0.00    -0.188 NA
HETATM    5  O3  UNL     1      29.019   7.255   9.045  1.00  0.00    -0.224 OA
HETATM    6  C22 UNL     1      28.150   6.190   9.017  1.00  0.00     0.284 C 
HETATM    7  O4  UNL     1      27.599   5.842   7.957  1.00  0.00    -0.263 OA
ENDROOT
BRANCH   4   8
HETATM    8  C7  UNL     1      30.678   8.538  10.053  1.00  0.00     0.121 C 
BRANCH   8   9
HETATM    9  C8  UNL     1      29.883   9.578   9.253  1.00  0.00     0.021 C 
BRANCH   9  10
HETATM   10  C9  UNL     1      29.200  10.508  10.209  1.00  0.00    -0.011 C 
HETATM   11  C10 UNL     1      29.733  10.246  11.610  1.00  0.00     0.007 C 
HETATM   12  C11 UNL     1      28.656  10.800  12.541  1.00  0.00     0.025 C 
HETATM   13  C12 UNL     1      27.372  10.584  11.770  1.00  0.00     0.084 C 
HETATM   14  C21 UNL     1      27.739  10.082  10.409  1.00  0.00     0.029 C 
BRANCH  13  15
HETATM   15  N4  UNL     1      26.460   9.713  12.491  1.00  0.00    -0.356 N 
HETATM   16  C13 UNL     1      25.151  10.101  12.845  1.00  0.00     0.217 C 
HETATM   17  O1  UNL     1      24.743  11.237  12.531  1.00  0.00    -0.274 OA
ATOM     18  H4  UNL     1      26.779   8.781  12.752  1.00  0.00     0.162 HD
BRANCH  16  19
HETATM   19  C14 UNL     1      24.274   9.177  13.576  1.00  0.00     0.104 C 
BRANCH  19  20
HETATM   20  C15 UNL     1      24.579   9.279  15.049  1.00  0.00     0.039 C 
BRANCH  20  21
HETATM   21  C16 UNL     1      24.104   8.055  15.759  1.00  0.00     0.273 C 
BRANCH  21  22
HETATM   22  N5  UNL     1      24.307   6.861  15.000  1.00  0.00     0.092 N 
HETATM   23  C17 UNL     1      23.118   6.060  15.075  1.00  0.00     0.298 C 
HETATM   24  C18 UNL     1      23.444   4.595  15.279  1.00  0.00     0.198 C 
HETATM   25  O2  UNL     1      24.354   4.239  14.289  1.00  0.00    -0.388 OA
HETATM   26  C19 UNL     1      25.548   4.900  14.427  1.00  0.00     0.198 C 
HETATM   27  C20 UNL     1      25.481   6.116  15.328  1.00  0.00     0.298 C 
ENDBRANCH  21  22
ENDBRANCH  20  21
ENDBRANCH  19  20
ENDBRANCH  16  19
ENDBRANCH  13  15
ENDBRANCH   9  10
ENDBRANCH   8   9
ENDBRANCH   4   8
BRANCH   1  28
HETATM   28  C3  UNL     1      26.515   4.986  10.389  1.00  0.00    -0.028 A 
HETATM   29  C2  UNL     1      25.567   5.690  11.083  1.00  0.00     0.097 A 
HETATM   30  N2  UNL     1      24.298   5.192  11.159  1.00  0.00    -0.351 N 
HETATM   31  C1  UNL     1      23.914   4.052  10.596  1.00  0.00     0.113 A 
ATOM     32  H2  UNL     1      23.604   5.727  11.680  1.00  0.00     0.166 HD
HETATM   33  C24 UNL     1      24.844   3.316   9.887  1.00  0.00     0.091 A 
HETATM   34  C23 UNL     1      26.156   3.804   9.793  1.00  0.00     0.029 A 
BRANCH  31  35
HETATM   35  N1  UNL     1      22.689   3.599  10.686  1.00  0.00    -0.385 N 
ATOM     36  H12 UNL     1      22.035   4.075  11.308  1.00  0.00     0.157 HD
ATOM     37  H11 UNL     1      22.363   2.789  10.160  1.00  0.00     0.157 HD
ENDBRANCH  31  35
BRANCH  33  38
HETATM   38  C25 UNL     1      24.419   2.048   9.262  1.00  0.00     0.421 C 
HETATM   39  F1  UNL     1      24.302   2.176   7.898  1.00  0.00    -0.166 F 
HETATM   40  F2  UNL     1      25.331   1.059   9.614  1.00  0.00    -0.166 F 
HETATM   41  F3  UNL     1      23.203   1.670   9.838  1.00  0.00    -0.166 F 
ENDBRANCH  33  38
ENDBRANCH   1  28
TORSDOF 11
ENDMDL
MODEL 3
REMARK VINA RESULT: -8.488674098      0.701      1.003
REMARK  11 active torsions:
REMARK  status: ('A' for Active; 'I' for Inactive)
REMARK    1  A    between atoms: N1_1  and  C1_4 
REMARK    2  A    between atoms: C3_8  and  C4_9 
REMARK    3  A    between atoms: N3_12  and  C7_13 
REMARK    4  A    between atoms: C7_13  and  C8_14 
REMARK    5  A    between atoms: C8_14  and  C9_15 
REMARK    6  A    between atoms: C12_18  and  N4_19 
REMARK       I    between atoms: N4_19  and  C13_21 
REMARK    7  A    between atoms: C13_21  and  C14_23 
REMARK    8  A    between atoms: C14_23  and  C15_24 
REMARK    9  A    between atoms: C15_24  and  C16_25 
REMARK   10  A    between atoms: C16_25  and  N5_26 
REMARK   11  A    between atoms: C24_37  and  C25_38 
ROOT
HETATM    1  C4  UNL     1      28.050   5.611   9.766  1.00  0.00     0.122 C 
HETATM    2  C5  UNL     1      28.650   5.957  11.137  1.00  0.00     0.036 C 
HETATM    3  C6  UNL     1      30.123   6.205  10.892  1.00  0.00     0.122 C 
HETATM    4  N3  UNL     1      30.372   7.211   9.907  1.00  0.00    -0.188 NA
HETATM    5  O3  UNL     1      29.242   7.691   9.288  1.00  0.00    -0.224 OA
HETATM    6  C22 UNL     1      28.251   6.809   8.931  1.00  0.00     0.284 C 
HETATM    7  O4  UNL     1      27.540   7.015   7.931  1.00  0.00    -0.263 OA
ENDROOT
BRANCH   4   8
HETATM    8  C7  UNL     1      31.154   8.276  10.478  1.00  0.00     0.121 C 
BRANCH   8   9
HETATM    9  C8  UNL     1      30.544   9.637  10.120  1.00  0.00     0.021 C 
BRANCH   9  10
HETATM   10  C9  UNL     1      29.868  10.201  11.333  1.00  0.00    -0.011 C 
HETATM   11  C10 UNL     1      30.108   9.262  12.506  1.00  0.00     0.007 C 
HETATM   12  C11 UNL     1      28.993   9.592  13.497  1.00  0.00     0.025 C 
HETATM   13  C12 UNL     1      27.840  10.010  12.610  1.00  0.00     0.084 C 
HETATM   14  C21 UNL     1      28.345  10.063  11.203  1.00  0.00     0.029 C 
BRANCH  13  15
HETATM   15  N4  UNL     1      26.690   9.140  12.789  1.00  0.00    -0.356 N 
HETATM   16  C13 UNL     1      25.422   9.619  13.179  1.00  0.00     0.217 C 
HETATM   17  O1  UNL     1      25.264  10.838  13.382  1.00  0.00    -0.274 OA
ATOM     18  H4  UNL     1      26.805   8.141  12.625  1.00  0.00     0.162 HD
BRANCH  16  19
HETATM   19  C14 UNL     1      24.297   8.689  13.345  1.00  0.00     0.104 C 
BRANCH  19  20
HETATM   20  C15 UNL     1      24.101   8.420  14.817  1.00  0.00     0.039 C 
BRANCH  20  21
HETATM   21  C16 UNL     1      25.054   7.368  15.278  1.00  0.00     0.273 C 
BRANCH  21  22
HETATM   22  N5  UNL     1      24.417   6.111  15.520  1.00  0.00     0.092 N 
HETATM   23  C17 UNL     1      24.839   5.180  14.512  1.00  0.00     0.298 C 
HETATM   24  C18 UNL     1      23.682   4.347  14.001  1.00  0.00     0.198 C 
HETATM   25  O2  UNL     1      23.056   3.795  15.113  1.00  0.00    -0.388 OA
HETATM   26  C19 UNL     1      22.488   4.755  15.912  1.00  0.00     0.198 C 
HETATM   27  C20 UNL     1      22.995   6.158  15.648  1.00  0.00     0.298 C 
ENDBRANCH  21  22
ENDBRANCH  20  21
ENDBRANCH  19  20
ENDBRANCH  16  19
ENDBRANCH  13  15
ENDBRANCH   9  10
ENDBRANCH   8   9
ENDBRANCH   4   8
BRANCH   1  28
HETATM   28  C3  UNL     1      26.653   5.205   9.870  1.00  0.00    -0.028 A 
HETATM   29  C2  UNL     1      25.769   5.899  10.653  1.00  0.00     0.097 A 
HETATM   30  N2  UNL     1      24.471   5.479  10.718  1.00  0.00    -0.351 N 
HETATM   31  C1  UNL     1      24.000   4.426  10.061  1.00  0.00     0.113 A 
ATOM     32  H2  UNL     1      23.826   6.006  11.305  1.00  0.00     0.166 HD
HETATM   33  C24 UNL     1      24.863   3.702   9.260  1.00  0.00     0.091 A 
HETATM   34  C23 UNL     1      26.202   4.111   9.176  1.00  0.00     0.029 A 
BRANCH  31  35
HETATM   35  N1  UNL     1      22.750   4.046  10.142  1.00  0.00    -0.385 N 
ATOM     36  H12 UNL     1      22.049   4.543   9.591  1.00  0.00     0.157 HD
ATOM     37  H11 UNL     1      22.449   3.273  10.735  1.00  0.00     0.157 HD
ENDBRANCH  31  35
BRANCH  33  38
HETATM   38  C25 UNL     1      24.341   2.530   8.530  1.00  0.00     0.421 C 
HETATM   39  F1  UNL     1      24.481   2.682   7.171  1.00  0.00    -0.166 F 
HETATM   40  F2  UNL     1      24.998   1.397   8.996  1.00  0.00    -0.166 F 
HETATM   41  F3  UNL     1      22.998   2.367   8.883  1.00  0.00    -0.166 F 
ENDBRANCH  33  38
ENDBRANCH   1  28
TORSDOF 11
ENDMDL
MODEL 4
REMARK VINA RESULT: -8.453966059      1.263      1.645
REMARK  11 active torsions:
REMARK  status: ('A' for Active; 'I' for Inactive)
REMARK    1  A    between atoms: N1_1  and  C1_4 
REMARK    2  A    between atoms: C3_8  and  C4_9 
REMARK    3  A    between atoms: N3_12  and  C7_13 
REMARK    4  A    between atoms: C7_13  and  C8_14 
REMARK    5  A    between atoms: C8_14  and  C9_15 
REMARK    6  A    between atoms: C12_18  and  N4_19 
REMARK       I    between atoms: N4_19  and  C13_21 
REMARK    7  A    between atoms: C13_21  and  C14_23 
REMARK    8  A    between atoms: C14_23  and  C15_24 
REMARK    9  A    between atoms: C15_24  and  C16_25 
REMARK   10  A    between atoms: C16_25  and  N5_26 
REMARK   11  A    between atoms: C24_37  and  C25_38 
ROOT
HETATM    1  C4  UNL     1      28.096   5.666   9.710  1.00  0.00     0.122 C 
HETATM    2  C5  UNL     1      28.777   5.827  11.078  1.00  0.00     0.036 C 
HETATM    3  C6  UNL     1      30.234   6.113  10.783  1.00  0.00     0.122 C 
HETATM    4  N3  UNL     1      30.428   7.244   9.929  1.00  0.00    -0.188 NA
HETATM    5  O3  UNL     1      29.265   7.798   9.448  1.00  0.00    -0.224 OA
HETATM    6  C22 UNL     1      28.252   6.966   9.034  1.00  0.00     0.284 C 
HETATM    7  O4  UNL     1      27.484   7.302   8.115  1.00  0.00    -0.263 OA
ENDROOT
BRANCH   4   8
HETATM    8  C7  UNL     1      31.245   8.226  10.592  1.00  0.00     0.121 C 
BRANCH   8   9
HETATM    9  C8  UNL     1      31.253   7.982  12.106  1.00  0.00     0.021 C 
BRANCH   9  10
HETATM   10  C9  UNL     1      30.629   9.159  12.792  1.00  0.00    -0.011 C 
HETATM   11  C10 UNL     1      30.610   8.896  14.291  1.00  0.00     0.007 C 
HETATM   12  C11 UNL     1      29.522   9.825  14.830  1.00  0.00     0.025 C 
HETATM   13  C12 UNL     1      28.529   9.909  13.692  1.00  0.00     0.084 C 
HETATM   14  C21 UNL     1      29.118   9.190  12.520  1.00  0.00     0.029 C 
BRANCH  13  15
HETATM   15  N4  UNL     1      27.223   9.412  14.089  1.00  0.00    -0.356 N 
HETATM   16  C13 UNL     1      26.024  10.096  13.801  1.00  0.00     0.217 C 
HETATM   17  O1  UNL     1      26.069  11.175  13.177  1.00  0.00    -0.274 OA
ATOM     18  H4  UNL     1      27.171   8.531  14.599  1.00  0.00     0.162 HD
BRANCH  16  19
HETATM   19  C14 UNL     1      24.732   9.544  14.231  1.00  0.00     0.104 C 
BRANCH  19  20
HETATM   20  C15 UNL     1      24.848   9.097  15.667  1.00  0.00     0.039 C 
BRANCH  20  21
HETATM   21  C16 UNL     1      24.110   7.815  15.867  1.00  0.00     0.273 C 
BRANCH  21  22
HETATM   22  N5  UNL     1      24.488   6.807  14.926  1.00  0.00     0.092 N 
HETATM   23  C17 UNL     1      23.391   5.895  14.762  1.00  0.00     0.298 C 
HETATM   24  C18 UNL     1      23.861   4.456  14.727  1.00  0.00     0.198 C 
HETATM   25  O2  UNL     1      24.862   4.378  13.766  1.00  0.00    -0.388 OA
HETATM   26  C19 UNL     1      25.967   5.113  14.115  1.00  0.00     0.198 C 
HETATM   27  C20 UNL     1      25.713   6.129  15.209  1.00  0.00     0.298 C 
ENDBRANCH  21  22
ENDBRANCH  20  21
ENDBRANCH  19  20
ENDBRANCH  16  19
ENDBRANCH  13  15
ENDBRANCH   9  10
ENDBRANCH   8   9
ENDBRANCH   4   8
BRANCH   1  28
HETATM   28  C3  UNL     1      26.707   5.243   9.840  1.00  0.00    -0.028 A 
HETATM   29  C2  UNL     1      25.841   5.898  10.676  1.00  0.00     0.097 A 
HETATM   30  N2  UNL     1      24.550   5.463  10.763  1.00  0.00    -0.351 N 
HETATM   31  C1  UNL     1      24.068   4.431  10.081  1.00  0.00     0.113 A 
ATOM     32  H2  UNL     1      23.918   5.961  11.389  1.00  0.00     0.166 HD
HETATM   33  C24 UNL     1      24.913   3.747   9.228  1.00  0.00     0.091 A 
HETATM   34  C23 UNL     1      26.245   4.172   9.119  1.00  0.00     0.029 A 
BRANCH  31  35
HETATM   35  N1  UNL     1      22.824   4.036  10.185  1.00  0.00    -0.385 N 
ATOM     36  H12 UNL     1      22.543   3.515  11.015  1.00  0.00     0.157 HD
ATOM     37  H11 UNL     1      22.125   4.231   9.469  1.00  0.00     0.157 HD
ENDBRANCH  31  35
BRANCH  33  38
HETATM   38  C25 UNL     1      24.379   2.599   8.469  1.00  0.00     0.421 C 
HETATM   39  F1  UNL     1      23.005   2.578   8.491  1.00  0.00    -0.166 F 
HETATM   40  F2  UNL     1      24.876   2.661   7.173  1.00  0.00    -0.166 F 
HETATM   41  F3  UNL     1      24.909   1.431   9.026  1.00  0.00    -0.166 F 
ENDBRANCH  33  38
ENDBRANCH   1  28
TORSDOF 11
ENDMDL
MODEL 5
REMARK VINA RESULT: -8.426697038      0.915      1.037
REMARK  11 active torsions:
REMARK  status: ('A' for Active; 'I' for Inactive)
REMARK    1  A    between atoms: N1_1  and  C1_4 
REMARK    2  A    between atoms: C3_8  and  C4_9 
REMARK    3  A    between atoms: N3_12  and  C7_13 
REMARK    4  A    between atoms: C7_13  and  C8_14 
REMARK    5  A    between atoms: C8_14  and  C9_15 
REMARK    6  A    between atoms: C12_18  and  N4_19 
REMARK       I    between atoms: N4_19  and  C13_21 
REMARK    7  A    between atoms: C13_21  and  C14_23 
REMARK    8  A    between atoms: C14_23  and  C15_24 
REMARK    9  A    between atoms: C15_24  and  C16_25 
REMARK   10  A    between atoms: C16_25  and  N5_26 
REMARK   11  A    between atoms: C24_37  and  C25_38 
ROOT
HETATM    1  C4  UNL     1      27.847   5.560  10.391  1.00  0.00     0.122 C 
HETATM    2  C5  UNL     1      28.140   6.606  11.478  1.00  0.00     0.036 C 
HETATM    3  C6  UNL     1      29.611   6.942  11.341  1.00  0.00     0.122 C 
HETATM    4  N3  UNL     1      29.971   7.386  10.030  1.00  0.00    -0.188 NA
HETATM    5  O3  UNL     1      28.950   7.326   9.110  1.00  0.00    -0.224 OA
HETATM    6  C22 UNL     1      28.116   6.234   9.109  1.00  0.00     0.284 C 
HETATM    7  O4  UNL     1      27.600   5.823   8.054  1.00  0.00    -0.263 OA
ENDROOT
BRANCH   4   8
HETATM    8  C7  UNL     1      30.544   8.704  10.097  1.00  0.00     0.121 C 
BRANCH   8   9
HETATM    9  C8  UNL     1      29.763   9.673   9.200  1.00  0.00     0.021 C 
BRANCH   9  10
HETATM   10  C9  UNL     1      29.110  10.713  10.059  1.00  0.00    -0.011 C 
HETATM   11  C10 UNL     1      29.615  10.553  11.486  1.00  0.00     0.007 C 
HETATM   12  C11 UNL     1      28.553  11.234  12.348  1.00  0.00     0.025 C 
HETATM   13  C12 UNL     1      27.270  11.006  11.579  1.00  0.00     0.084 C 
HETATM   14  C21 UNL     1      27.630  10.370  10.274  1.00  0.00     0.029 C 
BRANCH  13  15
HETATM   15  N4  UNL     1      26.311  10.243  12.360  1.00  0.00    -0.356 N 
HETATM   16  C13 UNL     1      25.027  10.729  12.681  1.00  0.00     0.217 C 
HETATM   17  O1  UNL     1      24.682  11.859  12.283  1.00  0.00    -0.274 OA
ATOM     18  H4  UNL     1      26.579   9.316  12.690  1.00  0.00     0.162 HD
BRANCH  16  19
HETATM   19  C14 UNL     1      24.101   9.911  13.476  1.00  0.00     0.104 C 
BRANCH  19  20
HETATM   20  C15 UNL     1      24.652   8.511  13.576  1.00  0.00     0.039 C 
BRANCH  20  21
HETATM   21  C16 UNL     1      23.671   7.620  14.263  1.00  0.00     0.273 C 
BRANCH  21  22
HETATM   22  N5  UNL     1      24.293   6.710  15.173  1.00  0.00     0.092 N 
HETATM   23  C17 UNL     1      25.718   6.838  15.051  1.00  0.00     0.298 C 
HETATM   24  C18 UNL     1      26.403   5.488  15.057  1.00  0.00     0.198 C 
HETATM   25  O2  UNL     1      25.949   4.806  16.181  1.00  0.00    -0.388 OA
HETATM   26  C19 UNL     1      24.607   4.533  16.109  1.00  0.00     0.198 C 
HETATM   27  C20 UNL     1      23.864   5.351  15.073  1.00  0.00     0.298 C 
ENDBRANCH  21  22
ENDBRANCH  20  21
ENDBRANCH  19  20
ENDBRANCH  16  19
ENDBRANCH  13  15
ENDBRANCH   9  10
ENDBRANCH   8   9
ENDBRANCH   4   8
BRANCH   1  28
HETATM   28  C3  UNL     1      26.491   5.033  10.496  1.00  0.00    -0.028 A 
HETATM   29  C2  UNL     1      25.620   5.499  11.445  1.00  0.00     0.097 A 
HETATM   30  N2  UNL     1      24.361   4.974  11.502  1.00  0.00    -0.351 N 
HETATM   31  C1  UNL     1      23.916   4.026  10.685  1.00  0.00     0.113 A 
ATOM     32  H2  UNL     1      23.725   5.331  12.214  1.00  0.00     0.166 HD
HETATM   33  C24 UNL     1      24.767   3.533   9.715  1.00  0.00     0.091 A 
HETATM   34  C23 UNL     1      26.067   4.054   9.634  1.00  0.00     0.029 A 
BRANCH  31  35
HETATM   35  N1  UNL     1      22.703   3.541  10.764  1.00  0.00    -0.385 N 
ATOM     36  H12 UNL     1      22.474   2.914  11.536  1.00  0.00     0.157 HD
ATOM     37  H11 UNL     1      21.977   3.765  10.084  1.00  0.00     0.157 HD
ENDBRANCH  31  35
BRANCH  33  38
HETATM   38  C25 UNL     1      24.274   2.479   8.807  1.00  0.00     0.421 C 
HETATM   39  F1  UNL     1      22.912   2.557   8.639  1.00  0.00    -0.166 F 
HETATM   40  F2  UNL     1      24.953   2.589   7.599  1.00  0.00    -0.166 F 
HETATM   41  F3  UNL     1      24.645   1.241   9.342  1.00  0.00    -0.166 F 
ENDBRANCH  33  38
ENDBRANCH   1  28
TORSDOF 11
ENDMDL
