MODEL 1
REMARK VINA RESULT: -6.565293722      0.000      0.000
REMARK  11 active torsions:
REMARK  status: ('A' for Active; 'I' for Inactive)
REMARK    1  A    between atoms: C1_2  and  C2_3 
REMARK       I    between atoms: C1_2  and  N1_6 
REMARK    2  A    between atoms: N2_9  and  C7_10 
REMARK    3  A    between atoms: C7_10  and  C8_11 
REMARK    4  A    between atoms: C8_11  and  O2_12 
REMARK    5  A    between atoms: C8_11  and  C9_14 
REMARK    6  A    between atoms: C9_14  and  N3_15 
REMARK    7  A    between atoms: C13_19  and  C14_20 
REMARK    8  A    between atoms: C14_20  and  O3_21 
REMARK    9  A    between atoms: N4_23  and  O4_25 
REMARK   10  A    between atoms: C15_27  and  C16_28 
REMARK   11  A    between atoms: C16_28  and  C17_29 
ROOT
HETATM    1  N3  UNL     1      -2.336  22.166  -1.600  1.00  0.00    -0.385 N 
HETATM    2  C10 UNL     1      -1.065  22.370  -0.986  1.00  0.00     0.122 C 
HETATM    3  C11 UNL     1      -0.883  21.494   0.253  1.00  0.00     0.021 C 
HETATM    4  C12 UNL     1      -1.777  22.077   1.307  1.00  0.00     0.016 C 
HETATM    5  C13 UNL     1      -3.050  22.628   0.648  1.00  0.00     0.085 C 
HETATM    6  C15 UNL     1      -3.322  21.836  -0.608  1.00  0.00     0.100 C 
ENDROOT
BRANCH   1   7
HETATM    7  C9  UNL     1      -2.695  22.967  -2.652  1.00  0.00     0.091 C 
BRANCH   7   8
HETATM    8  C8  UNL     1      -2.651  22.427  -4.042  1.00  0.00     0.174 C 
BRANCH   8   9
HETATM    9  C7  UNL     1      -1.601  21.406  -4.344  1.00  0.00     0.159 C 
BRANCH   9  10
HETATM   10  N2  UNL     1      -2.126  20.114  -4.599  1.00  0.00    -0.387 N 
HETATM   11  C6  UNL     1      -3.506  19.934  -4.686  1.00  0.00     0.078 C 
HETATM   12  C5  UNL     1      -4.065  18.560  -4.624  1.00  0.00     0.169 C 
HETATM   13  N1  UNL     1      -3.087  17.520  -4.683  1.00  0.00    -0.346 N 
HETATM   14  C1  UNL     1      -3.410  16.180  -5.036  1.00  0.00     0.224 C 
HETATM   15  C19 UNL     1      -1.707  17.780  -4.320  1.00  0.00     0.146 C 
HETATM   16  O1  UNL     1      -2.405  15.390  -5.198  1.00  0.00    -0.273 OA
HETATM   17  C18 UNL     1      -1.265  19.068  -5.006  1.00  0.00     0.141 C 
BRANCH  14  18
HETATM   18  C2  UNL     1      -4.723  15.570  -5.242  1.00  0.00     0.078 A 
HETATM   19  C3  UNL     1      -5.288  15.773  -6.696  1.00  0.00     0.015 A 
HETATM   20  C4  UNL     1      -5.108  14.410  -6.007  1.00  0.00     0.015 A 
ENDBRANCH  14  18
ENDBRANCH   9  10
ENDBRANCH   8   9
BRANCH   8  21
HETATM   21  O2  UNL     1      -2.438  23.512  -4.945  1.00  0.00    -0.389 OA
ATOM     22  H2  UNL     1      -1.857  23.190  -5.624  1.00  0.00     0.210 HD
ENDBRANCH   8  21
ENDBRANCH   7   8
ENDBRANCH   1   7
BRANCH   6  23
HETATM   23  C16 UNL     1      -4.737  21.828  -1.023  1.00  0.00     0.097 C 
BRANCH  23  24
HETATM   24  C17 UNL     1      -5.314  20.507  -1.403  1.00  0.00     0.355 C 
HETATM   25  F1  UNL     1      -6.018  20.543  -2.595  1.00  0.00    -0.214 F 
HETATM   26  F2  UNL     1      -4.275  19.572  -1.516  1.00  0.00    -0.214 F 
ENDBRANCH  23  24
ENDBRANCH   6  23
BRANCH   5  27
HETATM   27  C14 UNL     1      -4.123  22.502   1.663  1.00  0.00     0.141 C 
HETATM   28  N4  UNL     1      -4.993  23.415   1.930  1.00  0.00    -0.251 N 
ATOM     29  H4  UNL     1      -5.684  23.208   2.652  1.00  0.00     0.196 HD
BRANCH  27  30
HETATM   30  O3  UNL     1      -4.207  21.323   2.386  1.00  0.00    -0.348 OA
ATOM     31  H3  UNL     1      -4.204  21.375   3.335  1.00  0.00     0.219 HD
ENDBRANCH  27  30
BRANCH  28  32
HETATM   32  O4  UNL     1      -5.064  24.633   1.326  1.00  0.00    -0.288 OA
ATOM     33  H4  UNL     1      -4.752  25.449   1.701  1.00  0.00     0.244 HD
ENDBRANCH  28  32
ENDBRANCH   5  27
TORSDOF 11
ENDMDL
MODEL 2
REMARK VINA RESULT: -6.453944150      2.324      2.950
REMARK  11 active torsions:
REMARK  status: ('A' for Active; 'I' for Inactive)
REMARK    1  A    between atoms: C1_2  and  C2_3 
REMARK       I    between atoms: C1_2  and  N1_6 
REMARK    2  A    between atoms: N2_9  and  C7_10 
REMARK    3  A    between atoms: C7_10  and  C8_11 
REMARK    4  A    between atoms: C8_11  and  O2_12 
REMARK    5  A    between atoms: C8_11  and  C9_14 
REMARK    6  A    between atoms: C9_14  and  N3_15 
REMARK    7  A    between atoms: C13_19  and  C14_20 
REMARK    8  A    between atoms: C14_20  and  O3_21 
REMARK    9  A    between atoms: N4_23  and  O4_25 
REMARK   10  A    between atoms: C15_27  and  C16_28 
REMARK   11  A    between atoms: C16_28  and  C17_29 
ROOT
HETATM    1  N3  UNL     1      -1.489  22.308  -3.004  1.00  0.00    -0.385 N 
HETATM    2  C10 UNL     1      -1.449  23.721  -2.817  1.00  0.00     0.122 C 
HETATM    3  C11 UNL     1      -0.436  24.126  -1.747  1.00  0.00     0.021 C 
HETATM    4  C12 UNL     1      -1.030  23.707  -0.435  1.00  0.00     0.016 C 
HETATM    5  C13 UNL     1      -1.820  22.403  -0.625  1.00  0.00     0.085 C 
HETATM    6  C15 UNL     1      -1.204  21.633  -1.769  1.00  0.00     0.100 C 
ENDROOT
BRANCH   1   7
HETATM    7  C9  UNL     1      -2.435  21.782  -3.845  1.00  0.00     0.091 C 
BRANCH   7   8
HETATM    8  C8  UNL     1      -3.670  22.562  -4.150  1.00  0.00     0.174 C 
BRANCH   8   9
HETATM    9  C7  UNL     1      -4.960  21.806  -4.196  1.00  0.00     0.159 C 
BRANCH   9  10
HETATM   10  N2  UNL     1      -4.794  20.420  -4.446  1.00  0.00    -0.387 N 
HETATM   11  C6  UNL     1      -4.852  19.944  -5.756  1.00  0.00     0.078 C 
HETATM   12  C5  UNL     1      -5.007  18.486  -5.992  1.00  0.00     0.169 C 
HETATM   13  N1  UNL     1      -4.879  17.680  -4.819  1.00  0.00    -0.346 N 
HETATM   14  C1  UNL     1      -4.596  16.286  -4.873  1.00  0.00     0.224 C 
HETATM   15  C19 UNL     1      -5.093  18.248  -3.502  1.00  0.00     0.146 C 
HETATM   16  O1  UNL     1      -4.355  15.724  -3.738  1.00  0.00    -0.273 OA
HETATM   17  C18 UNL     1      -4.331  19.566  -3.419  1.00  0.00     0.141 C 
BRANCH  14  18
HETATM   18  C2  UNL     1      -4.540  15.398  -6.033  1.00  0.00     0.078 A 
HETATM   19  C3  UNL     1      -5.863  14.578  -6.259  1.00  0.00     0.015 A 
HETATM   20  C4  UNL     1      -5.201  15.482  -7.311  1.00  0.00     0.015 A 
ENDBRANCH  14  18
ENDBRANCH   9  10
ENDBRANCH   8   9
BRANCH   8  21
HETATM   21  O2  UNL     1      -3.513  23.180  -5.428  1.00  0.00    -0.389 OA
ATOM     22  H2  UNL     1      -2.680  23.637  -5.408  1.00  0.00     0.210 HD
ENDBRANCH   8  21
ENDBRANCH   7   8
ENDBRANCH   1   7
BRANCH   6  23
HETATM   23  C16 UNL     1      -1.438  20.178  -1.711  1.00  0.00     0.097 C 
BRANCH  23  24
HETATM   24  C17 UNL     1      -0.376  19.307  -2.291  1.00  0.00     0.355 C 
HETATM   25  F1  UNL     1      -0.670  18.870  -3.571  1.00  0.00    -0.214 F 
HETATM   26  F2  UNL     1       0.831  20.020  -2.319  1.00  0.00    -0.214 F 
ENDBRANCH  23  24
ENDBRANCH   6  23
BRANCH   5  27
HETATM   27  C14 UNL     1      -1.744  21.687   0.670  1.00  0.00     0.141 C 
HETATM   28  N4  UNL     1      -2.739  21.101   1.245  1.00  0.00    -0.251 N 
ATOM     29  H4  UNL     1      -2.560  20.641   2.137  1.00  0.00     0.196 HD
BRANCH  27  30
HETATM   30  O3  UNL     1      -0.524  21.639   1.324  1.00  0.00    -0.348 OA
ATOM     31  H3  UNL     1      -0.498  21.864   2.247  1.00  0.00     0.219 HD
ENDBRANCH  27  30
BRANCH  28  32
HETATM   32  O4  UNL     1      -4.008  21.048   0.755  1.00  0.00    -0.288 OA
ATOM     33  H4  UNL     1      -4.462  20.255   0.497  1.00  0.00     0.244 HD
ENDBRANCH  28  32
ENDBRANCH   5  27
TORSDOF 11
ENDMDL
MODEL 3
REMARK VINA RESULT: -6.403977680      2.205      3.042
REMARK  11 active torsions:
REMARK  status: ('A' for Active; 'I' for Inactive)
REMARK    1  A    between atoms: C1_2  and  C2_3 
REMARK       I    between atoms: C1_2  and  N1_6 
REMARK    2  A    between atoms: N2_9  and  C7_10 
REMARK    3  A    between atoms: C7_10  and  C8_11 
REMARK    4  A    between atoms: C8_11  and  O2_12 
REMARK    5  A    between atoms: C8_11  and  C9_14 
REMARK    6  A    between atoms: C9_14  and  N3_15 
REMARK    7  A    between atoms: C13_19  and  C14_20 
REMARK    8  A    between atoms: C14_20  and  O3_21 
REMARK    9  A    between atoms: N4_23  and  O4_25 
REMARK   10  A    between atoms: C15_27  and  C16_28 
REMARK   11  A    between atoms: C16_28  and  C17_29 
ROOT
HETATM    1  N3  UNL     1      -2.849  21.874  -1.219  1.00  0.00    -0.385 N 
HETATM    2  C10 UNL     1      -4.246  21.690  -1.436  1.00  0.00     0.122 C 
HETATM    3  C11 UNL     1      -5.075  22.798  -0.789  1.00  0.00     0.021 C 
HETATM    4  C12 UNL     1      -5.007  22.556   0.690  1.00  0.00     0.016 C 
HETATM    5  C13 UNL     1      -3.624  21.997   1.053  1.00  0.00     0.085 C 
HETATM    6  C15 UNL     1      -2.621  22.510   0.048  1.00  0.00     0.100 C 
ENDROOT
BRANCH   1   7
HETATM    7  C9  UNL     1      -1.983  20.896  -1.636  1.00  0.00     0.091 C 
BRANCH   7   8
HETATM    8  C8  UNL     1      -0.967  21.205  -2.683  1.00  0.00     0.174 C 
BRANCH   8   9
HETATM    9  C7  UNL     1      -1.409  21.114  -4.109  1.00  0.00     0.159 C 
BRANCH   9  10
HETATM   10  N2  UNL     1      -2.015  19.875  -4.436  1.00  0.00    -0.387 N 
HETATM   11  C6  UNL     1      -3.404  19.792  -4.536  1.00  0.00     0.078 C 
HETATM   12  C5  UNL     1      -4.051  18.456  -4.552  1.00  0.00     0.169 C 
HETATM   13  N1  UNL     1      -3.143  17.359  -4.665  1.00  0.00    -0.346 N 
HETATM   14  C1  UNL     1      -3.551  16.064  -5.093  1.00  0.00     0.224 C 
HETATM   15  C19 UNL     1      -1.751  17.507  -4.286  1.00  0.00     0.146 C 
HETATM   16  O1  UNL     1      -2.598  15.220  -5.296  1.00  0.00    -0.273 OA
HETATM   17  C18 UNL     1      -1.222  18.799  -4.898  1.00  0.00     0.141 C 
BRANCH  14  18
HETATM   18  C2  UNL     1      -4.900  15.553  -5.335  1.00  0.00     0.078 A 
HETATM   19  C3  UNL     1      -5.413  15.807  -6.800  1.00  0.00     0.015 A 
HETATM   20  C4  UNL     1      -5.351  14.430  -6.118  1.00  0.00     0.015 A 
ENDBRANCH  14  18
ENDBRANCH   9  10
ENDBRANCH   8   9
BRANCH   8  21
HETATM   21  O2  UNL     1       0.127  20.300  -2.536  1.00  0.00    -0.389 OA
ATOM     22  H2  UNL     1       0.845  20.799  -2.166  1.00  0.00     0.210 HD
ENDBRANCH   8  21
ENDBRANCH   7   8
ENDBRANCH   1   7
BRANCH   6  23
HETATM   23  C16 UNL     1      -1.235  22.563   0.551  1.00  0.00     0.097 C 
BRANCH  23  24
HETATM   24  C17 UNL     1      -0.413  23.731   0.124  1.00  0.00     0.355 C 
HETATM   25  F1  UNL     1       0.635  23.382  -0.711  1.00  0.00    -0.214 F 
HETATM   26  F2  UNL     1      -1.238  24.649  -0.541  1.00  0.00    -0.214 F 
ENDBRANCH  23  24
ENDBRANCH   6  23
BRANCH   5  27
HETATM   27  C14 UNL     1      -3.350  22.450   2.437  1.00  0.00     0.141 C 
HETATM   28  N4  UNL     1      -3.086  21.668   3.428  1.00  0.00    -0.251 N 
ATOM     29  H4  UNL     1      -2.915  22.102   4.335  1.00  0.00     0.196 HD
BRANCH  27  30
HETATM   30  O3  UNL     1      -3.381  23.810   2.701  1.00  0.00    -0.348 OA
ATOM     31  H3  UNL     1      -4.148  24.168   3.132  1.00  0.00     0.219 HD
ENDBRANCH  27  30
BRANCH  28  32
HETATM   32  O4  UNL     1      -3.017  20.310   3.360  1.00  0.00    -0.288 OA
ATOM     33  H4  UNL     1      -3.578  19.709   3.835  1.00  0.00     0.244 HD
ENDBRANCH  28  32
ENDBRANCH   5  27
TORSDOF 11
ENDMDL
MODEL 4
REMARK VINA RESULT: -6.328601922      2.404      2.894
REMARK  11 active torsions:
REMARK  status: ('A' for Active; 'I' for Inactive)
REMARK    1  A    between atoms: C1_2  and  C2_3 
REMARK       I    between atoms: C1_2  and  N1_6 
REMARK    2  A    between atoms: N2_9  and  C7_10 
REMARK    3  A    between atoms: C7_10  and  C8_11 
REMARK    4  A    between atoms: C8_11  and  O2_12 
REMARK    5  A    between atoms: C8_11  and  C9_14 
REMARK    6  A    between atoms: C9_14  and  N3_15 
REMARK    7  A    between atoms: C13_19  and  C14_20 
REMARK    8  A    between atoms: C14_20  and  O3_21 
REMARK    9  A    between atoms: N4_23  and  O4_25 
REMARK   10  A    between atoms: C15_27  and  C16_28 
REMARK   11  A    between atoms: C16_28  and  C17_29 
ROOT
HETATM    1  N3  UNL     1      -4.831  22.400  -2.378  1.00  0.00    -0.385 N 
HETATM    2  C10 UNL     1      -4.193  22.567  -1.114  1.00  0.00     0.122 C 
HETATM    3  C11 UNL     1      -4.829  21.694  -0.034  1.00  0.00     0.021 C 
HETATM    4  C12 UNL     1      -6.162  22.312   0.265  1.00  0.00     0.016 C 
HETATM    5  C13 UNL     1      -6.753  22.900  -1.024  1.00  0.00     0.085 C 
HETATM    6  C15 UNL     1      -6.226  22.109  -2.197  1.00  0.00     0.100 C 
ENDROOT
BRANCH   1   7
HETATM    7  C9  UNL     1      -4.451  23.206  -3.420  1.00  0.00     0.091 C 
BRANCH   7   8
HETATM    8  C8  UNL     1      -3.663  22.633  -4.549  1.00  0.00     0.174 C 
BRANCH   8   9
HETATM    9  C7  UNL     1      -2.549  21.698  -4.198  1.00  0.00     0.159 C 
BRANCH   9  10
HETATM   10  N2  UNL     1      -2.835  20.341  -4.493  1.00  0.00    -0.387 N 
HETATM   11  C6  UNL     1      -4.158  19.938  -4.670  1.00  0.00     0.078 C 
HETATM   12  C5  UNL     1      -4.484  18.490  -4.652  1.00  0.00     0.169 C 
HETATM   13  N1  UNL     1      -3.346  17.627  -4.652  1.00  0.00    -0.346 N 
HETATM   14  C1  UNL     1      -3.420  16.257  -5.033  1.00  0.00     0.224 C 
HETATM   15  C19 UNL     1      -2.054  18.105  -4.199  1.00  0.00     0.146 C 
HETATM   16  O1  UNL     1      -2.290  15.647  -5.133  1.00  0.00    -0.273 OA
HETATM   17  C18 UNL     1      -1.789  19.459  -4.848  1.00  0.00     0.141 C 
BRANCH  14  18
HETATM   18  C2  UNL     1      -4.598  15.442  -5.327  1.00  0.00     0.078 A 
HETATM   19  C3  UNL     1      -5.167  15.662  -6.776  1.00  0.00     0.015 A 
HETATM   20  C4  UNL     1      -4.756  14.301  -6.193  1.00  0.00     0.015 A 
ENDBRANCH  14  18
ENDBRANCH   9  10
ENDBRANCH   8   9
BRANCH   8  21
HETATM   21  O2  UNL     1      -3.078  23.706  -5.286  1.00  0.00    -0.389 OA
ATOM     22  H2  UNL     1      -3.046  23.427  -6.194  1.00  0.00     0.210 HD
ENDBRANCH   8  21
ENDBRANCH   7   8
ENDBRANCH   1   7
BRANCH   6  23
HETATM   23  C16 UNL     1      -7.096  22.144  -3.388  1.00  0.00     0.097 C 
BRANCH  23  24
HETATM   24  C17 UNL     1      -7.447  20.830  -3.998  1.00  0.00     0.355 C 
HETATM   25  F1  UNL     1      -8.748  20.437  -3.731  1.00  0.00    -0.214 F 
HETATM   26  F2  UNL     1      -7.271  20.910  -5.386  1.00  0.00    -0.214 F 
ENDBRANCH  23  24
ENDBRANCH   6  23
BRANCH   5  27
HETATM   27  C14 UNL     1      -8.225  22.815  -0.875  1.00  0.00     0.141 C 
HETATM   28  N4  UNL     1      -9.019  23.830  -0.818  1.00  0.00    -0.251 N 
ATOM     29  H4  UNL     1     -10.015  23.642  -0.715  1.00  0.00     0.196 HD
BRANCH  27  30
HETATM   30  O3  UNL     1      -8.805  21.560  -0.785  1.00  0.00    -0.348 OA
ATOM     31  H3  UNL     1      -9.705  21.500  -0.484  1.00  0.00     0.219 HD
ENDBRANCH  27  30
BRANCH  28  32
HETATM   32  O4  UNL     1      -8.631  25.134  -0.887  1.00  0.00    -0.288 OA
ATOM     33  H4  UNL     1      -7.733  25.435  -0.962  1.00  0.00     0.244 HD
ENDBRANCH  28  32
ENDBRANCH   5  27
TORSDOF 11
ENDMDL
MODEL 5
REMARK VINA RESULT: -6.325953180      3.194      6.101
REMARK  11 active torsions:
REMARK  status: ('A' for Active; 'I' for Inactive)
REMARK    1  A    between atoms: C1_2  and  C2_3 
REMARK       I    between atoms: C1_2  and  N1_6 
REMARK    2  A    between atoms: N2_9  and  C7_10 
REMARK    3  A    between atoms: C7_10  and  C8_11 
REMARK    4  A    between atoms: C8_11  and  O2_12 
REMARK    5  A    between atoms: C8_11  and  C9_14 
REMARK    6  A    between atoms: C9_14  and  N3_15 
REMARK    7  A    between atoms: C13_19  and  C14_20 
REMARK    8  A    between atoms: C14_20  and  O3_21 
REMARK    9  A    between atoms: N4_23  and  O4_25 
REMARK   10  A    between atoms: C15_27  and  C16_28 
REMARK   11  A    between atoms: C16_28  and  C17_29 
ROOT
HETATM    1  N3  UNL     1      -1.257  21.301  -1.938  1.00  0.00    -0.385 N 
HETATM    2  C10 UNL     1      -0.390  20.246  -1.528  1.00  0.00     0.122 C 
HETATM    3  C11 UNL     1       0.295  19.575  -2.717  1.00  0.00     0.021 C 
HETATM    4  C12 UNL     1      -0.769  18.781  -3.414  1.00  0.00     0.016 C 
HETATM    5  C13 UNL     1      -2.108  19.527  -3.319  1.00  0.00     0.085 C 
HETATM    6  C15 UNL     1      -1.826  21.007  -3.224  1.00  0.00     0.100 C 
ENDROOT
BRANCH   1   7
HETATM    7  C9  UNL     1      -2.035  21.919  -0.994  1.00  0.00     0.091 C 
BRANCH   7   8
HETATM    8  C8  UNL     1      -2.994  21.114  -0.183  1.00  0.00     0.174 C 
BRANCH   8   9
HETATM    9  C7  UNL     1      -4.233  21.804   0.292  1.00  0.00     0.159 C 
BRANCH   9  10
HETATM   10  N2  UNL     1      -5.207  21.979  -0.724  1.00  0.00    -0.387 N 
HETATM   11  C6  UNL     1      -5.645  20.877  -1.457  1.00  0.00     0.078 C 
HETATM   12  C5  UNL     1      -6.402  21.096  -2.715  1.00  0.00     0.169 C 
HETATM   13  N1  UNL     1      -6.785  22.453  -2.947  1.00  0.00    -0.346 N 
HETATM   14  C1  UNL     1      -7.826  22.815  -3.847  1.00  0.00     0.224 C 
HETATM   15  C19 UNL     1      -6.075  23.543  -2.305  1.00  0.00     0.146 C 
HETATM   16  O1  UNL     1      -8.163  24.058  -3.835  1.00  0.00    -0.273 OA
HETATM   17  C18 UNL     1      -5.908  23.203  -0.828  1.00  0.00     0.141 C 
BRANCH  14  18
HETATM   18  C2  UNL     1      -8.569  21.975  -4.786  1.00  0.00     0.078 A 
HETATM   19  C3  UNL     1      -8.037  22.064  -6.263  1.00  0.00     0.015 A 
HETATM   20  C4  UNL     1      -8.189  20.761  -5.462  1.00  0.00     0.015 A 
ENDBRANCH  14  18
ENDBRANCH   9  10
ENDBRANCH   8   9
BRANCH   8  21
HETATM   21  O2  UNL     1      -2.319  20.641   0.983  1.00  0.00    -0.389 OA
ATOM     22  H2  UNL     1      -1.545  20.180   0.680  1.00  0.00     0.210 HD
ENDBRANCH   8  21
ENDBRANCH   7   8
ENDBRANCH   1   7
BRANCH   6  23
HETATM   23  C16 UNL     1      -2.929  21.863  -3.699  1.00  0.00     0.097 C 
BRANCH  23  24
HETATM   24  C17 UNL     1      -2.556  23.218  -4.196  1.00  0.00     0.355 C 
HETATM   25  F1  UNL     1      -1.230  23.310  -4.582  1.00  0.00    -0.214 F 
HETATM   26  F2  UNL     1      -3.372  23.542  -5.290  1.00  0.00    -0.214 F 
ENDBRANCH  23  24
ENDBRANCH   6  23
BRANCH   5  27
HETATM   27  C14 UNL     1      -2.871  19.153  -4.533  1.00  0.00     0.141 C 
HETATM   28  N4  UNL     1      -4.016  18.560  -4.528  1.00  0.00    -0.251 N 
ATOM     29  H4  UNL     1      -4.442  18.355  -5.432  1.00  0.00     0.196 HD
BRANCH  27  30
HETATM   30  O3  UNL     1      -2.325  19.454  -5.770  1.00  0.00    -0.348 OA
ATOM     31  H3  UNL     1      -2.434  18.826  -6.476  1.00  0.00     0.219 HD
ENDBRANCH  27  30
BRANCH  28  32
HETATM   32  O4  UNL     1      -4.701  18.185  -3.412  1.00  0.00    -0.288 OA
ATOM     33  H4  UNL     1      -4.611  17.350  -2.970  1.00  0.00     0.244 HD
ENDBRANCH  28  32
ENDBRANCH   5  27
TORSDOF 11
ENDMDL
