MODEL 1
REMARK VINA RESULT: -6.345288469      0.000      0.000
REMARK  6 active torsions:
REMARK  status: ('A' for Active; 'I' for Inactive)
REMARK    1  A    between atoms: C1_2  and  C2_4 
REMARK    2  A    between atoms: C2_4  and  C3_5 
REMARK    3  A    between atoms: C3_5  and  N1_6 
REMARK       I    between atoms: N1_6  and  C4_8 
REMARK    4  A    between atoms: C4_8  and  C5_10 
REMARK       I    between atoms: N3_17  and  C8_18 
REMARK    5  A    between atoms: C8_18  and  C9_20 
REMARK    6  A    between atoms: C9_20  and  C10_21 
ROOT
HETATM    1  C5  UNL     1      -9.198 -27.566   2.754  1.00  0.00     0.220 C 
HETATM    2  C6  UNL     1      -7.818 -28.137   2.538  1.00  0.00     0.189 C 
HETATM    3 BR1  UNL     1      -7.671 -29.969   3.085  1.00  0.00    -0.066 Br
HETATM    4  N2  UNL     1      -7.537 -27.943   1.131  1.00  0.00    -0.350 N 
ATOM      5  H2  UNL     1      -6.624 -28.045   0.687  1.00  0.00     0.163 HD
HETATM    6  C7  UNL     1      -8.750 -27.584   0.470  1.00  0.00     0.178 C 
HETATM    7  S1  UNL     1      -8.855 -27.503  -1.157  1.00  0.00    -0.041 SA
HETATM    8  N3  UNL     1      -9.753 -27.332   1.444  1.00  0.00    -0.278 N 
HETATM    9  C8  UNL     1     -11.089 -26.921   1.184  1.00  0.00     0.228 C 
HETATM   10  O4  UNL     1     -11.912 -26.723   2.114  1.00  0.00    -0.273 OA
ENDROOT
BRANCH   1  11
HETATM   11  C4  UNL     1      -9.054 -26.322   3.537  1.00  0.00     0.244 C 
HETATM   12  N1  UNL     1     -10.106 -25.849   4.349  1.00  0.00    -0.359 N 
ATOM     13  H1  UNL     1     -10.977 -26.377   4.394  1.00  0.00     0.162 HD
HETATM   14  O3  UNL     1      -7.982 -25.685   3.472  1.00  0.00    -0.271 OA
BRANCH  12  15
HETATM   15  C3  UNL     1      -9.977 -24.628   5.121  1.00  0.00     0.133 C 
BRANCH  15  16
HETATM   16  C2  UNL     1     -11.259 -23.861   5.194  1.00  0.00     0.133 C 
BRANCH  16  17
HETATM   17  C1  UNL     1     -12.411 -24.689   5.590  1.00  0.00     0.174 C 
HETATM   18  O1  UNL     1     -13.098 -25.248   4.714  1.00  0.00    -0.648 OA
HETATM   19  O2  UNL     1     -12.738 -24.853   6.916  1.00  0.00    -0.648 OA
ENDBRANCH  16  17
ENDBRANCH  15  16
ENDBRANCH  12  15
ENDBRANCH   1  11
BRANCH   9  20
HETATM   20  C9  UNL     1     -11.577 -26.703  -0.202  1.00  0.00     0.130 C 
BRANCH  20  21
HETATM   21  C10 UNL     1     -12.273 -25.369  -0.333  1.00  0.00     0.138 C 
HETATM   22 BR2  UNL     1     -11.168 -24.073  -1.229  1.00  0.00    -0.079 Br
HETATM   23 BR3  UNL     1     -13.926 -25.683  -1.314  1.00  0.00    -0.079 Br
ENDBRANCH  20  21
ENDBRANCH   9  20
TORSDOF 6
ENDMDL
MODEL 2
REMARK VINA RESULT: -6.256884402      2.051      4.563
REMARK  6 active torsions:
REMARK  status: ('A' for Active; 'I' for Inactive)
REMARK    1  A    between atoms: C1_2  and  C2_4 
REMARK    2  A    between atoms: C2_4  and  C3_5 
REMARK    3  A    between atoms: C3_5  and  N1_6 
REMARK       I    between atoms: N1_6  and  C4_8 
REMARK    4  A    between atoms: C4_8  and  C5_10 
REMARK       I    between atoms: N3_17  and  C8_18 
REMARK    5  A    between atoms: C8_18  and  C9_20 
REMARK    6  A    between atoms: C9_20  and  C10_21 
ROOT
HETATM    1  C5  UNL     1     -11.316 -25.105   2.017  1.00  0.00     0.220 C 
HETATM    2  C6  UNL     1     -12.070 -25.432   0.751  1.00  0.00     0.189 C 
HETATM    3 BR1  UNL     1     -11.674 -24.229  -0.688  1.00  0.00    -0.066 Br
HETATM    4  N2  UNL     1     -11.734 -26.807   0.447  1.00  0.00    -0.350 N 
ATOM      5  H2  UNL     1     -12.210 -27.400  -0.233  1.00  0.00     0.163 HD
HETATM    6  C7  UNL     1     -10.626 -27.195   1.260  1.00  0.00     0.178 C 
HETATM    7  S1  UNL     1      -9.838 -28.606   1.028  1.00  0.00    -0.041 SA
HETATM    8  N3  UNL     1     -10.381 -26.183   2.225  1.00  0.00    -0.278 N 
HETATM    9  C8  UNL     1      -9.380 -26.212   3.234  1.00  0.00     0.228 C 
HETATM   10  O4  UNL     1      -9.233 -25.265   4.049  1.00  0.00    -0.273 OA
ENDROOT
BRANCH   1  11
HETATM   11  C4  UNL     1     -12.300 -24.992   3.112  1.00  0.00     0.244 C 
HETATM   12  N1  UNL     1     -12.191 -23.977   4.085  1.00  0.00    -0.359 N 
ATOM     13  H1  UNL     1     -11.419 -23.312   4.027  1.00  0.00     0.162 HD
HETATM   14  O3  UNL     1     -13.240 -25.812   3.170  1.00  0.00    -0.271 OA
BRANCH  12  15
HETATM   15  C3  UNL     1     -13.151 -23.856   5.166  1.00  0.00     0.133 C 
BRANCH  15  16
HETATM   16  C2  UNL     1     -12.615 -24.367   6.465  1.00  0.00     0.133 C 
BRANCH  16  17
HETATM   17  C1  UNL     1     -11.864 -23.352   7.224  1.00  0.00     0.174 C 
HETATM   18  O1  UNL     1     -11.345 -22.393   6.622  1.00  0.00    -0.648 OA
HETATM   19  O2  UNL     1     -11.728 -23.451   8.589  1.00  0.00    -0.648 OA
ENDBRANCH  16  17
ENDBRANCH  15  16
ENDBRANCH  12  15
ENDBRANCH   1  11
BRANCH   9  20
HETATM   20  C9  UNL     1      -8.456 -27.367   3.377  1.00  0.00     0.130 C 
BRANCH  20  21
HETATM   21  C10 UNL     1      -7.016 -26.939   3.222  1.00  0.00     0.138 C 
HETATM   22 BR2  UNL     1      -5.807 -28.423   3.410  1.00  0.00    -0.079 Br
HETATM   23 BR3  UNL     1      -6.853 -26.116   1.464  1.00  0.00    -0.079 Br
ENDBRANCH  20  21
ENDBRANCH   9  20
TORSDOF 6
ENDMDL
MODEL 3
REMARK VINA RESULT: -6.228506573      0.948      1.149
REMARK  6 active torsions:
REMARK  status: ('A' for Active; 'I' for Inactive)
REMARK    1  A    between atoms: C1_2  and  C2_4 
REMARK    2  A    between atoms: C2_4  and  C3_5 
REMARK    3  A    between atoms: C3_5  and  N1_6 
REMARK       I    between atoms: N1_6  and  C4_8 
REMARK    4  A    between atoms: C4_8  and  C5_10 
REMARK       I    between atoms: N3_17  and  C8_18 
REMARK    5  A    between atoms: C8_18  and  C9_20 
REMARK    6  A    between atoms: C9_20  and  C10_21 
ROOT
HETATM    1  C5  UNL     1      -9.256 -27.383   2.893  1.00  0.00     0.220 C 
HETATM    2  C6  UNL     1      -7.835 -27.851   2.691  1.00  0.00     0.189 C 
HETATM    3 BR1  UNL     1      -7.559 -29.666   3.241  1.00  0.00    -0.066 Br
HETATM    4  N2  UNL     1      -7.554 -27.636   1.287  1.00  0.00    -0.350 N 
ATOM      5  H2  UNL     1      -6.632 -27.670   0.852  1.00  0.00     0.163 HD
HETATM    6  C7  UNL     1      -8.784 -27.367   0.613  1.00  0.00     0.178 C 
HETATM    7  S1  UNL     1      -8.877 -27.294  -1.015  1.00  0.00    -0.041 SA
HETATM    8  N3  UNL     1      -9.813 -27.191   1.576  1.00  0.00    -0.278 N 
HETATM    9  C8  UNL     1     -11.172 -26.879   1.302  1.00  0.00     0.228 C 
HETATM   10  O4  UNL     1     -12.019 -26.743   2.223  1.00  0.00    -0.273 OA
ENDROOT
BRANCH   1  11
HETATM   11  C4  UNL     1      -9.213 -26.132   3.676  1.00  0.00     0.244 C 
HETATM   12  N1  UNL     1     -10.339 -25.689   4.400  1.00  0.00    -0.359 N 
ATOM     13  H1  UNL     1     -11.194 -26.244   4.380  1.00  0.00     0.162 HD
HETATM   14  O3  UNL     1      -8.159 -25.462   3.691  1.00  0.00    -0.271 OA
BRANCH  12  15
HETATM   15  C3  UNL     1     -10.310 -24.461   5.172  1.00  0.00     0.133 C 
BRANCH  15  16
HETATM   16  C2  UNL     1     -11.647 -24.115   5.744  1.00  0.00     0.133 C 
BRANCH  16  17
HETATM   17  C1  UNL     1     -11.564 -23.255   6.937  1.00  0.00     0.174 C 
HETATM   18  O1  UNL     1     -11.456 -22.022   6.801  1.00  0.00    -0.648 OA
HETATM   19  O2  UNL     1     -11.605 -23.797   8.201  1.00  0.00    -0.648 OA
ENDBRANCH  16  17
ENDBRANCH  15  16
ENDBRANCH  12  15
ENDBRANCH   1  11
BRANCH   9  20
HETATM   20  C9  UNL     1     -11.661 -26.697  -0.089  1.00  0.00     0.130 C 
BRANCH  20  21
HETATM   21  C10 UNL     1     -12.357 -25.367  -0.255  1.00  0.00     0.138 C 
HETATM   22 BR2  UNL     1     -11.234 -24.082  -1.145  1.00  0.00    -0.079 Br
HETATM   23 BR3  UNL     1     -13.986 -25.699  -1.269  1.00  0.00    -0.079 Br
ENDBRANCH  20  21
ENDBRANCH   9  20
TORSDOF 6
ENDMDL
MODEL 4
REMARK VINA RESULT: -6.182471318      1.837      2.159
REMARK  6 active torsions:
REMARK  status: ('A' for Active; 'I' for Inactive)
REMARK    1  A    between atoms: C1_2  and  C2_4 
REMARK    2  A    between atoms: C2_4  and  C3_5 
REMARK    3  A    between atoms: C3_5  and  N1_6 
REMARK       I    between atoms: N1_6  and  C4_8 
REMARK    4  A    between atoms: C4_8  and  C5_10 
REMARK       I    between atoms: N3_17  and  C8_18 
REMARK    5  A    between atoms: C8_18  and  C9_20 
REMARK    6  A    between atoms: C9_20  and  C10_21 
ROOT
HETATM    1  C5  UNL     1      -9.940 -26.252   3.421  1.00  0.00     0.220 C 
HETATM    2  C6  UNL     1      -8.459 -26.446   3.200  1.00  0.00     0.189 C 
HETATM    3 BR1  UNL     1      -7.921 -28.283   3.301  1.00  0.00    -0.066 Br
HETATM    4  N2  UNL     1      -8.181 -25.845   1.913  1.00  0.00    -0.350 N 
ATOM      5  H2  UNL     1      -7.253 -25.636   1.541  1.00  0.00     0.163 HD
HETATM    6  C7  UNL     1      -9.420 -25.593   1.250  1.00  0.00     0.178 C 
HETATM    7  S1  UNL     1      -9.483 -25.125  -0.312  1.00  0.00    -0.041 SA
HETATM    8  N3  UNL     1     -10.487 -25.815   2.161  1.00  0.00    -0.278 N 
HETATM    9  C8  UNL     1     -11.871 -25.641   1.887  1.00  0.00     0.228 C 
HETATM   10  O4  UNL     1     -12.751 -25.865   2.759  1.00  0.00    -0.273 OA
ENDROOT
BRANCH   1  11
HETATM   11  C4  UNL     1     -10.109 -25.247   4.490  1.00  0.00     0.244 C 
HETATM   12  N1  UNL     1     -11.332 -25.120   5.180  1.00  0.00    -0.359 N 
ATOM     13  H1  UNL     1     -12.109 -25.734   4.936  1.00  0.00     0.162 HD
HETATM   14  O3  UNL     1      -9.150 -24.502   4.779  1.00  0.00    -0.271 OA
BRANCH  12  15
HETATM   15  C3  UNL     1     -11.511 -24.136   6.231  1.00  0.00     0.133 C 
BRANCH  15  16
HETATM   16  C2  UNL     1     -12.718 -24.410   7.070  1.00  0.00     0.133 C 
BRANCH  16  17
HETATM   17  C1  UNL     1     -13.942 -23.773   6.554  1.00  0.00     0.174 C 
HETATM   18  O1  UNL     1     -13.940 -23.269   5.415  1.00  0.00    -0.648 OA
HETATM   19  O2  UNL     1     -15.087 -23.727   7.315  1.00  0.00    -0.648 OA
ENDBRANCH  16  17
ENDBRANCH  15  16
ENDBRANCH  12  15
ENDBRANCH   1  11
BRANCH   9  20
HETATM   20  C9  UNL     1     -12.347 -25.185   0.556  1.00  0.00     0.130 C 
BRANCH  20  21
HETATM   21  C10 UNL     1     -13.363 -26.144  -0.020  1.00  0.00     0.138 C 
HETATM   22 BR2  UNL     1     -15.154 -25.456   0.126  1.00  0.00    -0.079 Br
HETATM   23 BR3  UNL     1     -12.872 -26.442  -1.881  1.00  0.00    -0.079 Br
ENDBRANCH  20  21
ENDBRANCH   9  20
TORSDOF 6
ENDMDL
MODEL 5
REMARK VINA RESULT: -6.135572683      1.831      4.520
REMARK  6 active torsions:
REMARK  status: ('A' for Active; 'I' for Inactive)
REMARK    1  A    between atoms: C1_2  and  C2_4 
REMARK    2  A    between atoms: C2_4  and  C3_5 
REMARK    3  A    between atoms: C3_5  and  N1_6 
REMARK       I    between atoms: N1_6  and  C4_8 
REMARK    4  A    between atoms: C4_8  and  C5_10 
REMARK       I    between atoms: N3_17  and  C8_18 
REMARK    5  A    between atoms: C8_18  and  C9_20 
REMARK    6  A    between atoms: C9_20  and  C10_21 
ROOT
HETATM    1  C5  UNL     1     -10.805 -25.403   1.732  1.00  0.00     0.220 C 
HETATM    2  C6  UNL     1     -11.425 -25.197   0.371  1.00  0.00     0.189 C 
HETATM    3 BR1  UNL     1     -10.523 -23.863  -0.669  1.00  0.00    -0.066 Br
HETATM    4  N2  UNL     1     -11.419 -26.502  -0.255  1.00  0.00    -0.350 N 
ATOM      5  H2  UNL     1     -11.928 -26.759  -1.101  1.00  0.00     0.163 HD
HETATM    6  C7  UNL     1     -10.581 -27.371   0.508  1.00  0.00     0.178 C 
HETATM    7  S1  UNL     1     -10.164 -28.856  -0.024  1.00  0.00    -0.041 SA
HETATM    8  N3  UNL     1     -10.224 -26.723   1.721  1.00  0.00    -0.278 N 
HETATM    9  C8  UNL     1      -9.424 -27.272   2.760  1.00  0.00     0.228 C 
HETATM   10  O4  UNL     1      -9.156 -26.622   3.802  1.00  0.00    -0.273 OA
ENDROOT
BRANCH   1  11
HETATM   11  C4  UNL     1     -11.874 -25.265   2.741  1.00  0.00     0.244 C 
HETATM   12  N1  UNL     1     -11.856 -24.213   3.679  1.00  0.00    -0.359 N 
ATOM     13  H1  UNL     1     -11.091 -23.538   3.657  1.00  0.00     0.162 HD
HETATM   14  O3  UNL     1     -12.805 -26.097   2.756  1.00  0.00    -0.271 OA
BRANCH  12  15
HETATM   15  C3  UNL     1     -12.900 -24.067   4.676  1.00  0.00     0.133 C 
BRANCH  15  16
HETATM   16  C2  UNL     1     -12.512 -24.646   5.998  1.00  0.00     0.133 C 
BRANCH  16  17
HETATM   17  C1  UNL     1     -11.755 -23.708   6.845  1.00  0.00     0.174 C 
HETATM   18  O1  UNL     1     -11.177 -22.736   6.323  1.00  0.00    -0.648 OA
HETATM   19  O2  UNL     1     -11.677 -23.892   8.206  1.00  0.00    -0.648 OA
ENDBRANCH  16  17
ENDBRANCH  15  16
ENDBRANCH  12  15
ENDBRANCH   1  11
BRANCH   9  20
HETATM   20  C9  UNL     1      -8.865 -28.645   2.664  1.00  0.00     0.130 C 
BRANCH  20  21
HETATM   21  C10 UNL     1      -7.449 -28.698   3.187  1.00  0.00     0.138 C 
HETATM   22 BR2  UNL     1      -6.841 -30.508   3.418  1.00  0.00    -0.079 Br
HETATM   23 BR3  UNL     1      -6.334 -27.738   1.911  1.00  0.00    -0.079 Br
ENDBRANCH  20  21
ENDBRANCH   9  20
TORSDOF 6
ENDMDL
