MODEL 1
REMARK VINA RESULT: -9.412958504      0.000      0.000
REMARK  10 active torsions:
REMARK  status: ('A' for Active; 'I' for Inactive)
REMARK    1  A    between atoms: O1_2  and  C2_3 
REMARK       I    between atoms: C2_3  and  N1_5 
REMARK    2  A    between atoms: C4_7  and  C5_8 
REMARK    3  A    between atoms: C5_8  and  C6_9 
REMARK    4  A    between atoms: C5_8  and  C12_18 
REMARK    5  A    between atoms: C10_13  and  N2_14 
REMARK    6  A    between atoms: C12_18  and  C13_19 
REMARK    7  A    between atoms: C12_18  and  C15_23 
REMARK    8  A    between atoms: C13_19  and  C14_20 
REMARK    9  A    between atoms: C18_26  and  C19_27 
REMARK   10  A    between atoms: C24_32  and  C25_33 
ROOT
HETATM    1  C5  UNL     1       1.472  -0.640  19.161  1.00  0.00     0.015 C 
ENDROOT
BRANCH   1   2
HETATM    2  C4  UNL     1       2.640  -1.139  19.926  1.00  0.00     0.079 A 
HETATM    3  C3  UNL     1       3.264  -0.573  20.997  1.00  0.00     0.155 A 
HETATM    4  N1  UNL     1       4.274  -1.370  21.376  1.00  0.00    -0.194 N 
HETATM    5  C2  UNL     1       5.172  -1.146  22.444  1.00  0.00     0.386 C 
HETATM    6  N4  UNL     1       4.261  -2.394  20.553  1.00  0.00    -0.232 N 
HETATM    7  O2  UNL     1       6.086  -2.008  22.672  1.00  0.00    -0.236 OA
HETATM    8  N3  UNL     1       3.285  -2.276  19.671  1.00  0.00    -0.284 N 
ATOM      9  H4  UNL     1       4.916  -3.175  20.590  1.00  0.00     0.209 HD
ATOM     10  H3  UNL     1       3.064  -2.938  18.927  1.00  0.00     0.188 HD
BRANCH   5  11
HETATM   11  O1  UNL     1       5.146  -0.046  23.284  1.00  0.00    -0.307 OA
HETATM   12  C1  UNL     1       5.717  -0.098  24.585  1.00  0.00     0.215 C 
ENDBRANCH   5  11
ENDBRANCH   1   2
BRANCH   1  13
HETATM   13  C6  UNL     1       1.368   0.836  19.222  1.00  0.00    -0.020 A 
HETATM   14  C7  UNL     1       0.468   1.522  20.007  1.00  0.00     0.012 A 
HETATM   15  C8  UNL     1       0.356   2.889  20.088  1.00  0.00     0.003 A 
HETATM   16  C9  UNL     1       1.210   3.676  19.324  1.00  0.00     0.036 A 
HETATM   17  C10 UNL     1       2.130   3.051  18.520  1.00  0.00     0.103 A 
HETATM   18  C11 UNL     1       2.202   1.683  18.475  1.00  0.00     0.048 A 
BRANCH  17  19
HETATM   19  N2  UNL     1       2.994   3.885  17.736  1.00  0.00    -0.116 N 
HETATM   20  O3  UNL     1       4.164   4.157  18.142  1.00  0.00    -0.532 OA
HETATM   21  O4  UNL     1       2.609   4.413  16.542  1.00  0.00    -0.532 OA
ENDBRANCH  17  19
ENDBRANCH   1  13
BRANCH   1  22
HETATM   22  C12 UNL     1       0.267  -1.472  19.313  1.00  0.00    -0.006 C 
BRANCH  22  23
HETATM   23  C13 UNL     1       0.335  -2.842  19.835  1.00  0.00     0.097 C 
BRANCH  23  24
HETATM   24  C14 UNL     1       0.204  -3.221  21.199  1.00  0.00     0.199 C 
HETATM   25  O5  UNL     1       1.123  -3.930  21.748  1.00  0.00    -0.644 OA
HETATM   26  O6  UNL     1      -0.816  -2.927  22.072  1.00  0.00    -0.644 OA
ENDBRANCH  23  24
ENDBRANCH  22  23
BRANCH  22  27
HETATM   27  C15 UNL     1      -0.874  -1.215  18.378  1.00  0.00    -0.025 A 
HETATM   28  C16 UNL     1      -2.218  -1.294  18.779  1.00  0.00     0.013 A 
HETATM   29  C17 UNL     1      -3.280  -1.097  17.936  1.00  0.00     0.013 A 
HETATM   30  C18 UNL     1      -3.095  -0.800  16.606  1.00  0.00    -0.025 A 
HETATM   31  C26 UNL     1      -1.785  -0.713  16.169  1.00  0.00     0.013 A 
HETATM   32  C27 UNL     1      -0.750  -0.917  17.044  1.00  0.00     0.013 A 
BRANCH  30  33
HETATM   33  C19 UNL     1      -4.205  -0.601  15.691  1.00  0.00    -0.014 A 
HETATM   34  C20 UNL     1      -4.936  -1.709  15.251  1.00  0.00     0.013 A 
HETATM   35  C21 UNL     1      -5.970  -1.553  14.361  1.00  0.00     0.001 A 
HETATM   36  C22 UNL     1      -6.306  -0.317  13.886  1.00  0.00     0.001 A 
HETATM   37  C23 UNL     1      -5.607   0.775  14.304  1.00  0.00     0.013 A 
HETATM   38  C24 UNL     1      -4.543   0.629  15.218  1.00  0.00     0.017 A 
BRANCH  38  39
HETATM   39  C25 UNL     1      -3.890   1.863  15.628  1.00  0.00     0.387 C 
HETATM   40  F1  UNL     1      -4.428   2.938  14.898  1.00  0.00    -0.209 F 
HETATM   41  F2  UNL     1      -4.251   2.111  16.963  1.00  0.00    -0.209 F 
ENDBRANCH  38  39
ENDBRANCH  30  33
ENDBRANCH  22  27
ENDBRANCH   1  22
TORSDOF 10
ENDMDL
MODEL 2
REMARK VINA RESULT: -9.148515121      1.496      1.830
REMARK  10 active torsions:
REMARK  status: ('A' for Active; 'I' for Inactive)
REMARK    1  A    between atoms: O1_2  and  C2_3 
REMARK       I    between atoms: C2_3  and  N1_5 
REMARK    2  A    between atoms: C4_7  and  C5_8 
REMARK    3  A    between atoms: C5_8  and  C6_9 
REMARK    4  A    between atoms: C5_8  and  C12_18 
REMARK    5  A    between atoms: C10_13  and  N2_14 
REMARK    6  A    between atoms: C12_18  and  C13_19 
REMARK    7  A    between atoms: C12_18  and  C15_23 
REMARK    8  A    between atoms: C13_19  and  C14_20 
REMARK    9  A    between atoms: C18_26  and  C19_27 
REMARK   10  A    between atoms: C24_32  and  C25_33 
ROOT
HETATM    1  C5  UNL     1       1.276  -0.850  19.091  1.00  0.00     0.015 C 
ENDROOT
BRANCH   1   2
HETATM    2  C4  UNL     1       2.457  -1.363  19.827  1.00  0.00     0.079 A 
HETATM    3  C3  UNL     1       3.151  -0.776  20.843  1.00  0.00     0.155 A 
HETATM    4  N1  UNL     1       4.145  -1.598  21.214  1.00  0.00    -0.194 N 
HETATM    5  C2  UNL     1       5.098  -1.364  22.229  1.00  0.00     0.386 C 
HETATM    6  N4  UNL     1       4.053  -2.657  20.441  1.00  0.00    -0.232 N 
HETATM    7  O2  UNL     1       5.986  -2.253  22.458  1.00  0.00    -0.236 OA
HETATM    8  N3  UNL     1       3.043  -2.537  19.597  1.00  0.00    -0.284 N 
ATOM      9  H4  UNL     1       4.677  -3.462  20.486  1.00  0.00     0.209 HD
ATOM     10  H3  UNL     1       2.762  -3.222  18.896  1.00  0.00     0.188 HD
BRANCH   5  11
HETATM   11  O1  UNL     1       5.155  -0.228  23.018  1.00  0.00    -0.307 OA
HETATM   12  C1  UNL     1       5.656  -0.276  24.347  1.00  0.00     0.215 C 
ENDBRANCH   5  11
ENDBRANCH   1   2
BRANCH   1  13
HETATM   13  C6  UNL     1       1.374   0.607  18.847  1.00  0.00    -0.020 A 
HETATM   14  C7  UNL     1       2.072   1.178  17.805  1.00  0.00     0.012 A 
HETATM   15  C8  UNL     1       2.172   2.525  17.552  1.00  0.00     0.003 A 
HETATM   16  C9  UNL     1       1.526   3.415  18.402  1.00  0.00     0.036 A 
HETATM   17  C10 UNL     1       0.813   2.907  19.459  1.00  0.00     0.103 A 
HETATM   18  C11 UNL     1       0.743   1.555  19.669  1.00  0.00     0.048 A 
BRANCH  17  19
HETATM   19  N2  UNL     1       0.162   3.847  20.325  1.00  0.00    -0.116 N 
HETATM   20  O3  UNL     1       0.845   4.669  21.008  1.00  0.00    -0.532 OA
HETATM   21  O4  UNL     1      -1.192   3.903  20.453  1.00  0.00    -0.532 OA
ENDBRANCH  17  19
ENDBRANCH   1  13
BRANCH   1  22
HETATM   22  C12 UNL     1       0.002  -1.441  19.533  1.00  0.00    -0.006 C 
BRANCH  22  23
HETATM   23  C13 UNL     1      -0.042  -2.589  20.446  1.00  0.00     0.097 C 
BRANCH  23  24
HETATM   24  C14 UNL     1      -0.262  -3.942  20.072  1.00  0.00     0.199 C 
HETATM   25  O5  UNL     1       0.713  -4.637  19.610  1.00  0.00    -0.644 OA
HETATM   26  O6  UNL     1      -1.431  -4.664  20.135  1.00  0.00    -0.644 OA
ENDBRANCH  23  24
ENDBRANCH  22  23
BRANCH  22  27
HETATM   27  C15 UNL     1      -1.169  -1.334  18.605  1.00  0.00    -0.025 A 
HETATM   28  C16 UNL     1      -1.037  -0.981  17.253  1.00  0.00     0.013 A 
HETATM   29  C17 UNL     1      -2.093  -0.844  16.392  1.00  0.00     0.013 A 
HETATM   30  C18 UNL     1      -3.388  -1.050  16.807  1.00  0.00    -0.025 A 
HETATM   31  C26 UNL     1      -3.563  -1.402  18.134  1.00  0.00     0.013 A 
HETATM   32  C27 UNL     1      -2.479  -1.528  18.962  1.00  0.00     0.013 A 
BRANCH  30  33
HETATM   33  C19 UNL     1      -4.526  -0.898  15.916  1.00  0.00    -0.014 A 
HETATM   34  C20 UNL     1      -5.390  -1.980  15.720  1.00  0.00     0.013 A 
HETATM   35  C21 UNL     1      -6.454  -1.875  14.860  1.00  0.00     0.001 A 
HETATM   36  C22 UNL     1      -6.693  -0.715  14.178  1.00  0.00     0.001 A 
HETATM   37  C23 UNL     1      -5.863   0.351  14.356  1.00  0.00     0.013 A 
HETATM   38  C24 UNL     1      -4.767   0.256  15.237  1.00  0.00     0.017 A 
BRANCH  38  39
HETATM   39  C25 UNL     1      -3.969   1.464  15.384  1.00  0.00     0.387 C 
HETATM   40  F1  UNL     1      -4.426   2.435  14.475  1.00  0.00    -0.209 F 
HETATM   41  F2  UNL     1      -4.239   1.999  16.654  1.00  0.00    -0.209 F 
ENDBRANCH  38  39
ENDBRANCH  30  33
ENDBRANCH  22  27
ENDBRANCH   1  22
TORSDOF 10
ENDMDL
MODEL 3
REMARK VINA RESULT: -9.084289947      1.770      2.249
REMARK  10 active torsions:
REMARK  status: ('A' for Active; 'I' for Inactive)
REMARK    1  A    between atoms: O1_2  and  C2_3 
REMARK       I    between atoms: C2_3  and  N1_5 
REMARK    2  A    between atoms: C4_7  and  C5_8 
REMARK    3  A    between atoms: C5_8  and  C6_9 
REMARK    4  A    between atoms: C5_8  and  C12_18 
REMARK    5  A    between atoms: C10_13  and  N2_14 
REMARK    6  A    between atoms: C12_18  and  C13_19 
REMARK    7  A    between atoms: C12_18  and  C15_23 
REMARK    8  A    between atoms: C13_19  and  C14_20 
REMARK    9  A    between atoms: C18_26  and  C19_27 
REMARK   10  A    between atoms: C24_32  and  C25_33 
ROOT
HETATM    1  C5  UNL     1       1.535  -0.206  19.340  1.00  0.00     0.015 C 
ENDROOT
BRANCH   1   2
HETATM    2  C4  UNL     1       2.680  -0.798  20.073  1.00  0.00     0.079 A 
HETATM    3  C3  UNL     1       3.343  -0.308  21.159  1.00  0.00     0.155 A 
HETATM    4  N1  UNL     1       4.310  -1.175  21.497  1.00  0.00    -0.194 N 
HETATM    5  C2  UNL     1       5.228  -1.041  22.562  1.00  0.00     0.386 C 
HETATM    6  N4  UNL     1       4.233  -2.165  20.636  1.00  0.00    -0.232 N 
HETATM    7  O2  UNL     1       6.094  -1.961  22.749  1.00  0.00    -0.236 OA
HETATM    8  N3  UNL     1       3.257  -1.959  19.769  1.00  0.00    -0.284 N 
ATOM      9  H4  UNL     1       4.844  -2.981  20.637  1.00  0.00     0.209 HD
ATOM     10  H3  UNL     1       2.993  -2.579  19.003  1.00  0.00     0.188 HD
BRANCH   5  11
HETATM   11  O1  UNL     1       5.271   0.026  23.443  1.00  0.00    -0.307 OA
HETATM   12  C1  UNL     1       5.782  -0.125  24.761  1.00  0.00     0.215 C 
ENDBRANCH   5  11
ENDBRANCH   1   2
BRANCH   1  13
HETATM   13  C6  UNL     1       1.590   1.273  19.341  1.00  0.00    -0.020 A 
HETATM   14  C7  UNL     1       0.739   2.085  20.059  1.00  0.00     0.012 A 
HETATM   15  C8  UNL     1       0.775   3.458  20.084  1.00  0.00     0.003 A 
HETATM   16  C9  UNL     1       1.739   4.116  19.330  1.00  0.00     0.036 A 
HETATM   17  C10 UNL     1       2.617   3.362  18.592  1.00  0.00     0.103 A 
HETATM   18  C11 UNL     1       2.541   1.994  18.601  1.00  0.00     0.048 A 
BRANCH  17  19
HETATM   19  N2  UNL     1       3.598   4.065  17.817  1.00  0.00    -0.116 N 
HETATM   20  O3  UNL     1       3.337   4.427  16.629  1.00  0.00    -0.532 OA
HETATM   21  O4  UNL     1       4.829   4.375  18.308  1.00  0.00    -0.532 OA
ENDBRANCH  17  19
ENDBRANCH   1  13
BRANCH   1  22
HETATM   22  C12 UNL     1       0.257  -0.898  19.581  1.00  0.00    -0.006 C 
BRANCH  22  23
HETATM   23  C13 UNL     1       0.154  -2.024  20.515  1.00  0.00     0.097 C 
BRANCH  23  24
HETATM   24  C14 UNL     1      -0.044  -3.386  20.159  1.00  0.00     0.199 C 
HETATM   25  O5  UNL     1       0.904  -4.032  19.581  1.00  0.00    -0.644 OA
HETATM   26  O6  UNL     1      -1.160  -4.165  20.352  1.00  0.00    -0.644 OA
ENDBRANCH  23  24
ENDBRANCH  22  23
BRANCH  22  27
HETATM   27  C15 UNL     1      -0.741  -0.916  18.465  1.00  0.00    -0.025 A 
HETATM   28  C16 UNL     1      -0.406  -0.592  17.141  1.00  0.00     0.013 A 
HETATM   29  C17 UNL     1      -1.306  -0.569  16.109  1.00  0.00     0.013 A 
HETATM   30  C18 UNL     1      -2.633  -0.871  16.307  1.00  0.00    -0.025 A 
HETATM   31  C26 UNL     1      -3.006  -1.198  17.599  1.00  0.00     0.013 A 
HETATM   32  C27 UNL     1      -2.074  -1.209  18.603  1.00  0.00     0.013 A 
BRANCH  30  33
HETATM   33  C19 UNL     1      -3.609  -0.840  15.231  1.00  0.00    -0.014 A 
HETATM   34  C20 UNL     1      -4.604   0.143  15.238  1.00  0.00     0.013 A 
HETATM   35  C21 UNL     1      -5.557   0.177  14.251  1.00  0.00     0.001 A 
HETATM   36  C22 UNL     1      -5.557  -0.746  13.244  1.00  0.00     0.001 A 
HETATM   37  C23 UNL     1      -4.596  -1.711  13.219  1.00  0.00     0.013 A 
HETATM   38  C24 UNL     1      -3.611  -1.757  14.226  1.00  0.00     0.017 A 
BRANCH  38  39
HETATM   39  C25 UNL     1      -2.609  -2.802  14.081  1.00  0.00     0.387 C 
HETATM   40  F1  UNL     1      -3.084  -3.986  14.673  1.00  0.00    -0.209 F 
HETATM   41  F2  UNL     1      -2.498  -3.098  12.713  1.00  0.00    -0.209 F 
ENDBRANCH  38  39
ENDBRANCH  30  33
ENDBRANCH  22  27
ENDBRANCH   1  22
TORSDOF 10
ENDMDL
MODEL 4
REMARK VINA RESULT: -9.023415901      2.506      4.777
REMARK  10 active torsions:
REMARK  status: ('A' for Active; 'I' for Inactive)
REMARK    1  A    between atoms: O1_2  and  C2_3 
REMARK       I    between atoms: C2_3  and  N1_5 
REMARK    2  A    between atoms: C4_7  and  C5_8 
REMARK    3  A    between atoms: C5_8  and  C6_9 
REMARK    4  A    between atoms: C5_8  and  C12_18 
REMARK    5  A    between atoms: C10_13  and  N2_14 
REMARK    6  A    between atoms: C12_18  and  C13_19 
REMARK    7  A    between atoms: C12_18  and  C15_23 
REMARK    8  A    between atoms: C13_19  and  C14_20 
REMARK    9  A    between atoms: C18_26  and  C19_27 
REMARK   10  A    between atoms: C24_32  and  C25_33 
ROOT
HETATM    1  C5  UNL     1       2.434  -0.703  20.627  1.00  0.00     0.015 C 
ENDROOT
BRANCH   1   2
HETATM    2  C4  UNL     1       3.737  -1.198  21.132  1.00  0.00     0.079 A 
HETATM    3  C3  UNL     1       4.519  -0.684  22.123  1.00  0.00     0.155 A 
HETATM    4  N1  UNL     1       5.610  -1.455  22.252  1.00  0.00    -0.194 N 
HETATM    5  C2  UNL     1       6.674  -1.266  23.162  1.00  0.00     0.386 C 
HETATM    6  N4  UNL     1       5.489  -2.413  21.362  1.00  0.00    -0.232 N 
HETATM    7  O2  UNL     1       7.645  -2.096  23.156  1.00  0.00    -0.236 OA
HETATM    8  N3  UNL     1       4.368  -2.279  20.676  1.00  0.00    -0.284 N 
ATOM      9  H4  UNL     1       6.168  -3.160  21.219  1.00  0.00     0.209 HD
ATOM     10  H3  UNL     1       4.043  -2.893  19.929  1.00  0.00     0.188 HD
BRANCH   5  11
HETATM   11  O1  UNL     1       6.757  -0.235  24.083  1.00  0.00    -0.307 OA
HETATM   12  C1  UNL     1       6.129  -0.330  25.355  1.00  0.00     0.215 C 
ENDBRANCH   5  11
ENDBRANCH   1   2
BRANCH   1  13
HETATM   13  C6  UNL     1       1.483  -1.813  20.387  1.00  0.00    -0.020 A 
HETATM   14  C7  UNL     1       0.426  -2.126  21.213  1.00  0.00     0.012 A 
HETATM   15  C8  UNL     1      -0.474  -3.144  21.010  1.00  0.00     0.003 A 
HETATM   16  C9  UNL     1      -0.334  -3.945  19.883  1.00  0.00     0.036 A 
HETATM   17  C10 UNL     1       0.700  -3.683  19.019  1.00  0.00     0.103 A 
HETATM   18  C11 UNL     1       1.572  -2.655  19.267  1.00  0.00     0.048 A 
BRANCH  17  19
HETATM   19  N2  UNL     1       0.827  -4.529  17.868  1.00  0.00    -0.116 N 
HETATM   20  O3  UNL     1       1.956  -5.010  17.548  1.00  0.00    -0.532 OA
HETATM   21  O4  UNL     1      -0.235  -4.851  17.081  1.00  0.00    -0.532 OA
ENDBRANCH  17  19
ENDBRANCH   1  13
BRANCH   1  22
HETATM   22  C12 UNL     1       2.556   0.389  19.647  1.00  0.00    -0.006 C 
BRANCH  22  23
HETATM   23  C13 UNL     1       3.504   1.493  19.836  1.00  0.00     0.097 C 
BRANCH  23  24
HETATM   24  C14 UNL     1       3.289   2.849  19.467  1.00  0.00     0.199 C 
HETATM   25  O5  UNL     1       2.783   3.663  20.320  1.00  0.00    -0.644 OA
HETATM   26  O6  UNL     1       3.558   3.458  18.264  1.00  0.00    -0.644 OA
ENDBRANCH  23  24
ENDBRANCH  22  23
BRANCH  22  27
HETATM   27  C15 UNL     1       1.341   0.739  18.845  1.00  0.00    -0.025 A 
HETATM   28  C16 UNL     1       1.246   0.499  17.465  1.00  0.00     0.013 A 
HETATM   29  C17 UNL     1       0.161   0.839  16.703  1.00  0.00     0.013 A 
HETATM   30  C18 UNL     1      -0.938   1.455  17.254  1.00  0.00    -0.025 A 
HETATM   31  C26 UNL     1      -0.887   1.710  18.613  1.00  0.00     0.013 A 
HETATM   32  C27 UNL     1       0.218   1.353  19.340  1.00  0.00     0.013 A 
BRANCH  30  33
HETATM   33  C19 UNL     1      -2.096   1.838  16.463  1.00  0.00    -0.014 A 
HETATM   34  C20 UNL     1      -3.221   1.008  16.453  1.00  0.00     0.013 A 
HETATM   35  C21 UNL     1      -4.316   1.329  15.691  1.00  0.00     0.001 A 
HETATM   36  C22 UNL     1      -4.332   2.462  14.927  1.00  0.00     0.001 A 
HETATM   37  C23 UNL     1      -3.246   3.284  14.924  1.00  0.00     0.013 A 
HETATM   38  C24 UNL     1      -2.114   2.966  15.704  1.00  0.00     0.017 A 
BRANCH  38  39
HETATM   39  C25 UNL     1      -1.027   3.932  15.660  1.00  0.00     0.387 C 
HETATM   40  F1  UNL     1      -1.096   4.655  14.456  1.00  0.00    -0.209 F 
HETATM   41  F2  UNL     1      -1.260   4.881  16.668  1.00  0.00    -0.209 F 
ENDBRANCH  38  39
ENDBRANCH  30  33
ENDBRANCH  22  27
ENDBRANCH   1  22
TORSDOF 10
ENDMDL
MODEL 5
REMARK VINA RESULT: -9.017681851      3.364      6.193
REMARK  10 active torsions:
REMARK  status: ('A' for Active; 'I' for Inactive)
REMARK    1  A    between atoms: O1_2  and  C2_3 
REMARK       I    between atoms: C2_3  and  N1_5 
REMARK    2  A    between atoms: C4_7  and  C5_8 
REMARK    3  A    between atoms: C5_8  and  C6_9 
REMARK    4  A    between atoms: C5_8  and  C12_18 
REMARK    5  A    between atoms: C10_13  and  N2_14 
REMARK    6  A    between atoms: C12_18  and  C13_19 
REMARK    7  A    between atoms: C12_18  and  C15_23 
REMARK    8  A    between atoms: C13_19  and  C14_20 
REMARK    9  A    between atoms: C18_26  and  C19_27 
REMARK   10  A    between atoms: C24_32  and  C25_33 
ROOT
HETATM    1  C5  UNL     1      -1.357   0.890  17.829  1.00  0.00     0.015 C 
ENDROOT
BRANCH   1   2
HETATM    2  C4  UNL     1      -0.489   1.928  18.434  1.00  0.00     0.079 A 
HETATM    3  C3  UNL     1       0.742   2.352  18.031  1.00  0.00     0.155 A 
HETATM    4  N1  UNL     1       1.160   3.313  18.869  1.00  0.00    -0.194 N 
HETATM    5  C2  UNL     1       2.386   4.013  18.806  1.00  0.00     0.386 C 
HETATM    6  N4  UNL     1       0.204   3.467  19.756  1.00  0.00    -0.232 N 
HETATM    7  O2  UNL     1       2.633   4.903  19.688  1.00  0.00    -0.236 OA
HETATM    8  N3  UNL     1      -0.800   2.643  19.514  1.00  0.00    -0.284 N 
ATOM      9  H4  UNL     1       0.232   4.133  20.529  1.00  0.00     0.209 HD
ATOM     10  H3  UNL     1      -1.660   2.567  20.057  1.00  0.00     0.188 HD
BRANCH   5  11
HETATM   11  O1  UNL     1       3.366   3.812  17.850  1.00  0.00    -0.307 OA
HETATM   12  C1  UNL     1       4.340   4.809  17.570  1.00  0.00     0.215 C 
ENDBRANCH   5  11
ENDBRANCH   1   2
BRANCH   1  13
HETATM   13  C6  UNL     1      -0.793  -0.468  18.006  1.00  0.00    -0.020 A 
HETATM   14  C7  UNL     1       0.165  -1.026  17.188  1.00  0.00     0.012 A 
HETATM   15  C8  UNL     1       0.711  -2.278  17.335  1.00  0.00     0.003 A 
HETATM   16  C9  UNL     1       0.281  -3.076  18.389  1.00  0.00     0.036 A 
HETATM   17  C10 UNL     1      -0.672  -2.575  19.240  1.00  0.00     0.103 A 
HETATM   18  C11 UNL     1      -1.186  -1.319  19.051  1.00  0.00     0.048 A 
BRANCH  17  19
HETATM   19  N2  UNL     1      -1.104  -3.421  20.315  1.00  0.00    -0.116 N 
HETATM   20  O3  UNL     1      -1.685  -4.521  20.071  1.00  0.00    -0.532 OA
HETATM   21  O4  UNL     1      -0.914  -3.092  21.622  1.00  0.00    -0.532 OA
ENDBRANCH  17  19
ENDBRANCH   1  13
BRANCH   1  22
HETATM   22  C12 UNL     1      -1.937   1.285  16.535  1.00  0.00    -0.006 C 
BRANCH  22  23
HETATM   23  C13 UNL     1      -2.255   2.684  16.226  1.00  0.00     0.097 C 
BRANCH  23  24
HETATM   24  C14 UNL     1      -2.982   3.143  15.095  1.00  0.00     0.199 C 
HETATM   25  O5  UNL     1      -2.366   3.767  14.157  1.00  0.00    -0.644 OA
HETATM   26  O6  UNL     1      -4.326   3.013  14.835  1.00  0.00    -0.644 OA
ENDBRANCH  23  24
ENDBRANCH  22  23
BRANCH  22  27
HETATM   27  C15 UNL     1      -2.785   0.279  15.820  1.00  0.00    -0.025 A 
HETATM   28  C16 UNL     1      -4.009  -0.182  16.330  1.00  0.00     0.013 A 
HETATM   29  C17 UNL     1      -4.787  -1.126  15.713  1.00  0.00     0.013 A 
HETATM   30  C18 UNL     1      -4.411  -1.698  14.521  1.00  0.00    -0.025 A 
HETATM   31  C26 UNL     1      -3.210  -1.271  13.982  1.00  0.00     0.013 A 
HETATM   32  C27 UNL     1      -2.461  -0.324  14.631  1.00  0.00     0.013 A 
BRANCH  30  33
HETATM   33  C19 UNL     1      -5.212  -2.710  13.854  1.00  0.00    -0.014 A 
HETATM   34  C20 UNL     1      -5.030  -4.056  14.189  1.00  0.00     0.013 A 
HETATM   35  C21 UNL     1      -5.751  -5.036  13.553  1.00  0.00     0.001 A 
HETATM   36  C22 UNL     1      -6.659  -4.721  12.582  1.00  0.00     0.001 A 
HETATM   37  C23 UNL     1      -6.852  -3.415  12.243  1.00  0.00     0.013 A 
HETATM   38  C24 UNL     1      -6.118  -2.399  12.889  1.00  0.00     0.017 A 
BRANCH  38  39
HETATM   39  C25 UNL     1      -6.431  -1.038  12.480  1.00  0.00     0.387 C 
HETATM   40  F1  UNL     1      -7.231  -1.073  11.324  1.00  0.00    -0.209 F 
HETATM   41  F2  UNL     1      -7.250  -0.473  13.472  1.00  0.00    -0.209 F 
ENDBRANCH  38  39
ENDBRANCH  30  33
ENDBRANCH  22  27
ENDBRANCH   1  22
TORSDOF 10
ENDMDL
