MODEL 1
REMARK VINA RESULT: -6.421699633      0.000      0.000
REMARK  10 active torsions:
REMARK  status: ('A' for Active; 'I' for Inactive)
REMARK    1  A    between atoms: C2_2  and  C3_3 
REMARK    2  A    between atoms: C4_4  and  C5_5 
REMARK    3  A    between atoms: C5_5  and  C6_6 
REMARK    4  A    between atoms: C6_6  and  C7_7 
REMARK    5  A    between atoms: C7_7  and  C8_8 
REMARK    6  A    between atoms: C11_11  and  C12_12 
REMARK    7  A    between atoms: C12_12  and  C13_13 
REMARK    8  A    between atoms: C13_13  and  C14_14 
REMARK       I    between atoms: N2_20  and  C16_22 
REMARK    9  A    between atoms: C16_22  and  C17_24 
REMARK   10  A    between atoms: C17_24  and  C18_25 
ROOT
HETATM    1  C3  UNL     1      11.440  26.620  -4.380  1.00  0.00     0.014 A 
HETATM    2  C4  UNL     1      10.276  26.081  -4.913  1.00  0.00    -0.041 A 
HETATM    3  C10 UNL     1      10.284  25.587  -6.194  1.00  0.00     0.047 A 
HETATM    4  C11 UNL     1      11.433  25.624  -6.952  1.00  0.00     0.089 A 
HETATM    5  N1  UNL     1      12.538  26.153  -6.404  1.00  0.00    -0.335 N 
ATOM      6  H1  UNL     1      13.391  26.182  -6.962  1.00  0.00     0.168 HD
HETATM    7  C15 UNL     1      12.574  26.646  -5.156  1.00  0.00     0.119 A 
HETATM    8  N2  UNL     1      13.693  27.115  -4.709  1.00  0.00    -0.312 N 
ATOM      9  H2  UNL     1      13.765  27.481  -3.760  1.00  0.00     0.170 HD
HETATM   10  C16 UNL     1      14.816  27.107  -5.572  1.00  0.00     0.224 C 
HETATM   11  O3  UNL     1      15.077  28.124  -6.268  1.00  0.00    -0.273 OA
ENDROOT
BRANCH   1  12
HETATM   12  C2  UNL     1      11.422  27.119  -2.990  1.00  0.00     0.005 C 
HETATM   13  C1  UNL     1      11.827  26.526  -1.925  1.00  0.00     0.012 C 
ENDBRANCH   1  12
BRANCH   2  14
HETATM   14  C5  UNL     1       9.008  26.053  -4.103  1.00  0.00     0.040 C 
BRANCH  14  15
HETATM   15  C6  UNL     1       8.752  24.651  -3.642  1.00  0.00     0.005 C 
BRANCH  15  16
HETATM   16  C7  UNL     1       8.567  24.627  -2.155  1.00  0.00    -0.000 C 
BRANCH  16  17
HETATM   17  C8  UNL     1       8.164  25.986  -1.666  1.00  0.00    -0.005 C 
HETATM   18  C9  UNL     1       8.514  26.015  -0.174  1.00  0.00     0.005 C 
ENDBRANCH  16  17
ENDBRANCH  15  16
ENDBRANCH  14  15
ENDBRANCH   2  14
BRANCH   4  19
HETATM   19  C12 UNL     1      11.449  25.112  -8.290  1.00  0.00    -0.037 C 
BRANCH  19  20
HETATM   20  C13 UNL     1      11.445  24.689  -9.419  1.00  0.00     0.012 C 
BRANCH  20  21
HETATM   21  C14 UNL     1      11.429  24.165 -10.761  1.00  0.00     0.258 C 
HETATM   22  O1  UNL     1      10.380  24.213 -11.450  1.00  0.00    -0.637 OA
HETATM   23  O2  UNL     1      12.589  23.593 -11.315  1.00  0.00    -0.637 OA
ENDBRANCH  20  21
ENDBRANCH  19  20
ENDBRANCH   4  19
BRANCH  10  24
HETATM   24  C17 UNL     1      15.668  25.928  -5.658  1.00  0.00     0.112 C 
BRANCH  24  25
HETATM   25  C18 UNL     1      16.246  25.605  -4.303  1.00  0.00    -0.031 C 
HETATM   26  C19 UNL     1      16.542  26.856  -3.532  1.00  0.00     0.014 C 
HETATM   27  C20 UNL     1      17.235  26.489  -2.218  1.00  0.00    -0.013 C 
HETATM   28  C21 UNL     1      18.516  25.790  -2.532  1.00  0.00     0.009 C 
HETATM   29  C25 UNL     1      16.255  25.635  -1.450  1.00  0.00     0.009 C 
HETATM   30  C22 UNL     1      18.202  24.520  -3.295  1.00  0.00    -0.013 C 
HETATM   31  C23 UNL     1      17.292  23.668  -2.474  1.00  0.00     0.009 C 
HETATM   32  C27 UNL     1      17.562  24.882  -4.590  1.00  0.00     0.014 C 
HETATM   33  C24 UNL     1      15.977  24.357  -2.211  1.00  0.00    -0.013 C 
HETATM   34  C26 UNL     1      15.343  24.675  -3.548  1.00  0.00     0.014 C 
ENDBRANCH  24  25
ENDBRANCH  10  24
TORSDOF 10
ENDMDL
MODEL 2
REMARK VINA RESULT: -6.411404658      4.460      8.421
REMARK  10 active torsions:
REMARK  status: ('A' for Active; 'I' for Inactive)
REMARK    1  A    between atoms: C2_2  and  C3_3 
REMARK    2  A    between atoms: C4_4  and  C5_5 
REMARK    3  A    between atoms: C5_5  and  C6_6 
REMARK    4  A    between atoms: C6_6  and  C7_7 
REMARK    5  A    between atoms: C7_7  and  C8_8 
REMARK    6  A    between atoms: C11_11  and  C12_12 
REMARK    7  A    between atoms: C12_12  and  C13_13 
REMARK    8  A    between atoms: C13_13  and  C14_14 
REMARK       I    between atoms: N2_20  and  C16_22 
REMARK    9  A    between atoms: C16_22  and  C17_24 
REMARK   10  A    between atoms: C17_24  and  C18_25 
ROOT
HETATM    1  C3  UNL     1      17.730  23.152  -2.396  1.00  0.00     0.014 A 
HETATM    2  C4  UNL     1      19.047  23.186  -1.952  1.00  0.00    -0.041 A 
HETATM    3  C10 UNL     1      19.772  24.346  -2.074  1.00  0.00     0.047 A 
HETATM    4  C11 UNL     1      19.206  25.470  -2.632  1.00  0.00     0.089 A 
HETATM    5  N1  UNL     1      17.932  25.399  -3.050  1.00  0.00    -0.335 N 
ATOM      6  H1  UNL     1      17.509  26.231  -3.463  1.00  0.00     0.168 HD
HETATM    7  C15 UNL     1      17.188  24.287  -2.949  1.00  0.00     0.119 A 
HETATM    8  N2  UNL     1      15.963  24.325  -3.360  1.00  0.00    -0.312 N 
ATOM      9  H2  UNL     1      15.360  23.505  -3.283  1.00  0.00     0.170 HD
HETATM   10  C16 UNL     1      15.479  25.533  -3.920  1.00  0.00     0.224 C 
HETATM   11  O3  UNL     1      15.529  25.707  -5.166  1.00  0.00    -0.273 OA
ENDROOT
BRANCH   1  12
HETATM   12  C2  UNL     1      16.955  21.906  -2.229  1.00  0.00     0.005 C 
HETATM   13  C1  UNL     1      15.980  21.675  -1.425  1.00  0.00     0.012 C 
ENDBRANCH   1  12
BRANCH   2  14
HETATM   14  C5  UNL     1      19.683  21.958  -1.360  1.00  0.00     0.040 C 
BRANCH  14  15
HETATM   15  C6  UNL     1      19.936  22.193   0.097  1.00  0.00     0.005 C 
BRANCH  15  16
HETATM   16  C7  UNL     1      18.892  21.496   0.917  1.00  0.00    -0.000 C 
BRANCH  16  17
HETATM   17  C8  UNL     1      18.025  22.504   1.610  1.00  0.00    -0.005 C 
HETATM   18  C9  UNL     1      16.746  21.758   2.003  1.00  0.00     0.005 C 
ENDBRANCH  16  17
ENDBRANCH  15  16
ENDBRANCH  14  15
ENDBRANCH   2  14
BRANCH   4  19
HETATM   19  C12 UNL     1      19.956  26.683  -2.764  1.00  0.00    -0.037 C 
BRANCH  19  20
HETATM   20  C13 UNL     1      20.578  27.708  -2.892  1.00  0.00     0.012 C 
BRANCH  20  21
HETATM   21  C14 UNL     1      21.318  28.932  -3.069  1.00  0.00     0.258 C 
HETATM   22  O1  UNL     1      21.315  29.522  -4.178  1.00  0.00    -0.637 OA
HETATM   23  O2  UNL     1      22.052  29.481  -2.001  1.00  0.00    -0.637 OA
ENDBRANCH  20  21
ENDBRANCH  19  20
ENDBRANCH   4  19
BRANCH  10  24
HETATM   24  C17 UNL     1      14.927  26.571  -3.059  1.00  0.00     0.112 C 
BRANCH  24  25
HETATM   25  C18 UNL     1      15.137  27.928  -3.682  1.00  0.00    -0.031 C 
HETATM   26  C19 UNL     1      16.528  28.064  -4.222  1.00  0.00     0.014 C 
HETATM   27  C20 UNL     1      16.735  29.490  -4.735  1.00  0.00    -0.013 C 
HETATM   28  C21 UNL     1      16.554  30.439  -3.597  1.00  0.00     0.009 C 
HETATM   29  C25 UNL     1      15.736  29.687  -5.847  1.00  0.00     0.009 C 
HETATM   30  C22 UNL     1      15.140  30.304  -3.073  1.00  0.00    -0.013 C 
HETATM   31  C23 UNL     1      14.179  30.579  -4.181  1.00  0.00     0.009 C 
HETATM   32  C27 UNL     1      14.953  28.927  -2.539  1.00  0.00     0.014 C 
HETATM   33  C24 UNL     1      14.328  29.581  -5.302  1.00  0.00    -0.013 C 
HETATM   34  C26 UNL     1      14.096  28.200  -4.727  1.00  0.00     0.014 C 
ENDBRANCH  24  25
ENDBRANCH  10  24
TORSDOF 10
ENDMDL
MODEL 3
REMARK VINA RESULT: -6.401043794      6.616      9.495
REMARK  10 active torsions:
REMARK  status: ('A' for Active; 'I' for Inactive)
REMARK    1  A    between atoms: C2_2  and  C3_3 
REMARK    2  A    between atoms: C4_4  and  C5_5 
REMARK    3  A    between atoms: C5_5  and  C6_6 
REMARK    4  A    between atoms: C6_6  and  C7_7 
REMARK    5  A    between atoms: C7_7  and  C8_8 
REMARK    6  A    between atoms: C11_11  and  C12_12 
REMARK    7  A    between atoms: C12_12  and  C13_13 
REMARK    8  A    between atoms: C13_13  and  C14_14 
REMARK       I    between atoms: N2_20  and  C16_22 
REMARK    9  A    between atoms: C16_22  and  C17_24 
REMARK   10  A    between atoms: C17_24  and  C18_25 
ROOT
HETATM    1  C3  UNL     1      19.791  26.785  -3.707  1.00  0.00     0.014 A 
HETATM    2  C4  UNL     1      18.462  26.441  -3.495  1.00  0.00    -0.041 A 
HETATM    3  C10 UNL     1      17.503  27.424  -3.473  1.00  0.00     0.047 A 
HETATM    4  C11 UNL     1      17.849  28.744  -3.656  1.00  0.00     0.089 A 
HETATM    5  N1  UNL     1      19.144  29.039  -3.857  1.00  0.00    -0.335 N 
ATOM      6  H1  UNL     1      19.404  30.016  -3.993  1.00  0.00     0.168 HD
HETATM    7  C15 UNL     1      20.111  28.110  -3.887  1.00  0.00     0.119 A 
HETATM    8  N2  UNL     1      21.327  28.492  -4.110  1.00  0.00    -0.312 N 
ATOM      9  H2  UNL     1      22.087  27.813  -4.159  1.00  0.00     0.170 HD
HETATM   10  C16 UNL     1      21.574  29.875  -4.283  1.00  0.00     0.224 C 
HETATM   11  O3  UNL     1      21.912  30.578  -3.294  1.00  0.00    -0.273 OA
ENDROOT
BRANCH   1  12
HETATM   12  C2  UNL     1      20.805  25.713  -3.759  1.00  0.00     0.005 C 
HETATM   13  C1  UNL     1      21.688  25.407  -2.877  1.00  0.00     0.012 C 
ENDBRANCH   1  12
BRANCH   2  14
HETATM   14  C5  UNL     1      18.074  25.004  -3.274  1.00  0.00     0.040 C 
BRANCH  14  15
HETATM   15  C6  UNL     1      17.535  24.852  -1.885  1.00  0.00     0.005 C 
BRANCH  15  16
HETATM   16  C7  UNL     1      17.714  23.438  -1.419  1.00  0.00    -0.000 C 
BRANCH  16  17
HETATM   17  C8  UNL     1      19.092  22.955  -1.760  1.00  0.00    -0.005 C 
HETATM   18  C9  UNL     1      19.496  22.006  -0.627  1.00  0.00     0.005 C 
ENDBRANCH  16  17
ENDBRANCH  15  16
ENDBRANCH  14  15
ENDBRANCH   2  14
BRANCH   4  19
HETATM   19  C12 UNL     1      16.856  29.775  -3.632  1.00  0.00    -0.037 C 
BRANCH  19  20
HETATM   20  C13 UNL     1      16.031  30.654  -3.600  1.00  0.00     0.012 C 
BRANCH  20  21
HETATM   21  C14 UNL     1      15.063  31.720  -3.569  1.00  0.00     0.258 C 
HETATM   22  O1  UNL     1      14.067  31.654  -2.806  1.00  0.00    -0.637 OA
HETATM   23  O2  UNL     1      15.221  32.850  -4.394  1.00  0.00    -0.637 OA
ENDBRANCH  20  21
ENDBRANCH  19  20
ENDBRANCH   4  19
BRANCH  10  24
HETATM   24  C17 UNL     1      21.440  30.486  -5.599  1.00  0.00     0.112 C 
BRANCH  24  25
HETATM   25  C18 UNL     1      22.758  30.439  -6.331  1.00  0.00    -0.031 C 
HETATM   26  C19 UNL     1      23.896  30.766  -5.413  1.00  0.00     0.014 C 
HETATM   27  C20 UNL     1      25.195  30.825  -6.218  1.00  0.00    -0.013 C 
HETATM   28  C21 UNL     1      25.071  31.896  -7.250  1.00  0.00     0.009 C 
HETATM   29  C25 UNL     1      25.391  29.447  -6.801  1.00  0.00     0.009 C 
HETATM   30  C22 UNL     1      23.930  31.544  -8.180  1.00  0.00    -0.013 C 
HETATM   31  C23 UNL     1      24.194  30.210  -8.796  1.00  0.00     0.009 C 
HETATM   32  C27 UNL     1      22.661  31.525  -7.402  1.00  0.00     0.014 C 
HETATM   33  C24 UNL     1      24.260  29.123  -7.752  1.00  0.00    -0.013 C 
HETATM   34  C26 UNL     1      22.942  29.113  -7.009  1.00  0.00     0.014 C 
ENDBRANCH  24  25
ENDBRANCH  10  24
TORSDOF 10
ENDMDL
MODEL 4
REMARK VINA RESULT: -6.299730462      3.154      8.507
REMARK  10 active torsions:
REMARK  status: ('A' for Active; 'I' for Inactive)
REMARK    1  A    between atoms: C2_2  and  C3_3 
REMARK    2  A    between atoms: C4_4  and  C5_5 
REMARK    3  A    between atoms: C5_5  and  C6_6 
REMARK    4  A    between atoms: C6_6  and  C7_7 
REMARK    5  A    between atoms: C7_7  and  C8_8 
REMARK    6  A    between atoms: C11_11  and  C12_12 
REMARK    7  A    between atoms: C12_12  and  C13_13 
REMARK    8  A    between atoms: C13_13  and  C14_14 
REMARK       I    between atoms: N2_20  and  C16_22 
REMARK    9  A    between atoms: C16_22  and  C17_24 
REMARK   10  A    between atoms: C17_24  and  C18_25 
ROOT
HETATM    1  C3  UNL     1      17.764  23.151  -2.446  1.00  0.00     0.014 A 
HETATM    2  C4  UNL     1      19.047  23.212  -1.917  1.00  0.00    -0.041 A 
HETATM    3  C10 UNL     1      19.778  24.368  -2.047  1.00  0.00     0.047 A 
HETATM    4  C11 UNL     1      19.250  25.461  -2.696  1.00  0.00     0.089 A 
HETATM    5  N1  UNL     1      18.007  25.365  -3.195  1.00  0.00    -0.335 N 
ATOM      6  H1  UNL     1      17.613  26.172  -3.676  1.00  0.00     0.168 HD
HETATM    7  C15 UNL     1      17.259  24.255  -3.089  1.00  0.00     0.119 A 
HETATM    8  N2  UNL     1      16.064  24.268  -3.583  1.00  0.00    -0.312 N 
ATOM      9  H2  UNL     1      15.458  23.450  -3.506  1.00  0.00     0.170 HD
HETATM   10  C16 UNL     1      15.619  25.445  -4.233  1.00  0.00     0.224 C 
HETATM   11  O3  UNL     1      15.752  25.558  -5.480  1.00  0.00    -0.273 OA
ENDROOT
BRANCH   1  12
HETATM   12  C2  UNL     1      16.981  21.911  -2.271  1.00  0.00     0.005 C 
HETATM   13  C1  UNL     1      15.994  21.697  -1.476  1.00  0.00     0.012 C 
ENDBRANCH   1  12
BRANCH   2  14
HETATM   14  C5  UNL     1      19.644  22.018  -1.223  1.00  0.00     0.040 C 
BRANCH  14  15
HETATM   15  C6  UNL     1      19.804  22.327   0.233  1.00  0.00     0.005 C 
BRANCH  15  16
HETATM   16  C7  UNL     1      18.764  21.596   1.028  1.00  0.00    -0.000 C 
BRANCH  16  17
HETATM   17  C8  UNL     1      17.848  22.576   1.698  1.00  0.00    -0.005 C 
HETATM   18  C9  UNL     1      16.600  21.780   2.094  1.00  0.00     0.005 C 
ENDBRANCH  16  17
ENDBRANCH  15  16
ENDBRANCH  14  15
ENDBRANCH   2  14
BRANCH   4  19
HETATM   19  C12 UNL     1      20.006  26.669  -2.837  1.00  0.00    -0.037 C 
BRANCH  19  20
HETATM   20  C13 UNL     1      20.626  27.697  -2.956  1.00  0.00     0.012 C 
BRANCH  20  21
HETATM   21  C14 UNL     1      21.350  28.936  -3.082  1.00  0.00     0.258 C 
HETATM   22  O1  UNL     1      21.365  29.556  -4.175  1.00  0.00    -0.637 OA
HETATM   23  O2  UNL     1      22.050  29.467  -1.983  1.00  0.00    -0.637 OA
ENDBRANCH  20  21
ENDBRANCH  19  20
ENDBRANCH   4  19
BRANCH  10  24
HETATM   24  C17 UNL     1      15.009  26.521  -3.464  1.00  0.00     0.112 C 
BRANCH  24  25
HETATM   25  C18 UNL     1      13.548  26.650  -3.817  1.00  0.00    -0.031 C 
HETATM   26  C19 UNL     1      13.308  27.842  -4.693  1.00  0.00     0.014 C 
HETATM   27  C20 UNL     1      11.806  28.003  -4.928  1.00  0.00    -0.013 C 
HETATM   28  C21 UNL     1      11.135  28.217  -3.612  1.00  0.00     0.009 C 
HETATM   29  C25 UNL     1      11.354  26.751  -5.638  1.00  0.00     0.009 C 
HETATM   30  C22 UNL     1      11.370  26.999  -2.744  1.00  0.00    -0.013 C 
HETATM   31  C23 UNL     1      10.843  25.791  -3.443  1.00  0.00     0.009 C 
HETATM   32  C27 UNL     1      12.830  26.866  -2.484  1.00  0.00     0.014 C 
HETATM   33  C24 UNL     1      11.566  25.547  -4.745  1.00  0.00    -0.013 C 
HETATM   34  C26 UNL     1      13.038  25.382  -4.435  1.00  0.00     0.014 C 
ENDBRANCH  24  25
ENDBRANCH  10  24
TORSDOF 10
ENDMDL
MODEL 5
REMARK VINA RESULT: -6.271489782      6.639      9.507
REMARK  10 active torsions:
REMARK  status: ('A' for Active; 'I' for Inactive)
REMARK    1  A    between atoms: C2_2  and  C3_3 
REMARK    2  A    between atoms: C4_4  and  C5_5 
REMARK    3  A    between atoms: C5_5  and  C6_6 
REMARK    4  A    between atoms: C6_6  and  C7_7 
REMARK    5  A    between atoms: C7_7  and  C8_8 
REMARK    6  A    between atoms: C11_11  and  C12_12 
REMARK    7  A    between atoms: C12_12  and  C13_13 
REMARK    8  A    between atoms: C13_13  and  C14_14 
REMARK       I    between atoms: N2_20  and  C16_22 
REMARK    9  A    between atoms: C16_22  and  C17_24 
REMARK   10  A    between atoms: C17_24  and  C18_25 
ROOT
HETATM    1  C3  UNL     1      19.820  26.798  -3.745  1.00  0.00     0.014 A 
HETATM    2  C4  UNL     1      18.492  26.468  -3.506  1.00  0.00    -0.041 A 
HETATM    3  C10 UNL     1      17.541  27.459  -3.485  1.00  0.00     0.047 A 
HETATM    4  C11 UNL     1      17.895  28.773  -3.697  1.00  0.00     0.089 A 
HETATM    5  N1  UNL     1      19.188  29.054  -3.924  1.00  0.00    -0.335 N 
ATOM      6  H1  UNL     1      19.454  30.026  -4.082  1.00  0.00     0.168 HD
HETATM    7  C15 UNL     1      20.148  28.116  -3.954  1.00  0.00     0.119 A 
HETATM    8  N2  UNL     1      21.362  28.484  -4.203  1.00  0.00    -0.312 N 
ATOM      9  H2  UNL     1      22.116  27.798  -4.252  1.00  0.00     0.170 HD
HETATM   10  C16 UNL     1      21.618  29.862  -4.404  1.00  0.00     0.224 C 
HETATM   11  O3  UNL     1      21.977  30.579  -3.434  1.00  0.00    -0.273 OA
ENDROOT
BRANCH   1  12
HETATM   12  C2  UNL     1      20.824  25.716  -3.795  1.00  0.00     0.005 C 
HETATM   13  C1  UNL     1      21.665  25.366  -2.888  1.00  0.00     0.012 C 
ENDBRANCH   1  12
BRANCH   2  14
HETATM   14  C5  UNL     1      18.095  25.039  -3.252  1.00  0.00     0.040 C 
BRANCH  14  15
HETATM   15  C6  UNL     1      17.568  24.917  -1.856  1.00  0.00     0.005 C 
BRANCH  15  16
HETATM   16  C7  UNL     1      17.668  23.495  -1.393  1.00  0.00    -0.000 C 
BRANCH  16  17
HETATM   17  C8  UNL     1      18.993  22.918  -1.792  1.00  0.00    -0.005 C 
HETATM   18  C9  UNL     1      19.415  22.002  -0.639  1.00  0.00     0.005 C 
ENDBRANCH  16  17
ENDBRANCH  15  16
ENDBRANCH  14  15
ENDBRANCH   2  14
BRANCH   4  19
HETATM   19  C12 UNL     1      16.910  29.812  -3.675  1.00  0.00    -0.037 C 
BRANCH  19  20
HETATM   20  C13 UNL     1      16.093  30.699  -3.645  1.00  0.00     0.012 C 
BRANCH  20  21
HETATM   21  C14 UNL     1      15.111  31.752  -3.631  1.00  0.00     0.258 C 
HETATM   22  O1  UNL     1      14.105  31.675  -2.883  1.00  0.00    -0.637 OA
HETATM   23  O2  UNL     1      15.267  32.882  -4.457  1.00  0.00    -0.637 OA
ENDBRANCH  20  21
ENDBRANCH  19  20
ENDBRANCH   4  19
BRANCH  10  24
HETATM   24  C17 UNL     1      21.467  30.450  -5.729  1.00  0.00     0.112 C 
BRANCH  24  25
HETATM   25  C18 UNL     1      22.798  30.485  -6.437  1.00  0.00    -0.031 C 
HETATM   26  C19 UNL     1      22.794  31.495  -7.543  1.00  0.00     0.014 C 
HETATM   27  C20 UNL     1      24.116  31.414  -8.309  1.00  0.00    -0.013 C 
HETATM   28  C21 UNL     1      24.248  30.046  -8.892  1.00  0.00     0.009 C 
HETATM   29  C25 UNL     1      25.199  31.752  -7.315  1.00  0.00     0.009 C 
HETATM   30  C22 UNL     1      24.269  29.038  -7.764  1.00  0.00    -0.013 C 
HETATM   31  C23 UNL     1      25.398  29.357  -6.841  1.00  0.00     0.009 C 
HETATM   32  C27 UNL     1      22.967  29.092  -7.044  1.00  0.00     0.014 C 
HETATM   33  C24 UNL     1      25.228  30.717  -6.211  1.00  0.00    -0.013 C 
HETATM   34  C26 UNL     1      23.913  30.720  -5.461  1.00  0.00     0.014 C 
ENDBRANCH  24  25
ENDBRANCH  10  24
TORSDOF 10
ENDMDL
