MODEL 1
REMARK VINA RESULT: -9.961565198      0.000      0.000
REMARK  15 active torsions:
REMARK  status: ('A' for Active; 'I' for Inactive)
REMARK    1  A    between atoms: N1_1  and  C1_5 
REMARK    2  A    between atoms: C2_9  and  O1_10 
REMARK    3  A    between atoms: O1_10  and  C3_11 
REMARK    4  A    between atoms: C4_12  and  O2_13 
REMARK    5  A    between atoms: C5_18  and  N6_19 
REMARK       I    between atoms: N6_19  and  C6_21 
REMARK    6  A    between atoms: C6_21  and  C7_23 
REMARK    7  A    between atoms: C7_23  and  N7_24 
REMARK    8  A    between atoms: C8_29  and  C9_30 
REMARK    9  A    between atoms: C9_30  and  N10_31 
REMARK       I    between atoms: N10_31  and  C10_32 
REMARK   10  A    between atoms: C10_32  and  C11_34 
REMARK   11  A    between atoms: C11_34  and  C12_35 
REMARK   12  A    between atoms: C11_34  and  C19_44 
REMARK   13  A    between atoms: C12_35  and  C13_36 
REMARK   14  A    between atoms: C18_41  and  O6_42 
REMARK   15  A    between atoms: N14_51  and  O7_52 
ROOT
HETATM    1  N7  UNL     1      59.959  12.384  31.694  1.00  0.00    -0.209 N 
HETATM    2  N8  UNL     1      59.179  13.380  31.932  1.00  0.00    -0.224 N 
ATOM      3  H8  UNL     1      59.376  14.181  32.531  1.00  0.00     0.210 HD
HETATM    4  N9  UNL     1      58.064  13.157  31.239  1.00  0.00    -0.267 N 
ATOM      5  H9  UNL     1      57.252  13.773  31.238  1.00  0.00     0.190 HD
HETATM    6  C8  UNL     1      58.147  12.046  30.561  1.00  0.00     0.166 A 
HETATM    7  N15 UNL     1      59.416  11.484  30.818  1.00  0.00    -0.264 N 
ATOM      8  H15 UNL     1      59.824  10.626  30.445  1.00  0.00     0.190 HD
ENDROOT
BRANCH   6   9
HETATM    9  C9  UNL     1      57.020  11.405  29.824  1.00  0.00     0.237 C 
BRANCH   9  10
HETATM   10  N10 UNL     1      56.126  10.974  30.737  1.00  0.00    -0.379 NA
HETATM   11  C10 UNL     1      55.361  10.310  31.737  1.00  0.00     0.306 C 
HETATM   12  O5  UNL     1      55.006   9.621  32.438  1.00  0.00    -0.256 OA
BRANCH  11  13
HETATM   13  C11 UNL     1      54.315  11.728  31.766  1.00  0.00     0.190 C 
BRANCH  13  14
HETATM   14  C12 UNL     1      54.205  12.156  33.098  1.00  0.00     0.010 C 
BRANCH  14  15
HETATM   15  C13 UNL     1      53.340  13.357  33.328  1.00  0.00    -0.005 A 
HETATM   16  C14 UNL     1      53.366  14.363  32.544  1.00  0.00     0.014 A 
HETATM   17  C15 UNL     1      52.749  15.683  32.972  1.00  0.00     0.001 A 
HETATM   18  C16 UNL     1      52.228  15.663  34.236  1.00  0.00     0.003 A 
HETATM   19  C17 UNL     1      52.198  14.560  35.114  1.00  0.00     0.037 A 
HETATM   20  C18 UNL     1      52.740  13.427  34.638  1.00  0.00     0.075 A 
BRANCH  20  21
HETATM   21  O6  UNL     1      52.698  12.306  35.529  1.00  0.00    -0.360 OA
ATOM     22  H6  UNL     1      53.416  12.087  36.111  1.00  0.00     0.217 HD
ENDBRANCH  20  21
ENDBRANCH  14  15
ENDBRANCH  13  14
BRANCH  13  23
HETATM   23  C19 UNL     1      53.194  11.220  30.898  1.00  0.00     0.163 A 
HETATM   24  N11 UNL     1      51.834  11.159  31.453  1.00  0.00    -0.269 N 
HETATM   25  N12 UNL     1      51.107  10.607  30.561  1.00  0.00    -0.225 N 
ATOM     26  H11 UNL     1      51.532  11.491  32.369  1.00  0.00     0.190 HD
HETATM   27  N13 UNL     1      51.818  10.379  29.506  1.00  0.00    -0.200 N 
ATOM     28  H12 UNL     1      50.118  10.380  30.664  1.00  0.00     0.210 HD
HETATM   29  N14 UNL     1      53.129  10.774  29.728  1.00  0.00    -0.132 N 
ATOM     30  H13 UNL     1      51.467   9.970  28.639  1.00  0.00     0.212 HD
BRANCH  29  31
HETATM   31  O7  UNL     1      54.133  10.693  28.751  1.00  0.00    -0.265 OA
ATOM     32  H7  UNL     1      54.167  10.159  27.966  1.00  0.00     0.247 HD
ENDBRANCH  29  31
ENDBRANCH  13  23
ENDBRANCH  11  13
ENDBRANCH   9  10
ENDBRANCH   6   9
BRANCH   1  33
HETATM   33  C7  UNL     1      61.265  12.153  32.358  1.00  0.00     0.274 C 
BRANCH  33  34
HETATM   34  C6  UNL     1      62.320  13.156  32.113  1.00  0.00     0.244 C 
HETATM   35  N6  UNL     1      62.591  13.264  30.650  1.00  0.00    -0.308 N 
ATOM     36  H6  UNL     1      62.560  12.418  30.080  1.00  0.00     0.170 HD
HETATM   37  O4  UNL     1      63.007  13.827  32.794  1.00  0.00    -0.271 OA
BRANCH  35  38
HETATM   38  C5  UNL     1      62.855  14.349  30.099  1.00  0.00     0.167 A 
HETATM   39  C3  UNL     1      62.210  15.095  29.112  1.00  0.00     0.177 A 
HETATM   40  C4  UNL     1      62.953  16.389  29.131  1.00  0.00     0.242 A 
HETATM   41  O3  UNL     1      63.870  16.133  30.080  1.00  0.00    -0.208 OA
HETATM   42  N5  UNL     1      63.943  15.199  30.584  1.00  0.00    -0.239 N 
ATOM     43  H5  UNL     1      64.644  14.943  31.279  1.00  0.00     0.196 HD
BRANCH  39  44
HETATM   44  O1  UNL     1      61.273  15.040  28.211  1.00  0.00    -0.316 OA
BRANCH  44  45
HETATM   45  C2  UNL     1      59.952  15.269  28.076  1.00  0.00     0.286 C 
HETATM   46  C1  UNL     1      59.262  16.465  27.483  1.00  0.00     0.339 C 
HETATM   47  N2  UNL     1      57.932  16.370  28.069  1.00  0.00    -0.092 NA
HETATM   48  N3  UNL     1      58.024  15.593  29.227  1.00  0.00    -0.035 NA
HETATM   49  N4  UNL     1      59.372  15.403  29.462  1.00  0.00    -0.094 NA
BRANCH  46  50
HETATM   50  N1  UNL     1      59.136  16.376  26.032  1.00  0.00    -0.056 N 
ATOM     51  H13 UNL     1      58.318  15.841  25.743  1.00  0.00     0.276 HD
ATOM     52  H12 UNL     1      58.878  17.266  25.607  1.00  0.00     0.276 HD
ATOM     53  H11 UNL     1      60.005  15.999  25.654  1.00  0.00     0.276 HD
ENDBRANCH  46  50
ENDBRANCH  44  45
ENDBRANCH  39  44
BRANCH  40  54
HETATM   54  O2  UNL     1      62.824  17.529  28.468  1.00  0.00    -0.337 OA
ATOM     55  H2  UNL     1      62.508  17.752  27.600  1.00  0.00     0.220 HD
ENDBRANCH  40  54
ENDBRANCH  35  38
ENDBRANCH  33  34
ENDBRANCH   1  33
TORSDOF 15
ENDMDL
MODEL 2
REMARK VINA RESULT: -9.864789466      3.569      6.367
REMARK  15 active torsions:
REMARK  status: ('A' for Active; 'I' for Inactive)
REMARK    1  A    between atoms: N1_1  and  C1_5 
REMARK    2  A    between atoms: C2_9  and  O1_10 
REMARK    3  A    between atoms: O1_10  and  C3_11 
REMARK    4  A    between atoms: C4_12  and  O2_13 
REMARK    5  A    between atoms: C5_18  and  N6_19 
REMARK       I    between atoms: N6_19  and  C6_21 
REMARK    6  A    between atoms: C6_21  and  C7_23 
REMARK    7  A    between atoms: C7_23  and  N7_24 
REMARK    8  A    between atoms: C8_29  and  C9_30 
REMARK    9  A    between atoms: C9_30  and  N10_31 
REMARK       I    between atoms: N10_31  and  C10_32 
REMARK   10  A    between atoms: C10_32  and  C11_34 
REMARK   11  A    between atoms: C11_34  and  C12_35 
REMARK   12  A    between atoms: C11_34  and  C19_44 
REMARK   13  A    between atoms: C12_35  and  C13_36 
REMARK   14  A    between atoms: C18_41  and  O6_42 
REMARK   15  A    between atoms: N14_51  and  O7_52 
ROOT
HETATM    1  N7  UNL     1      59.260  12.108  29.460  1.00  0.00    -0.209 N 
HETATM    2  N8  UNL     1      60.197  12.691  30.122  1.00  0.00    -0.224 N 
ATOM      3  H8  UNL     1      61.191  12.703  29.893  1.00  0.00     0.210 HD
HETATM    4  N9  UNL     1      59.612  13.275  31.166  1.00  0.00    -0.267 N 
ATOM      5  H9  UNL     1      60.106  13.806  31.883  1.00  0.00     0.190 HD
HETATM    6  C8  UNL     1      58.323  13.078  31.151  1.00  0.00     0.166 A 
HETATM    7  N15 UNL     1      58.022  12.306  30.010  1.00  0.00    -0.264 N 
ATOM      8  H15 UNL     1      57.115  11.978  29.678  1.00  0.00     0.190 HD
ENDROOT
BRANCH   6   9
HETATM    9  C9  UNL     1      57.389  13.436  32.258  1.00  0.00     0.237 C 
BRANCH   9  10
HETATM   10  N10 UNL     1      56.483  12.443  32.367  1.00  0.00    -0.379 NA
HETATM   11  C10 UNL     1      55.745  11.242  32.564  1.00  0.00     0.306 C 
HETATM   12  O5  UNL     1      55.468  10.252  32.752  1.00  0.00    -0.256 OA
BRANCH  11  13
HETATM   13  C11 UNL     1      54.283  12.196  32.324  1.00  0.00     0.190 C 
BRANCH  13  14
HETATM   14  C12 UNL     1      53.656  12.346  33.570  1.00  0.00     0.010 C 
BRANCH  14  15
HETATM   15  C13 UNL     1      52.890  13.619  33.766  1.00  0.00    -0.005 A 
HETATM   16  C14 UNL     1      52.928  14.564  32.910  1.00  0.00     0.014 A 
HETATM   17  C15 UNL     1      52.431  15.951  33.278  1.00  0.00     0.001 A 
HETATM   18  C16 UNL     1      51.997  16.055  34.571  1.00  0.00     0.003 A 
HETATM   19  C17 UNL     1      51.955  15.020  35.528  1.00  0.00     0.037 A 
HETATM   20  C18 UNL     1      52.387  13.821  35.103  1.00  0.00     0.075 A 
BRANCH  20  21
HETATM   21  O6  UNL     1      52.333  12.770  36.075  1.00  0.00    -0.360 OA
ATOM     22  H6  UNL     1      52.069  12.919  36.975  1.00  0.00     0.217 HD
ENDBRANCH  20  21
ENDBRANCH  14  15
ENDBRANCH  13  14
BRANCH  13  23
HETATM   23  C19 UNL     1      53.719  11.480  31.124  1.00  0.00     0.163 A 
HETATM   24  N11 UNL     1      52.362  10.921  31.200  1.00  0.00    -0.269 N 
HETATM   25  N12 UNL     1      52.172  10.290  30.106  1.00  0.00    -0.225 N 
ATOM     26  H11 UNL     1      51.703  11.019  31.972  1.00  0.00     0.190 HD
HETATM   27  N13 UNL     1      53.202  10.438  29.339  1.00  0.00    -0.200 N 
ATOM     28  H12 UNL     1      51.338   9.752  29.874  1.00  0.00     0.210 HD
HETATM   29  N14 UNL     1      54.168  11.193  29.988  1.00  0.00    -0.132 N 
ATOM     30  H13 UNL     1      53.291  10.057  28.396  1.00  0.00     0.212 HD
BRANCH  29  31
HETATM   31  O7  UNL     1      55.385  11.562  29.395  1.00  0.00    -0.265 OA
ATOM     32  H7  UNL     1      55.780  11.248  28.590  1.00  0.00     0.247 HD
ENDBRANCH  29  31
ENDBRANCH  13  23
ENDBRANCH  11  13
ENDBRANCH   9  10
ENDBRANCH   6   9
BRANCH   1  33
HETATM   33  C7  UNL     1      59.474  11.228  28.286  1.00  0.00     0.274 C 
BRANCH  33  34
HETATM   34  C6  UNL     1      58.278  10.868  27.500  1.00  0.00     0.244 C 
HETATM   35  N6  UNL     1      58.383   9.457  27.026  1.00  0.00    -0.308 N 
ATOM     36  H6  UNL     1      59.296   9.101  26.742  1.00  0.00     0.170 HD
HETATM   37  O4  UNL     1      57.318  11.442  27.134  1.00  0.00    -0.271 OA
BRANCH  35  38
HETATM   38  C5  UNL     1      57.397   8.699  26.964  1.00  0.00     0.167 A 
HETATM   39  C3  UNL     1      56.334   8.449  27.832  1.00  0.00     0.177 A 
HETATM   40  C4  UNL     1      55.411   7.621  27.003  1.00  0.00     0.242 A 
HETATM   41  O3  UNL     1      56.114   7.537  25.860  1.00  0.00    -0.208 OA
HETATM   42  N5  UNL     1      57.075   7.976  25.732  1.00  0.00    -0.239 N 
ATOM     43  H5  UNL     1      57.664   7.907  24.903  1.00  0.00     0.196 HD
BRANCH  39  44
HETATM   44  O1  UNL     1      55.918   8.641  29.050  1.00  0.00    -0.316 OA
BRANCH  44  45
HETATM   45  C2  UNL     1      55.762   7.970  30.208  1.00  0.00     0.286 C 
HETATM   46  C1  UNL     1      56.285   6.612  30.584  1.00  0.00     0.339 C 
HETATM   47  N2  UNL     1      55.400   6.238  31.679  1.00  0.00    -0.092 NA
HETATM   48  N3  UNL     1      54.230   6.994  31.566  1.00  0.00    -0.035 NA
HETATM   49  N4  UNL     1      54.298   7.637  30.346  1.00  0.00    -0.094 NA
BRANCH  46  50
HETATM   50  N1  UNL     1      57.653   6.658  31.088  1.00  0.00    -0.056 N 
ATOM     51  H13 UNL     1      58.345   6.485  30.359  1.00  0.00     0.276 HD
ATOM     52  H12 UNL     1      57.946   7.603  31.337  1.00  0.00     0.276 HD
ATOM     53  H11 UNL     1      57.733   6.006  31.868  1.00  0.00     0.276 HD
ENDBRANCH  46  50
ENDBRANCH  44  45
ENDBRANCH  39  44
BRANCH  40  54
HETATM   54  O2  UNL     1      54.218   7.087  27.216  1.00  0.00    -0.337 OA
ATOM     55  H2  UNL     1      53.531   6.764  26.645  1.00  0.00     0.220 HD
ENDBRANCH  40  54
ENDBRANCH  35  38
ENDBRANCH  33  34
ENDBRANCH   1  33
TORSDOF 15
ENDMDL
MODEL 3
REMARK VINA RESULT: -9.692420041      1.397      3.125
REMARK  15 active torsions:
REMARK  status: ('A' for Active; 'I' for Inactive)
REMARK    1  A    between atoms: N1_1  and  C1_5 
REMARK    2  A    between atoms: C2_9  and  O1_10 
REMARK    3  A    between atoms: O1_10  and  C3_11 
REMARK    4  A    between atoms: C4_12  and  O2_13 
REMARK    5  A    between atoms: C5_18  and  N6_19 
REMARK       I    between atoms: N6_19  and  C6_21 
REMARK    6  A    between atoms: C6_21  and  C7_23 
REMARK    7  A    between atoms: C7_23  and  N7_24 
REMARK    8  A    between atoms: C8_29  and  C9_30 
REMARK    9  A    between atoms: C9_30  and  N10_31 
REMARK       I    between atoms: N10_31  and  C10_32 
REMARK   10  A    between atoms: C10_32  and  C11_34 
REMARK   11  A    between atoms: C11_34  and  C12_35 
REMARK   12  A    between atoms: C11_34  and  C19_44 
REMARK   13  A    between atoms: C12_35  and  C13_36 
REMARK   14  A    between atoms: C18_41  and  O6_42 
REMARK   15  A    between atoms: N14_51  and  O7_52 
ROOT
HETATM    1  N7  UNL     1      58.567  14.180  30.361  1.00  0.00    -0.209 N 
HETATM    2  N8  UNL     1      58.155  14.082  31.576  1.00  0.00    -0.224 N 
ATOM      3  H8  UNL     1      58.232  14.790  32.307  1.00  0.00     0.210 HD
HETATM    4  N9  UNL     1      57.608  12.873  31.690  1.00  0.00    -0.267 N 
ATOM      5  H9  UNL     1      57.203  12.502  32.550  1.00  0.00     0.190 HD
HETATM    6  C8  UNL     1      57.659  12.227  30.559  1.00  0.00     0.166 A 
HETATM    7  N15 UNL     1      58.285  13.068  29.616  1.00  0.00    -0.264 N 
ATOM      8  H15 UNL     1      58.479  12.892  28.629  1.00  0.00     0.190 HD
ENDROOT
BRANCH   6   9
HETATM    9  C9  UNL     1      57.303  10.789  30.377  1.00  0.00     0.237 C 
BRANCH   9  10
HETATM   10  N10 UNL     1      56.229  10.532  31.151  1.00  0.00    -0.379 NA
HETATM   11  C10 UNL     1      55.231  10.026  32.031  1.00  0.00     0.306 C 
HETATM   12  O5  UNL     1      54.671   9.423  32.674  1.00  0.00    -0.256 OA
BRANCH  11  13
HETATM   13  C11 UNL     1      54.436  11.594  31.901  1.00  0.00     0.190 C 
BRANCH  13  14
HETATM   14  C12 UNL     1      54.338  12.136  33.192  1.00  0.00     0.010 C 
BRANCH  14  15
HETATM   15  C13 UNL     1      53.436  13.323  33.334  1.00  0.00    -0.005 A 
HETATM   16  C14 UNL     1      53.486  14.306  32.521  1.00  0.00     0.014 A 
HETATM   17  C15 UNL     1      52.819  15.624  32.871  1.00  0.00     0.001 A 
HETATM   18  C16 UNL     1      52.225  15.630  34.103  1.00  0.00     0.003 A 
HETATM   19  C17 UNL     1      52.168  14.554  35.013  1.00  0.00     0.037 A 
HETATM   20  C18 UNL     1      52.760  13.420  34.604  1.00  0.00     0.075 A 
BRANCH  20  21
HETATM   21  O6  UNL     1      52.690  12.326  35.527  1.00  0.00    -0.360 OA
ATOM     22  H6  UNL     1      53.463  11.921  35.901  1.00  0.00     0.217 HD
ENDBRANCH  20  21
ENDBRANCH  14  15
ENDBRANCH  13  14
BRANCH  13  23
HETATM   23  C19 UNL     1      53.287  11.210  31.006  1.00  0.00     0.163 A 
HETATM   24  N11 UNL     1      51.927  11.182  31.565  1.00  0.00    -0.269 N 
HETATM   25  N12 UNL     1      51.169  10.735  30.640  1.00  0.00    -0.225 N 
ATOM     26  H11 UNL     1      51.646  11.464  32.504  1.00  0.00     0.190 HD
HETATM   27  N13 UNL     1      51.864  10.546  29.566  1.00  0.00    -0.200 N 
ATOM     28  H12 UNL     1      50.170  10.554  30.733  1.00  0.00     0.210 HD
HETATM   29  N14 UNL     1      53.195  10.853  29.807  1.00  0.00    -0.132 N 
ATOM     30  H13 UNL     1      51.489  10.219  28.675  1.00  0.00     0.212 HD
BRANCH  29  31
HETATM   31  O7  UNL     1      54.191  10.789  28.821  1.00  0.00    -0.265 OA
ATOM     32  H7  UNL     1      54.198  10.303  28.005  1.00  0.00     0.247 HD
ENDBRANCH  29  31
ENDBRANCH  13  23
ENDBRANCH  11  13
ENDBRANCH   9  10
ENDBRANCH   6   9
BRANCH   1  33
HETATM   33  C7  UNL     1      59.354  15.316  29.823  1.00  0.00     0.274 C 
BRANCH  33  34
HETATM   34  C6  UNL     1      60.644  14.987  29.185  1.00  0.00     0.244 C 
HETATM   35  N6  UNL     1      61.681  15.981  29.588  1.00  0.00    -0.308 N 
ATOM     36  H6  UNL     1      61.409  16.959  29.695  1.00  0.00     0.170 HD
HETATM   37  O4  UNL     1      61.010  14.173  28.418  1.00  0.00    -0.271 OA
BRANCH  35  38
HETATM   38  C5  UNL     1      62.867  15.661  29.797  1.00  0.00     0.167 A 
HETATM   39  C3  UNL     1      63.466  14.755  30.671  1.00  0.00     0.177 A 
HETATM   40  C4  UNL     1      64.881  14.718  30.198  1.00  0.00     0.242 A 
HETATM   41  O3  UNL     1      64.826  15.605  29.189  1.00  0.00    -0.208 OA
HETATM   42  N5  UNL     1      63.943  16.135  28.925  1.00  0.00    -0.239 N 
ATOM     43  H5  UNL     1      63.861  16.846  28.198  1.00  0.00     0.196 HD
BRANCH  39  44
HETATM   44  O1  UNL     1      63.242  14.011  31.715  1.00  0.00    -0.316 OA
BRANCH  44  45
HETATM   45  C2  UNL     1      62.653  12.845  32.047  1.00  0.00     0.286 C 
HETATM   46  C1  UNL     1      61.275  12.356  31.698  1.00  0.00     0.339 C 
HETATM   47  N2  UNL     1      61.046  11.342  32.719  1.00  0.00    -0.092 NA
HETATM   48  N3  UNL     1      61.898  11.609  33.793  1.00  0.00    -0.035 NA
HETATM   49  N4  UNL     1      62.464  12.844  33.544  1.00  0.00    -0.094 NA
BRANCH  46  50
HETATM   50  N1  UNL     1      61.224  11.716  30.388  1.00  0.00    -0.056 N 
ATOM     51  H13 UNL     1      62.143  11.417  30.063  1.00  0.00     0.276 HD
ATOM     52  H12 UNL     1      60.781  10.798  30.419  1.00  0.00     0.276 HD
ATOM     53  H11 UNL     1      60.765  12.351  29.735  1.00  0.00     0.276 HD
ENDBRANCH  46  50
ENDBRANCH  44  45
ENDBRANCH  39  44
BRANCH  40  54
HETATM   54  O2  UNL     1      65.954  14.039  30.572  1.00  0.00    -0.337 OA
ATOM     55  H2  UNL     1      66.799  13.870  30.170  1.00  0.00     0.220 HD
ENDBRANCH  40  54
ENDBRANCH  35  38
ENDBRANCH  33  34
ENDBRANCH   1  33
TORSDOF 15
ENDMDL
MODEL 4
REMARK VINA RESULT: -9.482854968      1.612      2.855
REMARK  15 active torsions:
REMARK  status: ('A' for Active; 'I' for Inactive)
REMARK    1  A    between atoms: N1_1  and  C1_5 
REMARK    2  A    between atoms: C2_9  and  O1_10 
REMARK    3  A    between atoms: O1_10  and  C3_11 
REMARK    4  A    between atoms: C4_12  and  O2_13 
REMARK    5  A    between atoms: C5_18  and  N6_19 
REMARK       I    between atoms: N6_19  and  C6_21 
REMARK    6  A    between atoms: C6_21  and  C7_23 
REMARK    7  A    between atoms: C7_23  and  N7_24 
REMARK    8  A    between atoms: C8_29  and  C9_30 
REMARK    9  A    between atoms: C9_30  and  N10_31 
REMARK       I    between atoms: N10_31  and  C10_32 
REMARK   10  A    between atoms: C10_32  and  C11_34 
REMARK   11  A    between atoms: C11_34  and  C12_35 
REMARK   12  A    between atoms: C11_34  and  C19_44 
REMARK   13  A    between atoms: C12_35  and  C13_36 
REMARK   14  A    between atoms: C18_41  and  O6_42 
REMARK   15  A    between atoms: N14_51  and  O7_52 
ROOT
HETATM    1  N7  UNL     1      58.699  13.961  30.902  1.00  0.00    -0.209 N 
HETATM    2  N8  UNL     1      59.391  13.263  31.731  1.00  0.00    -0.224 N 
ATOM      3  H8  UNL     1      60.147  13.597  32.330  1.00  0.00     0.210 HD
HETATM    4  N9  UNL     1      58.926  12.018  31.653  1.00  0.00    -0.267 N 
ATOM      5  H9  UNL     1      59.291  11.230  32.190  1.00  0.00     0.190 HD
HETATM    6  C8  UNL     1      57.943  11.936  30.801  1.00  0.00     0.166 A 
HETATM    7  N15 UNL     1      57.733  13.226  30.269  1.00  0.00    -0.264 N 
ATOM      8  H15 UNL     1      57.038  13.533  29.587  1.00  0.00     0.190 HD
ENDROOT
BRANCH   6   9
HETATM    9  C9  UNL     1      57.313  10.666  30.337  1.00  0.00     0.237 C 
BRANCH   9  10
HETATM   10  N10 UNL     1      56.235  10.436  31.114  1.00  0.00    -0.379 NA
HETATM   11  C10 UNL     1      55.225   9.956  31.995  1.00  0.00     0.306 C 
HETATM   12  O5  UNL     1      54.651   9.368  32.639  1.00  0.00    -0.256 OA
BRANCH  11  13
HETATM   13  C11 UNL     1      54.473  11.545  31.869  1.00  0.00     0.190 C 
BRANCH  13  14
HETATM   14  C12 UNL     1      54.365  12.075  33.164  1.00  0.00     0.010 C 
BRANCH  14  15
HETATM   15  C13 UNL     1      53.469  13.267  33.308  1.00  0.00    -0.005 A 
HETATM   16  C14 UNL     1      53.520  14.249  32.495  1.00  0.00     0.014 A 
HETATM   17  C15 UNL     1      52.859  15.570  32.847  1.00  0.00     0.001 A 
HETATM   18  C16 UNL     1      52.269  15.578  34.081  1.00  0.00     0.003 A 
HETATM   19  C17 UNL     1      52.210  14.503  34.991  1.00  0.00     0.037 A 
HETATM   20  C18 UNL     1      52.796  13.366  34.581  1.00  0.00     0.075 A 
BRANCH  20  21
HETATM   21  O6  UNL     1      52.724  12.272  35.504  1.00  0.00    -0.360 OA
ATOM     22  H6  UNL     1      53.485  11.941  35.965  1.00  0.00     0.217 HD
ENDBRANCH  20  21
ENDBRANCH  14  15
ENDBRANCH  13  14
BRANCH  13  23
HETATM   23  C19 UNL     1      53.330  11.200  30.950  1.00  0.00     0.163 A 
HETATM   24  N11 UNL     1      51.967  11.139  31.498  1.00  0.00    -0.269 N 
HETATM   25  N12 UNL     1      51.217  10.734  30.548  1.00  0.00    -0.225 N 
ATOM     26  H11 UNL     1      51.680  11.374  32.448  1.00  0.00     0.190 HD
HETATM   27  N13 UNL     1      51.919  10.600  29.471  1.00  0.00    -0.200 N 
ATOM     28  H12 UNL     1      50.218  10.545  30.627  1.00  0.00     0.210 HD
HETATM   29  N14 UNL     1      53.247  10.901  29.735  1.00  0.00    -0.132 N 
ATOM     30  H13 UNL     1      51.550  10.316  28.563  1.00  0.00     0.212 HD
BRANCH  29  31
HETATM   31  O7  UNL     1      54.249  10.889  28.753  1.00  0.00    -0.265 OA
ATOM     32  H7  UNL     1      54.172  10.742  27.817  1.00  0.00     0.247 HD
ENDBRANCH  29  31
ENDBRANCH  13  23
ENDBRANCH  11  13
ENDBRANCH   9  10
ENDBRANCH   6   9
BRANCH   1  33
HETATM   33  C7  UNL     1      58.958  15.383  30.568  1.00  0.00     0.274 C 
BRANCH  33  34
HETATM   34  C6  UNL     1      59.246  15.690  29.153  1.00  0.00     0.244 C 
HETATM   35  N6  UNL     1      60.286  16.756  29.064  1.00  0.00    -0.308 N 
ATOM     36  H6  UNL     1      60.276  17.511  29.750  1.00  0.00     0.170 HD
HETATM   37  O4  UNL     1      58.816  15.330  28.118  1.00  0.00    -0.271 OA
BRANCH  35  38
HETATM   38  C5  UNL     1      61.165  16.758  28.182  1.00  0.00     0.167 A 
HETATM   39  C3  UNL     1      62.159  15.844  27.829  1.00  0.00     0.177 A 
HETATM   40  C4  UNL     1      62.669  16.387  26.536  1.00  0.00     0.242 A 
HETATM   41  O3  UNL     1      61.909  17.489  26.414  1.00  0.00    -0.208 OA
HETATM   42  N5  UNL     1      61.189  17.784  27.139  1.00  0.00    -0.239 N 
ATOM     43  H5  UNL     1      60.619  18.630  27.113  1.00  0.00     0.196 HD
BRANCH  39  44
HETATM   44  O1  UNL     1      62.782  14.776  28.233  1.00  0.00    -0.316 OA
BRANCH  44  45
HETATM   45  C2  UNL     1      62.528  13.588  28.815  1.00  0.00     0.286 C 
HETATM   46  C1  UNL     1      61.361  12.665  28.595  1.00  0.00     0.339 C 
HETATM   47  N2  UNL     1      61.375  11.864  29.812  1.00  0.00    -0.092 NA
HETATM   48  N3  UNL     1      62.064  12.580  30.794  1.00  0.00    -0.035 NA
HETATM   49  N4  UNL     1      62.272  13.845  30.279  1.00  0.00    -0.094 NA
BRANCH  46  50
HETATM   50  N1  UNL     1      61.556  11.778  27.454  1.00  0.00    -0.056 N 
ATOM     51  H13 UNL     1      62.536  11.531  27.314  1.00  0.00     0.276 HD
ATOM     52  H12 UNL     1      61.198  10.838  27.623  1.00  0.00     0.276 HD
ATOM     53  H11 UNL     1      61.141  12.213  26.631  1.00  0.00     0.276 HD
ENDBRANCH  46  50
ENDBRANCH  44  45
ENDBRANCH  39  44
BRANCH  40  54
HETATM   54  O2  UNL     1      63.583  15.979  25.669  1.00  0.00    -0.337 OA
ATOM     55  H2  UNL     1      64.510  16.160  25.556  1.00  0.00     0.220 HD
ENDBRANCH  40  54
ENDBRANCH  35  38
ENDBRANCH  33  34
ENDBRANCH   1  33
TORSDOF 15
ENDMDL
MODEL 5
REMARK VINA RESULT: -9.476465429      3.705      6.656
REMARK  15 active torsions:
REMARK  status: ('A' for Active; 'I' for Inactive)
REMARK    1  A    between atoms: N1_1  and  C1_5 
REMARK    2  A    between atoms: C2_9  and  O1_10 
REMARK    3  A    between atoms: O1_10  and  C3_11 
REMARK    4  A    between atoms: C4_12  and  O2_13 
REMARK    5  A    between atoms: C5_18  and  N6_19 
REMARK       I    between atoms: N6_19  and  C6_21 
REMARK    6  A    between atoms: C6_21  and  C7_23 
REMARK    7  A    between atoms: C7_23  and  N7_24 
REMARK    8  A    between atoms: C8_29  and  C9_30 
REMARK    9  A    between atoms: C9_30  and  N10_31 
REMARK       I    between atoms: N10_31  and  C10_32 
REMARK   10  A    between atoms: C10_32  and  C11_34 
REMARK   11  A    between atoms: C11_34  and  C12_35 
REMARK   12  A    between atoms: C11_34  and  C19_44 
REMARK   13  A    between atoms: C12_35  and  C13_36 
REMARK   14  A    between atoms: C18_41  and  O6_42 
REMARK   15  A    between atoms: N14_51  and  O7_52 
ROOT
HETATM    1  N7  UNL     1      59.063  12.046  29.519  1.00  0.00    -0.209 N 
HETATM    2  N8  UNL     1      60.047  12.543  30.183  1.00  0.00    -0.224 N 
ATOM      3  H8  UNL     1      61.016  12.623  29.873  1.00  0.00     0.210 HD
HETATM    4  N9  UNL     1      59.550  12.934  31.355  1.00  0.00    -0.267 N 
ATOM      5  H9  UNL     1      60.099  13.358  32.103  1.00  0.00     0.190 HD
HETATM    6  C8  UNL     1      58.269  12.703  31.421  1.00  0.00     0.166 A 
HETATM    7  N15 UNL     1      57.878  12.115  30.199  1.00  0.00    -0.264 N 
ATOM      8  H15 UNL     1      56.949  11.817  29.899  1.00  0.00     0.190 HD
ENDROOT
BRANCH   6   9
HETATM    9  C9  UNL     1      57.434  12.849  32.649  1.00  0.00     0.237 C 
BRANCH   9  10
HETATM   10  N10 UNL     1      56.414  11.971  32.558  1.00  0.00    -0.379 NA
HETATM   11  C10 UNL     1      55.530  10.856  32.536  1.00  0.00     0.306 C 
HETATM   12  O5  UNL     1      55.126   9.893  32.566  1.00  0.00    -0.256 OA
BRANCH  11  13
HETATM   13  C11 UNL     1      54.211  12.009  32.333  1.00  0.00     0.190 C 
BRANCH  13  14
HETATM   14  C12 UNL     1      53.646  12.244  33.597  1.00  0.00     0.010 C 
BRANCH  14  15
HETATM   15  C13 UNL     1      52.920  13.544  33.753  1.00  0.00    -0.005 A 
HETATM   16  C14 UNL     1      53.010  14.474  32.884  1.00  0.00     0.014 A 
HETATM   17  C15 UNL     1      52.551  15.883  33.219  1.00  0.00     0.001 A 
HETATM   18  C16 UNL     1      52.091  16.022  34.499  1.00  0.00     0.003 A 
HETATM   19  C17 UNL     1      51.991  15.005  35.471  1.00  0.00     0.037 A 
HETATM   20  C18 UNL     1      52.392  13.785  35.074  1.00  0.00     0.075 A 
BRANCH  20  21
HETATM   21  O6  UNL     1      52.279  12.753  36.061  1.00  0.00    -0.360 OA
ATOM     22  H6  UNL     1      52.029  12.929  36.960  1.00  0.00     0.217 HD
ENDBRANCH  20  21
ENDBRANCH  14  15
ENDBRANCH  13  14
BRANCH  13  23
HETATM   23  C19 UNL     1      53.520  11.381  31.151  1.00  0.00     0.163 A 
HETATM   24  N11 UNL     1      52.117  10.963  31.285  1.00  0.00    -0.269 N 
HETATM   25  N12 UNL     1      51.811  10.381  30.191  1.00  0.00    -0.225 N 
ATOM     26  H11 UNL     1      51.510  11.110  32.092  1.00  0.00     0.190 HD
HETATM   27  N13 UNL     1      52.812  10.440  29.376  1.00  0.00    -0.200 N 
ATOM     28  H12 UNL     1      50.915   9.936  29.991  1.00  0.00     0.210 HD
HETATM   29  N14 UNL     1      53.881  11.077  29.989  1.00  0.00    -0.132 N 
ATOM     30  H13 UNL     1      52.815  10.073  28.423  1.00  0.00     0.212 HD
BRANCH  29  31
HETATM   31  O7  UNL     1      55.099  11.332  29.342  1.00  0.00    -0.265 OA
ATOM     32  H7  UNL     1      55.372  11.101  28.462  1.00  0.00     0.247 HD
ENDBRANCH  29  31
ENDBRANCH  13  23
ENDBRANCH  11  13
ENDBRANCH   9  10
ENDBRANCH   6   9
BRANCH   1  33
HETATM   33  C7  UNL     1      59.183  11.373  28.203  1.00  0.00     0.274 C 
BRANCH  33  34
HETATM   34  C6  UNL     1      57.989  10.659  27.711  1.00  0.00     0.244 C 
HETATM   35  N6  UNL     1      57.976   9.263  28.239  1.00  0.00    -0.308 N 
ATOM     36  H6  UNL     1      58.860   8.762  28.326  1.00  0.00     0.170 HD
HETATM   37  O4  UNL     1      57.104  10.920  26.981  1.00  0.00    -0.271 OA
BRANCH  35  38
HETATM   38  C5  UNL     1      56.924   8.688  28.577  1.00  0.00     0.167 A 
HETATM   39  C3  UNL     1      56.510   8.086  29.765  1.00  0.00     0.177 A 
HETATM   40  C4  UNL     1      55.059   7.835  29.525  1.00  0.00     0.242 A 
HETATM   41  O3  UNL     1      54.931   8.304  28.272  1.00  0.00    -0.208 OA
HETATM   42  N5  UNL     1      55.743   8.701  27.712  1.00  0.00    -0.239 N 
ATOM     43  H5  UNL     1      55.706   9.031  26.747  1.00  0.00     0.196 HD
BRANCH  39  44
HETATM   44  O1  UNL     1      56.933   7.658  30.918  1.00  0.00    -0.316 OA
BRANCH  44  45
HETATM   45  C2  UNL     1      57.467   6.556  31.481  1.00  0.00     0.286 C 
HETATM   46  C1  UNL     1      57.206   5.113  31.149  1.00  0.00     0.339 C 
HETATM   47  N2  UNL     1      57.636   4.439  32.367  1.00  0.00    -0.092 NA
HETATM   48  N3  UNL     1      57.606   5.370  33.409  1.00  0.00    -0.035 NA
HETATM   49  N4  UNL     1      56.984   6.496  32.908  1.00  0.00    -0.094 NA
BRANCH  46  50
HETATM   50  N1  UNL     1      58.027   4.636  30.041  1.00  0.00    -0.056 N 
ATOM     51  H13 UNL     1      57.563   3.909  29.496  1.00  0.00     0.276 HD
ATOM     52  H12 UNL     1      58.122   5.328  29.298  1.00  0.00     0.276 HD
ATOM     53  H11 UNL     1      58.927   4.333  30.412  1.00  0.00     0.276 HD
ENDBRANCH  46  50
ENDBRANCH  44  45
ENDBRANCH  39  44
BRANCH  40  54
HETATM   54  O2  UNL     1      54.084   7.324  30.262  1.00  0.00    -0.337 OA
ATOM     55  H2  UNL     1      53.289   6.842  30.059  1.00  0.00     0.220 HD
ENDBRANCH  40  54
ENDBRANCH  35  38
ENDBRANCH  33  34
ENDBRANCH   1  33
TORSDOF 15
ENDMDL
