MODEL 1
REMARK VINA RESULT: -5.022698158      0.000      0.000
REMARK  1 active torsions:
REMARK  status: ('A' for Active; 'I' for Inactive)
REMARK    1  A    between atoms: O1_1  and  C1_3 
ROOT
HETATM    1  C1  UNL     1      20.128  43.216  -9.369  1.00  0.00     0.121 C 
HETATM    2  C2  UNL     1      20.396  44.683  -9.138  1.00  0.00     0.062 C 
HETATM    3  C3  UNL     1      21.834  44.992  -9.135  1.00  0.00     0.275 C 
HETATM    4  N1  UNL     1      22.751  43.952  -9.346  1.00  0.00     0.093 N 
HETATM    5  C4  UNL     1      23.822  44.274 -10.301  1.00  0.00     0.275 A 
HETATM    6  C5  UNL     1      23.421  43.115 -11.177  1.00  0.00     0.066 A 
HETATM    7  C6  UNL     1      22.373  42.858 -10.148  1.00  0.00     0.227 A 
HETATM    8  C7  UNL     1      20.945  42.870 -10.624  1.00  0.00     0.067 C 
ENDROOT
BRANCH   1   9
HETATM    9  O1  UNL     1      18.804  42.904  -9.506  1.00  0.00    -0.395 OA
ATOM     10  H1  UNL     1      18.566  42.590 -10.370  1.00  0.00     0.210 HD
ENDBRANCH   1   9
TORSDOF 1
ENDMDL
MODEL 2
REMARK VINA RESULT: -4.841843988      1.042      1.209
REMARK  1 active torsions:
REMARK  status: ('A' for Active; 'I' for Inactive)
REMARK    1  A    between atoms: O1_1  and  C1_3 
ROOT
HETATM    1  C1  UNL     1      21.248  42.675 -10.005  1.00  0.00     0.121 C 
HETATM    2  C2  UNL     1      21.041  44.061  -9.445  1.00  0.00     0.062 C 
HETATM    3  C3  UNL     1      22.310  44.779  -9.254  1.00  0.00     0.275 C 
HETATM    4  N1  UNL     1      23.509  44.140  -9.602  1.00  0.00     0.093 N 
HETATM    5  C4  UNL     1      24.440  44.980 -10.371  1.00  0.00     0.275 A 
HETATM    6  C5  UNL     1      24.436  43.987 -11.504  1.00  0.00     0.066 A 
HETATM    7  C6  UNL     1      23.505  43.198 -10.647  1.00  0.00     0.227 A 
HETATM    8  C7  UNL     1      22.152  42.888 -11.230  1.00  0.00     0.067 C 
ENDROOT
BRANCH   1   9
HETATM    9  O1  UNL     1      20.091  42.019 -10.318  1.00  0.00    -0.395 OA
ATOM     10  H1  UNL     1      19.692  42.301 -11.133  1.00  0.00     0.210 HD
ENDBRANCH   1   9
TORSDOF 1
ENDMDL
MODEL 3
REMARK VINA RESULT: -4.824425457      1.302      2.108
REMARK  1 active torsions:
REMARK  status: ('A' for Active; 'I' for Inactive)
REMARK    1  A    between atoms: O1_1  and  C1_3 
ROOT
HETATM    1  C1  UNL     1      20.339  44.635  -8.937  1.00  0.00     0.121 C 
HETATM    2  C2  UNL     1      20.074  43.155  -9.067  1.00  0.00     0.062 C 
HETATM    3  C3  UNL     1      20.884  42.535 -10.127  1.00  0.00     0.275 C 
HETATM    4  N1  UNL     1      21.773  43.337 -10.856  1.00  0.00     0.093 N 
HETATM    5  C4  UNL     1      23.108  42.749 -11.037  1.00  0.00     0.275 A 
HETATM    6  C5  UNL     1      23.747  43.933 -10.359  1.00  0.00     0.066 A 
HETATM    7  C6  UNL     1      22.356  44.456 -10.232  1.00  0.00     0.227 A 
HETATM    8  C7  UNL     1      21.869  44.743  -8.837  1.00  0.00     0.067 C 
ENDROOT
BRANCH   1   9
HETATM    9  O1  UNL     1      19.704  45.227  -7.882  1.00  0.00    -0.395 OA
ATOM     10  H1  UNL     1      20.135  46.009  -7.558  1.00  0.00     0.210 HD
ENDBRANCH   1   9
TORSDOF 1
ENDMDL
MODEL 4
REMARK VINA RESULT: -4.795700104      1.969      3.192
REMARK  1 active torsions:
REMARK  status: ('A' for Active; 'I' for Inactive)
REMARK    1  A    between atoms: O1_1  and  C1_3 
ROOT
HETATM    1  C1  UNL     1      22.728  43.357 -10.883  1.00  0.00     0.121 C 
HETATM    2  C2  UNL     1      23.531  44.126  -9.863  1.00  0.00     0.062 C 
HETATM    3  C3  UNL     1      22.692  45.028  -9.058  1.00  0.00     0.275 C 
HETATM    4  N1  UNL     1      21.312  45.066  -9.304  1.00  0.00     0.093 N 
HETATM    5  C4  UNL     1      20.482  45.027  -8.090  1.00  0.00     0.275 A 
HETATM    6  C5  UNL     1      19.791  43.778  -8.575  1.00  0.00     0.066 A 
HETATM    7  C6  UNL     1      20.667  43.907  -9.775  1.00  0.00     0.227 A 
HETATM    8  C7  UNL     1      21.573  42.742 -10.076  1.00  0.00     0.067 C 
ENDROOT
BRANCH   1   9
HETATM    9  O1  UNL     1      23.446  42.415 -11.566  1.00  0.00    -0.395 OA
ATOM     10  H1  UNL     1      23.789  41.717 -11.021  1.00  0.00     0.210 HD
ENDBRANCH   1   9
TORSDOF 1
ENDMDL
MODEL 5
REMARK VINA RESULT: -4.635399286      1.861      2.578
REMARK  1 active torsions:
REMARK  status: ('A' for Active; 'I' for Inactive)
REMARK    1  A    between atoms: O1_1  and  C1_3 
ROOT
HETATM    1  C1  UNL     1      20.770  45.548  -8.383  1.00  0.00     0.121 C 
HETATM    2  C2  UNL     1      19.927  44.319  -8.146  1.00  0.00     0.062 C 
HETATM    3  C3  UNL     1      20.070  43.329  -9.225  1.00  0.00     0.275 C 
HETATM    4  N1  UNL     1      20.934  43.612 -10.292  1.00  0.00     0.093 N 
HETATM    5  C4  UNL     1      21.814  42.495 -10.669  1.00  0.00     0.275 A 
HETATM    6  C5  UNL     1      23.035  43.341 -10.415  1.00  0.00     0.066 A 
HETATM    7  C6  UNL     1      22.065  44.418 -10.063  1.00  0.00     0.227 A 
HETATM    8  C7  UNL     1      22.175  44.997  -8.678  1.00  0.00     0.067 C 
ENDROOT
BRANCH   1   9
HETATM    9  O1  UNL     1      20.767  46.437  -7.345  1.00  0.00    -0.395 OA
ATOM     10  H1  UNL     1      21.339  46.198  -6.625  1.00  0.00     0.210 HD
ENDBRANCH   1   9
TORSDOF 1
ENDMDL
