MODEL 1
REMARK VINA RESULT: -9.465844323      0.000      0.000
REMARK  11 active torsions:
REMARK  status: ('A' for Active; 'I' for Inactive)
REMARK    1  A    between atoms: C15_17  and  C16_18 
REMARK    2  A    between atoms: C16_18  and  O3_19 
REMARK    3  A    between atoms: O3_19  and  C17_20 
REMARK    4  A    between atoms: C17_20  and  C19_23 
REMARK    5  A    between atoms: C19_23  and  N2_24 
REMARK    6  A    between atoms: N2_24  and  O4_25 
REMARK    7  A    between atoms: N2_24  and  C20_27 
REMARK    8  A    between atoms: C20_27  and  C21_28 
REMARK    9  A    between atoms: C24_31  and  O5_32 
REMARK   10  A    between atoms: N3_34  and  C25_35 
REMARK   11  A    between atoms: C25_35  and  C26_36 
ROOT
HETATM    1  C17 UNL     1     -17.506  -0.443   1.195  1.00  0.00     0.242 C 
HETATM    2  C18 UNL     1     -17.978  -1.856   1.013  1.00  0.00     0.092 C 
HETATM    3  N1  UNL     1     -18.322  -2.951   0.867  1.00  0.00    -0.194 NA
ENDROOT
BRANCH   1   4
HETATM    4  O3  UNL     1     -16.836   0.042   0.276  1.00  0.00    -0.368 OA
BRANCH   4   5
HETATM    5  C16 UNL     1     -16.162   0.529  -0.649  1.00  0.00     0.201 C 
BRANCH   5   6
HETATM    6  C15 UNL     1     -16.105   2.079  -0.748  1.00  0.00     0.149 C 
HETATM    7  O2  UNL     1     -16.967   2.538  -1.700  1.00  0.00    -0.354 OA
HETATM    8  C14 UNL     1     -16.673   3.749  -2.274  1.00  0.00     0.261 C 
HETATM    9  C13 UNL     1     -17.966   4.580  -2.122  1.00  0.00     0.064 C 
HETATM   10  O6  UNL     1     -15.836   4.570  -1.514  1.00  0.00    -0.349 OA
HETATM   11  C12 UNL     1     -17.947   4.580  -0.576  1.00  0.00     0.044 C 
HETATM   12  C11 UNL     1     -16.497   4.818  -0.328  1.00  0.00     0.072 C 
HETATM   13  C10 UNL     1     -16.382   6.272   0.139  1.00  0.00     0.046 C 
HETATM   14  C33 UNL     1     -15.841   3.965   0.721  1.00  0.00    -0.003 C 
HETATM   15  C8  UNL     1     -15.766   6.136   1.491  1.00  0.00     0.021 C 
HETATM   16  C6  UNL     1     -16.076   4.754   1.984  1.00  0.00    -0.028 C 
HETATM   17  C9  UNL     1     -15.948   7.252   2.433  1.00  0.00     0.173 C 
HETATM   18  C5  UNL     1     -17.325   4.513   2.680  1.00  0.00     0.010 C 
HETATM   19  C7  UNL     1     -14.921   4.372   2.931  1.00  0.00     0.016 C 
HETATM   20  C4  UNL     1     -18.166   5.638   3.162  1.00  0.00     0.003 C 
HETATM   21  C3  UNL     1     -17.633   6.386   4.350  1.00  0.00     0.031 C 
HETATM   22  C2  UNL     1     -17.494   7.848   3.920  1.00  0.00     0.117 C 
HETATM   23  C1  UNL     1     -16.388   8.456   4.729  1.00  0.00     0.039 C 
HETATM   24  O1  UNL     1     -17.185   7.822   2.540  1.00  0.00    -0.386 OA
HETATM   25  C32 UNL     1     -16.362   2.588   0.656  1.00  0.00     0.047 C 
HETATM   26  C34 UNL     1     -14.352   3.854   0.404  1.00  0.00     0.019 C 
ENDBRANCH   5   6
ENDBRANCH   4   5
ENDBRANCH   1   4
BRANCH   1  27
HETATM   27  C19 UNL     1     -16.967  -0.412   2.627  1.00  0.00     0.167 C 
BRANCH  27  28
HETATM   28  N2  UNL     1     -17.856   0.196   3.565  1.00  0.00    -0.191 NA
BRANCH  28  29
HETATM   29  O4  UNL     1     -17.519   1.474   3.872  1.00  0.00    -0.313 OA
ATOM     30  H4  UNL     1     -17.561   1.660   4.803  1.00  0.00     0.237 HD
ENDBRANCH  28  29
BRANCH  28  31
HETATM   31  C20 UNL     1     -17.865  -0.620   4.797  1.00  0.00     0.177 C 
BRANCH  31  32
HETATM   32  C21 UNL     1     -19.050  -1.479   4.841  1.00  0.00     0.029 A 
HETATM   33  C22 UNL     1     -19.036  -2.831   4.464  1.00  0.00     0.031 A 
HETATM   34  C23 UNL     1     -20.331  -3.274   4.625  1.00  0.00     0.058 A 
HETATM   35  C24 UNL     1     -21.067  -2.215   5.081  1.00  0.00     0.142 A 
HETATM   36  N3  UNL     1     -20.275  -1.114   5.211  1.00  0.00    -0.326 N 
BRANCH  35  37
HETATM   37  O5  UNL     1     -22.426  -2.315   5.350  1.00  0.00    -0.346 OA
ATOM     38  H5  UNL     1     -22.969  -1.553   5.516  1.00  0.00     0.219 HD
ENDBRANCH  35  37
BRANCH  36  39
HETATM   39  C25 UNL     1     -20.741   0.153   5.669  1.00  0.00     0.169 C 
BRANCH  39  40
HETATM   40  C26 UNL     1     -21.626   0.158   6.823  1.00  0.00    -0.040 A 
HETATM   41  C27 UNL     1     -21.226  -0.266   8.070  1.00  0.00     0.010 A 
HETATM   42  C28 UNL     1     -22.083  -0.260   9.150  1.00  0.00     0.019 A 
HETATM   43  C29 UNL     1     -23.378   0.179   8.998  1.00  0.00     0.011 A 
HETATM   44 BR1  UNL     1     -24.586   0.190  10.503  1.00  0.00    -0.051 Br
HETATM   45  C30 UNL     1     -23.807   0.610   7.763  1.00  0.00     0.019 A 
HETATM   46  C31 UNL     1     -22.923   0.587   6.716  1.00  0.00     0.010 A 
ENDBRANCH  39  40
ENDBRANCH  36  39
ENDBRANCH  31  32
ENDBRANCH  28  31
ENDBRANCH  27  28
ENDBRANCH   1  27
TORSDOF 11
ENDMDL
MODEL 2
REMARK VINA RESULT: -9.149034091      1.721      2.745
REMARK  11 active torsions:
REMARK  status: ('A' for Active; 'I' for Inactive)
REMARK    1  A    between atoms: C15_17  and  C16_18 
REMARK    2  A    between atoms: C16_18  and  O3_19 
REMARK    3  A    between atoms: O3_19  and  C17_20 
REMARK    4  A    between atoms: C17_20  and  C19_23 
REMARK    5  A    between atoms: C19_23  and  N2_24 
REMARK    6  A    between atoms: N2_24  and  O4_25 
REMARK    7  A    between atoms: N2_24  and  C20_27 
REMARK    8  A    between atoms: C20_27  and  C21_28 
REMARK    9  A    between atoms: C24_31  and  O5_32 
REMARK   10  A    between atoms: N3_34  and  C25_35 
REMARK   11  A    between atoms: C25_35  and  C26_36 
ROOT
HETATM    1  C17 UNL     1     -17.220   0.999  -0.989  1.00  0.00     0.242 C 
HETATM    2  C18 UNL     1     -18.246   0.479  -1.953  1.00  0.00     0.092 C 
HETATM    3  N1  UNL     1     -19.022   0.074  -2.709  1.00  0.00    -0.194 NA
ENDROOT
BRANCH   1   4
HETATM    4  O3  UNL     1     -16.402   1.815  -1.434  1.00  0.00    -0.368 OA
BRANCH   4   5
HETATM    5  C16 UNL     1     -15.582   2.635  -1.881  1.00  0.00     0.201 C 
BRANCH   5   6
HETATM    6  C15 UNL     1     -15.715   4.107  -1.401  1.00  0.00     0.149 C 
HETATM    7  O2  UNL     1     -16.612   4.791  -2.168  1.00  0.00    -0.354 OA
HETATM    8  C14 UNL     1     -16.460   6.153  -2.239  1.00  0.00     0.261 C 
HETATM    9  C13 UNL     1     -17.847   6.722  -1.869  1.00  0.00     0.064 C 
HETATM   10  O6  UNL     1     -15.742   6.718  -1.183  1.00  0.00    -0.349 OA
HETATM   11  C12 UNL     1     -17.852   6.150  -0.433  1.00  0.00     0.044 C 
HETATM   12  C11 UNL     1     -16.445   6.434  -0.029  1.00  0.00     0.072 C 
HETATM   13  C10 UNL     1     -16.517   7.614   0.945  1.00  0.00     0.046 C 
HETATM   14  C33 UNL     1     -15.706   5.329   0.670  1.00  0.00    -0.003 C 
HETATM   15  C8  UNL     1     -15.910   7.054   2.186  1.00  0.00     0.021 C 
HETATM   16  C6  UNL     1     -16.055   5.563   2.119  1.00  0.00    -0.028 C 
HETATM   17  C9  UNL     1     -16.241   7.714   3.459  1.00  0.00     0.173 C 
HETATM   18  C5  UNL     1     -17.275   4.946   2.602  1.00  0.00     0.010 C 
HETATM   19  C7  UNL     1     -14.876   4.984   2.926  1.00  0.00     0.016 C 
HETATM   20  C4  UNL     1     -18.255   5.714   3.412  1.00  0.00     0.003 C 
HETATM   21  C3  UNL     1     -17.836   6.019   4.821  1.00  0.00     0.031 C 
HETATM   22  C2  UNL     1     -17.871   7.543   4.967  1.00  0.00     0.117 C 
HETATM   23  C1  UNL     1     -16.859   7.923   6.007  1.00  0.00     0.039 C 
HETATM   24  O1  UNL     1     -17.540   8.065   3.694  1.00  0.00    -0.386 OA
HETATM   25  C32 UNL     1     -16.053   4.027   0.074  1.00  0.00     0.047 C 
HETATM   26  C34 UNL     1     -14.210   5.507   0.424  1.00  0.00     0.019 C 
ENDBRANCH   5   6
ENDBRANCH   4   5
ENDBRANCH   1   4
BRANCH   1  27
HETATM   27  C19 UNL     1     -16.725  -0.252  -0.260  1.00  0.00     0.167 C 
BRANCH  27  28
HETATM   28  N2  UNL     1     -17.191  -0.356   1.087  1.00  0.00    -0.191 NA
BRANCH  28  29
HETATM   29  O4  UNL     1     -16.405   0.299   1.978  1.00  0.00    -0.313 OA
ATOM     30  H4  UNL     1     -16.844   0.485   2.800  1.00  0.00     0.237 HD
ENDBRANCH  28  29
BRANCH  28  31
HETATM   31  C20 UNL     1     -17.257  -1.787   1.449  1.00  0.00     0.177 C 
BRANCH  31  32
HETATM   32  C21 UNL     1     -18.638  -2.270   1.406  1.00  0.00     0.029 A 
HETATM   33  C22 UNL     1     -19.416  -2.280   0.238  1.00  0.00     0.031 A 
HETATM   34  C23 UNL     1     -20.644  -2.779   0.613  1.00  0.00     0.058 A 
HETATM   35  C24 UNL     1     -20.578  -3.049   1.953  1.00  0.00     0.142 A 
HETATM   36  N3  UNL     1     -19.343  -2.734   2.436  1.00  0.00    -0.326 N 
BRANCH  35  37
HETATM   37  O5  UNL     1     -21.654  -3.568   2.660  1.00  0.00    -0.346 OA
ATOM     38  H5  UNL     1     -21.542  -4.092   3.445  1.00  0.00     0.219 HD
ENDBRANCH  35  37
BRANCH  36  39
HETATM   39  C25 UNL     1     -18.952  -2.902   3.796  1.00  0.00     0.169 C 
BRANCH  39  40
HETATM   40  C26 UNL     1     -19.669  -2.124   4.794  1.00  0.00    -0.040 A 
HETATM   41  C27 UNL     1     -19.503  -0.766   4.939  1.00  0.00     0.010 A 
HETATM   42  C28 UNL     1     -20.187  -0.048   5.897  1.00  0.00     0.019 A 
HETATM   43  C29 UNL     1     -21.066  -0.689   6.740  1.00  0.00     0.011 A 
HETATM   44 BR1  UNL     1     -22.027   0.307   8.086  1.00  0.00    -0.051 Br
HETATM   45  C30 UNL     1     -21.254  -2.047   6.618  1.00  0.00     0.019 A 
HETATM   46  C31 UNL     1     -20.554  -2.722   5.654  1.00  0.00     0.010 A 
ENDBRANCH  39  40
ENDBRANCH  36  39
ENDBRANCH  31  32
ENDBRANCH  28  31
ENDBRANCH  27  28
ENDBRANCH   1  27
TORSDOF 11
ENDMDL
MODEL 3
REMARK VINA RESULT: -9.121825972      2.514      4.139
REMARK  11 active torsions:
REMARK  status: ('A' for Active; 'I' for Inactive)
REMARK    1  A    between atoms: C15_17  and  C16_18 
REMARK    2  A    between atoms: C16_18  and  O3_19 
REMARK    3  A    between atoms: O3_19  and  C17_20 
REMARK    4  A    between atoms: C17_20  and  C19_23 
REMARK    5  A    between atoms: C19_23  and  N2_24 
REMARK    6  A    between atoms: N2_24  and  O4_25 
REMARK    7  A    between atoms: N2_24  and  C20_27 
REMARK    8  A    between atoms: C20_27  and  C21_28 
REMARK    9  A    between atoms: C24_31  and  O5_32 
REMARK   10  A    between atoms: N3_34  and  C25_35 
REMARK   11  A    between atoms: C25_35  and  C26_36 
ROOT
HETATM    1  C17 UNL     1     -16.735   2.058   2.271  1.00  0.00     0.242 C 
HETATM    2  C18 UNL     1     -16.236   1.304   1.073  1.00  0.00     0.092 C 
HETATM    3  N1  UNL     1     -15.833   0.721   0.159  1.00  0.00    -0.194 NA
ENDROOT
BRANCH   1   4
HETATM    4  O3  UNL     1     -16.060   3.028   2.638  1.00  0.00    -0.368 OA
BRANCH   4   5
HETATM    5  C16 UNL     1     -15.383   4.003   3.008  1.00  0.00     0.201 C 
BRANCH   5   6
HETATM    6  C15 UNL     1     -15.904   5.416   2.627  1.00  0.00     0.149 C 
HETATM    7  O2  UNL     1     -16.546   5.999   3.681  1.00  0.00    -0.354 OA
HETATM    8  C14 UNL     1     -17.488   6.952   3.386  1.00  0.00     0.261 C 
HETATM    9  C13 UNL     1     -17.086   8.177   4.235  1.00  0.00     0.064 C 
HETATM   10  O6  UNL     1     -17.348   7.545   2.129  1.00  0.00    -0.349 OA
HETATM   11  C12 UNL     1     -15.722   8.385   3.538  1.00  0.00     0.044 C 
HETATM   12  C11 UNL     1     -16.113   8.160   2.118  1.00  0.00     0.072 C 
HETATM   13  C10 UNL     1     -16.128   9.544   1.461  1.00  0.00     0.046 C 
HETATM   14  C33 UNL     1     -15.203   7.292   1.295  1.00  0.00    -0.003 C 
HETATM   15  C8  UNL     1     -15.126   9.400   0.366  1.00  0.00     0.021 C 
HETATM   16  C6  UNL     1     -14.204   8.282   0.751  1.00  0.00    -0.028 C 
HETATM   17  C9  UNL     1     -14.519  10.633  -0.162  1.00  0.00     0.173 C 
HETATM   18  C5  UNL     1     -13.051   8.568   1.583  1.00  0.00     0.010 C 
HETATM   19  C7  UNL     1     -13.698   7.673  -0.572  1.00  0.00     0.016 C 
HETATM   20  C4  UNL     1     -12.606   9.964   1.825  1.00  0.00     0.003 C 
HETATM   21  C3  UNL     1     -11.952  10.649   0.660  1.00  0.00     0.031 C 
HETATM   22  C2  UNL     1     -12.775  11.908   0.376  1.00  0.00     0.117 C 
HETATM   23  C1  UNL     1     -12.637  12.221  -1.085  1.00  0.00     0.039 C 
HETATM   24  O1  UNL     1     -14.109  11.589   0.723  1.00  0.00    -0.386 OA
HETATM   25  C32 UNL     1     -14.697   6.172   2.108  1.00  0.00     0.047 C 
HETATM   26  C34 UNL     1     -16.017   6.651   0.174  1.00  0.00     0.019 C 
ENDBRANCH   5   6
ENDBRANCH   4   5
ENDBRANCH   1   4
BRANCH   1  27
HETATM   27  C19 UNL     1     -17.102   0.963   3.276  1.00  0.00     0.167 C 
BRANCH  27  28
HETATM   28  N2  UNL     1     -18.225   1.288   4.098  1.00  0.00    -0.191 NA
BRANCH  28  29
HETATM   29  O4  UNL     1     -18.254   2.591   4.475  1.00  0.00    -0.313 OA
ATOM     30  H4  UNL     1     -17.425   3.037   4.345  1.00  0.00     0.237 HD
ENDBRANCH  28  29
BRANCH  28  31
HETATM   31  C20 UNL     1     -18.187   0.429   5.299  1.00  0.00     0.177 C 
BRANCH  31  32
HETATM   32  C21 UNL     1     -19.155  -0.663   5.186  1.00  0.00     0.029 A 
HETATM   33  C22 UNL     1     -18.814  -1.955   4.757  1.00  0.00     0.031 A 
HETATM   34  C23 UNL     1     -19.990  -2.673   4.765  1.00  0.00     0.058 A 
HETATM   35  C24 UNL     1     -20.978  -1.824   5.187  1.00  0.00     0.142 A 
HETATM   36  N3  UNL     1     -20.460  -0.591   5.444  1.00  0.00    -0.326 N 
BRANCH  35  37
HETATM   37  O5  UNL     1     -22.300  -2.228   5.311  1.00  0.00    -0.346 OA
ATOM     38  H5  UNL     1     -22.649  -2.587   6.119  1.00  0.00     0.219 HD
ENDBRANCH  35  37
BRANCH  36  39
HETATM   39  C25 UNL     1     -21.229   0.517   5.903  1.00  0.00     0.169 C 
BRANCH  39  40
HETATM   40  C26 UNL     1     -22.139   0.278   7.012  1.00  0.00    -0.040 A 
HETATM   41  C27 UNL     1     -21.732  -0.275   8.205  1.00  0.00     0.010 A 
HETATM   42  C28 UNL     1     -22.612  -0.500   9.241  1.00  0.00     0.019 A 
HETATM   43  C29 UNL     1     -23.941  -0.167   9.100  1.00  0.00     0.011 A 
HETATM   44 BR1  UNL     1     -25.181  -0.480  10.545  1.00  0.00    -0.051 Br
HETATM   45  C30 UNL     1     -24.378   0.388   7.919  1.00  0.00     0.019 A 
HETATM   46  C31 UNL     1     -23.470   0.594   6.915  1.00  0.00     0.010 A 
ENDBRANCH  39  40
ENDBRANCH  36  39
ENDBRANCH  31  32
ENDBRANCH  28  31
ENDBRANCH  27  28
ENDBRANCH   1  27
TORSDOF 11
ENDMDL
MODEL 4
REMARK VINA RESULT: -9.106163154      1.377      2.007
REMARK  11 active torsions:
REMARK  status: ('A' for Active; 'I' for Inactive)
REMARK    1  A    between atoms: C15_17  and  C16_18 
REMARK    2  A    between atoms: C16_18  and  O3_19 
REMARK    3  A    between atoms: O3_19  and  C17_20 
REMARK    4  A    between atoms: C17_20  and  C19_23 
REMARK    5  A    between atoms: C19_23  and  N2_24 
REMARK    6  A    between atoms: N2_24  and  O4_25 
REMARK    7  A    between atoms: N2_24  and  C20_27 
REMARK    8  A    between atoms: C20_27  and  C21_28 
REMARK    9  A    between atoms: C24_31  and  O5_32 
REMARK   10  A    between atoms: N3_34  and  C25_35 
REMARK   11  A    between atoms: C25_35  and  C26_36 
ROOT
HETATM    1  C17 UNL     1     -17.552  -1.623   0.849  1.00  0.00     0.242 C 
HETATM    2  C18 UNL     1     -17.060  -2.937   0.318  1.00  0.00     0.092 C 
HETATM    3  N1  UNL     1     -16.663  -3.943  -0.094  1.00  0.00    -0.194 NA
ENDROOT
BRANCH   1   4
HETATM    4  O3  UNL     1     -17.318  -0.622   0.160  1.00  0.00    -0.368 OA
BRANCH   4   5
HETATM    5  C16 UNL     1     -17.082   0.382  -0.534  1.00  0.00     0.201 C 
BRANCH   5   6
HETATM    6  C15 UNL     1     -15.995   1.365  -0.017  1.00  0.00     0.149 C 
HETATM    7  O2  UNL     1     -15.044   1.585  -0.970  1.00  0.00    -0.354 OA
HETATM    8  C14 UNL     1     -13.800   1.964  -0.532  1.00  0.00     0.261 C 
HETATM    9  C13 UNL     1     -13.476   3.245  -1.329  1.00  0.00     0.064 C 
HETATM   10  O6  UNL     1     -13.776   2.530   0.745  1.00  0.00    -0.349 OA
HETATM   11  C12 UNL     1     -14.643   4.072  -0.741  1.00  0.00     0.044 C 
HETATM   12  C11 UNL     1     -14.563   3.663   0.690  1.00  0.00     0.072 C 
HETATM   13  C10 UNL     1     -13.962   4.857   1.436  1.00  0.00     0.046 C 
HETATM   14  C33 UNL     1     -15.859   3.325   1.371  1.00  0.00    -0.003 C 
HETATM   15  C8  UNL     1     -15.023   5.195   2.428  1.00  0.00     0.021 C 
HETATM   16  C6  UNL     1     -16.319   4.663   1.891  1.00  0.00    -0.028 C 
HETATM   17  C9  UNL     1     -15.024   6.558   2.982  1.00  0.00     0.173 C 
HETATM   18  C5  UNL     1     -17.099   5.481   0.983  1.00  0.00     0.010 C 
HETATM   19  C7  UNL     1     -17.193   4.350   3.122  1.00  0.00     0.016 C 
HETATM   20  C4  UNL     1     -16.797   6.923   0.796  1.00  0.00     0.003 C 
HETATM   21  C3  UNL     1     -17.168   7.819   1.943  1.00  0.00     0.031 C 
HETATM   22  C2  UNL     1     -15.882   8.523   2.381  1.00  0.00     0.117 C 
HETATM   23  C1  UNL     1     -16.011   8.839   3.841  1.00  0.00     0.039 C 
HETATM   24  O1  UNL     1     -14.831   7.609   2.131  1.00  0.00    -0.386 OA
HETATM   25  C32 UNL     1     -16.745   2.598   0.445  1.00  0.00     0.047 C 
HETATM   26  C34 UNL     1     -15.575   2.353   2.513  1.00  0.00     0.019 C 
ENDBRANCH   5   6
ENDBRANCH   4   5
ENDBRANCH   1   4
BRANCH   1  27
HETATM   27  C19 UNL     1     -17.145  -1.641   2.325  1.00  0.00     0.167 C 
BRANCH  27  28
HETATM   28  N2  UNL     1     -18.013  -0.884   3.171  1.00  0.00    -0.191 NA
BRANCH  28  29
HETATM   29  O4  UNL     1     -17.728   0.442   3.181  1.00  0.00    -0.313 OA
ATOM     30  H4  UNL     1     -18.094   0.899   3.930  1.00  0.00     0.237 HD
ENDBRANCH  28  29
BRANCH  28  31
HETATM   31  C20 UNL     1     -17.910  -1.420   4.544  1.00  0.00     0.177 C 
BRANCH  31  32
HETATM   32  C21 UNL     1     -19.106  -2.188   4.892  1.00  0.00     0.029 A 
HETATM   33  C22 UNL     1     -19.189  -3.584   4.771  1.00  0.00     0.031 A 
HETATM   34  C23 UNL     1     -20.465  -3.917   5.170  1.00  0.00     0.058 A 
HETATM   35  C24 UNL     1     -21.098  -2.753   5.511  1.00  0.00     0.142 A 
HETATM   36  N3  UNL     1     -20.259  -1.693   5.338  1.00  0.00    -0.326 N 
BRANCH  35  37
HETATM   37  O5  UNL     1     -22.412  -2.725   5.960  1.00  0.00    -0.346 OA
ATOM     38  H5  UNL     1     -22.826  -3.479   6.365  1.00  0.00     0.219 HD
ENDBRANCH  35  37
BRANCH  36  39
HETATM   39  C25 UNL     1     -20.617  -0.341   5.609  1.00  0.00     0.169 C 
BRANCH  39  40
HETATM   40  C26 UNL     1     -21.502  -0.101   6.737  1.00  0.00    -0.040 A 
HETATM   41  C27 UNL     1     -22.778   0.392   6.591  1.00  0.00     0.010 A 
HETATM   42  C28 UNL     1     -23.599   0.619   7.675  1.00  0.00     0.019 A 
HETATM   43  C29 UNL     1     -23.149   0.350   8.947  1.00  0.00     0.011 A 
HETATM   44 BR1  UNL     1     -24.291   0.666  10.471  1.00  0.00    -0.051 Br
HETATM   45  C30 UNL     1     -21.877  -0.145   9.126  1.00  0.00     0.019 A 
HETATM   46  C31 UNL     1     -21.094  -0.355   8.021  1.00  0.00     0.010 A 
ENDBRANCH  39  40
ENDBRANCH  36  39
ENDBRANCH  31  32
ENDBRANCH  28  31
ENDBRANCH  27  28
ENDBRANCH   1  27
TORSDOF 11
ENDMDL
MODEL 5
REMARK VINA RESULT: -9.075069135      2.148      3.767
REMARK  11 active torsions:
REMARK  status: ('A' for Active; 'I' for Inactive)
REMARK    1  A    between atoms: C15_17  and  C16_18 
REMARK    2  A    between atoms: C16_18  and  O3_19 
REMARK    3  A    between atoms: O3_19  and  C17_20 
REMARK    4  A    between atoms: C17_20  and  C19_23 
REMARK    5  A    between atoms: C19_23  and  N2_24 
REMARK    6  A    between atoms: N2_24  and  O4_25 
REMARK    7  A    between atoms: N2_24  and  C20_27 
REMARK    8  A    between atoms: C20_27  and  C21_28 
REMARK    9  A    between atoms: C24_31  and  O5_32 
REMARK   10  A    between atoms: N3_34  and  C25_35 
REMARK   11  A    between atoms: C25_35  and  C26_36 
ROOT
HETATM    1  C17 UNL     1     -17.474   0.633  -1.164  1.00  0.00     0.242 C 
HETATM    2  C18 UNL     1     -17.656   0.002  -2.514  1.00  0.00     0.092 C 
HETATM    3  N1  UNL     1     -17.778  -0.479  -3.559  1.00  0.00    -0.194 NA
ENDROOT
BRANCH   1   4
HETATM    4  O3  UNL     1     -17.042   1.793  -1.147  1.00  0.00    -0.368 OA
BRANCH   4   5
HETATM    5  C16 UNL     1     -16.607   2.958  -1.128  1.00  0.00     0.201 C 
BRANCH   5   6
HETATM    6  C15 UNL     1     -16.762   3.753   0.198  1.00  0.00     0.149 C 
HETATM    7  O2  UNL     1     -16.199   3.076   1.240  1.00  0.00    -0.354 OA
HETATM    8  C14 UNL     1     -16.689   3.344   2.493  1.00  0.00     0.261 C 
HETATM    9  C13 UNL     1     -15.443   3.685   3.338  1.00  0.00     0.064 C 
HETATM   10  O6  UNL     1     -17.339   4.574   2.618  1.00  0.00    -0.349 OA
HETATM   11  C12 UNL     1     -15.059   4.938   2.517  1.00  0.00     0.044 C 
HETATM   12  C11 UNL     1     -16.405   5.546   2.316  1.00  0.00     0.072 C 
HETATM   13  C10 UNL     1     -16.464   6.756   3.253  1.00  0.00     0.046 C 
HETATM   14  C33 UNL     1     -16.725   6.042   0.935  1.00  0.00    -0.003 C 
HETATM   15  C8  UNL     1     -16.701   7.889   2.313  1.00  0.00     0.021 C 
HETATM   16  C6  UNL     1     -16.208   7.458   0.964  1.00  0.00    -0.028 C 
HETATM   17  C9  UNL     1     -16.334   9.238   2.773  1.00  0.00     0.173 C 
HETATM   18  C5  UNL     1     -14.811   7.649   0.624  1.00  0.00     0.010 C 
HETATM   19  C7  UNL     1     -17.059   8.229  -0.066  1.00  0.00     0.016 C 
HETATM   20  C4  UNL     1     -13.929   8.506   1.456  1.00  0.00     0.003 C 
HETATM   21  C3  UNL     1     -14.170   9.985   1.349  1.00  0.00     0.031 C 
HETATM   22  C2  UNL     1     -14.485  10.479   2.763  1.00  0.00     0.117 C 
HETATM   23  C1  UNL     1     -15.372  11.682   2.636  1.00  0.00     0.039 C 
HETATM   24  O1  UNL     1     -15.141   9.408   3.415  1.00  0.00    -0.386 OA
HETATM   25  C32 UNL     1     -16.173   5.123  -0.076  1.00  0.00     0.047 C 
HETATM   26  C34 UNL     1     -18.238   6.007   0.738  1.00  0.00     0.019 C 
ENDBRANCH   5   6
ENDBRANCH   4   5
ENDBRANCH   1   4
BRANCH   1  27
HETATM   27  C19 UNL     1     -16.777  -0.450  -0.337  1.00  0.00     0.167 C 
BRANCH  27  28
HETATM   28  N2  UNL     1     -17.244  -0.534   1.011  1.00  0.00    -0.191 NA
BRANCH  28  29
HETATM   29  O4  UNL     1     -16.410   0.055   1.904  1.00  0.00    -0.313 OA
ATOM     30  H4  UNL     1     -16.554  -0.232   2.798  1.00  0.00     0.237 HD
ENDBRANCH  28  29
BRANCH  28  31
HETATM   31  C20 UNL     1     -17.410  -1.960   1.359  1.00  0.00     0.177 C 
BRANCH  31  32
HETATM   32  C21 UNL     1     -18.822  -2.343   1.317  1.00  0.00     0.029 A 
HETATM   33  C22 UNL     1     -19.609  -2.263   0.158  1.00  0.00     0.031 A 
HETATM   34  C23 UNL     1     -20.866  -2.685   0.531  1.00  0.00     0.058 A 
HETATM   35  C24 UNL     1     -20.807  -3.001   1.861  1.00  0.00     0.142 A 
HETATM   36  N3  UNL     1     -19.549  -2.789   2.340  1.00  0.00    -0.326 N 
BRANCH  35  37
HETATM   37  O5  UNL     1     -21.911  -3.465   2.564  1.00  0.00    -0.346 OA
ATOM     38  H5  UNL     1     -22.381  -2.923   3.188  1.00  0.00     0.219 HD
ENDBRANCH  35  37
BRANCH  36  39
HETATM   39  C25 UNL     1     -19.158  -3.026   3.689  1.00  0.00     0.169 C 
BRANCH  39  40
HETATM   40  C26 UNL     1     -19.793  -2.215   4.717  1.00  0.00    -0.040 A 
HETATM   41  C27 UNL     1     -19.561  -0.865   4.848  1.00  0.00     0.010 A 
HETATM   42  C28 UNL     1     -20.167  -0.116   5.834  1.00  0.00     0.019 A 
HETATM   43  C29 UNL     1     -21.033  -0.716   6.720  1.00  0.00     0.011 A 
HETATM   44 BR1  UNL     1     -21.885   0.325   8.105  1.00  0.00    -0.051 Br
HETATM   45  C30 UNL     1     -21.285  -2.064   6.613  1.00  0.00     0.019 A 
HETATM   46  C31 UNL     1     -20.661  -2.772   5.620  1.00  0.00     0.010 A 
ENDBRANCH  39  40
ENDBRANCH  36  39
ENDBRANCH  31  32
ENDBRANCH  28  31
ENDBRANCH  27  28
ENDBRANCH   1  27
TORSDOF 11
ENDMDL
