MODEL 1
REMARK VINA RESULT: -7.203954373      0.000      0.000
REMARK  6 active torsions:
REMARK  status: ('A' for Active; 'I' for Inactive)
REMARK    1  A    between atoms: C4_4  and  O1_5 
REMARK    2  A    between atoms: C17_19  and  O2_20 
REMARK    3  A    between atoms: O2_20  and  C18_21 
REMARK    4  A    between atoms: C18_21  and  C19_22 
REMARK    5  A    between atoms: C19_22  and  C20_23 
REMARK    6  A    between atoms: C20_23  and  N1_24 
ROOT
HETATM    1  C1  UNL     1      11.964  37.780   8.658  1.00  0.00     0.010 C 
HETATM    2  C2  UNL     1      12.453  36.667   9.569  1.00  0.00    -0.015 C 
HETATM    3  C3  UNL     1      13.556  37.223  10.439  1.00  0.00     0.040 C 
HETATM    4  C4  UNL     1      14.816  37.236   9.640  1.00  0.00     0.147 C 
HETATM    5  C5  UNL     1      15.188  35.810   9.275  1.00  0.00    -0.050 C 
HETATM    6  C6  UNL     1      16.389  35.499   8.929  1.00  0.00    -0.021 C 
HETATM    7  C7  UNL     1      16.818  34.161   8.566  1.00  0.00     0.033 C 
HETATM    8  C8  UNL     1      15.787  33.081   8.531  1.00  0.00     0.006 C 
HETATM    9  C9  UNL     1      14.385  33.566   8.527  1.00  0.00    -0.032 C 
HETATM   10  C10 UNL     1      14.013  33.970   7.082  1.00  0.00     0.016 C 
HETATM   11  C11 UNL     1      13.352  32.568   8.916  1.00  0.00     0.011 C 
HETATM   12  C12 UNL     1      13.806  31.638  10.052  1.00  0.00     0.007 C 
HETATM   13  C13 UNL     1      15.001  30.935   9.465  1.00  0.00     0.004 C 
HETATM   14  C14 UNL     1      15.320  29.658  10.182  1.00  0.00    -0.017 C 
HETATM   15  C15 UNL     1      15.926  28.628   9.246  1.00  0.00     0.018 C 
HETATM   16  C16 UNL     1      13.946  29.043  10.531  1.00  0.00     0.018 C 
HETATM   17  C17 UNL     1      16.125  29.819  11.417  1.00  0.00     0.129 C 
HETATM   18  C25 UNL     1      16.301  31.261  11.853  1.00  0.00     0.033 C 
HETATM   19  C26 UNL     1      16.516  32.274  10.818  1.00  0.00     0.012 C 
HETATM   20  C27 UNL     1      16.122  31.924   9.433  1.00  0.00    -0.035 C 
HETATM   21  C28 UNL     1      17.360  31.242   8.818  1.00  0.00     0.016 C 
HETATM   22  C29 UNL     1      14.127  34.805   9.329  1.00  0.00     0.026 C 
HETATM   23  C30 UNL     1      12.890  35.506   8.742  1.00  0.00     0.014 C 
ENDROOT
BRANCH  17  24
HETATM   24  O2  UNL     1      15.478  29.189  12.464  1.00  0.00    -0.385 OA
BRANCH  24  25
HETATM   25  C18 UNL     1      16.241  28.647  13.463  1.00  0.00     0.170 C 
BRANCH  25  26
HETATM   26  C19 UNL     1      15.571  27.807  14.467  1.00  0.00     0.056 C 
BRANCH  26  27
HETATM   27  C20 UNL     1      14.576  26.846  13.894  1.00  0.00     0.274 C 
BRANCH  27  28
HETATM   28  N1  UNL     1      13.224  27.009  14.191  1.00  0.00     0.092 N 
HETATM   29  C21 UNL     1      12.658  26.492  15.363  1.00  0.00     0.298 C 
HETATM   30  C22 UNL     1      11.366  25.706  15.094  1.00  0.00     0.198 C 
HETATM   31  O3  UNL     1      11.505  24.767  14.107  1.00  0.00    -0.388 OA
HETATM   32  C23 UNL     1      12.277  25.147  13.034  1.00  0.00     0.198 C 
HETATM   33  C24 UNL     1      12.419  26.650  13.041  1.00  0.00     0.298 C 
ENDBRANCH  27  28
ENDBRANCH  26  27
ENDBRANCH  25  26
ENDBRANCH  24  25
ENDBRANCH  17  24
BRANCH   4  34
HETATM   34  O1  UNL     1      14.644  37.976   8.481  1.00  0.00    -0.391 OA
ATOM     35  H1  UNL     1      15.105  38.804   8.546  1.00  0.00     0.210 HD
ENDBRANCH   4  34
TORSDOF 6
ENDMDL
MODEL 2
REMARK VINA RESULT: -6.930255306      2.013      3.481
REMARK  6 active torsions:
REMARK  status: ('A' for Active; 'I' for Inactive)
REMARK    1  A    between atoms: C4_4  and  O1_5 
REMARK    2  A    between atoms: C17_19  and  O2_20 
REMARK    3  A    between atoms: O2_20  and  C18_21 
REMARK    4  A    between atoms: C18_21  and  C19_22 
REMARK    5  A    between atoms: C19_22  and  C20_23 
REMARK    6  A    between atoms: C20_23  and  N1_24 
ROOT
HETATM    1  C1  UNL     1      16.714  37.430   3.985  1.00  0.00     0.010 C 
HETATM    2  C2  UNL     1      16.210  36.105   4.531  1.00  0.00    -0.015 C 
HETATM    3  C3  UNL     1      14.702  36.099   4.432  1.00  0.00     0.040 C 
HETATM    4  C4  UNL     1      14.158  36.875   5.584  1.00  0.00     0.147 C 
HETATM    5  C5  UNL     1      14.541  36.179   6.878  1.00  0.00    -0.050 C 
HETATM    6  C6  UNL     1      13.904  36.406   7.974  1.00  0.00    -0.021 C 
HETATM    7  C7  UNL     1      14.211  35.781   9.247  1.00  0.00     0.033 C 
HETATM    8  C8  UNL     1      15.384  34.857   9.308  1.00  0.00     0.006 C 
HETATM    9  C9  UNL     1      16.308  34.958   8.152  1.00  0.00    -0.032 C 
HETATM   10  C10 UNL     1      17.246  36.165   8.381  1.00  0.00     0.016 C 
HETATM   11  C11 UNL     1      17.226  33.802   7.953  1.00  0.00     0.011 C 
HETATM   12  C12 UNL     1      16.567  32.448   8.253  1.00  0.00     0.007 C 
HETATM   13  C13 UNL     1      16.195  32.560   9.707  1.00  0.00     0.004 C 
HETATM   14  C14 UNL     1      15.982  31.221  10.347  1.00  0.00    -0.017 C 
HETATM   15  C15 UNL     1      16.362  31.237  11.816  1.00  0.00     0.018 C 
HETATM   16  C16 UNL     1      17.057  30.305   9.721  1.00  0.00     0.018 C 
HETATM   17  C17 UNL     1      14.637  30.633  10.134  1.00  0.00     0.129 C 
HETATM   18  C25 UNL     1      13.787  31.388   9.129  1.00  0.00     0.033 C 
HETATM   19  C26 UNL     1      13.847  32.852   9.136  1.00  0.00     0.012 C 
HETATM   20  C27 UNL     1      15.018  33.480   9.791  1.00  0.00    -0.035 C 
HETATM   21  C28 UNL     1      14.621  33.635  11.273  1.00  0.00     0.016 C 
HETATM   22  C29 UNL     1      15.663  35.243   6.830  1.00  0.00     0.026 C 
HETATM   23  C30 UNL     1      16.705  35.924   5.926  1.00  0.00     0.014 C 
ENDROOT
BRANCH  17  24
HETATM   24  O2  UNL     1      14.777  29.358   9.618  1.00  0.00    -0.385 OA
BRANCH  24  25
HETATM   25  C18 UNL     1      13.947  28.376  10.088  1.00  0.00     0.170 C 
BRANCH  25  26
HETATM   26  C19 UNL     1      14.054  28.001  11.506  1.00  0.00     0.056 C 
BRANCH  26  27
HETATM   27  C20 UNL     1      12.828  27.340  12.057  1.00  0.00     0.274 C 
BRANCH  27  28
HETATM   28  N1  UNL     1      12.962  26.163  12.792  1.00  0.00     0.092 N 
HETATM   29  C21 UNL     1      11.851  25.400  13.172  1.00  0.00     0.298 C 
HETATM   30  C22 UNL     1      11.878  25.026  14.661  1.00  0.00     0.198 C 
HETATM   31  O3  UNL     1      12.094  26.101  15.481  1.00  0.00    -0.388 OA
HETATM   32  C23 UNL     1      13.006  27.022  15.020  1.00  0.00     0.198 C 
HETATM   33  C24 UNL     1      13.833  26.386  13.928  1.00  0.00     0.298 C 
ENDBRANCH  27  28
ENDBRANCH  26  27
ENDBRANCH  25  26
ENDBRANCH  24  25
ENDBRANCH  17  24
BRANCH   4  34
HETATM   34  O1  UNL     1      14.675  38.161   5.585  1.00  0.00    -0.391 OA
ATOM     35  H1  UNL     1      14.328  38.655   6.319  1.00  0.00     0.210 HD
ENDBRANCH   4  34
TORSDOF 6
ENDMDL
MODEL 3
REMARK VINA RESULT: -6.929053431      2.244      4.091
REMARK  6 active torsions:
REMARK  status: ('A' for Active; 'I' for Inactive)
REMARK    1  A    between atoms: C4_4  and  O1_5 
REMARK    2  A    between atoms: C17_19  and  O2_20 
REMARK    3  A    between atoms: O2_20  and  C18_21 
REMARK    4  A    between atoms: C18_21  and  C19_22 
REMARK    5  A    between atoms: C19_22  and  C20_23 
REMARK    6  A    between atoms: C20_23  and  N1_24 
ROOT
HETATM    1  C1  UNL     1      16.387  37.680   3.485  1.00  0.00     0.010 C 
HETATM    2  C2  UNL     1      15.898  36.382   4.106  1.00  0.00    -0.015 C 
HETATM    3  C3  UNL     1      14.395  36.331   3.964  1.00  0.00     0.040 C 
HETATM    4  C4  UNL     1      13.798  37.169   5.043  1.00  0.00     0.147 C 
HETATM    5  C5  UNL     1      14.157  36.573   6.393  1.00  0.00    -0.050 C 
HETATM    6  C6  UNL     1      13.482  36.857   7.452  1.00  0.00    -0.021 C 
HETATM    7  C7  UNL     1      13.765  36.327   8.773  1.00  0.00     0.033 C 
HETATM    8  C8  UNL     1      14.957  35.440   8.931  1.00  0.00     0.006 C 
HETATM    9  C9  UNL     1      15.914  35.486   7.797  1.00  0.00    -0.032 C 
HETATM   10  C10 UNL     1      16.815  36.731   7.970  1.00  0.00     0.016 C 
HETATM   11  C11 UNL     1      16.864  34.344   7.705  1.00  0.00     0.011 C 
HETATM   12  C12 UNL     1      16.228  32.996   8.078  1.00  0.00     0.007 C 
HETATM   13  C13 UNL     1      15.810  33.198   9.510  1.00  0.00     0.004 C 
HETATM   14  C14 UNL     1      15.609  31.900  10.233  1.00  0.00    -0.017 C 
HETATM   15  C15 UNL     1      15.944  32.025  11.708  1.00  0.00     0.018 C 
HETATM   16  C16 UNL     1      16.725  30.972   9.703  1.00  0.00     0.018 C 
HETATM   17  C17 UNL     1      14.286  31.265  10.022  1.00  0.00     0.129 C 
HETATM   18  C25 UNL     1      13.449  31.928   8.945  1.00  0.00     0.033 C 
HETATM   19  C26 UNL     1      13.474  33.389   8.853  1.00  0.00     0.012 C 
HETATM   20  C27 UNL     1      14.610  34.091   9.497  1.00  0.00    -0.035 C 
HETATM   21  C28 UNL     1      14.164  34.335  10.952  1.00  0.00     0.016 C 
HETATM   22  C29 UNL     1      15.302  35.664   6.442  1.00  0.00     0.026 C 
HETATM   23  C30 UNL     1      16.354  36.309   5.523  1.00  0.00     0.014 C 
ENDROOT
BRANCH  17  24
HETATM   24  O2  UNL     1      14.472  29.961   9.600  1.00  0.00    -0.385 OA
BRANCH  24  25
HETATM   25  C18 UNL     1      13.500  29.043   9.891  1.00  0.00     0.170 C 
BRANCH  25  26
HETATM   26  C19 UNL     1      13.836  27.948  10.814  1.00  0.00     0.056 C 
BRANCH  26  27
HETATM   27  C20 UNL     1      14.974  28.256  11.738  1.00  0.00     0.274 C 
BRANCH  27  28
HETATM   28  N1  UNL     1      14.984  27.696  13.014  1.00  0.00     0.092 N 
HETATM   29  C21 UNL     1      13.875  27.776  13.864  1.00  0.00     0.298 C 
HETATM   30  C22 UNL     1      14.248  28.251  15.276  1.00  0.00     0.198 C 
HETATM   31  O3  UNL     1      15.004  29.394  15.274  1.00  0.00    -0.388 OA
HETATM   32  C23 UNL     1      15.954  29.473  14.282  1.00  0.00     0.198 C 
HETATM   33  C24 UNL     1      16.188  28.092  13.718  1.00  0.00     0.298 C 
ENDBRANCH  27  28
ENDBRANCH  26  27
ENDBRANCH  25  26
ENDBRANCH  24  25
ENDBRANCH  17  24
BRANCH   4  34
HETATM   34  O1  UNL     1      14.283  38.465   4.972  1.00  0.00    -0.391 OA
ATOM     35  H1  UNL     1      14.648  38.634   4.111  1.00  0.00     0.210 HD
ENDBRANCH   4  34
TORSDOF 6
ENDMDL
MODEL 4
REMARK VINA RESULT: -6.696950688      2.258      3.452
REMARK  6 active torsions:
REMARK  status: ('A' for Active; 'I' for Inactive)
REMARK    1  A    between atoms: C4_4  and  O1_5 
REMARK    2  A    between atoms: C17_19  and  O2_20 
REMARK    3  A    between atoms: O2_20  and  C18_21 
REMARK    4  A    between atoms: C18_21  and  C19_22 
REMARK    5  A    between atoms: C19_22  and  C20_23 
REMARK    6  A    between atoms: C20_23  and  N1_24 
ROOT
HETATM    1  C1  UNL     1      11.974  37.656   8.661  1.00  0.00     0.010 C 
HETATM    2  C2  UNL     1      12.479  36.553   9.576  1.00  0.00    -0.015 C 
HETATM    3  C3  UNL     1      13.580  37.127  10.439  1.00  0.00     0.040 C 
HETATM    4  C4  UNL     1      14.836  37.148   9.634  1.00  0.00     0.147 C 
HETATM    5  C5  UNL     1      15.222  35.725   9.275  1.00  0.00    -0.050 C 
HETATM    6  C6  UNL     1      16.424  35.424   8.925  1.00  0.00    -0.021 C 
HETATM    7  C7  UNL     1      16.866  34.088   8.569  1.00  0.00     0.033 C 
HETATM    8  C8  UNL     1      15.847  32.997   8.545  1.00  0.00     0.006 C 
HETATM    9  C9  UNL     1      14.440  33.467   8.545  1.00  0.00    -0.032 C 
HETATM   10  C10 UNL     1      14.057  33.858   7.098  1.00  0.00     0.016 C 
HETATM   11  C11 UNL     1      13.419  32.460   8.944  1.00  0.00     0.011 C 
HETATM   12  C12 UNL     1      13.889  31.542  10.083  1.00  0.00     0.007 C 
HETATM   13  C13 UNL     1      15.088  30.849   9.495  1.00  0.00     0.004 C 
HETATM   14  C14 UNL     1      15.424  29.579  10.218  1.00  0.00    -0.017 C 
HETATM   15  C15 UNL     1      16.037  28.551   9.286  1.00  0.00     0.018 C 
HETATM   16  C16 UNL     1      14.059  28.952  10.577  1.00  0.00     0.018 C 
HETATM   17  C17 UNL     1      16.233  29.756  11.448  1.00  0.00     0.129 C 
HETATM   18  C25 UNL     1      16.396  31.203  11.876  1.00  0.00     0.033 C 
HETATM   19  C26 UNL     1      16.595  32.212  10.834  1.00  0.00     0.012 C 
HETATM   20  C27 UNL     1      16.199  31.850   9.452  1.00  0.00    -0.035 C 
HETATM   21  C28 UNL     1      17.442  31.177   8.836  1.00  0.00     0.016 C 
HETATM   22  C29 UNL     1      14.172  34.708   9.340  1.00  0.00     0.026 C 
HETATM   23  C30 UNL     1      12.925  35.393   8.754  1.00  0.00     0.014 C 
ENDROOT
BRANCH  17  24
HETATM   24  O2  UNL     1      15.597  29.126  12.503  1.00  0.00    -0.385 OA
BRANCH  24  25
HETATM   25  C18 UNL     1      16.056  29.365  13.770  1.00  0.00     0.170 C 
BRANCH  25  26
HETATM   26  C19 UNL     1      16.585  28.229  14.540  1.00  0.00     0.056 C 
BRANCH  26  27
HETATM   27  C20 UNL     1      17.993  28.415  15.014  1.00  0.00     0.274 C 
BRANCH  27  28
HETATM   28  N1  UNL     1      18.388  27.832  16.217  1.00  0.00     0.092 N 
HETATM   29  C21 UNL     1      17.581  27.879  17.360  1.00  0.00     0.298 C 
HETATM   30  C22 UNL     1      18.354  28.334  18.607  1.00  0.00     0.198 C 
HETATM   31  O3  UNL     1      19.064  29.488  18.405  1.00  0.00    -0.388 OA
HETATM   32  C23 UNL     1      19.674  29.601  17.177  1.00  0.00     0.198 C 
HETATM   33  C24 UNL     1      19.743  28.234  16.539  1.00  0.00     0.298 C 
ENDBRANCH  27  28
ENDBRANCH  26  27
ENDBRANCH  25  26
ENDBRANCH  24  25
ENDBRANCH  17  24
BRANCH   4  34
HETATM   34  O1  UNL     1      14.651  37.879   8.471  1.00  0.00    -0.391 OA
ATOM     35  H1  UNL     1      14.710  38.810   8.653  1.00  0.00     0.210 HD
ENDBRANCH   4  34
TORSDOF 6
ENDMDL
MODEL 5
REMARK VINA RESULT: -6.662044626      4.228      6.536
REMARK  6 active torsions:
REMARK  status: ('A' for Active; 'I' for Inactive)
REMARK    1  A    between atoms: C4_4  and  O1_5 
REMARK    2  A    between atoms: C17_19  and  O2_20 
REMARK    3  A    between atoms: O2_20  and  C18_21 
REMARK    4  A    between atoms: C18_21  and  C19_22 
REMARK    5  A    between atoms: C19_22  and  C20_23 
REMARK    6  A    between atoms: C20_23  and  N1_24 
ROOT
HETATM    1  C1  UNL     1      12.477  38.449  10.081  1.00  0.00     0.010 C 
HETATM    2  C2  UNL     1      13.646  37.561  10.472  1.00  0.00    -0.015 C 
HETATM    3  C3  UNL     1      14.924  38.326  10.216  1.00  0.00     0.040 C 
HETATM    4  C4  UNL     1      15.235  38.235   8.760  1.00  0.00     0.147 C 
HETATM    5  C5  UNL     1      15.482  36.782   8.394  1.00  0.00    -0.050 C 
HETATM    6  C6  UNL     1      16.125  36.460   7.325  1.00  0.00    -0.021 C 
HETATM    7  C7  UNL     1      16.399  35.096   6.911  1.00  0.00     0.033 C 
HETATM    8  C8  UNL     1      15.846  33.988   7.745  1.00  0.00     0.006 C 
HETATM    9  C9  UNL     1      14.788  34.402   8.699  1.00  0.00    -0.032 C 
HETATM   10  C10 UNL     1      13.449  34.494   7.932  1.00  0.00     0.016 C 
HETATM   11  C11 UNL     1      14.517  33.456   9.816  1.00  0.00     0.011 C 
HETATM   12  C12 UNL     1      15.787  32.791  10.368  1.00  0.00     0.007 C 
HETATM   13  C13 UNL     1      16.324  32.037   9.180  1.00  0.00     0.004 C 
HETATM   14  C14 UNL     1      17.268  30.942   9.579  1.00  0.00    -0.017 C 
HETATM   15  C15 UNL     1      17.209  29.775   8.611  1.00  0.00     0.018 C 
HETATM   16  C16 UNL     1      16.666  30.350  10.873  1.00  0.00     0.018 C 
HETATM   17  C17 UNL     1      18.663  31.379   9.829  1.00  0.00     0.129 C 
HETATM   18  C25 UNL     1      18.842  32.885   9.847  1.00  0.00     0.033 C 
HETATM   19  C26 UNL     1      18.092  33.682   8.874  1.00  0.00     0.012 C 
HETATM   20  C27 UNL     1      16.909  33.048   8.245  1.00  0.00    -0.035 C 
HETATM   21  C28 UNL     1      17.453  32.312   7.005  1.00  0.00     0.016 C 
HETATM   22  C29 UNL     1      14.958  35.762   9.302  1.00  0.00     0.026 C 
HETATM   23  C30 UNL     1      13.569  36.279   9.715  1.00  0.00     0.014 C 
ENDROOT
BRANCH  17  24
HETATM   24  O2  UNL     1      19.056  30.942  11.081  1.00  0.00    -0.385 OA
BRANCH  24  25
HETATM   25  C18 UNL     1      20.018  29.971  11.153  1.00  0.00     0.170 C 
BRANCH  25  26
HETATM   26  C19 UNL     1      21.276  30.187  10.421  1.00  0.00     0.056 C 
BRANCH  26  27
HETATM   27  C20 UNL     1      22.123  31.290  10.976  1.00  0.00     0.274 C 
BRANCH  27  28
HETATM   28  N1  UNL     1      23.345  30.977  11.567  1.00  0.00     0.092 N 
HETATM   29  C21 UNL     1      23.798  31.633  12.718  1.00  0.00     0.298 C 
HETATM   30  C22 UNL     1      25.247  32.123  12.584  1.00  0.00     0.198 C 
HETATM   31  O3  UNL     1      25.466  32.841  11.439  1.00  0.00    -0.388 OA
HETATM   32  C23 UNL     1      24.825  32.372  10.315  1.00  0.00     0.198 C 
HETATM   33  C24 UNL     1      24.388  30.948  10.561  1.00  0.00     0.298 C 
ENDBRANCH  27  28
ENDBRANCH  26  27
ENDBRANCH  25  26
ENDBRANCH  24  25
ENDBRANCH  17  24
BRANCH   4  34
HETATM   34  O1  UNL     1      14.176  38.722   8.009  1.00  0.00    -0.391 OA
ATOM     35  H1  UNL     1      14.373  39.594   7.689  1.00  0.00     0.210 HD
ENDBRANCH   4  34
TORSDOF 6
ENDMDL
