MODEL 1
REMARK VINA RESULT: -9.313490168      0.000      0.000
REMARK  11 active torsions:
REMARK  status: ('A' for Active; 'I' for Inactive)
REMARK    1  A    between atoms: N1_1  and  C1_4 
REMARK    2  A    between atoms: C2_10  and  N4_11 
REMARK    3  A    between atoms: N4_11  and  C3_13 
REMARK    4  A    between atoms: C3_13  and  C4_14 
REMARK    5  A    between atoms: C4_14  and  C5_16 
REMARK    6  A    between atoms: C5_16  and  O3_17 
REMARK    7  A    between atoms: O3_17  and  C6_18 
REMARK    8  A    between atoms: C9_21  and  O4_22 
REMARK    9  A    between atoms: C11_25  and  S1_26 
REMARK   10  A    between atoms: S1_26  and  N5_29 
REMARK       I    between atoms: N5_29  and  C12_31 
REMARK   11  A    between atoms: C13_34  and  O8_35 
ROOT
HETATM    1  C6  UNL     1     -16.194 -16.335 -30.975  1.00  0.00     0.187 A 
HETATM    2  C7  UNL     1     -15.900 -15.630 -32.147  1.00  0.00     0.081 A 
HETATM    3  C8  UNL     1     -14.730 -14.931 -31.941  1.00  0.00     0.038 A 
HETATM    4  C9  UNL     1     -13.981 -14.085 -32.732  1.00  0.00     0.080 A 
HETATM    5  C10 UNL     1     -12.831 -13.538 -32.206  1.00  0.00     0.065 A 
HETATM    6  C11 UNL     1     -12.417 -13.821 -30.907  1.00  0.00     0.118 A 
HETATM    7  C13 UNL     1     -13.185 -14.665 -30.152  1.00  0.00     0.124 A 
HETATM    8  C14 UNL     1     -14.353 -15.244 -30.632  1.00  0.00     0.126 A 
HETATM    9  O9  UNL     1     -15.247 -16.061 -30.133  1.00  0.00    -0.284 OA
ENDROOT
BRANCH   1  10
HETATM   10  O3  UNL     1     -17.317 -17.143 -30.853  1.00  0.00    -0.323 OA
BRANCH  10  11
HETATM   11  C5  UNL     1     -18.570 -16.708 -31.327  1.00  0.00     0.258 C 
BRANCH  11  12
HETATM   12  C4  UNL     1     -19.625 -17.690 -31.168  1.00  0.00     0.168 C 
HETATM   13  O2  UNL     1     -20.318 -17.946 -32.166  1.00  0.00    -0.294 OA
BRANCH  12  14
HETATM   14  C3  UNL     1     -19.964 -18.418 -29.941  1.00  0.00     0.202 C 
BRANCH  14  15
HETATM   15  N4  UNL     1     -19.381 -17.797 -28.801  1.00  0.00    -0.365 N 
ATOM     16  H4  UNL     1     -18.363 -17.781 -28.736  1.00  0.00     0.161 HD
BRANCH  15  17
HETATM   17  C2  UNL     1     -20.055 -17.251 -27.843  1.00  0.00     0.169 A 
HETATM   18  C1  UNL     1     -20.160 -15.897 -27.623  1.00  0.00     0.167 A 
HETATM   19  N2  UNL     1     -20.944 -15.741 -26.535  1.00  0.00    -0.222 N 
HETATM   20  O1  UNL     1     -21.289 -16.916 -26.123  1.00  0.00    -0.153 OA
ATOM     21  H2  UNL     1     -21.216 -14.854 -26.113  1.00  0.00     0.198 HD
HETATM   22  N3  UNL     1     -20.780 -17.842 -26.877  1.00  0.00    -0.222 N 
ATOM     23  H3  UNL     1     -20.909 -18.847 -26.757  1.00  0.00     0.198 HD
BRANCH  18  24
HETATM   24  N1  UNL     1     -19.646 -14.910 -28.275  1.00  0.00    -0.381 N 
ATOM     25  H12 UNL     1     -20.090 -14.234 -28.897  1.00  0.00     0.157 HD
ATOM     26  H11 UNL     1     -18.655 -14.671 -28.243  1.00  0.00     0.157 HD
ENDBRANCH  18  24
ENDBRANCH  15  17
ENDBRANCH  14  15
ENDBRANCH  12  14
ENDBRANCH  11  12
ENDBRANCH  10  11
ENDBRANCH   1  10
BRANCH   4  27
HETATM   27  O4  UNL     1     -14.426 -13.827 -34.020  1.00  0.00    -0.360 OA
ATOM     28  H4  UNL     1     -13.891 -13.274 -34.576  1.00  0.00     0.217 HD
ENDBRANCH   4  27
BRANCH   7  29
HETATM   29  O8  UNL     1     -12.799 -14.967 -28.856  1.00  0.00    -0.357 OA
ATOM     30  H8  UNL     1     -13.462 -15.114 -28.191  1.00  0.00     0.218 HD
ENDBRANCH   7  29
BRANCH   6  31
HETATM   31  S1  UNL     1     -10.942 -13.103 -30.271  1.00  0.00     0.269 S 
HETATM   32  O5  UNL     1     -10.514 -11.918 -31.096  1.00  0.00    -0.200 OA
HETATM   33  O6  UNL     1      -9.878 -14.171 -30.311  1.00  0.00    -0.200 OA
BRANCH  31  34
HETATM   34  N5  UNL     1     -11.161 -12.676 -28.612  1.00  0.00    -0.234 N 
HETATM   35  C12 UNL     1     -11.993 -11.592 -28.220  1.00  0.00     0.342 C 
HETATM   36  N6  UNL     1     -12.183 -11.231 -26.868  1.00  0.00    -0.039 NA
HETATM   37  O7  UNL     1     -12.591 -10.915 -29.097  1.00  0.00    -0.250 OA
ATOM     38  H5  UNL     1     -10.681 -13.217 -27.893  1.00  0.00     0.183 HD
ENDBRANCH  31  34
ENDBRANCH   6  31
TORSDOF 11
ENDMDL
MODEL 2
REMARK VINA RESULT: -9.259707707      3.064      7.858
REMARK  11 active torsions:
REMARK  status: ('A' for Active; 'I' for Inactive)
REMARK    1  A    between atoms: N1_1  and  C1_4 
REMARK    2  A    between atoms: C2_10  and  N4_11 
REMARK    3  A    between atoms: N4_11  and  C3_13 
REMARK    4  A    between atoms: C3_13  and  C4_14 
REMARK    5  A    between atoms: C4_14  and  C5_16 
REMARK    6  A    between atoms: C5_16  and  O3_17 
REMARK    7  A    between atoms: O3_17  and  C6_18 
REMARK    8  A    between atoms: C9_21  and  O4_22 
REMARK    9  A    between atoms: C11_25  and  S1_26 
REMARK   10  A    between atoms: S1_26  and  N5_29 
REMARK       I    between atoms: N5_29  and  C12_31 
REMARK   11  A    between atoms: C13_34  and  O8_35 
ROOT
HETATM    1  C6  UNL     1     -10.392 -13.523 -31.590  1.00  0.00     0.187 A 
HETATM    2  C7  UNL     1     -10.672 -13.202 -32.923  1.00  0.00     0.081 A 
HETATM    3  C8  UNL     1     -12.004 -13.467 -33.154  1.00  0.00     0.038 A 
HETATM    4  C9  UNL     1     -12.815 -13.345 -34.263  1.00  0.00     0.080 A 
HETATM    5  C10 UNL     1     -14.141 -13.708 -34.153  1.00  0.00     0.065 A 
HETATM    6  C11 UNL     1     -14.667 -14.189 -32.957  1.00  0.00     0.118 A 
HETATM    7  C13 UNL     1     -13.833 -14.296 -31.878  1.00  0.00     0.124 A 
HETATM    8  C14 UNL     1     -12.490 -13.945 -31.933  1.00  0.00     0.126 A 
HETATM    9  O9  UNL     1     -11.502 -13.951 -31.074  1.00  0.00    -0.284 OA
ENDROOT
BRANCH   1  10
HETATM   10  O3  UNL     1      -9.128 -13.370 -31.036  1.00  0.00    -0.323 OA
BRANCH  10  11
HETATM   11  C5  UNL     1      -8.535 -12.096 -30.940  1.00  0.00     0.258 C 
BRANCH  11  12
HETATM   12  C4  UNL     1      -9.366 -11.118 -30.263  1.00  0.00     0.168 C 
HETATM   13  O2  UNL     1      -9.632 -10.075 -30.881  1.00  0.00    -0.294 OA
BRANCH  12  14
HETATM   14  C3  UNL     1      -9.928 -11.232 -28.913  1.00  0.00     0.202 C 
BRANCH  14  15
HETATM   15  N4  UNL     1     -11.239 -11.785 -28.952  1.00  0.00    -0.365 N 
ATOM     16  H4  UNL     1     -11.659 -11.950 -29.866  1.00  0.00     0.161 HD
BRANCH  15  17
HETATM   17  C2  UNL     1     -11.932 -12.092 -27.905  1.00  0.00     0.169 A 
HETATM   18  C1  UNL     1     -12.579 -13.290 -27.710  1.00  0.00     0.167 A 
HETATM   19  N2  UNL     1     -13.182 -13.214 -26.505  1.00  0.00    -0.222 N 
HETATM   20  O1  UNL     1     -12.921 -12.052 -26.004  1.00  0.00    -0.153 OA
ATOM     21  H2  UNL     1     -13.743 -13.943 -26.067  1.00  0.00     0.198 HD
HETATM   22  N3  UNL     1     -12.178 -11.354 -26.808  1.00  0.00    -0.222 N 
ATOM     23  H3  UNL     1     -11.838 -10.408 -26.637  1.00  0.00     0.198 HD
BRANCH  18  24
HETATM   24  N1  UNL     1     -12.646 -14.329 -28.473  1.00  0.00    -0.381 N 
ATOM     25  H12 UNL     1     -13.050 -14.432 -29.404  1.00  0.00     0.157 HD
ATOM     26  H11 UNL     1     -12.273 -15.241 -28.213  1.00  0.00     0.157 HD
ENDBRANCH  18  24
ENDBRANCH  15  17
ENDBRANCH  14  15
ENDBRANCH  12  14
ENDBRANCH  11  12
ENDBRANCH  10  11
ENDBRANCH   1  10
BRANCH   4  27
HETATM   27  O4  UNL     1     -12.255 -12.863 -35.435  1.00  0.00    -0.360 OA
ATOM     28  H4  UNL     1     -11.852 -13.485 -36.030  1.00  0.00     0.217 HD
ENDBRANCH   4  27
BRANCH   7  29
HETATM   29  O8  UNL     1     -14.328 -14.772 -30.674  1.00  0.00    -0.357 OA
ATOM     30  H8  UNL     1     -14.497 -15.700 -30.570  1.00  0.00     0.218 HD
ENDBRANCH   7  29
BRANCH   6  31
HETATM   31  S1  UNL     1     -16.365 -14.642 -32.856  1.00  0.00     0.269 S 
HETATM   32  O5  UNL     1     -17.044 -14.511 -34.194  1.00  0.00    -0.200 OA
HETATM   33  O6  UNL     1     -17.010 -13.716 -31.856  1.00  0.00    -0.200 OA
BRANCH  31  34
HETATM   34  N5  UNL     1     -16.512 -16.243 -32.224  1.00  0.00    -0.234 N 
HETATM   35  C12 UNL     1     -17.671 -16.666 -31.517  1.00  0.00     0.342 C 
HETATM   36  N6  UNL     1     -17.807 -17.970 -30.994  1.00  0.00    -0.039 NA
HETATM   37  O7  UNL     1     -18.622 -15.862 -31.341  1.00  0.00    -0.250 OA
ATOM     38  H5  UNL     1     -15.746 -16.902 -32.360  1.00  0.00     0.183 HD
ENDBRANCH  31  34
ENDBRANCH   6  31
TORSDOF 11
ENDMDL
MODEL 3
REMARK VINA RESULT: -9.210425444      1.475      1.564
REMARK  11 active torsions:
REMARK  status: ('A' for Active; 'I' for Inactive)
REMARK    1  A    between atoms: N1_1  and  C1_4 
REMARK    2  A    between atoms: C2_10  and  N4_11 
REMARK    3  A    between atoms: N4_11  and  C3_13 
REMARK    4  A    between atoms: C3_13  and  C4_14 
REMARK    5  A    between atoms: C4_14  and  C5_16 
REMARK    6  A    between atoms: C5_16  and  O3_17 
REMARK    7  A    between atoms: O3_17  and  C6_18 
REMARK    8  A    between atoms: C9_21  and  O4_22 
REMARK    9  A    between atoms: C11_25  and  S1_26 
REMARK   10  A    between atoms: S1_26  and  N5_29 
REMARK       I    between atoms: N5_29  and  C12_31 
REMARK   11  A    between atoms: C13_34  and  O8_35 
ROOT
HETATM    1  C6  UNL     1     -15.960 -17.076 -31.113  1.00  0.00     0.187 A 
HETATM    2  C7  UNL     1     -14.887 -17.421 -31.943  1.00  0.00     0.081 A 
HETATM    3  C8  UNL     1     -13.808 -16.641 -31.589  1.00  0.00     0.038 A 
HETATM    4  C9  UNL     1     -12.513 -16.550 -32.055  1.00  0.00     0.080 A 
HETATM    5  C10 UNL     1     -11.662 -15.640 -31.463  1.00  0.00     0.065 A 
HETATM    6  C11 UNL     1     -12.083 -14.823 -30.417  1.00  0.00     0.118 A 
HETATM    7  C13 UNL     1     -13.375 -14.942 -29.981  1.00  0.00     0.124 A 
HETATM    8  C14 UNL     1     -14.273 -15.842 -30.541  1.00  0.00     0.126 A 
HETATM    9  O9  UNL     1     -15.527 -16.147 -30.319  1.00  0.00    -0.284 OA
ENDROOT
BRANCH   1  10
HETATM   10  O3  UNL     1     -17.204 -17.683 -31.214  1.00  0.00    -0.323 OA
BRANCH  10  11
HETATM   11  C5  UNL     1     -18.381 -16.910 -31.236  1.00  0.00     0.258 C 
BRANCH  11  12
HETATM   12  C4  UNL     1     -19.596 -17.695 -31.125  1.00  0.00     0.168 C 
HETATM   13  O2  UNL     1     -20.292 -17.811 -32.147  1.00  0.00    -0.294 OA
BRANCH  12  14
HETATM   14  C3  UNL     1     -20.093 -18.373 -29.924  1.00  0.00     0.202 C 
BRANCH  14  15
HETATM   15  N4  UNL     1     -19.483 -17.844 -28.751  1.00  0.00    -0.365 N 
ATOM     16  H4  UNL     1     -18.470 -17.923 -28.665  1.00  0.00     0.161 HD
BRANCH  15  17
HETATM   17  C2  UNL     1     -20.127 -17.272 -27.788  1.00  0.00     0.169 A 
HETATM   18  C1  UNL     1     -20.180 -15.914 -27.572  1.00  0.00     0.167 A 
HETATM   19  N2  UNL     1     -20.948 -15.726 -26.477  1.00  0.00    -0.222 N 
HETATM   20  O1  UNL     1     -21.333 -16.886 -26.059  1.00  0.00    -0.153 OA
ATOM     21  H2  UNL     1     -21.183 -14.828 -26.055  1.00  0.00     0.198 HD
HETATM   22  N3  UNL     1     -20.866 -17.833 -26.814  1.00  0.00    -0.222 N 
ATOM     23  H3  UNL     1     -21.030 -18.832 -26.690  1.00  0.00     0.198 HD
BRANCH  18  24
HETATM   24  N1  UNL     1     -19.636 -14.948 -28.231  1.00  0.00    -0.381 N 
ATOM     25  H12 UNL     1     -20.037 -14.328 -28.935  1.00  0.00     0.157 HD
ATOM     26  H11 UNL     1     -18.662 -14.669 -28.117  1.00  0.00     0.157 HD
ENDBRANCH  18  24
ENDBRANCH  15  17
ENDBRANCH  14  15
ENDBRANCH  12  14
ENDBRANCH  11  12
ENDBRANCH  10  11
ENDBRANCH   1  10
BRANCH   4  27
HETATM   27  O4  UNL     1     -12.131 -17.379 -33.098  1.00  0.00    -0.360 OA
ATOM     28  H4  UNL     1     -12.316 -17.098 -33.986  1.00  0.00     0.217 HD
ENDBRANCH   4  27
BRANCH   7  29
HETATM   29  O8  UNL     1     -13.823 -14.143 -28.941  1.00  0.00    -0.357 OA
ATOM     30  H8  UNL     1     -14.433 -13.438 -29.121  1.00  0.00     0.218 HD
ENDBRANCH   7  29
BRANCH   6  31
HETATM   31  S1  UNL     1     -10.968 -13.674 -29.688  1.00  0.00     0.269 S 
HETATM   32  O5  UNL     1      -9.683 -13.591 -30.470  1.00  0.00    -0.200 OA
HETATM   33  O6  UNL     1     -10.689 -14.158 -28.287  1.00  0.00    -0.200 OA
BRANCH  31  34
HETATM   34  N5  UNL     1     -11.725 -12.128 -29.543  1.00  0.00    -0.234 N 
HETATM   35  C12 UNL     1     -11.059 -11.020 -28.949  1.00  0.00     0.342 C 
HETATM   36  N6  UNL     1     -11.664  -9.751 -28.823  1.00  0.00    -0.039 NA
HETATM   37  O7  UNL     1      -9.887 -11.158 -28.512  1.00  0.00    -0.250 OA
ATOM     38  H5  UNL     1     -12.675 -12.007 -29.892  1.00  0.00     0.183 HD
ENDBRANCH  31  34
ENDBRANCH   6  31
TORSDOF 11
ENDMDL
MODEL 4
REMARK VINA RESULT: -9.149934321      1.351      1.613
REMARK  11 active torsions:
REMARK  status: ('A' for Active; 'I' for Inactive)
REMARK    1  A    between atoms: N1_1  and  C1_4 
REMARK    2  A    between atoms: C2_10  and  N4_11 
REMARK    3  A    between atoms: N4_11  and  C3_13 
REMARK    4  A    between atoms: C3_13  and  C4_14 
REMARK    5  A    between atoms: C4_14  and  C5_16 
REMARK    6  A    between atoms: C5_16  and  O3_17 
REMARK    7  A    between atoms: O3_17  and  C6_18 
REMARK    8  A    between atoms: C9_21  and  O4_22 
REMARK    9  A    between atoms: C11_25  and  S1_26 
REMARK   10  A    between atoms: S1_26  and  N5_29 
REMARK       I    between atoms: N5_29  and  C12_31 
REMARK   11  A    between atoms: C13_34  and  O8_35 
ROOT
HETATM    1  C6  UNL     1     -16.273 -16.745 -30.862  1.00  0.00     0.187 A 
HETATM    2  C7  UNL     1     -15.413 -16.398 -31.910  1.00  0.00     0.081 A 
HETATM    3  C8  UNL     1     -14.409 -15.609 -31.393  1.00  0.00     0.038 A 
HETATM    4  C9  UNL     1     -13.309 -14.991 -31.951  1.00  0.00     0.080 A 
HETATM    5  C10 UNL     1     -12.481 -14.254 -31.131  1.00  0.00     0.065 A 
HETATM    6  C11 UNL     1     -12.735 -14.124 -29.768  1.00  0.00     0.118 A 
HETATM    7  C13 UNL     1     -13.836 -14.750 -29.250  1.00  0.00     0.124 A 
HETATM    8  C14 UNL     1     -14.702 -15.505 -30.031  1.00  0.00     0.126 A 
HETATM    9  O9  UNL     1     -15.795 -16.187 -29.794  1.00  0.00    -0.284 OA
ENDROOT
BRANCH   1  10
HETATM   10  O3  UNL     1     -17.395 -17.541 -31.051  1.00  0.00    -0.323 OA
BRANCH  10  11
HETATM   11  C5  UNL     1     -18.637 -16.965 -31.382  1.00  0.00     0.258 C 
BRANCH  11  12
HETATM   12  C4  UNL     1     -19.766 -17.850 -31.164  1.00  0.00     0.168 C 
HETATM   13  O2  UNL     1     -20.491 -18.096 -32.141  1.00  0.00    -0.294 OA
BRANCH  12  14
HETATM   14  C3  UNL     1     -20.143 -18.490 -29.900  1.00  0.00     0.202 C 
BRANCH  14  15
HETATM   15  N4  UNL     1     -19.506 -17.856 -28.796  1.00  0.00    -0.365 N 
ATOM     16  H4  UNL     1     -18.486 -17.852 -28.773  1.00  0.00     0.161 HD
BRANCH  15  17
HETATM   17  C2  UNL     1     -20.133 -17.284 -27.822  1.00  0.00     0.169 A 
HETATM   18  C1  UNL     1     -20.199 -15.925 -27.615  1.00  0.00     0.167 A 
HETATM   19  N2  UNL     1     -20.941 -15.739 -26.502  1.00  0.00    -0.222 N 
HETATM   20  O1  UNL     1     -21.298 -16.900 -26.065  1.00  0.00    -0.153 OA
ATOM     21  H2  UNL     1     -21.177 -14.841 -26.082  1.00  0.00     0.198 HD
HETATM   22  N3  UNL     1     -20.838 -17.847 -26.824  1.00  0.00    -0.222 N 
ATOM     23  H3  UNL     1     -20.985 -18.847 -26.688  1.00  0.00     0.198 HD
BRANCH  18  24
HETATM   24  N1  UNL     1     -19.686 -14.958 -28.297  1.00  0.00    -0.381 N 
ATOM     25  H12 UNL     1     -19.973 -13.982 -28.366  1.00  0.00     0.157 HD
ATOM     26  H11 UNL     1     -18.867 -15.065 -28.894  1.00  0.00     0.157 HD
ENDBRANCH  18  24
ENDBRANCH  15  17
ENDBRANCH  14  15
ENDBRANCH  12  14
ENDBRANCH  11  12
ENDBRANCH  10  11
ENDBRANCH   1  10
BRANCH   4  27
HETATM   27  O4  UNL     1     -13.090 -15.144 -33.311  1.00  0.00    -0.360 OA
ATOM     28  H4  UNL     1     -13.842 -15.122 -33.892  1.00  0.00     0.217 HD
ENDBRANCH   4  27
BRANCH   7  29
HETATM   29  O8  UNL     1     -14.114 -14.639 -27.897  1.00  0.00    -0.357 OA
ATOM     30  H8  UNL     1     -14.380 -13.800 -27.540  1.00  0.00     0.218 HD
ENDBRANCH   7  29
BRANCH   6  31
HETATM   31  S1  UNL     1     -11.655 -13.173 -28.754  1.00  0.00     0.269 S 
HETATM   32  O5  UNL     1     -10.498 -14.003 -28.262  1.00  0.00    -0.200 OA
HETATM   33  O6  UNL     1     -12.470 -12.679 -27.584  1.00  0.00    -0.200 OA
BRANCH  31  34
HETATM   34  N5  UNL     1     -11.115 -11.776 -29.614  1.00  0.00    -0.234 N 
HETATM   35  C12 UNL     1     -10.337 -10.764 -28.988  1.00  0.00     0.342 C 
HETATM   36  N6  UNL     1      -9.888  -9.617 -29.677  1.00  0.00    -0.039 NA
HETATM   37  O7  UNL     1     -10.027 -10.878 -27.774  1.00  0.00    -0.250 OA
ATOM     38  H5  UNL     1     -11.361 -11.675 -30.599  1.00  0.00     0.183 HD
ENDBRANCH  31  34
ENDBRANCH   6  31
TORSDOF 11
ENDMDL
MODEL 5
REMARK VINA RESULT: -9.117021042      1.286      1.318
REMARK  11 active torsions:
REMARK  status: ('A' for Active; 'I' for Inactive)
REMARK    1  A    between atoms: N1_1  and  C1_4 
REMARK    2  A    between atoms: C2_10  and  N4_11 
REMARK    3  A    between atoms: N4_11  and  C3_13 
REMARK    4  A    between atoms: C3_13  and  C4_14 
REMARK    5  A    between atoms: C4_14  and  C5_16 
REMARK    6  A    between atoms: C5_16  and  O3_17 
REMARK    7  A    between atoms: O3_17  and  C6_18 
REMARK    8  A    between atoms: C9_21  and  O4_22 
REMARK    9  A    between atoms: C11_25  and  S1_26 
REMARK   10  A    between atoms: S1_26  and  N5_29 
REMARK       I    between atoms: N5_29  and  C12_31 
REMARK   11  A    between atoms: C13_34  and  O8_35 
ROOT
HETATM    1  C6  UNL     1     -16.151 -17.038 -31.158  1.00  0.00     0.187 A 
HETATM    2  C7  UNL     1     -15.000 -17.380 -31.877  1.00  0.00     0.081 A 
HETATM    3  C8  UNL     1     -13.990 -16.524 -31.496  1.00  0.00     0.038 A 
HETATM    4  C9  UNL     1     -12.668 -16.395 -31.867  1.00  0.00     0.080 A 
HETATM    5  C10 UNL     1     -11.911 -15.406 -31.276  1.00  0.00     0.065 A 
HETATM    6  C11 UNL     1     -12.452 -14.546 -30.324  1.00  0.00     0.118 A 
HETATM    7  C13 UNL     1     -13.767 -14.704 -29.981  1.00  0.00     0.124 A 
HETATM    8  C14 UNL     1     -14.574 -15.683 -30.544  1.00  0.00     0.126 A 
HETATM    9  O9  UNL     1     -15.827 -16.038 -30.399  1.00  0.00    -0.284 OA
ENDROOT
BRANCH   1  10
HETATM   10  O3  UNL     1     -17.353 -17.714 -31.312  1.00  0.00    -0.323 OA
BRANCH  10  11
HETATM   11  C5  UNL     1     -18.565 -17.007 -31.436  1.00  0.00     0.258 C 
BRANCH  11  12
HETATM   12  C4  UNL     1     -19.742 -17.823 -31.207  1.00  0.00     0.168 C 
HETATM   13  O2  UNL     1     -20.507 -17.998 -32.169  1.00  0.00    -0.294 OA
BRANCH  12  14
HETATM   14  C3  UNL     1     -20.127 -18.468 -29.947  1.00  0.00     0.202 C 
BRANCH  14  15
HETATM   15  N4  UNL     1     -19.488 -17.845 -28.839  1.00  0.00    -0.365 N 
ATOM     16  H4  UNL     1     -18.468 -17.849 -28.814  1.00  0.00     0.161 HD
BRANCH  15  17
HETATM   17  C2  UNL     1     -20.112 -17.275 -27.862  1.00  0.00     0.169 A 
HETATM   18  C1  UNL     1     -20.179 -15.917 -27.652  1.00  0.00     0.167 A 
HETATM   19  N2  UNL     1     -20.918 -15.733 -26.537  1.00  0.00    -0.222 N 
HETATM   20  O1  UNL     1     -21.274 -16.895 -26.101  1.00  0.00    -0.153 OA
ATOM     21  H2  UNL     1     -21.153 -14.835 -26.115  1.00  0.00     0.198 HD
HETATM   22  N3  UNL     1     -20.814 -17.840 -26.863  1.00  0.00    -0.222 N 
ATOM     23  H3  UNL     1     -20.961 -18.840 -26.728  1.00  0.00     0.198 HD
BRANCH  18  24
HETATM   24  N1  UNL     1     -19.668 -14.948 -28.334  1.00  0.00    -0.381 N 
ATOM     25  H12 UNL     1     -18.883 -14.948 -28.985  1.00  0.00     0.157 HD
ATOM     26  H11 UNL     1     -20.017 -13.991 -28.297  1.00  0.00     0.157 HD
ENDBRANCH  18  24
ENDBRANCH  15  17
ENDBRANCH  14  15
ENDBRANCH  12  14
ENDBRANCH  11  12
ENDBRANCH  10  11
ENDBRANCH   1  10
BRANCH   4  27
HETATM   27  O4  UNL     1     -12.166 -17.270 -32.818  1.00  0.00    -0.360 OA
ATOM     28  H4  UNL     1     -12.770 -17.643 -33.448  1.00  0.00     0.217 HD
ENDBRANCH   4  27
BRANCH   7  29
HETATM   29  O8  UNL     1     -14.334 -13.863 -29.036  1.00  0.00    -0.357 OA
ATOM     30  H8  UNL     1     -14.426 -12.937 -29.226  1.00  0.00     0.218 HD
ENDBRANCH   7  29
BRANCH   6  31
HETATM   31  S1  UNL     1     -11.453 -13.295 -29.592  1.00  0.00     0.269 S 
HETATM   32  O5  UNL     1     -11.521 -12.014 -30.381  1.00  0.00    -0.200 OA
HETATM   33  O6  UNL     1     -10.038 -13.816 -29.573  1.00  0.00    -0.200 OA
BRANCH  31  34
HETATM   34  N5  UNL     1     -11.921 -13.054 -27.947  1.00  0.00    -0.234 N 
HETATM   35  C12 UNL     1     -12.300 -11.775 -27.455  1.00  0.00     0.342 C 
HETATM   36  N6  UNL     1     -12.684 -11.561 -26.114  1.00  0.00    -0.039 NA
HETATM   37  O7  UNL     1     -12.297 -10.783 -28.230  1.00  0.00    -0.250 OA
ATOM     38  H5  UNL     1     -11.925 -13.851 -27.311  1.00  0.00     0.183 HD
ENDBRANCH  31  34
ENDBRANCH   6  31
TORSDOF 11
ENDMDL
