MODEL 1
REMARK VINA RESULT: -5.811730294      0.000      0.000
REMARK  12 active torsions:
REMARK  status: ('A' for Active; 'I' for Inactive)
REMARK    1  A    between atoms: C10_12  and  N2_13 
REMARK    2  A    between atoms: N2_13  and  C11_15 
REMARK    3  A    between atoms: C11_15  and  C12_16 
REMARK    4  A    between atoms: C12_16  and  C13_17 
REMARK    5  A    between atoms: C13_17  and  N3_18 
REMARK       I    between atoms: N3_18  and  C14_20 
REMARK    6  A    between atoms: C14_20  and  C15_22 
REMARK    7  A    between atoms: C19_26  and  C20_27 
REMARK    8  A    between atoms: C26_33  and  N4_34 
REMARK    9  A    between atoms: N4_34  and  C27_35 
REMARK   10  A    between atoms: C27_35  and  C28_36 
REMARK   11  A    between atoms: C27_35  and  C32_43 
REMARK   12  A    between atoms: C28_36  and  N5_37 
ROOT
HETATM    1  C1  UNL     1      16.615  11.214  23.537  1.00  0.00     0.017 C 
HETATM    2  C2  UNL     1      15.581  11.164  22.436  1.00  0.00    -0.025 C 
HETATM    3  C3  UNL     1      16.368  10.962  21.133  1.00  0.00     0.017 C 
HETATM    4  C4  UNL     1      14.850  12.457  22.295  1.00  0.00     0.015 C 
HETATM    5  C5  UNL     1      14.476  13.069  23.657  1.00  0.00     0.047 C 
HETATM    6  C6  UNL     1      13.180  12.422  24.021  1.00  0.00     0.034 A 
HETATM    7  C7  UNL     1      12.854  11.115  23.970  1.00  0.00     0.152 A 
HETATM    8  N1  UNL     1      11.652  10.717  24.338  1.00  0.00    -0.336 N 
ATOM      9  H1  UNL     1      11.431   9.722  24.289  1.00  0.00     0.168 HD
HETATM   10  C8  UNL     1      10.699  11.571  24.778  1.00  0.00     0.050 A 
HETATM   11  C9  UNL     1       9.459  11.078  25.146  1.00  0.00     0.060 A 
HETATM   12  C10 UNL     1       8.468  11.916  25.595  1.00  0.00     0.037 A 
HETATM   13  C19 UNL     1       8.733  13.245  25.672  1.00  0.00    -0.023 A 
HETATM   14  C24 UNL     1       9.988  13.750  25.300  1.00  0.00     0.027 A 
HETATM   15  C25 UNL     1      10.991  12.912  24.846  1.00  0.00     0.032 A 
HETATM   16  C26 UNL     1      12.247  13.386  24.468  1.00  0.00     0.124 A 
HETATM   17  O2  UNL     1      13.697  10.083  23.546  1.00  0.00    -0.335 OA
HETATM   18  C33 UNL     1      14.670   9.976  22.563  1.00  0.00     0.186 C 
ENDROOT
BRANCH  12  19
HETATM   19  N2  UNL     1       7.205  11.408  26.000  1.00  0.00    -0.389 N 
ATOM     20  H2  UNL     1       6.895  11.532  26.964  1.00  0.00     0.159 HD
BRANCH  19  21
HETATM   21  C11 UNL     1       6.351  10.716  25.054  1.00  0.00     0.121 C 
BRANCH  21  22
HETATM   22  C12 UNL     1       6.087  11.457  23.787  1.00  0.00     0.039 C 
BRANCH  22  23
HETATM   23  C13 UNL     1       4.598  11.746  23.574  1.00  0.00     0.124 C 
BRANCH  23  24
HETATM   24  N3  UNL     1       4.105  12.793  24.435  1.00  0.00    -0.360 N 
HETATM   25  C14 UNL     1       3.442  13.942  23.946  1.00  0.00     0.225 C 
HETATM   26  O1  UNL     1       3.248  14.111  22.716  1.00  0.00    -0.273 OA
ATOM     27  H3  UNL     1       4.240  12.700  25.442  1.00  0.00     0.162 HD
BRANCH  25  28
HETATM   28  C15 UNL     1       2.937  15.014  24.847  1.00  0.00     0.030 C 
HETATM   29  C16 UNL     1       3.429  16.379  24.439  1.00  0.00     0.024 C 
HETATM   30  C17 UNL     1       3.367  14.791  26.275  1.00  0.00     0.024 C 
HETATM   31  C18 UNL     1       1.429  14.988  24.801  1.00  0.00     0.024 C 
ENDBRANCH  25  28
ENDBRANCH  23  24
ENDBRANCH  22  23
ENDBRANCH  21  22
ENDBRANCH  19  21
ENDBRANCH  12  19
BRANCH  13  32
HETATM   32  C20 UNL     1       7.785  14.273  26.127  1.00  0.00    -0.022 C 
HETATM   33  C21 UNL     1       8.579  15.428  26.702  1.00  0.00     0.019 C 
HETATM   34  C22 UNL     1       6.903  13.802  27.287  1.00  0.00     0.019 C 
HETATM   35  C23 UNL     1       6.864  14.832  25.095  1.00  0.00     0.019 C 
ENDBRANCH  13  32
BRANCH  16  36
HETATM   36  N4  UNL     1      12.527  14.567  24.520  1.00  0.00    -0.430 NA
BRANCH  36  37
HETATM   37  C27 UNL     1      12.557  15.898  24.386  1.00  0.00     0.289 C 
BRANCH  37  38
HETATM   38  C28 UNL     1      12.524  16.662  25.751  1.00  0.00     0.177 C 
BRANCH  38  39
HETATM   39  N5  UNL     1      13.305  17.869  25.658  1.00  0.00    -0.348 N 
HETATM   40  C29 UNL     1      14.545  18.047  25.159  1.00  0.00     0.108 A 
HETATM   41  C30 UNL     1      14.918  19.370  25.265  1.00  0.00     0.106 A 
HETATM   42  N6  UNL     1      13.866  19.986  25.842  1.00  0.00    -0.361 N 
HETATM   43  C31 UNL     1      12.902  19.074  26.073  1.00  0.00     0.182 A 
ATOM     44  H6  UNL     1      13.811  20.980  26.067  1.00  0.00     0.166 HD
ENDBRANCH  38  39
ENDBRANCH  37  38
BRANCH  37  45
HETATM   45  C32 UNL     1      11.428  16.543  23.573  1.00  0.00     0.421 C 
HETATM   46  F1  UNL     1      10.483  17.020  24.498  1.00  0.00    -0.168 F 
HETATM   47  F2  UNL     1      11.852  17.633  22.857  1.00  0.00    -0.168 F 
HETATM   48  F3  UNL     1      10.761  15.692  22.764  1.00  0.00    -0.168 F 
ENDBRANCH  37  45
ENDBRANCH  36  37
ENDBRANCH  16  36
TORSDOF 12
ENDMDL
MODEL 2
REMARK VINA RESULT: -5.660425788      2.622      4.383
REMARK  12 active torsions:
REMARK  status: ('A' for Active; 'I' for Inactive)
REMARK    1  A    between atoms: C10_12  and  N2_13 
REMARK    2  A    between atoms: N2_13  and  C11_15 
REMARK    3  A    between atoms: C11_15  and  C12_16 
REMARK    4  A    between atoms: C12_16  and  C13_17 
REMARK    5  A    between atoms: C13_17  and  N3_18 
REMARK       I    between atoms: N3_18  and  C14_20 
REMARK    6  A    between atoms: C14_20  and  C15_22 
REMARK    7  A    between atoms: C19_26  and  C20_27 
REMARK    8  A    between atoms: C26_33  and  N4_34 
REMARK    9  A    between atoms: N4_34  and  C27_35 
REMARK   10  A    between atoms: C27_35  and  C28_36 
REMARK   11  A    between atoms: C27_35  and  C32_43 
REMARK   12  A    between atoms: C28_36  and  N5_37 
ROOT
HETATM    1  C1  UNL     1      12.607  11.369  26.165  1.00  0.00     0.017 C 
HETATM    2  C2  UNL     1      12.108  11.433  24.740  1.00  0.00    -0.025 C 
HETATM    3  C3  UNL     1      13.309  11.053  23.861  1.00  0.00     0.017 C 
HETATM    4  C4  UNL     1      11.713  12.816  24.346  1.00  0.00     0.015 C 
HETATM    5  C5  UNL     1      10.927  13.538  25.456  1.00  0.00     0.047 C 
HETATM    6  C6  UNL     1       9.508  13.118  25.252  1.00  0.00     0.034 A 
HETATM    7  C7  UNL     1       9.025  11.876  25.043  1.00  0.00     0.152 A 
HETATM    8  N1  UNL     1       7.730  11.687  24.886  1.00  0.00    -0.336 N 
ATOM      9  H1  UNL     1       7.391  10.738  24.729  1.00  0.00     0.168 HD
HETATM   10  C8  UNL     1       6.831  12.697  24.925  1.00  0.00     0.050 A 
HETATM   11  C9  UNL     1       5.486  12.420  24.750  1.00  0.00     0.060 A 
HETATM   12  C10 UNL     1       4.546  13.421  24.781  1.00  0.00     0.037 A 
HETATM   13  C19 UNL     1       4.967  14.694  24.989  1.00  0.00    -0.023 A 
HETATM   14  C24 UNL     1       6.329  14.980  25.167  1.00  0.00     0.027 A 
HETATM   15  C25 UNL     1       7.282  13.978  25.135  1.00  0.00     0.032 A 
HETATM   16  C26 UNL     1       8.642  14.233  25.307  1.00  0.00     0.124 A 
HETATM   17  O2  UNL     1       9.791  10.708  24.972  1.00  0.00    -0.335 OA
HETATM   18  C33 UNL     1      11.045  10.407  24.462  1.00  0.00     0.186 C 
ENDROOT
BRANCH  12  19
HETATM   19  N2  UNL     1       3.163  13.134  24.631  1.00  0.00    -0.389 N 
ATOM     20  H2  UNL     1       2.600  13.688  23.985  1.00  0.00     0.159 HD
BRANCH  19  21
HETATM   21  C11 UNL     1       2.545  12.062  25.387  1.00  0.00     0.121 C 
BRANCH  21  22
HETATM   22  C12 UNL     1       1.926  12.480  26.678  1.00  0.00     0.039 C 
BRANCH  22  23
HETATM   23  C13 UNL     1       2.588  11.819  27.890  1.00  0.00     0.124 C 
BRANCH  23  24
HETATM   24  N3  UNL     1       3.673  12.602  28.429  1.00  0.00    -0.360 N 
HETATM   25  C14 UNL     1       5.015  12.157  28.431  1.00  0.00     0.225 C 
HETATM   26  O1  UNL     1       5.334  11.038  27.957  1.00  0.00    -0.273 OA
ATOM     27  H3  UNL     1       3.463  13.518  28.827  1.00  0.00     0.162 HD
BRANCH  25  28
HETATM   28  C15 UNL     1       6.124  12.977  28.991  1.00  0.00     0.030 C 
HETATM   29  C16 UNL     1       7.471  12.542  28.471  1.00  0.00     0.024 C 
HETATM   30  C17 UNL     1       6.177  12.892  30.495  1.00  0.00     0.024 C 
HETATM   31  C18 UNL     1       5.878  14.415  28.609  1.00  0.00     0.024 C 
ENDBRANCH  25  28
ENDBRANCH  23  24
ENDBRANCH  22  23
ENDBRANCH  21  22
ENDBRANCH  19  21
ENDBRANCH  12  19
BRANCH  13  32
HETATM   32  C20 UNL     1       4.094  15.877  25.047  1.00  0.00    -0.022 C 
HETATM   33  C21 UNL     1       4.971  17.111  25.098  1.00  0.00     0.019 C 
HETATM   34  C22 UNL     1       3.265  15.945  26.333  1.00  0.00     0.019 C 
HETATM   35  C23 UNL     1       3.137  16.053  23.916  1.00  0.00     0.019 C 
ENDBRANCH  13  32
BRANCH  16  36
HETATM   36  N4  UNL     1       9.063  15.358  25.495  1.00  0.00    -0.430 NA
BRANCH  36  37
HETATM   37  C27 UNL     1       9.299  16.592  25.956  1.00  0.00     0.289 C 
BRANCH  37  38
HETATM   38  C28 UNL     1      10.822  16.919  26.102  1.00  0.00     0.177 C 
BRANCH  38  39
HETATM   39  N5  UNL     1      11.245  17.780  25.027  1.00  0.00    -0.348 N 
HETATM   40  C29 UNL     1      11.547  17.466  23.752  1.00  0.00     0.108 A 
HETATM   41  C30 UNL     1      11.908  18.599  23.053  1.00  0.00     0.106 A 
HETATM   42  N6  UNL     1      11.816  19.606  23.945  1.00  0.00    -0.361 N 
HETATM   43  C31 UNL     1      11.416  19.103  25.129  1.00  0.00     0.182 A 
ATOM     44  H6  UNL     1      12.016  20.588  23.755  1.00  0.00     0.166 HD
ENDBRANCH  38  39
ENDBRANCH  37  38
BRANCH  37  45
HETATM   45  C32 UNL     1       8.708  16.952  27.324  1.00  0.00     0.421 C 
HETATM   46  F1  UNL     1       8.881  15.828  28.149  1.00  0.00    -0.168 F 
HETATM   47  F2  UNL     1       9.377  17.983  27.930  1.00  0.00    -0.168 F 
HETATM   48  F3  UNL     1       7.382  17.207  27.313  1.00  0.00    -0.168 F 
ENDBRANCH  37  45
ENDBRANCH  36  37
ENDBRANCH  16  36
TORSDOF 12
ENDMDL
MODEL 3
REMARK VINA RESULT: -5.625660006      3.674     10.401
REMARK  12 active torsions:
REMARK  status: ('A' for Active; 'I' for Inactive)
REMARK    1  A    between atoms: C10_12  and  N2_13 
REMARK    2  A    between atoms: N2_13  and  C11_15 
REMARK    3  A    between atoms: C11_15  and  C12_16 
REMARK    4  A    between atoms: C12_16  and  C13_17 
REMARK    5  A    between atoms: C13_17  and  N3_18 
REMARK       I    between atoms: N3_18  and  C14_20 
REMARK    6  A    between atoms: C14_20  and  C15_22 
REMARK    7  A    between atoms: C19_26  and  C20_27 
REMARK    8  A    between atoms: C26_33  and  N4_34 
REMARK    9  A    between atoms: N4_34  and  C27_35 
REMARK   10  A    between atoms: C27_35  and  C28_36 
REMARK   11  A    between atoms: C27_35  and  C32_43 
REMARK   12  A    between atoms: C28_36  and  N5_37 
ROOT
HETATM    1  C1  UNL     1       1.023  15.922  26.629  1.00  0.00     0.017 C 
HETATM    2  C2  UNL     1       1.601  16.586  25.401  1.00  0.00    -0.025 C 
HETATM    3  C3  UNL     1       0.394  17.044  24.568  1.00  0.00     0.017 C 
HETATM    4  C4  UNL     1       2.365  15.626  24.551  1.00  0.00     0.015 C 
HETATM    5  C5  UNL     1       3.248  14.681  25.386  1.00  0.00     0.047 C 
HETATM    6  C6  UNL     1       4.517  15.438  25.602  1.00  0.00     0.034 A 
HETATM    7  C7  UNL     1       4.671  16.719  25.993  1.00  0.00     0.152 A 
HETATM    8  N1  UNL     1       5.879  17.227  26.138  1.00  0.00    -0.336 N 
ATOM      9  H1  UNL     1       5.967  18.199  26.434  1.00  0.00     0.168 HD
HETATM   10  C8  UNL     1       7.007  16.514  25.909  1.00  0.00     0.050 A 
HETATM   11  C9  UNL     1       8.241  17.118  26.082  1.00  0.00     0.060 A 
HETATM   12  C10 UNL     1       9.405  16.426  25.858  1.00  0.00     0.037 A 
HETATM   13  C19 UNL     1       9.319  15.130  25.462  1.00  0.00    -0.023 A 
HETATM   14  C24 UNL     1       8.071  14.514  25.287  1.00  0.00     0.027 A 
HETATM   15  C25 UNL     1       6.893  15.205  25.509  1.00  0.00     0.032 A 
HETATM   16  C26 UNL     1       5.640  14.619  25.341  1.00  0.00     0.124 A 
HETATM   17  O2  UNL     1       3.633  17.613  26.277  1.00  0.00    -0.335 OA
HETATM   18  C33 UNL     1       2.375  17.830  25.736  1.00  0.00     0.186 C 
ENDROOT
BRANCH  12  19
HETATM   19  N2  UNL     1      10.672  17.034  26.061  1.00  0.00    -0.389 N 
ATOM     20  H2  UNL     1      11.511  16.596  25.681  1.00  0.00     0.159 HD
BRANCH  19  21
HETATM   21  C11 UNL     1      10.783  18.274  26.805  1.00  0.00     0.121 C 
BRANCH  21  22
HETATM   22  C12 UNL     1      10.908  19.501  25.965  1.00  0.00     0.039 C 
BRANCH  22  23
HETATM   23  C13 UNL     1      11.509  19.213  24.587  1.00  0.00     0.124 C 
BRANCH  23  24
HETATM   24  N3  UNL     1      12.939  19.406  24.550  1.00  0.00    -0.360 N 
HETATM   25  C14 UNL     1      13.790  18.677  23.689  1.00  0.00     0.225 C 
HETATM   26  O1  UNL     1      13.337  17.809  22.901  1.00  0.00    -0.273 OA
ATOM     27  H3  UNL     1      13.353  20.100  25.173  1.00  0.00     0.162 HD
BRANCH  25  28
HETATM   28  C15 UNL     1      15.264  18.888  23.661  1.00  0.00     0.030 C 
HETATM   29  C16 UNL     1      15.714  19.591  22.405  1.00  0.00     0.024 C 
HETATM   30  C17 UNL     1      16.016  17.585  23.741  1.00  0.00     0.024 C 
HETATM   31  C18 UNL     1      15.637  19.720  24.863  1.00  0.00     0.024 C 
ENDBRANCH  25  28
ENDBRANCH  23  24
ENDBRANCH  22  23
ENDBRANCH  21  22
ENDBRANCH  19  21
ENDBRANCH  12  19
BRANCH  13  32
HETATM   32  C20 UNL     1      10.465  14.253  25.178  1.00  0.00    -0.022 C 
HETATM   33  C21 UNL     1      10.980  14.581  23.792  1.00  0.00     0.019 C 
HETATM   34  C22 UNL     1      10.080  12.772  25.101  1.00  0.00     0.019 C 
HETATM   35  C23 UNL     1      11.620  14.342  26.119  1.00  0.00     0.019 C 
ENDBRANCH  13  32
BRANCH  16  36
HETATM   36  N4  UNL     1       5.516  13.462  24.988  1.00  0.00    -0.430 NA
BRANCH  36  37
HETATM   37  C27 UNL     1       5.714  12.216  24.544  1.00  0.00     0.289 C 
BRANCH  37  38
HETATM   38  C28 UNL     1       4.414  11.534  24.003  1.00  0.00     0.177 C 
BRANCH  38  39
HETATM   39  N5  UNL     1       4.735  10.676  22.892  1.00  0.00    -0.348 N 
HETATM   40  C29 UNL     1       4.403   9.385  22.687  1.00  0.00     0.108 A 
HETATM   41  C30 UNL     1       4.917   8.945  21.485  1.00  0.00     0.106 A 
HETATM   42  N6  UNL     1       5.569  10.007  20.971  1.00  0.00    -0.361 N 
HETATM   43  C31 UNL     1       5.452  11.043  21.825  1.00  0.00     0.182 A 
ATOM     44  H6  UNL     1       6.069  10.023  20.082  1.00  0.00     0.166 HD
ENDBRANCH  38  39
ENDBRANCH  37  38
BRANCH  37  45
HETATM   45  C32 UNL     1       6.277  11.200  25.544  1.00  0.00     0.421 C 
HETATM   46  F1  UNL     1       7.272  10.474  24.868  1.00  0.00    -0.168 F 
HETATM   47  F2  UNL     1       6.894  11.799  26.611  1.00  0.00    -0.168 F 
HETATM   48  F3  UNL     1       5.383  10.288  25.983  1.00  0.00    -0.168 F 
ENDBRANCH  37  45
ENDBRANCH  36  37
ENDBRANCH  16  36
TORSDOF 12
ENDMDL
MODEL 4
REMARK VINA RESULT: -5.597398255      2.682      4.831
REMARK  12 active torsions:
REMARK  status: ('A' for Active; 'I' for Inactive)
REMARK    1  A    between atoms: C10_12  and  N2_13 
REMARK    2  A    between atoms: N2_13  and  C11_15 
REMARK    3  A    between atoms: C11_15  and  C12_16 
REMARK    4  A    between atoms: C12_16  and  C13_17 
REMARK    5  A    between atoms: C13_17  and  N3_18 
REMARK       I    between atoms: N3_18  and  C14_20 
REMARK    6  A    between atoms: C14_20  and  C15_22 
REMARK    7  A    between atoms: C19_26  and  C20_27 
REMARK    8  A    between atoms: C26_33  and  N4_34 
REMARK    9  A    between atoms: N4_34  and  C27_35 
REMARK   10  A    between atoms: C27_35  and  C28_36 
REMARK   11  A    between atoms: C27_35  and  C32_43 
REMARK   12  A    between atoms: C28_36  and  N5_37 
ROOT
HETATM    1  C1  UNL     1      16.184  11.315  23.807  1.00  0.00     0.017 C 
HETATM    2  C2  UNL     1      15.114  11.299  22.740  1.00  0.00    -0.025 C 
HETATM    3  C3  UNL     1      15.847  11.027  21.418  1.00  0.00     0.017 C 
HETATM    4  C4  UNL     1      14.450  12.628  22.592  1.00  0.00     0.015 C 
HETATM    5  C5  UNL     1      14.153  13.287  23.951  1.00  0.00     0.047 C 
HETATM    6  C6  UNL     1      12.837  12.720  24.370  1.00  0.00     0.034 A 
HETATM    7  C7  UNL     1      12.438  11.432  24.357  1.00  0.00     0.152 A 
HETATM    8  N1  UNL     1      11.228  11.109  24.771  1.00  0.00    -0.336 N 
ATOM      9  H1  UNL     1      10.952  10.127  24.751  1.00  0.00     0.168 HD
HETATM   10  C8  UNL     1      10.338  12.023  25.221  1.00  0.00     0.050 A 
HETATM   11  C9  UNL     1       9.085  11.607  25.638  1.00  0.00     0.060 A 
HETATM   12  C10 UNL     1       8.157  12.507  26.098  1.00  0.00     0.037 A 
HETATM   13  C19 UNL     1       8.496  13.821  26.137  1.00  0.00    -0.023 A 
HETATM   14  C24 UNL     1       9.765  14.248  25.716  1.00  0.00     0.027 A 
HETATM   15  C25 UNL     1      10.705  13.347  25.250  1.00  0.00     0.032 A 
HETATM   16  C26 UNL     1      11.972  13.743  24.823  1.00  0.00     0.124 A 
HETATM   17  O2  UNL     1      13.210  10.347  23.931  1.00  0.00    -0.335 OA
HETATM   18  C33 UNL     1      14.143  10.166  22.922  1.00  0.00     0.186 C 
ENDROOT
BRANCH  12  19
HETATM   19  N2  UNL     1       6.881  12.079  26.553  1.00  0.00    -0.389 N 
ATOM     20  H2  UNL     1       6.037  12.492  26.155  1.00  0.00     0.159 HD
BRANCH  19  21
HETATM   21  C11 UNL     1       6.768  11.058  27.577  1.00  0.00     0.121 C 
BRANCH  21  22
HETATM   22  C12 UNL     1       7.282  11.456  28.920  1.00  0.00     0.039 C 
BRANCH  22  23
HETATM   23  C13 UNL     1       7.912  10.284  29.679  1.00  0.00     0.124 C 
BRANCH  23  24
HETATM   24  N3  UNL     1       9.353  10.282  29.605  1.00  0.00    -0.360 N 
HETATM   25  C14 UNL     1      10.152   9.298  30.231  1.00  0.00     0.225 C 
HETATM   26  O1  UNL     1       9.639   8.364  30.896  1.00  0.00    -0.273 OA
ATOM     27  H3  UNL     1       9.815  11.022  29.077  1.00  0.00     0.162 HD
BRANCH  25  28
HETATM   28  C15 UNL     1      11.639   9.308  30.146  1.00  0.00     0.030 C 
HETATM   29  C16 UNL     1      12.272   9.999  31.328  1.00  0.00     0.024 C 
HETATM   30  C17 UNL     1      12.121  10.013  28.904  1.00  0.00     0.024 C 
HETATM   31  C18 UNL     1      12.111   7.877  30.087  1.00  0.00     0.024 C 
ENDBRANCH  25  28
ENDBRANCH  23  24
ENDBRANCH  22  23
ENDBRANCH  21  22
ENDBRANCH  19  21
ENDBRANCH  12  19
BRANCH  13  32
HETATM   32  C20 UNL     1       7.620  14.909  26.598  1.00  0.00    -0.022 C 
HETATM   33  C21 UNL     1       8.248  16.226  26.192  1.00  0.00     0.019 C 
HETATM   34  C22 UNL     1       7.519  14.990  28.124  1.00  0.00     0.019 C 
HETATM   35  C23 UNL     1       6.221  14.901  26.081  1.00  0.00     0.019 C 
ENDBRANCH  13  32
BRANCH  16  36
HETATM   36  N4  UNL     1      12.318  14.908  24.840  1.00  0.00    -0.430 NA
BRANCH  36  37
HETATM   37  C27 UNL     1      12.404  16.235  24.694  1.00  0.00     0.289 C 
BRANCH  37  38
HETATM   38  C28 UNL     1      12.186  17.023  26.028  1.00  0.00     0.177 C 
BRANCH  38  39
HETATM   39  N5  UNL     1      13.001  18.212  26.036  1.00  0.00    -0.348 N 
HETATM   40  C29 UNL     1      14.313  18.349  25.759  1.00  0.00     0.108 A 
HETATM   41  C30 UNL     1      14.692  19.669  25.886  1.00  0.00     0.106 A 
HETATM   42  N6  UNL     1      13.571  20.324  26.249  1.00  0.00    -0.361 N 
HETATM   43  C31 UNL     1      12.559  19.438  26.336  1.00  0.00     0.182 A 
ATOM     44  H6  UNL     1      13.501  21.325  26.429  1.00  0.00     0.166 HD
ENDBRANCH  38  39
ENDBRANCH  37  38
BRANCH  37  45
HETATM   45  C32 UNL     1      11.431  16.895  23.711  1.00  0.00     0.421 C 
HETATM   46  F1  UNL     1      12.195  17.738  22.887  1.00  0.00    -0.168 F 
HETATM   47  F2  UNL     1      10.827  15.987  22.880  1.00  0.00    -0.168 F 
HETATM   48  F3  UNL     1      10.497  17.682  24.287  1.00  0.00    -0.168 F 
ENDBRANCH  37  45
ENDBRANCH  36  37
ENDBRANCH  16  36
TORSDOF 12
ENDMDL
MODEL 5
REMARK VINA RESULT: -5.590477183      1.804      2.881
REMARK  12 active torsions:
REMARK  status: ('A' for Active; 'I' for Inactive)
REMARK    1  A    between atoms: C10_12  and  N2_13 
REMARK    2  A    between atoms: N2_13  and  C11_15 
REMARK    3  A    between atoms: C11_15  and  C12_16 
REMARK    4  A    between atoms: C12_16  and  C13_17 
REMARK    5  A    between atoms: C13_17  and  N3_18 
REMARK       I    between atoms: N3_18  and  C14_20 
REMARK    6  A    between atoms: C14_20  and  C15_22 
REMARK    7  A    between atoms: C19_26  and  C20_27 
REMARK    8  A    between atoms: C26_33  and  N4_34 
REMARK    9  A    between atoms: N4_34  and  C27_35 
REMARK   10  A    between atoms: C27_35  and  C28_36 
REMARK   11  A    between atoms: C27_35  and  C32_43 
REMARK   12  A    between atoms: C28_36  and  N5_37 
ROOT
HETATM    1  C1  UNL     1      16.756  11.466  23.217  1.00  0.00     0.017 C 
HETATM    2  C2  UNL     1      15.613  11.317  22.241  1.00  0.00    -0.025 C 
HETATM    3  C3  UNL     1      16.260  11.001  20.884  1.00  0.00     0.017 C 
HETATM    4  C4  UNL     1      14.855  12.591  22.065  1.00  0.00     0.015 C 
HETATM    5  C5  UNL     1      14.621  13.319  23.401  1.00  0.00     0.047 C 
HETATM    6  C6  UNL     1      13.379  12.705  23.956  1.00  0.00     0.034 A 
HETATM    7  C7  UNL     1      13.064  11.397  24.055  1.00  0.00     0.152 A 
HETATM    8  N1  UNL     1      11.912  11.031  24.582  1.00  0.00    -0.336 N 
ATOM      9  H1  UNL     1      11.698  10.035  24.644  1.00  0.00     0.168 HD
HETATM   10  C8  UNL     1      11.001  11.919  25.045  1.00  0.00     0.050 A 
HETATM   11  C9  UNL     1       9.813  11.457  25.584  1.00  0.00     0.060 A 
HETATM   12  C10 UNL     1       8.866  12.329  26.062  1.00  0.00     0.037 A 
HETATM   13  C19 UNL     1       9.122  13.660  25.992  1.00  0.00    -0.023 A 
HETATM   14  C24 UNL     1      10.325  14.133  25.447  1.00  0.00     0.027 A 
HETATM   15  C25 UNL     1      11.284  13.261  24.963  1.00  0.00     0.032 A 
HETATM   16  C26 UNL     1      12.487  13.702  24.414  1.00  0.00     0.124 A 
HETATM   17  O2  UNL     1      13.870  10.334  23.635  1.00  0.00    -0.335 OA
HETATM   18  C33 UNL     1      14.733  10.142  22.568  1.00  0.00     0.186 C 
ENDROOT
BRANCH  12  19
HETATM   19  N2  UNL     1       7.658  11.857  26.641  1.00  0.00    -0.389 N 
ATOM     20  H2  UNL     1       7.531  11.902  27.652  1.00  0.00     0.159 HD
BRANCH  19  21
HETATM   21  C11 UNL     1       6.604  11.312  25.808  1.00  0.00     0.121 C 
BRANCH  21  22
HETATM   22  C12 UNL     1       5.251  11.892  26.047  1.00  0.00     0.039 C 
BRANCH  22  23
HETATM   23  C13 UNL     1       4.265  11.569  24.920  1.00  0.00     0.124 C 
BRANCH  23  24
HETATM   24  N3  UNL     1       4.535  10.300  24.289  1.00  0.00    -0.360 N 
HETATM   25  C14 UNL     1       3.513   9.450  23.806  1.00  0.00     0.225 C 
HETATM   26  O1  UNL     1       2.300   9.763  23.906  1.00  0.00    -0.273 OA
ATOM     27  H3  UNL     1       5.505  10.003  24.187  1.00  0.00     0.162 HD
BRANCH  25  28
HETATM   28  C15 UNL     1       3.807   8.143  23.156  1.00  0.00     0.030 C 
HETATM   29  C16 UNL     1       4.363   8.312  21.765  1.00  0.00     0.024 C 
HETATM   30  C17 UNL     1       2.572   7.286  23.044  1.00  0.00     0.024 C 
HETATM   31  C18 UNL     1       4.810   7.413  24.014  1.00  0.00     0.024 C 
ENDBRANCH  25  28
ENDBRANCH  23  24
ENDBRANCH  22  23
ENDBRANCH  21  22
ENDBRANCH  19  21
ENDBRANCH  12  19
BRANCH  13  32
HETATM   32  C20 UNL     1       8.216  14.723  26.454  1.00  0.00    -0.022 C 
HETATM   33  C21 UNL     1       9.018  16.000  26.599  1.00  0.00     0.019 C 
HETATM   34  C22 UNL     1       7.656  14.464  27.856  1.00  0.00     0.019 C 
HETATM   35  C23 UNL     1       7.045  15.025  25.580  1.00  0.00     0.019 C 
ENDBRANCH  13  32
BRANCH  16  36
HETATM   36  N4  UNL     1      12.758  14.884  24.332  1.00  0.00    -0.430 NA
BRANCH  36  37
HETATM   37  C27 UNL     1      12.890  16.158  23.946  1.00  0.00     0.289 C 
BRANCH  37  38
HETATM   38  C28 UNL     1      13.490  17.085  25.055  1.00  0.00     0.177 C 
BRANCH  38  39
HETATM   39  N5  UNL     1      14.576  17.861  24.512  1.00  0.00    -0.348 N 
HETATM   40  C29 UNL     1      14.637  19.184  24.262  1.00  0.00     0.108 A 
HETATM   41  C30 UNL     1      15.870  19.516  23.742  1.00  0.00     0.106 A 
HETATM   42  N6  UNL     1      16.551  18.354  23.684  1.00  0.00    -0.361 N 
HETATM   43  C31 UNL     1      15.764  17.365  24.151  1.00  0.00     0.182 A 
ATOM     44  H6  UNL     1      17.506  18.242  23.344  1.00  0.00     0.166 HD
ENDBRANCH  38  39
ENDBRANCH  37  38
BRANCH  37  45
HETATM   45  C32 UNL     1      11.618  16.889  23.500  1.00  0.00     0.421 C 
HETATM   46  F1  UNL     1      11.024  17.414  24.660  1.00  0.00    -0.168 F 
HETATM   47  F2  UNL     1      11.885  17.958  22.684  1.00  0.00    -0.168 F 
HETATM   48  F3  UNL     1      10.686  16.096  22.929  1.00  0.00    -0.168 F 
ENDBRANCH  37  45
ENDBRANCH  36  37
ENDBRANCH  16  36
TORSDOF 12
ENDMDL
