MODEL 1
REMARK VINA RESULT: -6.530425366      0.000      0.000
REMARK  9 active torsions:
REMARK  status: ('A' for Active; 'I' for Inactive)
REMARK    1  A    between atoms: C8_10  and  N1_11 
REMARK       I    between atoms: N1_11  and  C9_13 
REMARK    2  A    between atoms: C9_13  and  C10_15 
REMARK    3  A    between atoms: C10_15  and  S1_16 
REMARK    4  A    between atoms: S1_16  and  C11_17 
REMARK    5  A    between atoms: C13_21  and  N3_22 
REMARK    6  A    between atoms: N3_22  and  C14_24 
REMARK    7  A    between atoms: C18_28  and  C19_29 
REMARK       I    between atoms: N4_32  and  C22_33 
REMARK    8  A    between atoms: C22_33  and  O3_35 
REMARK    9  A    between atoms: O3_35  and  C23_36 
ROOT
HETATM    1  C11 UNL     1       1.758   3.844  22.378  1.00  0.00     0.113 A 
HETATM    2  N2  UNL     1       1.106   4.966  22.601  1.00  0.00    -0.342 N 
ATOM      3  H2  UNL     1       0.100   5.010  22.437  1.00  0.00     0.167 HD
HETATM    4  C12 UNL     1       1.740   6.025  23.034  1.00  0.00     0.077 A 
HETATM    5  C13 UNL     1       1.162   7.288  23.311  1.00  0.00     0.057 A 
HETATM    6  C17 UNL     1       1.962   8.285  23.752  1.00  0.00     0.039 A 
HETATM    7  C18 UNL     1       3.327   8.197  23.967  1.00  0.00    -0.050 A 
HETATM    8  C29 UNL     1       3.881   6.964  23.694  1.00  0.00     0.029 A 
HETATM    9  C30 UNL     1       3.089   5.901  23.234  1.00  0.00     0.037 A 
HETATM   10  S2  UNL     1       3.363   4.274  22.791  1.00  0.00    -0.063 SA
ENDROOT
BRANCH   1  11
HETATM   11  S1  UNL     1       1.120   2.261  21.785  1.00  0.00    -0.096 SA
BRANCH  11  12
HETATM   12  C10 UNL     1       0.834   2.402  20.021  1.00  0.00     0.184 C 
BRANCH  12  13
HETATM   13  C9  UNL     1       0.062   3.609  19.657  1.00  0.00     0.231 C 
HETATM   14  N1  UNL     1      -1.343   3.549  19.577  1.00  0.00    -0.325 N 
ATOM     15  H1  UNL     1      -1.797   2.658  19.777  1.00  0.00     0.169 HD
HETATM   16  O1  UNL     1       0.645   4.684  19.418  1.00  0.00    -0.272 OA
BRANCH  14  17
HETATM   17  C8  UNL     1      -2.167   4.656  19.235  1.00  0.00     0.051 A 
HETATM   18  C2  UNL     1      -2.737   5.463  20.172  1.00  0.00     0.004 A 
HETATM   19  C1  UNL     1      -2.469   5.145  21.621  1.00  0.00     0.054 C 
HETATM   20  C3  UNL     1      -3.521   6.516  19.805  1.00  0.00     0.126 A 
HETATM   21  F1  UNL     1      -4.056   7.277  20.814  1.00  0.00    -0.205 F 
HETATM   22  C4  UNL     1      -3.758   6.796  18.490  1.00  0.00     0.067 A 
HETATM   23  C5  UNL     1      -3.180   5.977  17.540  1.00  0.00     0.045 A 
HETATM   24 CL1  UNL     1      -3.493   6.347  15.837  1.00  0.00    -0.084 Cl
HETATM   25  C6  UNL     1      -2.399   4.928  17.904  1.00  0.00    -0.013 A 
HETATM   26  C7  UNL     1      -1.803   4.086  16.838  1.00  0.00     0.052 C 
ENDBRANCH  14  17
ENDBRANCH  12  13
ENDBRANCH  11  12
ENDBRANCH   1  11
BRANCH   5  27
HETATM   27  N3  UNL     1      -0.222   7.501  23.132  1.00  0.00    -0.384 N 
ATOM     28  H3  UNL     1      -0.579   7.355  22.188  1.00  0.00     0.160 HD
BRANCH  27  29
HETATM   29  C14 UNL     1      -1.182   7.898  24.117  1.00  0.00     0.073 C 
HETATM   30  C15 UNL     1      -2.446   8.498  23.570  1.00  0.00     0.031 C 
HETATM   31  C16 UNL     1      -1.520   6.715  25.004  1.00  0.00     0.031 C 
ENDBRANCH  27  29
ENDBRANCH   5  27
BRANCH   7  32
HETATM   32  C19 UNL     1       4.195   9.269  24.446  1.00  0.00     0.022 C 
HETATM   33  C20 UNL     1       5.481   9.247  23.659  1.00  0.00     0.029 C 
HETATM   34  C21 UNL     1       6.252  10.505  23.661  1.00  0.00     0.129 C 
HETATM   35  N4  UNL     1       5.791  11.539  24.555  1.00  0.00    -0.328 N 
HETATM   36  C22 UNL     1       6.683  12.623  24.758  1.00  0.00     0.363 C 
HETATM   37  C27 UNL     1       4.530  11.533  25.224  1.00  0.00     0.129 C 
HETATM   38  O2  UNL     1       6.335  13.551  25.525  1.00  0.00    -0.238 OA
HETATM   39  C28 UNL     1       3.584  10.636  24.409  1.00  0.00     0.029 C 
BRANCH  36  40
HETATM   40  O3  UNL     1       7.929  12.725  24.157  1.00  0.00    -0.294 OA
BRANCH  40  41
HETATM   41  C23 UNL     1       9.092  12.296  24.838  1.00  0.00     0.061 C 
HETATM   42  C24 UNL     1       8.770  11.586  26.136  1.00  0.00     0.046 C 
HETATM   43  C25 UNL     1       9.900  13.530  25.211  1.00  0.00     0.046 C 
HETATM   44  C26 UNL     1       9.925  11.367  23.997  1.00  0.00     0.046 C 
ENDBRANCH  40  41
ENDBRANCH  36  40
ENDBRANCH   7  32
TORSDOF 9
ENDMDL
MODEL 2
REMARK VINA RESULT: -6.177445678      6.134     13.036
REMARK  9 active torsions:
REMARK  status: ('A' for Active; 'I' for Inactive)
REMARK    1  A    between atoms: C8_10  and  N1_11 
REMARK       I    between atoms: N1_11  and  C9_13 
REMARK    2  A    between atoms: C9_13  and  C10_15 
REMARK    3  A    between atoms: C10_15  and  S1_16 
REMARK    4  A    between atoms: S1_16  and  C11_17 
REMARK    5  A    between atoms: C13_21  and  N3_22 
REMARK    6  A    between atoms: N3_22  and  C14_24 
REMARK    7  A    between atoms: C18_28  and  C19_29 
REMARK       I    between atoms: N4_32  and  C22_33 
REMARK    8  A    between atoms: C22_33  and  O3_35 
REMARK    9  A    between atoms: O3_35  and  C23_36 
ROOT
HETATM    1  C11 UNL     1       7.504  14.160  27.019  1.00  0.00     0.113 A 
HETATM    2  N2  UNL     1       8.203  13.414  26.188  1.00  0.00    -0.342 N 
ATOM      3  H2  UNL     1       9.203  13.581  26.075  1.00  0.00     0.167 HD
HETATM    4  C12 UNL     1       7.622  12.459  25.508  1.00  0.00     0.077 A 
HETATM    5  C13 UNL     1       8.255  11.591  24.586  1.00  0.00     0.057 A 
HETATM    6  C17 UNL     1       7.506  10.652  23.961  1.00  0.00     0.039 A 
HETATM    7  C18 UNL     1       6.148  10.448  24.135  1.00  0.00    -0.050 A 
HETATM    8  C29 UNL     1       5.542  11.299  25.035  1.00  0.00     0.029 A 
HETATM    9  C30 UNL     1       6.279  12.287  25.706  1.00  0.00     0.037 A 
HETATM   10  S2  UNL     1       5.932  13.503  26.855  1.00  0.00    -0.063 SA
ENDROOT
BRANCH   1  11
HETATM   11  S1  UNL     1       8.064  15.525  28.060  1.00  0.00    -0.096 SA
BRANCH  11  12
HETATM   12  C10 UNL     1       9.669  15.092  28.732  1.00  0.00     0.184 C 
BRANCH  12  13
HETATM   13  C9  UNL     1       9.642  13.851  29.536  1.00  0.00     0.231 C 
HETATM   14  N1  UNL     1      10.020  12.626  28.952  1.00  0.00    -0.325 N 
ATOM     15  H1  UNL     1      10.307  12.629  27.974  1.00  0.00     0.169 HD
HETATM   16  O1  UNL     1       9.287  13.879  30.729  1.00  0.00    -0.272 OA
BRANCH  14  17
HETATM   17  C8  UNL     1      10.025  11.385  29.646  1.00  0.00     0.051 A 
HETATM   18  C2  UNL     1       8.915  10.606  29.763  1.00  0.00     0.004 A 
HETATM   19  C1  UNL     1       7.644  11.103  29.124  1.00  0.00     0.054 C 
HETATM   20  C3  UNL     1       8.960   9.420  30.436  1.00  0.00     0.126 A 
HETATM   21  F1  UNL     1       7.795   8.699  30.505  1.00  0.00    -0.205 F 
HETATM   22  C4  UNL     1      10.115   8.977  31.011  1.00  0.00     0.067 A 
HETATM   23  C5  UNL     1      11.241   9.768  30.893  1.00  0.00     0.045 A 
HETATM   24 CL1  UNL     1      12.737   9.187  31.642  1.00  0.00    -0.084 Cl
HETATM   25  C6  UNL     1      11.199  10.949  30.223  1.00  0.00    -0.013 A 
HETATM   26  C7  UNL     1      12.441  11.754  30.127  1.00  0.00     0.052 C 
ENDBRANCH  14  17
ENDBRANCH  12  13
ENDBRANCH  11  12
ENDBRANCH   1  11
BRANCH   5  27
HETATM   27  N3  UNL     1       9.637  11.700  24.324  1.00  0.00    -0.384 N 
ATOM     28  H3  UNL     1       9.939  12.558  23.862  1.00  0.00     0.160 HD
BRANCH  27  29
HETATM   29  C14 UNL     1      10.664  10.752  24.628  1.00  0.00     0.073 C 
HETATM   30  C15 UNL     1      11.689  10.551  23.547  1.00  0.00     0.031 C 
HETATM   31  C16 UNL     1      11.355  11.146  25.920  1.00  0.00     0.031 C 
ENDBRANCH  27  29
ENDBRANCH   5  27
BRANCH   7  32
HETATM   32  C19 UNL     1       5.336   9.435  23.466  1.00  0.00     0.022 C 
HETATM   33  C20 UNL     1       4.766   8.501  24.503  1.00  0.00     0.029 C 
HETATM   34  C21 UNL     1       3.573   7.738  24.087  1.00  0.00     0.129 C 
HETATM   35  N4  UNL     1       3.205   7.830  22.696  1.00  0.00    -0.328 N 
HETATM   36  C22 UNL     1       2.242   6.889  22.248  1.00  0.00     0.363 C 
HETATM   37  C27 UNL     1       3.738   8.782  21.775  1.00  0.00     0.129 C 
HETATM   38  O2  UNL     1       1.885   6.923  21.048  1.00  0.00    -0.238 OA
HETATM   39  C28 UNL     1       4.246   9.978  22.597  1.00  0.00     0.029 C 
BRANCH  36  40
HETATM   40  O3  UNL     1       1.664   5.925  23.060  1.00  0.00    -0.294 OA
BRANCH  40  41
HETATM   41  C23 UNL     1       1.883   4.550  22.811  1.00  0.00     0.061 C 
HETATM   42  C24 UNL     1       1.298   4.106  21.486  1.00  0.00     0.046 C 
HETATM   43  C25 UNL     1       1.160   3.756  23.889  1.00  0.00     0.046 C 
HETATM   44  C26 UNL     1       3.348   4.205  22.809  1.00  0.00     0.046 C 
ENDBRANCH  40  41
ENDBRANCH  36  40
ENDBRANCH   7  32
TORSDOF 9
ENDMDL
MODEL 3
REMARK VINA RESULT: -6.173730648      6.549     13.656
REMARK  9 active torsions:
REMARK  status: ('A' for Active; 'I' for Inactive)
REMARK    1  A    between atoms: C8_10  and  N1_11 
REMARK       I    between atoms: N1_11  and  C9_13 
REMARK    2  A    between atoms: C9_13  and  C10_15 
REMARK    3  A    between atoms: C10_15  and  S1_16 
REMARK    4  A    between atoms: S1_16  and  C11_17 
REMARK    5  A    between atoms: C13_21  and  N3_22 
REMARK    6  A    between atoms: N3_22  and  C14_24 
REMARK    7  A    between atoms: C18_28  and  C19_29 
REMARK       I    between atoms: N4_32  and  C22_33 
REMARK    8  A    between atoms: C22_33  and  O3_35 
REMARK    9  A    between atoms: O3_35  and  C23_36 
ROOT
HETATM    1  C11 UNL     1       8.182  12.750  25.089  1.00  0.00     0.113 A 
HETATM    2  N2  UNL     1       7.090  13.029  24.407  1.00  0.00    -0.342 N 
ATOM      3  H2  UNL     1       6.878  13.996  24.161  1.00  0.00     0.167 HD
HETATM    4  C12 UNL     1       6.276  12.073  24.042  1.00  0.00     0.077 A 
HETATM    5  C13 UNL     1       5.074  12.236  23.310  1.00  0.00     0.057 A 
HETATM    6  C17 UNL     1       4.341  11.137  23.013  1.00  0.00     0.039 A 
HETATM    7  C18 UNL     1       4.653   9.834  23.360  1.00  0.00    -0.050 A 
HETATM    8  C29 UNL     1       5.825   9.686  24.072  1.00  0.00     0.029 A 
HETATM    9  C30 UNL     1       6.616  10.797  24.402  1.00  0.00     0.037 A 
HETATM   10  S2  UNL     1       8.083  11.047  25.242  1.00  0.00    -0.063 SA
ENDROOT
BRANCH   1  11
HETATM   11  S1  UNL     1       9.452  13.877  25.705  1.00  0.00    -0.096 SA
BRANCH  11  12
HETATM   12  C10 UNL     1      11.035  13.337  25.061  1.00  0.00     0.184 C 
BRANCH  12  13
HETATM   13  C9  UNL     1      11.788  14.422  24.397  1.00  0.00     0.231 C 
HETATM   14  N1  UNL     1      12.055  15.619  25.090  1.00  0.00    -0.325 N 
ATOM     15  H1  UNL     1      11.715  15.705  26.048  1.00  0.00     0.169 HD
HETATM   16  O1  UNL     1      12.191  14.288  23.226  1.00  0.00    -0.272 OA
BRANCH  14  17
HETATM   17  C8  UNL     1      12.770  16.716  24.535  1.00  0.00     0.051 A 
HETATM   18  C2  UNL     1      12.147  17.787  23.971  1.00  0.00     0.004 A 
HETATM   19  C1  UNL     1      10.640  17.783  23.945  1.00  0.00     0.054 C 
HETATM   20  C3  UNL     1      12.868  18.820  23.448  1.00  0.00     0.126 A 
HETATM   21  F1  UNL     1      12.160  19.859  22.900  1.00  0.00    -0.205 F 
HETATM   22  C4  UNL     1      14.232  18.815  23.475  1.00  0.00     0.067 A 
HETATM   23  C5  UNL     1      14.864  17.728  24.048  1.00  0.00     0.045 A 
HETATM   24 CL1  UNL     1      16.634  17.728  24.078  1.00  0.00    -0.084 Cl
HETATM   25  C6  UNL     1      14.148  16.698  24.568  1.00  0.00    -0.013 A 
HETATM   26  C7  UNL     1      14.882  15.559  25.172  1.00  0.00     0.052 C 
ENDBRANCH  14  17
ENDBRANCH  12  13
ENDBRANCH  11  12
ENDBRANCH   1  11
BRANCH   5  27
HETATM   27  N3  UNL     1       4.649  13.517  22.899  1.00  0.00    -0.384 N 
ATOM     28  H3  UNL     1       5.048  13.863  22.026  1.00  0.00     0.160 HD
BRANCH  27  29
HETATM   29  C14 UNL     1       3.726  14.388  23.560  1.00  0.00     0.073 C 
HETATM   30  C15 UNL     1       2.693  13.699  24.407  1.00  0.00     0.031 C 
HETATM   31  C16 UNL     1       4.488  15.395  24.401  1.00  0.00     0.031 C 
ENDBRANCH  27  29
ENDBRANCH   5  27
BRANCH   7  32
HETATM   32  C19 UNL     1       3.868   8.645  23.039  1.00  0.00     0.022 C 
HETATM   33  C20 UNL     1       4.660   7.419  23.416  1.00  0.00     0.029 C 
HETATM   34  C21 UNL     1       3.873   6.187  23.615  1.00  0.00     0.129 C 
HETATM   35  N4  UNL     1       2.479   6.250  23.249  1.00  0.00    -0.328 N 
HETATM   36  C22 UNL     1       1.802   5.005  23.178  1.00  0.00     0.363 C 
HETATM   37  C27 UNL     1       1.767   7.454  22.964  1.00  0.00     0.129 C 
HETATM   38  O2  UNL     1       0.589   5.000  22.864  1.00  0.00    -0.238 OA
HETATM   39  C28 UNL     1       2.510   8.602  23.667  1.00  0.00     0.029 C 
BRANCH  36  40
HETATM   40  O3  UNL     1       2.401   3.782  23.434  1.00  0.00    -0.294 OA
BRANCH  40  41
HETATM   41  C23 UNL     1       2.524   2.812  22.412  1.00  0.00     0.061 C 
HETATM   42  C24 UNL     1       1.256   2.002  22.233  1.00  0.00     0.046 C 
HETATM   43  C25 UNL     1       3.609   1.829  22.823  1.00  0.00     0.046 C 
HETATM   44  C26 UNL     1       2.865   3.435  21.085  1.00  0.00     0.046 C 
ENDBRANCH  40  41
ENDBRANCH  36  40
ENDBRANCH   7  32
TORSDOF 9
ENDMDL
MODEL 4
REMARK VINA RESULT: -6.101820203      4.281      8.038
REMARK  9 active torsions:
REMARK  status: ('A' for Active; 'I' for Inactive)
REMARK    1  A    between atoms: C8_10  and  N1_11 
REMARK       I    between atoms: N1_11  and  C9_13 
REMARK    2  A    between atoms: C9_13  and  C10_15 
REMARK    3  A    between atoms: C10_15  and  S1_16 
REMARK    4  A    between atoms: S1_16  and  C11_17 
REMARK    5  A    between atoms: C13_21  and  N3_22 
REMARK    6  A    between atoms: N3_22  and  C14_24 
REMARK    7  A    between atoms: C18_28  and  C19_29 
REMARK       I    between atoms: N4_32  and  C22_33 
REMARK    8  A    between atoms: C22_33  and  O3_35 
REMARK    9  A    between atoms: O3_35  and  C23_36 
ROOT
HETATM    1  C11 UNL     1       5.601  10.741  22.963  1.00  0.00     0.113 A 
HETATM    2  N2  UNL     1       6.845  10.709  23.393  1.00  0.00    -0.342 N 
ATOM      3  H2  UNL     1       7.411   9.874  23.249  1.00  0.00     0.167 HD
HETATM    4  C12 UNL     1       7.360  11.745  24.005  1.00  0.00     0.077 A 
HETATM    5  C13 UNL     1       8.677  11.841  24.516  1.00  0.00     0.057 A 
HETATM    6  C17 UNL     1       9.054  12.988  25.127  1.00  0.00     0.039 A 
HETATM    7  C18 UNL     1       8.263  14.108  25.310  1.00  0.00    -0.050 A 
HETATM    8  C29 UNL     1       6.982  14.005  24.810  1.00  0.00     0.029 A 
HETATM    9  C30 UNL     1       6.548  12.835  24.169  1.00  0.00     0.037 A 
HETATM   10  S2  UNL     1       5.098  12.308  23.434  1.00  0.00    -0.063 SA
ENDROOT
BRANCH   1  11
HETATM   11  S1  UNL     1       4.667   9.457  22.101  1.00  0.00    -0.096 SA
BRANCH  11  12
HETATM   12  C10 UNL     1       4.186   8.217  23.303  1.00  0.00     0.184 C 
BRANCH  12  13
HETATM   13  C9  UNL     1       3.091   7.346  22.825  1.00  0.00     0.231 C 
HETATM   14  N1  UNL     1       2.718   6.210  23.570  1.00  0.00    -0.325 N 
ATOM     15  H1  UNL     1       3.224   6.017  24.435  1.00  0.00     0.169 HD
HETATM   16  O1  UNL     1       2.491   7.608  21.764  1.00  0.00    -0.272 OA
BRANCH  14  17
HETATM   17  C8  UNL     1       1.679   5.317  23.190  1.00  0.00     0.051 A 
HETATM   18  C2  UNL     1       0.371   5.542  23.495  1.00  0.00     0.004 A 
HETATM   19  C1  UNL     1       0.040   6.793  24.267  1.00  0.00     0.054 C 
HETATM   20  C3  UNL     1      -0.598   4.661  23.112  1.00  0.00     0.126 A 
HETATM   21  F1  UNL     1      -1.889   4.966  23.461  1.00  0.00    -0.205 F 
HETATM   22  C4  UNL     1      -0.289   3.530  22.413  1.00  0.00     0.067 A 
HETATM   23  C5  UNL     1       1.038   3.302  22.105  1.00  0.00     0.045 A 
HETATM   24 CL1  UNL     1       1.431   1.833  21.199  1.00  0.00    -0.084 Cl
HETATM   25  C6  UNL     1       2.004   4.178  22.486  1.00  0.00    -0.013 A 
HETATM   26  C7  UNL     1       3.412   3.881  22.124  1.00  0.00     0.052 C 
ENDBRANCH  14  17
ENDBRANCH  12  13
ENDBRANCH  11  12
ENDBRANCH   1  11
BRANCH   5  27
HETATM   27  N3  UNL     1       9.579  10.763  24.389  1.00  0.00    -0.384 N 
ATOM     28  H3  UNL     1       9.170   9.829  24.423  1.00  0.00     0.160 HD
BRANCH  27  29
HETATM   29  C14 UNL     1      10.999  10.824  24.220  1.00  0.00     0.073 C 
HETATM   30  C15 UNL     1      11.715   9.509  24.353  1.00  0.00     0.031 C 
HETATM   31  C16 UNL     1      11.326  11.450  22.877  1.00  0.00     0.031 C 
ENDBRANCH  27  29
ENDBRANCH   5  27
BRANCH   7  32
HETATM   32  C19 UNL     1       8.665  15.350  25.965  1.00  0.00     0.022 C 
HETATM   33  C20 UNL     1       9.846  15.931  25.231  1.00  0.00     0.029 C 
HETATM   34  C21 UNL     1      10.078  17.374  25.437  1.00  0.00     0.129 C 
HETATM   35  N4  UNL     1       9.275  18.015  26.448  1.00  0.00    -0.328 N 
HETATM   36  C22 UNL     1       9.690  19.317  26.834  1.00  0.00     0.363 C 
HETATM   37  C27 UNL     1       8.126  17.434  27.063  1.00  0.00     0.129 C 
HETATM   38  O2  UNL     1       9.028  19.922  27.709  1.00  0.00    -0.238 OA
HETATM   39  C28 UNL     1       7.579  16.371  26.097  1.00  0.00     0.029 C 
BRANCH  36  40
HETATM   40  O3  UNL     1      10.790  19.969  26.299  1.00  0.00    -0.294 OA
BRANCH  40  41
HETATM   41  C23 UNL     1      12.041  19.928  26.958  1.00  0.00     0.061 C 
HETATM   42  C24 UNL     1      12.028  19.001  28.156  1.00  0.00     0.046 C 
HETATM   43  C25 UNL     1      12.337  21.321  27.494  1.00  0.00     0.046 C 
HETATM   44  C26 UNL     1      13.146  19.481  26.040  1.00  0.00     0.046 C 
ENDBRANCH  40  41
ENDBRANCH  36  40
ENDBRANCH   7  32
TORSDOF 9
ENDMDL
MODEL 5
REMARK VINA RESULT: -6.097160381      5.828     13.263
REMARK  9 active torsions:
REMARK  status: ('A' for Active; 'I' for Inactive)
REMARK    1  A    between atoms: C8_10  and  N1_11 
REMARK       I    between atoms: N1_11  and  C9_13 
REMARK    2  A    between atoms: C9_13  and  C10_15 
REMARK    3  A    between atoms: C10_15  and  S1_16 
REMARK    4  A    between atoms: S1_16  and  C11_17 
REMARK    5  A    between atoms: C13_21  and  N3_22 
REMARK    6  A    between atoms: N3_22  and  C14_24 
REMARK    7  A    between atoms: C18_28  and  C19_29 
REMARK       I    between atoms: N4_32  and  C22_33 
REMARK    8  A    between atoms: C22_33  and  O3_35 
REMARK    9  A    between atoms: O3_35  and  C23_36 
ROOT
HETATM    1  C11 UNL     1       5.106  14.569  25.336  1.00  0.00     0.113 A 
HETATM    2  N2  UNL     1       6.006  13.704  24.917  1.00  0.00    -0.342 N 
ATOM      3  H2  UNL     1       6.960  14.013  24.732  1.00  0.00     0.167 HD
HETATM    4  C12 UNL     1       5.684  12.449  24.737  1.00  0.00     0.077 A 
HETATM    5  C13 UNL     1       6.551  11.422  24.291  1.00  0.00     0.057 A 
HETATM    6  C17 UNL     1       6.057  10.169  24.155  1.00  0.00     0.039 A 
HETATM    7  C18 UNL     1       4.755   9.777  24.415  1.00  0.00    -0.050 A 
HETATM    8  C29 UNL     1       3.919  10.784  24.848  1.00  0.00     0.029 A 
HETATM    9  C30 UNL     1       4.388  12.098  25.003  1.00  0.00     0.037 A 
HETATM   10  S2  UNL     1       3.712  13.588  25.495  1.00  0.00    -0.063 SA
ENDROOT
BRANCH   1  11
HETATM   11  S1  UNL     1       5.297  16.336  25.657  1.00  0.00    -0.096 SA
BRANCH  11  12
HETATM   12  C10 UNL     1       6.178  16.529  27.206  1.00  0.00     0.184 C 
BRANCH  12  13
HETATM   13  C9  UNL     1       7.647  16.551  27.035  1.00  0.00     0.231 C 
HETATM   14  N1  UNL     1       8.211  17.107  25.870  1.00  0.00    -0.325 N 
ATOM     15  H1  UNL     1       7.579  17.485  25.165  1.00  0.00     0.169 HD
HETATM   16  O1  UNL     1       8.393  16.081  27.915  1.00  0.00    -0.272 OA
BRANCH  14  17
HETATM   17  C8  UNL     1       9.609  17.172  25.618  1.00  0.00     0.051 A 
HETATM   18  C2  UNL     1      10.363  18.257  25.948  1.00  0.00     0.004 A 
HETATM   19  C1  UNL     1       9.663  19.420  26.601  1.00  0.00     0.054 C 
HETATM   20  C3  UNL     1      11.703  18.282  25.691  1.00  0.00     0.126 A 
HETATM   21  F1  UNL     1      12.385  19.415  26.056  1.00  0.00    -0.205 F 
HETATM   22  C4  UNL     1      12.329  17.224  25.099  1.00  0.00     0.067 A 
HETATM   23  C5  UNL     1      11.563  16.124  24.764  1.00  0.00     0.045 A 
HETATM   24 CL1  UNL     1      12.382  14.756  23.995  1.00  0.00    -0.084 Cl
HETATM   25  C6  UNL     1      10.229  16.097  25.019  1.00  0.00    -0.013 A 
HETATM   26  C7  UNL     1       9.460  14.887  24.640  1.00  0.00     0.052 C 
ENDBRANCH  14  17
ENDBRANCH  12  13
ENDBRANCH  11  12
ENDBRANCH   1  11
BRANCH   5  27
HETATM   27  N3  UNL     1       7.902  11.698  23.995  1.00  0.00    -0.384 N 
ATOM     28  H3  UNL     1       8.071  12.457  23.336  1.00  0.00     0.160 HD
BRANCH  27  29
HETATM   29  C14 UNL     1       9.064  11.039  24.509  1.00  0.00     0.073 C 
HETATM   30  C15 UNL     1      10.341  11.327  23.770  1.00  0.00     0.031 C 
HETATM   31  C16 UNL     1       9.236  11.381  25.978  1.00  0.00     0.031 C 
ENDBRANCH  27  29
ENDBRANCH   5  27
BRANCH   7  32
HETATM   32  C19 UNL     1       4.217   8.427  24.273  1.00  0.00     0.022 C 
HETATM   33  C20 UNL     1       2.763   8.517  23.886  1.00  0.00     0.029 C 
HETATM   34  C21 UNL     1       2.198   7.314  23.245  1.00  0.00     0.129 C 
HETATM   35  N4  UNL     1       3.036   6.140  23.232  1.00  0.00    -0.328 N 
HETATM   36  C22 UNL     1       2.393   4.926  22.873  1.00  0.00     0.363 C 
HETATM   37  C27 UNL     1       4.427   6.130  23.550  1.00  0.00     0.129 C 
HETATM   38  O2  UNL     1       3.073   3.874  22.845  1.00  0.00    -0.238 OA
HETATM   39  C28 UNL     1       4.960   7.552  23.311  1.00  0.00     0.029 C 
BRANCH  36  40
HETATM   40  O3  UNL     1       1.050   4.827  22.548  1.00  0.00    -0.294 OA
BRANCH  40  41
HETATM   41  C23 UNL     1       0.651   4.459  21.241  1.00  0.00     0.061 C 
HETATM   42  C24 UNL     1       1.585   5.005  20.181  1.00  0.00     0.046 C 
HETATM   43  C25 UNL     1      -0.713   5.078  20.974  1.00  0.00     0.046 C 
HETATM   44  C26 UNL     1       0.584   2.966  21.074  1.00  0.00     0.046 C 
ENDBRANCH  40  41
ENDBRANCH  36  40
ENDBRANCH   7  32
TORSDOF 9
ENDMDL
