MODEL 1
REMARK VINA RESULT: -5.673183661      0.000      0.000
REMARK  12 active torsions:
REMARK  status: ('A' for Active; 'I' for Inactive)
REMARK    1  A    between atoms: C2_2  and  C3_3 
REMARK    2  A    between atoms: C3_3  and  O1_4 
REMARK    3  A    between atoms: C3_3  and  C4_6 
REMARK    4  A    between atoms: C4_6  and  C6_8 
REMARK    5  A    between atoms: C6_8  and  O2_9 
REMARK    6  A    between atoms: O2_9  and  C7_10 
REMARK    7  A    between atoms: C9_12  and  O3_13 
REMARK    8  A    between atoms: C14_20  and  C15_21 
REMARK    9  A    between atoms: C15_21  and  C17_23 
REMARK   10  A    between atoms: C15_21  and  C23_29 
REMARK   11  A    between atoms: C18_24  and  C19_25 
REMARK   12  A    between atoms: C23_29  and  C24_30 
ROOT
HETATM    1  C7  UNL     1      -2.623  11.482   2.278  1.00  0.00     0.091 A 
HETATM    2  C8  UNL     1      -1.391  11.648   2.867  1.00  0.00     0.075 A 
HETATM    3  C9  UNL     1      -0.249  11.557   2.130  1.00  0.00     0.082 A 
HETATM    4  C10 UNL     1      -0.302  11.294   0.750  1.00  0.00     0.048 A 
HETATM    5  C11 UNL     1       0.884  11.226   0.071  1.00  0.00     0.062 A 
HETATM    6 CL1  UNL     1       2.375  11.476   0.965  1.00  0.00    -0.082 Cl
HETATM    7  C12 UNL     1       0.902  10.976  -1.322  1.00  0.00     0.021 A 
HETATM    8  C13 UNL     1       1.964  10.898  -2.128  1.00  0.00     0.032 A 
HETATM    9  C14 UNL     1       1.758  10.662  -3.463  1.00  0.00     0.006 A 
HETATM   10  S1  UNL     1       0.044  10.557  -3.534  1.00  0.00    -0.074 SA
HETATM   11  C25 UNL     1      -0.333  10.816  -1.884  1.00  0.00     0.087 A 
HETATM   12  N1  UNL     1      -1.505  10.889  -1.169  1.00  0.00    -0.348 N 
ATOM     13  H1  UNL     1      -2.391  10.756  -1.656  1.00  0.00     0.166 HD
HETATM   14  C26 UNL     1      -1.518  11.128   0.146  1.00  0.00     0.068 A 
HETATM   15  C27 UNL     1      -2.660  11.220   0.899  1.00  0.00     0.072 A 
HETATM   16 BR1  UNL     1      -4.359  10.991   0.045  1.00  0.00    -0.046 Br
ENDROOT
BRANCH   9  17
HETATM   17  C15 UNL     1       2.772  10.596  -4.545  1.00  0.00     0.063 C 
HETATM   18  C16 UNL     1       2.686  11.888  -5.348  1.00  0.00     0.035 C 
BRANCH  17  19
HETATM   19  C17 UNL     1       4.094  10.655  -3.866  1.00  0.00    -0.090 C 
HETATM   20  C18 UNL     1       5.169  10.720  -3.290  1.00  0.00    -0.097 C 
BRANCH  20  21
HETATM   21  C19 UNL     1       6.445  10.823  -2.585  1.00  0.00     0.013 C 
HETATM   22  C20 UNL     1       6.401  10.176  -1.207  1.00  0.00     0.028 C 
HETATM   23  C21 UNL     1       7.476  10.143  -3.463  1.00  0.00     0.028 C 
HETATM   24  C22 UNL     1       6.868  12.281  -2.404  1.00  0.00     0.028 C 
ENDBRANCH  20  21
ENDBRANCH  17  19
BRANCH  17  25
HETATM   25  C23 UNL     1       2.710   9.455  -5.469  1.00  0.00     0.140 C 
BRANCH  25  26
HETATM   26  C24 UNL     1       3.884   8.972  -6.127  1.00  0.00     0.174 C 
HETATM   27  O4  UNL     1       4.311   7.803  -5.709  1.00  0.00    -0.648 OA
HETATM   28  O5  UNL     1       4.615   9.528  -7.100  1.00  0.00    -0.648 OA
ENDBRANCH  25  26
ENDBRANCH  17  25
ENDBRANCH   9  17
BRANCH   3  29
HETATM   29  O3  UNL     1       0.959  11.737   2.759  1.00  0.00    -0.360 OA
ATOM     30  H3  UNL     1       1.035  12.418   3.417  1.00  0.00     0.217 HD
ENDBRANCH   3  29
BRANCH   1  31
HETATM   31  O2  UNL     1      -3.828  11.573   2.933  1.00  0.00    -0.349 OA
BRANCH  31  32
HETATM   32  C6  UNL     1      -4.118  11.479   4.269  1.00  0.00     0.182 C 
BRANCH  32  33
HETATM   33  C4  UNL     1      -4.306  10.159   4.904  1.00  0.00     0.035 C 
HETATM   34  C5  UNL     1      -4.866  10.278   6.328  1.00  0.00     0.015 C 
BRANCH  33  35
HETATM   35  C3  UNL     1      -4.919   9.020   4.212  1.00  0.00     0.123 C 
BRANCH  35  36
HETATM   36  C2  UNL     1      -3.790   7.992   3.897  1.00  0.00     0.027 C 
HETATM   37  C1  UNL     1      -3.651   7.973   2.375  1.00  0.00     0.007 C 
ENDBRANCH  35  36
BRANCH  35  38
HETATM   38  O1  UNL     1      -5.804   8.372   5.129  1.00  0.00    -0.395 OA
ATOM     39  H1  UNL     1      -6.626   8.847   5.084  1.00  0.00     0.210 HD
ENDBRANCH  35  38
ENDBRANCH  33  35
ENDBRANCH  32  33
ENDBRANCH  31  32
ENDBRANCH   1  31
TORSDOF 12
ENDMDL
MODEL 2
REMARK VINA RESULT: -5.478139106      4.361     11.482
REMARK  12 active torsions:
REMARK  status: ('A' for Active; 'I' for Inactive)
REMARK    1  A    between atoms: C2_2  and  C3_3 
REMARK    2  A    between atoms: C3_3  and  O1_4 
REMARK    3  A    between atoms: C3_3  and  C4_6 
REMARK    4  A    between atoms: C4_6  and  C6_8 
REMARK    5  A    between atoms: C6_8  and  O2_9 
REMARK    6  A    between atoms: O2_9  and  C7_10 
REMARK    7  A    between atoms: C9_12  and  O3_13 
REMARK    8  A    between atoms: C14_20  and  C15_21 
REMARK    9  A    between atoms: C15_21  and  C17_23 
REMARK   10  A    between atoms: C15_21  and  C23_29 
REMARK   11  A    between atoms: C18_24  and  C19_25 
REMARK   12  A    between atoms: C23_29  and  C24_30 
ROOT
HETATM    1  C7  UNL     1       2.024  12.281  -6.568  1.00  0.00     0.091 A 
HETATM    2  C8  UNL     1       2.296  11.100  -5.916  1.00  0.00     0.075 A 
HETATM    3  C9  UNL     1       1.513  10.676  -4.886  1.00  0.00     0.082 A 
HETATM    4  C10 UNL     1       0.407  11.435  -4.464  1.00  0.00     0.048 A 
HETATM    5  C11 UNL     1      -0.342  10.944  -3.429  1.00  0.00     0.062 A 
HETATM    6 CL1  UNL     1       0.127   9.412  -2.711  1.00  0.00    -0.082 Cl
HETATM    7  C12 UNL     1      -1.475  11.652  -2.962  1.00  0.00     0.021 A 
HETATM    8  C13 UNL     1      -2.314  11.304  -1.982  1.00  0.00     0.032 A 
HETATM    9  C14 UNL     1      -3.369  12.131  -1.698  1.00  0.00     0.006 A 
HETATM   10  S1  UNL     1      -3.136  13.393  -2.841  1.00  0.00    -0.074 SA
HETATM   11  C25 UNL     1      -1.725  12.820  -3.624  1.00  0.00     0.087 A 
HETATM   12  N1  UNL     1      -0.949  13.284  -4.660  1.00  0.00    -0.348 N 
ATOM     13  H1  UNL     1      -1.195  14.167  -5.107  1.00  0.00     0.166 HD
HETATM   14  C26 UNL     1       0.119  12.612  -5.100  1.00  0.00     0.068 A 
HETATM   15  C27 UNL     1       0.916  13.028  -6.135  1.00  0.00     0.072 A 
HETATM   16 BR1  UNL     1       0.504  14.673  -7.024  1.00  0.00    -0.046 Br
ENDROOT
BRANCH   9  17
HETATM   17  C15 UNL     1      -4.451  11.922  -0.704  1.00  0.00     0.063 C 
HETATM   18  C16 UNL     1      -5.100  13.272  -0.425  1.00  0.00     0.035 C 
BRANCH  17  19
HETATM   19  C17 UNL     1      -5.499  11.133  -1.406  1.00  0.00    -0.090 C 
HETATM   20  C18 UNL     1      -6.343  10.485  -2.005  1.00  0.00    -0.097 C 
BRANCH  20  21
HETATM   21  C19 UNL     1      -7.342   9.719  -2.749  1.00  0.00     0.013 C 
HETATM   22  C20 UNL     1      -7.408   8.264  -2.301  1.00  0.00     0.028 C 
HETATM   23  C21 UNL     1      -8.671  10.410  -2.521  1.00  0.00     0.028 C 
HETATM   24  C22 UNL     1      -7.054   9.733  -4.250  1.00  0.00     0.028 C 
ENDBRANCH  20  21
ENDBRANCH  17  19
BRANCH  17  25
HETATM   25  C23 UNL     1      -4.092  11.292   0.574  1.00  0.00     0.140 C 
BRANCH  25  26
HETATM   26  C24 UNL     1      -5.043  10.518   1.310  1.00  0.00     0.174 C 
HETATM   27  O4  UNL     1      -4.762   9.238   1.401  1.00  0.00    -0.648 OA
HETATM   28  O5  UNL     1      -6.174  10.895   1.917  1.00  0.00    -0.648 OA
ENDBRANCH  25  26
ENDBRANCH  17  25
ENDBRANCH   9  17
BRANCH   3  29
HETATM   29  O3  UNL     1       1.817   9.488  -4.270  1.00  0.00    -0.360 OA
ATOM     30  H3  UNL     1       1.756   8.684  -4.772  1.00  0.00     0.217 HD
ENDBRANCH   3  29
BRANCH   1  31
HETATM   31  O2  UNL     1       2.744  12.781  -7.627  1.00  0.00    -0.349 OA
BRANCH  31  32
HETATM   32  C6  UNL     1       3.973  13.387  -7.653  1.00  0.00     0.182 C 
BRANCH  32  33
HETATM   33  C4  UNL     1       4.314  14.340  -8.729  1.00  0.00     0.035 C 
HETATM   34  C5  UNL     1       5.638  13.983  -9.417  1.00  0.00     0.015 C 
BRANCH  33  35
HETATM   35  C3  UNL     1       3.339  14.810  -9.718  1.00  0.00     0.123 C 
BRANCH  35  36
HETATM   36  C2  UNL     1       4.054  15.848 -10.636  1.00  0.00     0.027 C 
HETATM   37  C1  UNL     1       3.623  17.224 -10.129  1.00  0.00     0.007 C 
ENDBRANCH  35  36
BRANCH  35  38
HETATM   38  O1  UNL     1       2.997  13.704 -10.558  1.00  0.00    -0.395 OA
ATOM     39  H1  UNL     1       2.050  13.715 -10.638  1.00  0.00     0.210 HD
ENDBRANCH  35  38
ENDBRANCH  33  35
ENDBRANCH  32  33
ENDBRANCH  31  32
ENDBRANCH   1  31
TORSDOF 12
ENDMDL
MODEL 3
REMARK VINA RESULT: -5.389517673      3.749      9.809
REMARK  12 active torsions:
REMARK  status: ('A' for Active; 'I' for Inactive)
REMARK    1  A    between atoms: C2_2  and  C3_3 
REMARK    2  A    between atoms: C3_3  and  O1_4 
REMARK    3  A    between atoms: C3_3  and  C4_6 
REMARK    4  A    between atoms: C4_6  and  C6_8 
REMARK    5  A    between atoms: C6_8  and  O2_9 
REMARK    6  A    between atoms: O2_9  and  C7_10 
REMARK    7  A    between atoms: C9_12  and  O3_13 
REMARK    8  A    between atoms: C14_20  and  C15_21 
REMARK    9  A    between atoms: C15_21  and  C17_23 
REMARK   10  A    between atoms: C15_21  and  C23_29 
REMARK   11  A    between atoms: C18_24  and  C19_25 
REMARK   12  A    between atoms: C23_29  and  C24_30 
ROOT
HETATM    1  C7  UNL     1       4.863   9.650   0.077  1.00  0.00     0.091 A 
HETATM    2  C8  UNL     1       4.748   9.475   1.437  1.00  0.00     0.075 A 
HETATM    3  C9  UNL     1       3.662   9.946   2.110  1.00  0.00     0.082 A 
HETATM    4  C10 UNL     1       2.631  10.619   1.432  1.00  0.00     0.048 A 
HETATM    5  C11 UNL     1       1.565  11.056   2.170  1.00  0.00     0.062 A 
HETATM    6 CL1  UNL     1       1.559  10.743   3.898  1.00  0.00    -0.082 Cl
HETATM    7  C12 UNL     1       0.488  11.732   1.547  1.00  0.00     0.021 A 
HETATM    8  C13 UNL     1      -0.625  12.202   2.117  1.00  0.00     0.032 A 
HETATM    9  C14 UNL     1      -1.560  12.814   1.324  1.00  0.00     0.006 A 
HETATM   10  S1  UNL     1      -0.823  12.704  -0.225  1.00  0.00    -0.074 SA
HETATM   11  C25 UNL     1       0.624  11.892   0.198  1.00  0.00     0.087 A 
HETATM   12  N1  UNL     1       1.712  11.440  -0.511  1.00  0.00    -0.348 N 
ATOM     13  H1  UNL     1       1.746  11.598  -1.519  1.00  0.00     0.166 HD
HETATM   14  C26 UNL     1       2.726  10.801   0.078  1.00  0.00     0.068 A 
HETATM   15  C27 UNL     1       3.825  10.324  -0.588  1.00  0.00     0.072 A 
HETATM   16 BR1  UNL     1       3.949  10.578  -2.482  1.00  0.00    -0.046 Br
ENDROOT
BRANCH   9  17
HETATM   17  C15 UNL     1      -2.884  13.353   1.723  1.00  0.00     0.063 C 
HETATM   18  C16 UNL     1      -3.762  13.410   0.478  1.00  0.00     0.035 C 
BRANCH  17  19
HETATM   19  C17 UNL     1      -3.505  12.309   2.581  1.00  0.00    -0.090 C 
HETATM   20  C18 UNL     1      -4.032  11.446   3.265  1.00  0.00    -0.097 C 
BRANCH  20  21
HETATM   21  C19 UNL     1      -4.687  10.413   4.065  1.00  0.00     0.013 C 
HETATM   22  C20 UNL     1      -4.559  10.669   5.561  1.00  0.00     0.028 C 
HETATM   23  C21 UNL     1      -6.143  10.404   3.646  1.00  0.00     0.028 C 
HETATM   24  C22 UNL     1      -4.105   9.029   3.777  1.00  0.00     0.028 C 
ENDBRANCH  20  21
ENDBRANCH  17  19
BRANCH  17  25
HETATM   25  C23 UNL     1      -2.915  14.663   2.388  1.00  0.00     0.140 C 
BRANCH  25  26
HETATM   26  C24 UNL     1      -1.841  15.596   2.234  1.00  0.00     0.174 C 
HETATM   27  O4  UNL     1      -1.903  16.336   1.151  1.00  0.00    -0.648 OA
HETATM   28  O5  UNL     1      -0.785  15.830   3.021  1.00  0.00    -0.648 OA
ENDBRANCH  25  26
ENDBRANCH  17  25
ENDBRANCH   9  17
BRANCH   3  29
HETATM   29  O3  UNL     1       3.586   9.743   3.466  1.00  0.00    -0.360 OA
ATOM     30  H3  UNL     1       3.471  10.495   4.035  1.00  0.00     0.217 HD
ENDBRANCH   3  29
BRANCH   1  31
HETATM   31  O2  UNL     1       5.909   9.196  -0.690  1.00  0.00    -0.349 OA
BRANCH  31  32
HETATM   32  C6  UNL     1       7.227   9.573  -0.700  1.00  0.00     0.182 C 
BRANCH  32  33
HETATM   33  C4  UNL     1       8.213   8.868   0.144  1.00  0.00     0.035 C 
HETATM   34  C5  UNL     1       8.478   9.609   1.461  1.00  0.00     0.015 C 
BRANCH  33  35
HETATM   35  C3  UNL     1       8.178   7.420   0.374  1.00  0.00     0.123 C 
BRANCH  35  36
HETATM   36  C2  UNL     1       7.588   7.179   1.797  1.00  0.00     0.027 C 
HETATM   37  C1  UNL     1       8.414   6.048   2.409  1.00  0.00     0.007 C 
ENDBRANCH  35  36
BRANCH  35  38
HETATM   38  O1  UNL     1       7.243   6.852  -0.546  1.00  0.00    -0.395 OA
ATOM     39  H1  UNL     1       6.950   7.565  -1.102  1.00  0.00     0.210 HD
ENDBRANCH  35  38
ENDBRANCH  33  35
ENDBRANCH  32  33
ENDBRANCH  31  32
ENDBRANCH   1  31
TORSDOF 12
ENDMDL
MODEL 4
REMARK VINA RESULT: -5.372221672      1.475      1.833
REMARK  12 active torsions:
REMARK  status: ('A' for Active; 'I' for Inactive)
REMARK    1  A    between atoms: C2_2  and  C3_3 
REMARK    2  A    between atoms: C3_3  and  O1_4 
REMARK    3  A    between atoms: C3_3  and  C4_6 
REMARK    4  A    between atoms: C4_6  and  C6_8 
REMARK    5  A    between atoms: C6_8  and  O2_9 
REMARK    6  A    between atoms: O2_9  and  C7_10 
REMARK    7  A    between atoms: C9_12  and  O3_13 
REMARK    8  A    between atoms: C14_20  and  C15_21 
REMARK    9  A    between atoms: C15_21  and  C17_23 
REMARK   10  A    between atoms: C15_21  and  C23_29 
REMARK   11  A    between atoms: C18_24  and  C19_25 
REMARK   12  A    between atoms: C23_29  and  C24_30 
ROOT
HETATM    1  C7  UNL     1      -2.810  11.380   1.643  1.00  0.00     0.091 A 
HETATM    2  C8  UNL     1      -1.557  11.389   2.211  1.00  0.00     0.075 A 
HETATM    3  C9  UNL     1      -0.440  11.427   1.434  1.00  0.00     0.082 A 
HETATM    4  C10 UNL     1      -0.539  11.460   0.032  1.00  0.00     0.048 A 
HETATM    5  C11 UNL     1       0.625  11.507  -0.686  1.00  0.00     0.062 A 
HETATM    6 CL1  UNL     1       2.147  11.527   0.189  1.00  0.00    -0.082 Cl
HETATM    7  C12 UNL     1       0.596  11.553  -2.100  1.00  0.00     0.021 A 
HETATM    8  C13 UNL     1       1.632  11.620  -2.941  1.00  0.00     0.032 A 
HETATM    9  C14 UNL     1       1.382  11.674  -4.287  1.00  0.00     0.006 A 
HETATM   10  S1  UNL     1      -0.336  11.628  -4.321  1.00  0.00    -0.074 SA
HETATM   11  C25 UNL     1      -0.658  11.545  -2.641  1.00  0.00     0.087 A 
HETATM   12  N1  UNL     1      -1.807  11.495  -1.888  1.00  0.00    -0.348 N 
ATOM     13  H1  UNL     1      -2.710  11.490  -2.362  1.00  0.00     0.166 HD
HETATM   14  C26 UNL     1      -1.777  11.454  -0.552  1.00  0.00     0.068 A 
HETATM   15  C27 UNL     1      -2.894  11.414   0.241  1.00  0.00     0.072 A 
HETATM   16 BR1  UNL     1      -4.622  11.410  -0.584  1.00  0.00    -0.046 Br
ENDROOT
BRANCH   9  17
HETATM   17  C15 UNL     1       2.362  11.811  -5.393  1.00  0.00     0.063 C 
HETATM   18  C16 UNL     1       1.732  12.683  -6.474  1.00  0.00     0.035 C 
BRANCH  17  19
HETATM   19  C17 UNL     1       3.479  12.628  -4.846  1.00  0.00    -0.090 C 
HETATM   20  C18 UNL     1       4.377  13.319  -4.392  1.00  0.00    -0.097 C 
BRANCH  20  21
HETATM   21  C19 UNL     1       5.435  14.170  -3.850  1.00  0.00     0.013 C 
HETATM   22  C20 UNL     1       6.783  13.464  -3.807  1.00  0.00     0.028 C 
HETATM   23  C21 UNL     1       5.500  15.394  -4.742  1.00  0.00     0.028 C 
HETATM   24  C22 UNL     1       5.106  14.638  -2.432  1.00  0.00     0.028 C 
ENDBRANCH  20  21
ENDBRANCH  17  19
BRANCH  17  25
HETATM   25  C23 UNL     1       2.871  10.579  -6.011  1.00  0.00     0.140 C 
BRANCH  25  26
HETATM   26  C24 UNL     1       3.489   9.558  -5.223  1.00  0.00     0.174 C 
HETATM   27  O4  UNL     1       3.229   8.329  -5.607  1.00  0.00    -0.648 OA
HETATM   28  O5  UNL     1       4.289   9.661  -4.155  1.00  0.00    -0.648 OA
ENDBRANCH  25  26
ENDBRANCH  17  25
ENDBRANCH   9  17
BRANCH   3  29
HETATM   29  O3  UNL     1       0.790  11.441   2.045  1.00  0.00    -0.360 OA
ATOM     30  H3  UNL     1       1.502  10.949   1.652  1.00  0.00     0.217 HD
ENDBRANCH   3  29
BRANCH   1  31
HETATM   31  O2  UNL     1      -3.993  11.361   2.342  1.00  0.00    -0.349 OA
BRANCH  31  32
HETATM   32  C6  UNL     1      -4.226  11.469   3.689  1.00  0.00     0.182 C 
BRANCH  32  33
HETATM   33  C4  UNL     1      -4.296  10.261   4.536  1.00  0.00     0.035 C 
HETATM   34  C5  UNL     1      -4.637  10.598   5.993  1.00  0.00     0.015 C 
BRANCH  33  35
HETATM   35  C3  UNL     1      -4.987   9.036   4.123  1.00  0.00     0.123 C 
BRANCH  35  36
HETATM   36  C2  UNL     1      -3.909   7.930   3.909  1.00  0.00     0.027 C 
HETATM   37  C1  UNL     1      -3.593   7.934   2.415  1.00  0.00     0.007 C 
ENDBRANCH  35  36
BRANCH  35  38
HETATM   38  O1  UNL     1      -5.797   8.597   5.218  1.00  0.00    -0.395 OA
ATOM     39  H1  UNL     1      -6.246   7.815   4.918  1.00  0.00     0.210 HD
ENDBRANCH  35  38
ENDBRANCH  33  35
ENDBRANCH  32  33
ENDBRANCH  31  32
ENDBRANCH   1  31
TORSDOF 12
ENDMDL
MODEL 5
REMARK VINA RESULT: -5.354563765      3.738     10.841
REMARK  12 active torsions:
REMARK  status: ('A' for Active; 'I' for Inactive)
REMARK    1  A    between atoms: C2_2  and  C3_3 
REMARK    2  A    between atoms: C3_3  and  O1_4 
REMARK    3  A    between atoms: C3_3  and  C4_6 
REMARK    4  A    between atoms: C4_6  and  C6_8 
REMARK    5  A    between atoms: C6_8  and  O2_9 
REMARK    6  A    between atoms: O2_9  and  C7_10 
REMARK    7  A    between atoms: C9_12  and  O3_13 
REMARK    8  A    between atoms: C14_20  and  C15_21 
REMARK    9  A    between atoms: C15_21  and  C17_23 
REMARK   10  A    between atoms: C15_21  and  C23_29 
REMARK   11  A    between atoms: C18_24  and  C19_25 
REMARK   12  A    between atoms: C23_29  and  C24_30 
ROOT
HETATM    1  C7  UNL     1       2.357  12.137  -4.744  1.00  0.00     0.091 A 
HETATM    2  C8  UNL     1       1.380  12.748  -5.497  1.00  0.00     0.075 A 
HETATM    3  C9  UNL     1       0.095  12.814  -5.051  1.00  0.00     0.082 A 
HETATM    4  C10 UNL     1      -0.265  12.260  -3.809  1.00  0.00     0.048 A 
HETATM    5  C11 UNL     1      -1.572  12.371  -3.420  1.00  0.00     0.062 A 
HETATM    6 CL1  UNL     1      -2.695  13.194  -4.488  1.00  0.00    -0.082 Cl
HETATM    7  C12 UNL     1      -1.998  11.845  -2.177  1.00  0.00     0.021 A 
HETATM    8  C13 UNL     1      -3.224  11.886  -1.646  1.00  0.00     0.032 A 
HETATM    9  C14 UNL     1      -3.422  11.327  -0.410  1.00  0.00     0.006 A 
HETATM   10  S1  UNL     1      -1.846  10.753  -0.035  1.00  0.00    -0.074 SA
HETATM   11  C25 UNL     1      -1.012  11.244  -1.448  1.00  0.00     0.087 A 
HETATM   12  N1  UNL     1       0.292  11.150  -1.872  1.00  0.00    -0.348 N 
ATOM     13  H1  UNL     1       0.975  10.684  -1.274  1.00  0.00     0.166 HD
HETATM   14  C26 UNL     1       0.693  11.649  -3.045  1.00  0.00     0.068 A 
HETATM   15  C27 UNL     1       1.982  11.588  -3.506  1.00  0.00     0.072 A 
HETATM   16 BR1  UNL     1       3.317  10.736  -2.429  1.00  0.00    -0.046 Br
ENDROOT
BRANCH   9  17
HETATM   17  C15 UNL     1      -4.669  11.307   0.393  1.00  0.00     0.063 C 
HETATM   18  C16 UNL     1      -5.078  12.751   0.662  1.00  0.00     0.035 C 
BRANCH  17  19
HETATM   19  C17 UNL     1      -5.725  10.773  -0.509  1.00  0.00    -0.090 C 
HETATM   20  C18 UNL     1      -6.571  10.327  -1.267  1.00  0.00    -0.097 C 
BRANCH  20  21
HETATM   21  C19 UNL     1      -7.565   9.794  -2.197  1.00  0.00     0.013 C 
HETATM   22  C20 UNL     1      -8.989  10.146  -1.790  1.00  0.00     0.028 C 
HETATM   23  C21 UNL     1      -7.237  10.378  -3.557  1.00  0.00     0.028 C 
HETATM   24  C22 UNL     1      -7.471   8.271  -2.304  1.00  0.00     0.028 C 
ENDBRANCH  20  21
ENDBRANCH  17  19
BRANCH  17  25
HETATM   25  C23 UNL     1      -4.649  10.573   1.666  1.00  0.00     0.140 C 
BRANCH  25  26
HETATM   26  C24 UNL     1      -5.541  10.916   2.731  1.00  0.00     0.174 C 
HETATM   27  O4  UNL     1      -4.957  11.386   3.810  1.00  0.00    -0.648 OA
HETATM   28  O5  UNL     1      -6.874  10.831   2.798  1.00  0.00    -0.648 OA
ENDBRANCH  25  26
ENDBRANCH  17  25
ENDBRANCH   9  17
BRANCH   3  29
HETATM   29  O3  UNL     1      -0.844  13.439  -5.832  1.00  0.00    -0.360 OA
ATOM     30  H3  UNL     1      -1.418  12.907  -6.371  1.00  0.00     0.217 HD
ENDBRANCH   3  29
BRANCH   1  31
HETATM   31  O2  UNL     1       3.680  12.037  -5.100  1.00  0.00    -0.349 OA
BRANCH  31  32
HETATM   32  C6  UNL     1       4.268  11.362  -6.139  1.00  0.00     0.182 C 
BRANCH  32  33
HETATM   33  C4  UNL     1       4.543   9.915  -6.030  1.00  0.00     0.035 C 
HETATM   34  C5  UNL     1       3.254   9.089  -5.935  1.00  0.00     0.015 C 
BRANCH  33  35
HETATM   35  C3  UNL     1       5.527   9.224  -6.870  1.00  0.00     0.123 C 
BRANCH  35  36
HETATM   36  C2  UNL     1       6.747   8.859  -5.971  1.00  0.00     0.027 C 
HETATM   37  C1  UNL     1       7.386   7.626  -6.609  1.00  0.00     0.007 C 
ENDBRANCH  35  36
BRANCH  35  38
HETATM   38  O1  UNL     1       4.954   7.983  -7.289  1.00  0.00    -0.395 OA
ATOM     39  H1  UNL     1       4.052   7.993  -6.990  1.00  0.00     0.210 HD
ENDBRANCH  35  38
ENDBRANCH  33  35
ENDBRANCH  32  33
ENDBRANCH  31  32
ENDBRANCH   1  31
TORSDOF 12
ENDMDL
