MODEL 1
REMARK VINA RESULT: -6.646940574      0.000      0.000
REMARK  11 active torsions:
REMARK  status: ('A' for Active; 'I' for Inactive)
REMARK    1  A    between atoms: C2_2  and  C3_3 
REMARK    2  A    between atoms: C3_3  and  O1_4 
REMARK    3  A    between atoms: C3_3  and  C4_6 
REMARK    4  A    between atoms: C4_6  and  C5_7 
REMARK    5  A    between atoms: C8_10  and  C9_11 
REMARK    6  A    between atoms: C11_15  and  N2_16 
REMARK    7  A    between atoms: C12_19  and  C13_20 
REMARK    8  A    between atoms: C16_24  and  O2_25 
REMARK    9  A    between atoms: O2_25  and  C17_26 
REMARK   10  A    between atoms: C17_26  and  C18_27 
REMARK   11  A    between atoms: C19_28  and  C20_29 
ROOT
HETATM    1  C13 UNL     1       1.061  11.554  -3.473  1.00  0.00     0.036 A 
HETATM    2  C14 UNL     1       1.361  12.528  -2.548  1.00  0.00     0.062 A 
HETATM    3  C15 UNL     1       0.871  12.497  -1.273  1.00  0.00     0.151 A 
HETATM    4  F1  UNL     1       1.175  13.469  -0.362  1.00  0.00    -0.203 F 
HETATM    5  C16 UNL     1       0.024  11.457  -0.833  1.00  0.00     0.116 A 
HETATM    6  C31 UNL     1      -0.268  10.474  -1.799  1.00  0.00     0.083 A 
HETATM    7  C32 UNL     1       0.232  10.524  -3.061  1.00  0.00     0.131 A 
HETATM    8  F2  UNL     1      -0.054   9.574  -3.989  1.00  0.00    -0.205 F 
ENDROOT
BRANCH   1   9
HETATM    9  C12 UNL     1       1.625  11.589  -4.808  1.00  0.00     0.090 A 
HETATM   10  C11 UNL     1       0.947  12.245  -5.808  1.00  0.00     0.127 A 
HETATM   11  N1  UNL     1       1.545  12.240  -7.043  1.00  0.00    -0.349 N 
HETATM   12  C10 UNL     1       2.712  11.641  -7.280  1.00  0.00     0.115 A 
ATOM     13  H1  UNL     1       1.076  12.715  -7.813  1.00  0.00     0.167 HD
HETATM   14  C9  UNL     1       3.377  10.990  -6.275  1.00  0.00     0.029 A 
HETATM   15  N4  UNL     1       2.814  10.983  -5.067  1.00  0.00    -0.354 N 
ATOM     16  H4  UNL     1       3.294  10.503  -4.306  1.00  0.00     0.166 HD
BRANCH  10  17
HETATM   17  N2  UNL     1      -0.189  12.831  -5.671  1.00  0.00    -0.384 N 
ATOM     18  H22 UNL     1      -0.327  13.841  -5.621  1.00  0.00     0.157 HD
ATOM     19  H21 UNL     1      -1.031  12.261  -5.589  1.00  0.00     0.157 HD
ENDBRANCH  10  17
BRANCH  14  20
HETATM   20  C8  UNL     1       4.668  10.342  -6.556  1.00  0.00     0.037 C 
HETATM   21  C7  UNL     1       5.795  10.876  -5.749  1.00  0.00     0.011 C 
HETATM   22  C6  UNL     1       6.576   9.860  -4.984  1.00  0.00     0.005 C 
HETATM   23  C5  UNL     1       6.931   8.624  -5.790  1.00  0.00    -0.012 C 
HETATM   24  C34 UNL     1       5.857   8.137  -6.664  1.00  0.00     0.005 C 
HETATM   25  C33 UNL     1       4.536   8.838  -6.501  1.00  0.00     0.011 C 
BRANCH  23  26
HETATM   26  C4  UNL     1       8.337   8.595  -6.236  1.00  0.00     0.036 C 
BRANCH  26  27
HETATM   27  C3  UNL     1       9.137   7.379  -6.173  1.00  0.00     0.118 C 
BRANCH  27  28
HETATM   28  C2  UNL     1       9.233   6.485  -7.369  1.00  0.00     0.027 C 
HETATM   29  C1  UNL     1       9.776   7.178  -8.603  1.00  0.00     0.007 C 
ENDBRANCH  27  28
BRANCH  27  30
HETATM   30  O1  UNL     1       8.681   6.574  -5.097  1.00  0.00    -0.396 OA
ATOM     31  H1  UNL     1       7.733   6.638  -5.091  1.00  0.00     0.210 HD
ENDBRANCH  27  30
ENDBRANCH  26  27
ENDBRANCH  23  26
ENDBRANCH  14  20
ENDBRANCH   1   9
BRANCH   5  32
HETATM   32  O2  UNL     1      -0.443  11.426   0.386  1.00  0.00    -0.319 OA
BRANCH  32  33
HETATM   33  C17 UNL     1      -0.899  11.396   1.583  1.00  0.00     0.156 C 
BRANCH  33  34
HETATM   34  C18 UNL     1      -2.241  11.565   2.110  1.00  0.00     0.017 A 
HETATM   35  C19 UNL     1      -2.799  12.850   2.008  1.00  0.00     0.029 A 
HETATM   36  N3  UNL     1      -4.096  12.995   2.437  1.00  0.00    -0.367 N 
HETATM   37  C24 UNL     1      -4.832  12.012   2.932  1.00  0.00     0.103 A 
ATOM     38  H3  UNL     1      -4.520  13.920   2.370  1.00  0.00     0.165 HD
HETATM   39  C25 UNL     1      -4.301  10.735   3.042  1.00  0.00     0.032 A 
HETATM   40  C26 UNL     1      -3.015  10.513   2.631  1.00  0.00    -0.029 A 
HETATM   41  C30 UNL     1      -5.100   9.662   3.618  1.00  0.00     0.161 C 
HETATM   42  C27 UNL     1      -2.474   9.146   2.664  1.00  0.00     0.041 C 
HETATM   43  C28 UNL     1      -3.475   8.027   2.828  1.00  0.00     0.012 C 
HETATM   44  C29 UNL     1      -4.511   8.323   3.894  1.00  0.00     0.084 C 
HETATM   45  O3  UNL     1      -6.301   9.852   3.890  1.00  0.00    -0.292 OA
BRANCH  35  46
HETATM   46  C20 UNL     1      -2.054  14.023   1.553  1.00  0.00    -0.008 C 
HETATM   47  C21 UNL     1      -2.857  15.232   2.185  1.00  0.00     0.021 C 
HETATM   48  C22 UNL     1      -2.061  14.339   0.104  1.00  0.00     0.021 C 
HETATM   49  C23 UNL     1      -0.694  14.210   2.232  1.00  0.00     0.021 C 
ENDBRANCH  35  46
ENDBRANCH  33  34
ENDBRANCH  32  33
ENDBRANCH   5  32
TORSDOF 11
ENDMDL
MODEL 2
REMARK VINA RESULT: -6.577338775      4.835      5.994
REMARK  11 active torsions:
REMARK  status: ('A' for Active; 'I' for Inactive)
REMARK    1  A    between atoms: C2_2  and  C3_3 
REMARK    2  A    between atoms: C3_3  and  O1_4 
REMARK    3  A    between atoms: C3_3  and  C4_6 
REMARK    4  A    between atoms: C4_6  and  C5_7 
REMARK    5  A    between atoms: C8_10  and  C9_11 
REMARK    6  A    between atoms: C11_15  and  N2_16 
REMARK    7  A    between atoms: C12_19  and  C13_20 
REMARK    8  A    between atoms: C16_24  and  O2_25 
REMARK    9  A    between atoms: O2_25  and  C17_26 
REMARK   10  A    between atoms: C17_26  and  C18_27 
REMARK   11  A    between atoms: C19_28  and  C20_29 
ROOT
HETATM    1  C13 UNL     1       4.058   9.999   1.944  1.00  0.00     0.036 A 
HETATM    2  C14 UNL     1       3.685  10.525   0.727  1.00  0.00     0.062 A 
HETATM    3  C15 UNL     1       2.395  10.883   0.453  1.00  0.00     0.151 A 
HETATM    4  F1  UNL     1       2.035  11.404  -0.758  1.00  0.00    -0.203 F 
HETATM    5  C16 UNL     1       1.368  10.732   1.409  1.00  0.00     0.116 A 
HETATM    6  C31 UNL     1       1.775  10.193   2.646  1.00  0.00     0.083 A 
HETATM    7  C32 UNL     1       3.065   9.844   2.897  1.00  0.00     0.131 A 
HETATM    8  F2  UNL     1       3.452   9.323   4.090  1.00  0.00    -0.205 F 
ENDROOT
BRANCH   1   9
HETATM    9  C12 UNL     1       5.440   9.663   2.223  1.00  0.00     0.090 A 
HETATM   10  C11 UNL     1       6.222  10.556   2.915  1.00  0.00     0.127 A 
HETATM   11  N1  UNL     1       7.518  10.167   3.146  1.00  0.00    -0.349 N 
HETATM   12  C10 UNL     1       8.007   8.998   2.732  1.00  0.00     0.115 A 
ATOM     13  H1  UNL     1       8.133  10.799   3.657  1.00  0.00     0.167 HD
HETATM   14  C9  UNL     1       7.217   8.118   2.042  1.00  0.00     0.029 A 
HETATM   15  N4  UNL     1       5.955   8.476   1.807  1.00  0.00    -0.354 N 
ATOM     16  H4  UNL     1       5.351   7.834   1.294  1.00  0.00     0.166 HD
BRANCH  10  17
HETATM   17  N2  UNL     1       5.837  11.709   3.335  1.00  0.00    -0.384 N 
ATOM     18  H22 UNL     1       6.220  12.198   4.143  1.00  0.00     0.157 HD
ATOM     19  H21 UNL     1       5.079  12.184   2.843  1.00  0.00     0.157 HD
ENDBRANCH  10  17
BRANCH  14  20
HETATM   20  C8  UNL     1       7.774   6.830   1.600  1.00  0.00     0.037 C 
HETATM   21  C7  UNL     1       7.238   6.358   0.298  1.00  0.00     0.011 C 
HETATM   22  C6  UNL     1       8.260   6.027  -0.737  1.00  0.00     0.005 C 
HETATM   23  C5  UNL     1       9.417   5.197  -0.215  1.00  0.00    -0.012 C 
HETATM   24  C34 UNL     1       9.901   5.592   1.114  1.00  0.00     0.005 C 
HETATM   25  C33 UNL     1       9.284   6.847   1.669  1.00  0.00     0.011 C 
BRANCH  23  26
HETATM   26  C4  UNL     1       9.341   3.774  -0.596  1.00  0.00     0.036 C 
BRANCH  26  27
HETATM   27  C3  UNL     1      10.007   3.261  -1.786  1.00  0.00     0.118 C 
BRANCH  27  28
HETATM   28  C2  UNL     1      11.161   4.008  -2.377  1.00  0.00     0.027 C 
HETATM   29  C1  UNL     1      10.774   4.903  -3.538  1.00  0.00     0.007 C 
ENDBRANCH  27  28
BRANCH  27  30
HETATM   30  O1  UNL     1       9.052   3.099  -2.824  1.00  0.00    -0.396 OA
ATOM     31  H1  UNL     1       8.755   2.198  -2.783  1.00  0.00     0.210 HD
ENDBRANCH  27  30
ENDBRANCH  26  27
ENDBRANCH  23  26
ENDBRANCH  14  20
ENDBRANCH   1   9
BRANCH   5  32
HETATM   32  O2  UNL     1       0.136  11.076   1.149  1.00  0.00    -0.319 OA
BRANCH  32  33
HETATM   33  C17 UNL     1      -1.073  11.415   0.891  1.00  0.00     0.156 C 
BRANCH  33  34
HETATM   34  C18 UNL     1      -2.208  11.676   1.757  1.00  0.00     0.017 A 
HETATM   35  C19 UNL     1      -2.614  13.016   1.876  1.00  0.00     0.029 A 
HETATM   36  N3  UNL     1      -3.734  13.256   2.635  1.00  0.00    -0.367 N 
HETATM   37  C24 UNL     1      -4.435  12.315   3.249  1.00  0.00     0.103 A 
ATOM     38  H3  UNL     1      -4.046  14.221   2.731  1.00  0.00     0.165 HD
HETATM   39  C25 UNL     1      -4.051  10.986   3.147  1.00  0.00     0.032 A 
HETATM   40  C26 UNL     1      -2.947  10.669   2.403  1.00  0.00    -0.029 A 
HETATM   41  C30 UNL     1      -4.802   9.956   3.850  1.00  0.00     0.161 C 
HETATM   42  C27 UNL     1      -2.584   9.256   2.219  1.00  0.00     0.041 C 
HETATM   43  C28 UNL     1      -3.638   8.235   2.575  1.00  0.00     0.012 C 
HETATM   44  C29 UNL     1      -4.328   8.544   3.889  1.00  0.00     0.084 C 
HETATM   45  O3  UNL     1      -5.864  10.244   4.435  1.00  0.00    -0.292 OA
BRANCH  35  46
HETATM   46  C20 UNL     1      -1.872  14.141   1.308  1.00  0.00    -0.008 C 
HETATM   47  C21 UNL     1      -2.684  15.403   1.812  1.00  0.00     0.021 C 
HETATM   48  C22 UNL     1      -1.873  14.309  -0.165  1.00  0.00     0.021 C 
HETATM   49  C23 UNL     1      -0.517  14.402   1.971  1.00  0.00     0.021 C 
ENDBRANCH  35  46
ENDBRANCH  33  34
ENDBRANCH  32  33
ENDBRANCH   5  32
TORSDOF 11
ENDMDL
MODEL 3
REMARK VINA RESULT: -6.428584040      0.830      1.391
REMARK  11 active torsions:
REMARK  status: ('A' for Active; 'I' for Inactive)
REMARK    1  A    between atoms: C2_2  and  C3_3 
REMARK    2  A    between atoms: C3_3  and  O1_4 
REMARK    3  A    between atoms: C3_3  and  C4_6 
REMARK    4  A    between atoms: C4_6  and  C5_7 
REMARK    5  A    between atoms: C8_10  and  C9_11 
REMARK    6  A    between atoms: C11_15  and  N2_16 
REMARK    7  A    between atoms: C12_19  and  C13_20 
REMARK    8  A    between atoms: C16_24  and  O2_25 
REMARK    9  A    between atoms: O2_25  and  C17_26 
REMARK   10  A    between atoms: C17_26  and  C18_27 
REMARK   11  A    between atoms: C19_28  and  C20_29 
ROOT
HETATM    1  C13 UNL     1       1.420  11.387  -3.244  1.00  0.00     0.036 A 
HETATM    2  C14 UNL     1       1.724  12.419  -2.384  1.00  0.00     0.062 A 
HETATM    3  C15 UNL     1       1.138  12.540  -1.156  1.00  0.00     0.151 A 
HETATM    4  F1  UNL     1       1.447  13.568  -0.310  1.00  0.00    -0.203 F 
HETATM    5  C16 UNL     1       0.183  11.607  -0.698  1.00  0.00     0.116 A 
HETATM    6  C31 UNL     1      -0.111  10.561  -1.596  1.00  0.00     0.083 A 
HETATM    7  C32 UNL     1       0.485  10.460  -2.813  1.00  0.00     0.131 A 
HETATM    8  F2  UNL     1       0.198   9.451  -3.675  1.00  0.00    -0.205 F 
ENDROOT
BRANCH   1   9
HETATM    9  C12 UNL     1       2.084  11.260  -4.526  1.00  0.00     0.090 A 
HETATM   10  C11 UNL     1       1.448  11.706  -5.659  1.00  0.00     0.127 A 
HETATM   11  N1  UNL     1       2.140  11.557  -6.835  1.00  0.00    -0.349 N 
HETATM   12  C10 UNL     1       3.356  11.014  -6.896  1.00  0.00     0.115 A 
ATOM     13  H1  UNL     1       1.705  11.875  -7.701  1.00  0.00     0.167 HD
HETATM   14  C9  UNL     1       3.977  10.572  -5.758  1.00  0.00     0.029 A 
HETATM   15  N4  UNL     1       3.323  10.707  -4.605  1.00  0.00    -0.354 N 
ATOM     16  H4  UNL     1       3.770  10.384  -3.747  1.00  0.00     0.166 HD
BRANCH  10  17
HETATM   17  N2  UNL     1       0.271  12.225  -5.694  1.00  0.00    -0.384 N 
ATOM     18  H22 UNL     1      -0.199  12.559  -6.535  1.00  0.00     0.157 HD
ATOM     19  H21 UNL     1      -0.245  12.332  -4.820  1.00  0.00     0.157 HD
ENDBRANCH  10  17
BRANCH  14  20
HETATM   20  C8  UNL     1       5.323   9.982  -5.845  1.00  0.00     0.037 C 
HETATM   21  C7  UNL     1       5.333   8.498  -5.793  1.00  0.00     0.011 C 
HETATM   22  C6  UNL     1       6.043   7.820  -6.917  1.00  0.00     0.005 C 
HETATM   23  C5  UNL     1       7.392   8.431  -7.249  1.00  0.00    -0.012 C 
HETATM   24  C34 UNL     1       7.423   9.898  -7.214  1.00  0.00     0.005 C 
HETATM   25  C33 UNL     1       6.086  10.558  -7.016  1.00  0.00     0.011 C 
BRANCH  23  26
HETATM   26  C4  UNL     1       8.535   7.641  -6.752  1.00  0.00     0.036 C 
BRANCH  26  27
HETATM   27  C3  UNL     1       8.715   7.362  -5.333  1.00  0.00     0.118 C 
BRANCH  27  28
HETATM   28  C2  UNL     1       9.358   8.381  -4.446  1.00  0.00     0.027 C 
HETATM   29  C1  UNL     1       8.365   9.225  -3.673  1.00  0.00     0.007 C 
ENDBRANCH  27  28
BRANCH  27  30
HETATM   30  O1  UNL     1       9.461   6.163  -5.183  1.00  0.00    -0.396 OA
ATOM     31  H1  UNL     1      10.013   6.087  -5.953  1.00  0.00     0.210 HD
ENDBRANCH  27  30
ENDBRANCH  26  27
ENDBRANCH  23  26
ENDBRANCH  14  20
ENDBRANCH   1   9
BRANCH   5  32
HETATM   32  O2  UNL     1      -0.375  11.721   0.476  1.00  0.00    -0.319 OA
BRANCH  32  33
HETATM   33  C17 UNL     1      -0.923  11.831   1.630  1.00  0.00     0.156 C 
BRANCH  33  34
HETATM   34  C18 UNL     1      -2.313  11.945   2.031  1.00  0.00     0.017 A 
HETATM   35  C19 UNL     1      -2.922  13.196   1.843  1.00  0.00     0.029 A 
HETATM   36  N3  UNL     1      -4.258  13.285   2.152  1.00  0.00    -0.367 N 
HETATM   37  C24 UNL     1      -4.986  12.279   2.610  1.00  0.00     0.103 A 
ATOM     38  H3  UNL     1      -4.719  14.185   2.020  1.00  0.00     0.165 HD
HETATM   39  C25 UNL     1      -4.405  11.034   2.805  1.00  0.00     0.032 A 
HETATM   40  C26 UNL     1      -3.078  10.868   2.515  1.00  0.00    -0.029 A 
HETATM   41  C30 UNL     1      -5.198   9.937   3.341  1.00  0.00     0.161 C 
HETATM   42  C27 UNL     1      -2.477   9.532   2.636  1.00  0.00     0.041 C 
HETATM   43  C28 UNL     1      -3.432   8.368   2.745  1.00  0.00     0.012 C 
HETATM   44  C29 UNL     1      -4.571   8.637   3.707  1.00  0.00     0.084 C 
HETATM   45  O3  UNL     1      -6.427  10.072   3.500  1.00  0.00    -0.292 OA
BRANCH  35  46
HETATM   46  C20 UNL     1      -2.198  14.394   1.419  1.00  0.00    -0.008 C 
HETATM   47  C21 UNL     1      -3.166  15.573   1.841  1.00  0.00     0.021 C 
HETATM   48  C22 UNL     1      -2.007  14.621  -0.033  1.00  0.00     0.021 C 
HETATM   49  C23 UNL     1      -0.972  14.726   2.275  1.00  0.00     0.021 C 
ENDBRANCH  35  46
ENDBRANCH  33  34
ENDBRANCH  32  33
ENDBRANCH   5  32
TORSDOF 11
ENDMDL
MODEL 4
REMARK VINA RESULT: -6.355740545      0.674      1.258
REMARK  11 active torsions:
REMARK  status: ('A' for Active; 'I' for Inactive)
REMARK    1  A    between atoms: C2_2  and  C3_3 
REMARK    2  A    between atoms: C3_3  and  O1_4 
REMARK    3  A    between atoms: C3_3  and  C4_6 
REMARK    4  A    between atoms: C4_6  and  C5_7 
REMARK    5  A    between atoms: C8_10  and  C9_11 
REMARK    6  A    between atoms: C11_15  and  N2_16 
REMARK    7  A    between atoms: C12_19  and  C13_20 
REMARK    8  A    between atoms: C16_24  and  O2_25 
REMARK    9  A    between atoms: O2_25  and  C17_26 
REMARK   10  A    between atoms: C17_26  and  C18_27 
REMARK   11  A    between atoms: C19_28  and  C20_29 
ROOT
HETATM    1  C13 UNL     1       1.105  11.765  -3.359  1.00  0.00     0.036 A 
HETATM    2  C14 UNL     1       0.079  10.919  -3.002  1.00  0.00     0.062 A 
HETATM    3  C15 UNL     1      -0.448  10.906  -1.742  1.00  0.00     0.151 A 
HETATM    4  F1  UNL     1      -1.467  10.062  -1.398  1.00  0.00    -0.203 F 
HETATM    5  C16 UNL     1       0.033  11.765  -0.730  1.00  0.00     0.116 A 
HETATM    6  C31 UNL     1       1.083  12.620  -1.121  1.00  0.00     0.083 A 
HETATM    7  C32 UNL     1       1.592  12.617  -2.381  1.00  0.00     0.131 A 
HETATM    8  F2  UNL     1       2.604  13.443  -2.752  1.00  0.00    -0.205 F 
ENDROOT
BRANCH   1   9
HETATM    9  C12 UNL     1       1.622  11.787  -4.713  1.00  0.00     0.090 A 
HETATM   10  C11 UNL     1       0.917  12.446  -5.691  1.00  0.00     0.127 A 
HETATM   11  N1  UNL     1       1.470  12.428  -6.947  1.00  0.00    -0.349 N 
HETATM   12  C10 UNL     1       2.620  11.814  -7.223  1.00  0.00     0.115 A 
ATOM     13  H1  UNL     1       0.979  12.906  -7.703  1.00  0.00     0.167 HD
HETATM   14  C9  UNL     1       3.312  11.159  -6.239  1.00  0.00     0.029 A 
HETATM   15  N4  UNL     1       2.793  11.165  -5.011  1.00  0.00    -0.354 N 
ATOM     16  H4  UNL     1       3.294  10.683  -4.265  1.00  0.00     0.166 HD
BRANCH  10  17
HETATM   17  N2  UNL     1      -0.207  13.048  -5.517  1.00  0.00    -0.384 N 
ATOM     18  H22 UNL     1      -0.801  13.409  -6.263  1.00  0.00     0.157 HD
ATOM     19  H21 UNL     1      -0.542  13.199  -4.565  1.00  0.00     0.157 HD
ENDBRANCH  10  17
BRANCH  14  20
HETATM   20  C8  UNL     1       4.585  10.494  -6.562  1.00  0.00     0.037 C 
HETATM   21  C7  UNL     1       5.719  10.917  -5.701  1.00  0.00     0.011 C 
HETATM   22  C6  UNL     1       6.456   9.813  -5.019  1.00  0.00     0.005 C 
HETATM   23  C5  UNL     1       6.779   8.640  -5.926  1.00  0.00    -0.012 C 
HETATM   24  C34 UNL     1       5.701   8.267  -6.849  1.00  0.00     0.005 C 
HETATM   25  C33 UNL     1       4.402   8.996  -6.639  1.00  0.00     0.011 C 
BRANCH  23  26
HETATM   26  C4  UNL     1       8.189   8.601  -6.359  1.00  0.00     0.036 C 
BRANCH  26  27
HETATM   27  C3  UNL     1       9.002   7.400  -6.220  1.00  0.00     0.118 C 
BRANCH  27  28
HETATM   28  C2  UNL     1       9.111   6.435  -7.358  1.00  0.00     0.027 C 
HETATM   29  C1  UNL     1       9.794   7.015  -8.582  1.00  0.00     0.007 C 
ENDBRANCH  27  28
BRANCH  27  30
HETATM   30  O1  UNL     1       8.552   6.657  -5.098  1.00  0.00    -0.396 OA
ATOM     31  H1  UNL     1       9.277   6.106  -4.826  1.00  0.00     0.210 HD
ENDBRANCH  27  30
ENDBRANCH  26  27
ENDBRANCH  23  26
ENDBRANCH  14  20
ENDBRANCH   1   9
BRANCH   5  32
HETATM   32  O2  UNL     1      -0.472  11.754   0.473  1.00  0.00    -0.319 OA
BRANCH  32  33
HETATM   33  C17 UNL     1      -0.969  11.745   1.654  1.00  0.00     0.156 C 
BRANCH  33  34
HETATM   34  C18 UNL     1      -2.340  11.817   2.126  1.00  0.00     0.017 A 
HETATM   35  C19 UNL     1      -2.988  13.056   1.989  1.00  0.00     0.029 A 
HETATM   36  N3  UNL     1      -4.309  13.105   2.365  1.00  0.00    -0.367 N 
HETATM   37  C24 UNL     1      -4.988  12.073   2.841  1.00  0.00     0.103 A 
ATOM     38  H3  UNL     1      -4.798  13.995   2.271  1.00  0.00     0.165 HD
HETATM   39  C25 UNL     1      -4.368  10.841   2.986  1.00  0.00     0.032 A 
HETATM   40  C26 UNL     1      -3.053  10.714   2.628  1.00  0.00    -0.029 A 
HETATM   41  C30 UNL     1      -5.106   9.716   3.541  1.00  0.00     0.161 C 
HETATM   42  C27 UNL     1      -2.413   9.391   2.696  1.00  0.00     0.041 C 
HETATM   43  C28 UNL     1      -3.333   8.201   2.832  1.00  0.00     0.012 C 
HETATM   44  C29 UNL     1      -4.430   8.426   3.853  1.00  0.00     0.084 C 
HETATM   45  O3  UNL     1      -6.328   9.817   3.763  1.00  0.00    -0.292 OA
BRANCH  35  46
HETATM   46  C20 UNL     1      -2.316  14.278   1.551  1.00  0.00    -0.008 C 
HETATM   47  C21 UNL     1      -3.257  15.427   2.098  1.00  0.00     0.021 C 
HETATM   48  C22 UNL     1      -2.253  14.562   0.097  1.00  0.00     0.021 C 
HETATM   49  C23 UNL     1      -1.025  14.595   2.311  1.00  0.00     0.021 C 
ENDBRANCH  35  46
ENDBRANCH  33  34
ENDBRANCH  32  33
ENDBRANCH   5  32
TORSDOF 11
ENDMDL
MODEL 5
REMARK VINA RESULT: -6.346469061      6.306     12.852
REMARK  11 active torsions:
REMARK  status: ('A' for Active; 'I' for Inactive)
REMARK    1  A    between atoms: C2_2  and  C3_3 
REMARK    2  A    between atoms: C3_3  and  O1_4 
REMARK    3  A    between atoms: C3_3  and  C4_6 
REMARK    4  A    between atoms: C4_6  and  C5_7 
REMARK    5  A    between atoms: C8_10  and  C9_11 
REMARK    6  A    between atoms: C11_15  and  N2_16 
REMARK    7  A    between atoms: C12_19  and  C13_20 
REMARK    8  A    between atoms: C16_24  and  O2_25 
REMARK    9  A    between atoms: O2_25  and  C17_26 
REMARK   10  A    between atoms: C17_26  and  C18_27 
REMARK   11  A    between atoms: C19_28  and  C20_29 
ROOT
HETATM    1  C13 UNL     1       4.533   9.730   2.086  1.00  0.00     0.036 A 
HETATM    2  C14 UNL     1       5.261   9.590   3.246  1.00  0.00     0.062 A 
HETATM    3  C15 UNL     1       6.291   8.699   3.355  1.00  0.00     0.151 A 
HETATM    4  F1  UNL     1       7.008   8.567   4.511  1.00  0.00    -0.203 F 
HETATM    5  C16 UNL     1       6.667   7.868   2.277  1.00  0.00     0.116 A 
HETATM    6  C31 UNL     1       5.906   8.032   1.103  1.00  0.00     0.083 A 
HETATM    7  C32 UNL     1       4.886   8.925   1.016  1.00  0.00     0.131 A 
HETATM    8  F2  UNL     1       4.155   9.078  -0.118  1.00  0.00    -0.205 F 
ENDROOT
BRANCH   1   9
HETATM    9  C12 UNL     1       3.469  10.710   1.983  1.00  0.00     0.090 A 
HETATM   10  C11 UNL     1       3.787  12.046   1.951  1.00  0.00     0.127 A 
HETATM   11  N1  UNL     1       2.728  12.913   1.848  1.00  0.00    -0.349 N 
HETATM   12  C10 UNL     1       1.461  12.505   1.783  1.00  0.00     0.115 A 
ATOM     13  H1  UNL     1       2.919  13.915   1.820  1.00  0.00     0.167 HD
HETATM   14  C9  UNL     1       1.158  11.170   1.817  1.00  0.00     0.029 A 
HETATM   15  N4  UNL     1       2.172  10.309   1.917  1.00  0.00    -0.354 N 
ATOM     16  H4  UNL     1       1.966   9.311   1.944  1.00  0.00     0.166 HD
BRANCH  10  17
HETATM   17  N2  UNL     1       4.977  12.527   2.027  1.00  0.00    -0.384 N 
ATOM     18  H22 UNL     1       5.275  13.260   2.671  1.00  0.00     0.157 HD
ATOM     19  H21 UNL     1       5.693  12.172   1.393  1.00  0.00     0.157 HD
ENDBRANCH  10  17
BRANCH  14  20
HETATM   20  C8  UNL     1      -0.246  10.738   1.735  1.00  0.00     0.037 C 
HETATM   21  C7  UNL     1      -1.011  10.941   2.993  1.00  0.00     0.011 C 
HETATM   22  C6  UNL     1      -2.276  11.721   2.857  1.00  0.00     0.005 C 
HETATM   23  C5  UNL     1      -3.135  11.299   1.680  1.00  0.00    -0.012 C 
HETATM   24  C34 UNL     1      -2.385  11.004   0.453  1.00  0.00     0.005 C 
HETATM   25  C33 UNL     1      -0.916  11.322   0.512  1.00  0.00     0.011 C 
BRANCH  23  26
HETATM   26  C4  UNL     1      -4.301  10.481   2.064  1.00  0.00     0.036 C 
BRANCH  26  27
HETATM   27  C3  UNL     1      -4.572  10.135   3.453  1.00  0.00     0.118 C 
BRANCH  27  28
HETATM   28  C2  UNL     1      -4.463   8.713   3.903  1.00  0.00     0.027 C 
HETATM   29  C1  UNL     1      -3.339   7.948   3.231  1.00  0.00     0.007 C 
ENDBRANCH  27  28
BRANCH  27  30
HETATM   30  O1  UNL     1      -5.877  10.573   3.799  1.00  0.00    -0.396 OA
ATOM     31  H1  UNL     1      -5.901  11.510   3.642  1.00  0.00     0.210 HD
ENDBRANCH  27  30
ENDBRANCH  26  27
ENDBRANCH  23  26
ENDBRANCH  14  20
ENDBRANCH   1   9
BRANCH   5  32
HETATM   32  O2  UNL     1       7.653   7.019   2.381  1.00  0.00    -0.319 OA
BRANCH  32  33
HETATM   33  C17 UNL     1       8.622   6.187   2.483  1.00  0.00     0.156 C 
BRANCH  33  34
HETATM   34  C18 UNL     1       9.685   5.824   1.563  1.00  0.00     0.017 A 
HETATM   35  C19 UNL     1      10.966   5.664   2.114  1.00  0.00     0.029 A 
HETATM   36  N3  UNL     1      11.958   5.248   1.259  1.00  0.00    -0.367 N 
HETATM   37  C24 UNL     1      11.777   4.997  -0.028  1.00  0.00     0.103 A 
ATOM     38  H3  UNL     1      12.895   5.124   1.641  1.00  0.00     0.165 HD
HETATM   39  C25 UNL     1      10.519   5.151  -0.594  1.00  0.00     0.032 A 
HETATM   40  C26 UNL     1       9.480   5.559   0.197  1.00  0.00    -0.029 A 
HETATM   41  C30 UNL     1      10.328   4.908  -2.017  1.00  0.00     0.161 C 
HETATM   42  C27 UNL     1       8.128   5.639  -0.375  1.00  0.00     0.041 C 
HETATM   43  C28 UNL     1       7.912   4.947  -1.699  1.00  0.00     0.012 C 
HETATM   44  C29 UNL     1       9.032   5.212  -2.685  1.00  0.00     0.084 C 
HETATM   45  O3  UNL     1      11.256   4.436  -2.702  1.00  0.00    -0.292 OA
BRANCH  35  46
HETATM   46  C20 UNL     1      11.298   5.988   3.501  1.00  0.00    -0.008 C 
HETATM   47  C21 UNL     1      12.876   6.107   3.480  1.00  0.00     0.021 C 
HETATM   48  C22 UNL     1      11.055   4.958   4.540  1.00  0.00     0.021 C 
HETATM   49  C23 UNL     1      10.921   7.410   3.925  1.00  0.00     0.021 C 
ENDBRANCH  35  46
ENDBRANCH  33  34
ENDBRANCH  32  33
ENDBRANCH   5  32
TORSDOF 11
ENDMDL
