MODEL 1
REMARK VINA RESULT: -7.031171688      0.000      0.000
REMARK  10 active torsions:
REMARK  status: ('A' for Active; 'I' for Inactive)
REMARK    1  A    between atoms: C3_4  and  C4_5 
REMARK    2  A    between atoms: C4_5  and  N2_6 
REMARK    3  A    between atoms: C4_5  and  C5_10 
REMARK    4  A    between atoms: C5_10  and  C6_11 
REMARK       I    between atoms: C6_11  and  N3_13 
REMARK    5  A    between atoms: N3_13  and  N4_15 
REMARK    6  A    between atoms: C8_18  and  O2_19 
REMARK    7  A    between atoms: C8_18  and  N6_21 
REMARK    8  A    between atoms: N6_21  and  C9_22 
REMARK    9  A    between atoms: C9_22  and  C10_23 
REMARK   10  A    between atoms: C10_23  and  N7_24 
ROOT
HETATM    1  C6  UNL     1       0.271   6.305  83.753  1.00  0.00     0.240 C 
HETATM    2  O1  UNL     1       0.005   7.418  83.286  1.00  0.00    -0.272 OA
HETATM    3  N3  UNL     1       1.000   5.324  83.086  1.00  0.00    -0.233 N 
ATOM      4  H3  UNL     1       1.115   4.468  83.628  1.00  0.00     0.193 HD
ENDROOT
BRANCH   3   5
HETATM    5  N4  UNL     1       1.592   5.269  81.858  1.00  0.00    -0.069 N 
HETATM    6  N5  UNL     1       2.826   5.115  81.632  1.00  0.00    -0.287 NA
HETATM    7  C7  UNL     1       3.875   5.002  81.048  1.00  0.00     0.266 A 
HETATM    8  C8  UNL     1       5.101   4.869  80.365  1.00  0.00     0.263 C 
HETATM    9  C11 UNL     1       3.051   5.174  79.581  1.00  0.00     0.298 A 
HETATM   10  O3  UNL     1       3.763   5.121  78.609  1.00  0.00    -0.264 OA
HETATM   11  N8  UNL     1       1.802   5.338  79.590  1.00  0.00    -0.269 N 
HETATM   12  C12 UNL     1       0.954   5.405  80.658  1.00  0.00     0.374 A 
ATOM     13  H8  UNL     1       1.364   5.436  78.674  1.00  0.00     0.174 HD
HETATM   14  O4  UNL     1      -0.214   5.567  80.530  1.00  0.00    -0.242 OA
BRANCH   8  15
HETATM   15  O2  UNL     1       6.035   4.684  81.447  1.00  0.00    -0.333 OA
ATOM     16  H2  UNL     1       6.483   5.522  81.472  1.00  0.00     0.220 HD
ENDBRANCH   8  15
BRANCH   8  17
HETATM   17  N6  UNL     1       5.773   4.830  79.293  1.00  0.00    -0.393 NA
BRANCH  17  18
HETATM   18  C9  UNL     1       6.441   4.781  78.301  1.00  0.00     0.185 C 
BRANCH  18  19
HETATM   19  C10 UNL     1       6.465   3.565  77.423  1.00  0.00     0.288 C 
BRANCH  19  20
HETATM   20  N7  UNL     1       5.395   3.621  76.462  1.00  0.00    -0.074 N 
ATOM     21  H73 UNL     1       5.198   4.578  76.168  1.00  0.00     0.274 HD
ATOM     22  H72 UNL     1       5.675   3.241  75.557  1.00  0.00     0.274 HD
ATOM     23  H71 UNL     1       4.565   3.156  76.829  1.00  0.00     0.274 HD
ENDBRANCH  19  20
ENDBRANCH  18  19
ENDBRANCH  17  18
ENDBRANCH   8  17
ENDBRANCH   3   5
BRANCH   1  24
HETATM   24  C5  UNL     1      -0.221   5.954  85.143  1.00  0.00     0.142 C 
BRANCH  24  25
HETATM   25  C4  UNL     1      -1.592   5.400  85.114  1.00  0.00     0.232 C 
BRANCH  25  26
HETATM   26  C3  UNL     1      -1.662   4.046  85.661  1.00  0.00     0.056 A 
HETATM   27  C2  UNL     1      -0.986   3.004  85.073  1.00  0.00     0.110 A 
HETATM   28  N1  UNL     1      -1.011   1.731  85.555  1.00  0.00    -0.313 N 
HETATM   29  C1  UNL     1      -0.253   0.672  84.881  1.00  0.00     0.160 C 
HETATM   30  C14 UNL     1      -1.730   1.482  86.656  1.00  0.00     0.328 A 
HETATM   31  N9  UNL     1      -2.410   2.493  87.262  1.00  0.00    -0.275 N 
HETATM   32  O6  UNL     1      -1.756   0.310  87.105  1.00  0.00    -0.246 OA
HETATM   33  C13 UNL     1      -2.394   3.741  86.800  1.00  0.00     0.259 A 
ATOM     34  H9  UNL     1      -2.952   2.287  88.101  1.00  0.00     0.173 HD
HETATM   35  O5  UNL     1      -3.029   4.657  87.375  1.00  0.00    -0.267 OA
ENDBRANCH  25  26
BRANCH  25  36
HETATM   36  N2  UNL     1      -2.228   5.519  83.822  1.00  0.00    -0.070 N 
ATOM     37  H23 UNL     1      -1.618   5.170  83.082  1.00  0.00     0.275 HD
ATOM     38  H22 UNL     1      -2.996   4.854  83.731  1.00  0.00     0.275 HD
ATOM     39  H21 UNL     1      -2.542   6.468  83.619  1.00  0.00     0.275 HD
ENDBRANCH  25  36
ENDBRANCH  24  25
ENDBRANCH   1  24
TORSDOF 10
ENDMDL
MODEL 2
REMARK VINA RESULT: -6.983876843      2.123      2.463
REMARK  10 active torsions:
REMARK  status: ('A' for Active; 'I' for Inactive)
REMARK    1  A    between atoms: C3_4  and  C4_5 
REMARK    2  A    between atoms: C4_5  and  N2_6 
REMARK    3  A    between atoms: C4_5  and  C5_10 
REMARK    4  A    between atoms: C5_10  and  C6_11 
REMARK       I    between atoms: C6_11  and  N3_13 
REMARK    5  A    between atoms: N3_13  and  N4_15 
REMARK    6  A    between atoms: C8_18  and  O2_19 
REMARK    7  A    between atoms: C8_18  and  N6_21 
REMARK    8  A    between atoms: N6_21  and  C9_22 
REMARK    9  A    between atoms: C9_22  and  C10_23 
REMARK   10  A    between atoms: C10_23  and  N7_24 
ROOT
HETATM    1  C6  UNL     1       0.197   6.239  82.958  1.00  0.00     0.240 C 
HETATM    2  O1  UNL     1       0.120   7.474  82.976  1.00  0.00    -0.272 OA
HETATM    3  N3  UNL     1       0.242   5.470  81.799  1.00  0.00    -0.233 N 
ATOM      4  H3  UNL     1       0.299   4.468  81.983  1.00  0.00     0.193 HD
ENDROOT
BRANCH   3   5
HETATM    5  N4  UNL     1       0.226   5.775  80.470  1.00  0.00    -0.069 N 
HETATM    6  N5  UNL     1       1.149   5.540  79.639  1.00  0.00    -0.287 NA
HETATM    7  C7  UNL     1       1.776   5.497  78.611  1.00  0.00     0.266 A 
HETATM    8  C8  UNL     1       2.510   5.446  77.407  1.00  0.00     0.263 C 
HETATM    9  C11 UNL     1       0.506   6.296  77.829  1.00  0.00     0.298 A 
HETATM   10  O3  UNL     1       0.700   6.495  76.655  1.00  0.00    -0.264 OA
HETATM   11  N8  UNL     1      -0.517   6.620  78.488  1.00  0.00    -0.269 N 
HETATM   12  C12 UNL     1      -0.783   6.418  79.812  1.00  0.00     0.374 A 
ATOM     13  H8  UNL     1      -1.247   7.099  77.960  1.00  0.00     0.174 HD
HETATM   14  O4  UNL     1      -1.796   6.778  80.316  1.00  0.00    -0.242 OA
BRANCH   8  15
HETATM   15  O2  UNL     1       3.710   4.758  77.809  1.00  0.00    -0.333 OA
ATOM     16  H2  UNL     1       3.431   4.310  78.600  1.00  0.00     0.220 HD
ENDBRANCH   8  15
BRANCH   8  17
HETATM   17  N6  UNL     1       2.631   5.700  76.173  1.00  0.00    -0.393 NA
BRANCH  17  18
HETATM   18  C9  UNL     1       2.786   5.941  75.011  1.00  0.00     0.185 C 
BRANCH  18  19
HETATM   19  C10 UNL     1       3.522   5.003  74.100  1.00  0.00     0.288 C 
BRANCH  19  20
HETATM   20  N7  UNL     1       4.614   4.381  74.800  1.00  0.00    -0.074 N 
ATOM     21  H73 UNL     1       5.204   3.831  74.175  1.00  0.00     0.274 HD
ATOM     22  H72 UNL     1       5.311   5.062  75.103  1.00  0.00     0.274 HD
ATOM     23  H71 UNL     1       4.264   3.824  75.580  1.00  0.00     0.274 HD
ENDBRANCH  19  20
ENDBRANCH  18  19
ENDBRANCH  17  18
ENDBRANCH   8  17
ENDBRANCH   3   5
BRANCH   1  24
HETATM   24  C5  UNL     1       0.240   5.487  84.273  1.00  0.00     0.142 C 
BRANCH  24  25
HETATM   25  C4  UNL     1      -1.101   5.382  84.888  1.00  0.00     0.232 C 
BRANCH  25  26
HETATM   26  C3  UNL     1      -1.352   4.063  85.465  1.00  0.00     0.056 A 
HETATM   27  C2  UNL     1      -0.703   2.945  84.997  1.00  0.00     0.110 A 
HETATM   28  N1  UNL     1      -0.895   1.700  85.512  1.00  0.00    -0.313 N 
HETATM   29  C1  UNL     1      -0.157   0.555  84.970  1.00  0.00     0.160 C 
HETATM   30  C14 UNL     1      -1.758   1.557  86.526  1.00  0.00     0.328 A 
HETATM   31  N9  UNL     1      -2.414   2.645  87.013  1.00  0.00    -0.275 N 
HETATM   32  O6  UNL     1      -1.937   0.411  87.006  1.00  0.00    -0.246 OA
HETATM   33  C13 UNL     1      -2.236   3.867  86.517  1.00  0.00     0.259 A 
ATOM     34  H9  UNL     1      -3.067   2.519  87.786  1.00  0.00     0.173 HD
HETATM   35  O5  UNL     1      -2.853   4.855  86.981  1.00  0.00    -0.267 OA
ENDBRANCH  25  26
BRANCH  25  36
HETATM   36  N2  UNL     1      -2.164   5.827  84.017  1.00  0.00    -0.070 N 
ATOM     37  H23 UNL     1      -2.420   5.097  83.352  1.00  0.00     0.275 HD
ATOM     38  H22 UNL     1      -3.044   5.906  84.526  1.00  0.00     0.275 HD
ATOM     39  H21 UNL     1      -1.944   6.698  83.534  1.00  0.00     0.275 HD
ENDBRANCH  25  36
ENDBRANCH  24  25
ENDBRANCH   1  24
TORSDOF 10
ENDMDL
MODEL 3
REMARK VINA RESULT: -6.958166468      1.738      2.459
REMARK  10 active torsions:
REMARK  status: ('A' for Active; 'I' for Inactive)
REMARK    1  A    between atoms: C3_4  and  C4_5 
REMARK    2  A    between atoms: C4_5  and  N2_6 
REMARK    3  A    between atoms: C4_5  and  C5_10 
REMARK    4  A    between atoms: C5_10  and  C6_11 
REMARK       I    between atoms: C6_11  and  N3_13 
REMARK    5  A    between atoms: N3_13  and  N4_15 
REMARK    6  A    between atoms: C8_18  and  O2_19 
REMARK    7  A    between atoms: C8_18  and  N6_21 
REMARK    8  A    between atoms: N6_21  and  C9_22 
REMARK    9  A    between atoms: C9_22  and  C10_23 
REMARK   10  A    between atoms: C10_23  and  N7_24 
ROOT
HETATM    1  C6  UNL     1       2.084   6.008  82.613  1.00  0.00     0.240 C 
HETATM    2  O1  UNL     1       2.012   7.221  82.379  1.00  0.00    -0.272 OA
HETATM    3  N3  UNL     1       2.555   5.058  81.711  1.00  0.00    -0.233 N 
ATOM      4  H3  UNL     1       2.536   4.107  82.080  1.00  0.00     0.193 HD
ENDROOT
BRANCH   3   5
HETATM    5  N4  UNL     1       3.038   5.133  80.437  1.00  0.00    -0.069 N 
HETATM    6  N5  UNL     1       4.221   4.881  80.072  1.00  0.00    -0.287 NA
HETATM    7  C7  UNL     1       5.198   4.747  79.379  1.00  0.00     0.266 A 
HETATM    8  C8  UNL     1       6.341   4.588  78.568  1.00  0.00     0.263 C 
HETATM    9  C11 UNL     1       4.289   5.239  78.040  1.00  0.00     0.298 A 
HETATM   10  O3  UNL     1       4.910   5.262  77.006  1.00  0.00    -0.264 OA
HETATM   11  N8  UNL     1       3.075   5.537  78.195  1.00  0.00    -0.269 N 
HETATM   12  C12 UNL     1       2.329   5.527  79.338  1.00  0.00     0.374 A 
ATOM     13  H8  UNL     1       2.582   5.826  77.350  1.00  0.00     0.174 HD
HETATM   14  O4  UNL     1       1.183   5.836  79.349  1.00  0.00    -0.242 OA
BRANCH   8  15
HETATM   15  O2  UNL     1       7.327   4.133  79.515  1.00  0.00    -0.333 OA
ATOM     16  H2  UNL     1       8.018   3.809  78.948  1.00  0.00     0.220 HD
ENDBRANCH   8  15
BRANCH   8  17
HETATM   17  N6  UNL     1       6.917   4.646  77.442  1.00  0.00    -0.393 NA
BRANCH  17  18
HETATM   18  C9  UNL     1       7.492   4.681  76.393  1.00  0.00     0.185 C 
BRANCH  18  19
HETATM   19  C10 UNL     1       7.536   3.494  75.476  1.00  0.00     0.288 C 
BRANCH  19  20
HETATM   20  N7  UNL     1       6.221   3.210  74.964  1.00  0.00    -0.074 N 
ATOM     21  H73 UNL     1       5.545   3.061  75.713  1.00  0.00     0.274 HD
ATOM     22  H72 UNL     1       5.793   4.031  74.536  1.00  0.00     0.274 HD
ATOM     23  H71 UNL     1       6.256   2.420  74.320  1.00  0.00     0.274 HD
ENDBRANCH  19  20
ENDBRANCH  18  19
ENDBRANCH  17  18
ENDBRANCH   8  17
ENDBRANCH   3   5
BRANCH   1  24
HETATM   24  C5  UNL     1       1.630   5.493  83.964  1.00  0.00     0.142 C 
BRANCH  24  25
HETATM   25  C4  UNL     1       0.165   5.297  84.010  1.00  0.00     0.232 C 
BRANCH  25  26
HETATM   26  C3  UNL     1      -0.210   4.000  84.571  1.00  0.00     0.056 A 
HETATM   27  C2  UNL     1      -0.778   3.901  85.819  1.00  0.00     0.110 A 
HETATM   28  N1  UNL     1      -1.155   2.718  86.376  1.00  0.00    -0.313 N 
HETATM   29  C1  UNL     1      -1.767   2.691  87.708  1.00  0.00     0.160 C 
HETATM   30  C14 UNL     1      -0.966   1.595  85.673  1.00  0.00     0.328 A 
HETATM   31  N9  UNL     1      -0.408   1.660  84.433  1.00  0.00    -0.275 N 
HETATM   32  O6  UNL     1      -1.314   0.501  86.180  1.00  0.00    -0.246 OA
HETATM   33  C13 UNL     1      -0.033   2.811  83.878  1.00  0.00     0.259 A 
ATOM     34  H9  UNL     1      -0.271   0.795  83.909  1.00  0.00     0.173 HD
HETATM   35  O5  UNL     1       0.479   2.847  82.735  1.00  0.00    -0.267 OA
ENDBRANCH  25  26
BRANCH  25  36
HETATM   36  N2  UNL     1      -0.488   5.578  82.753  1.00  0.00    -0.070 N 
ATOM     37  H23 UNL     1       0.193   5.838  82.039  1.00  0.00     0.275 HD
ATOM     38  H22 UNL     1      -0.851   4.723  82.332  1.00  0.00     0.275 HD
ATOM     39  H21 UNL     1      -1.219   6.284  82.833  1.00  0.00     0.275 HD
ENDBRANCH  25  36
ENDBRANCH  24  25
ENDBRANCH   1  24
TORSDOF 10
ENDMDL
MODEL 4
REMARK VINA RESULT: -6.895184417      4.131      5.861
REMARK  10 active torsions:
REMARK  status: ('A' for Active; 'I' for Inactive)
REMARK    1  A    between atoms: C3_4  and  C4_5 
REMARK    2  A    between atoms: C4_5  and  N2_6 
REMARK    3  A    between atoms: C4_5  and  C5_10 
REMARK    4  A    between atoms: C5_10  and  C6_11 
REMARK       I    between atoms: C6_11  and  N3_13 
REMARK    5  A    between atoms: N3_13  and  N4_15 
REMARK    6  A    between atoms: C8_18  and  O2_19 
REMARK    7  A    between atoms: C8_18  and  N6_21 
REMARK    8  A    between atoms: N6_21  and  C9_22 
REMARK    9  A    between atoms: C9_22  and  C10_23 
REMARK   10  A    between atoms: C10_23  and  N7_24 
ROOT
HETATM    1  C6  UNL     1      -2.410   6.933  82.958  1.00  0.00     0.240 C 
HETATM    2  O1  UNL     1      -3.603   7.034  82.647  1.00  0.00    -0.272 OA
HETATM    3  N3  UNL     1      -1.354   6.985  82.053  1.00  0.00    -0.233 N 
ATOM      4  H3  UNL     1      -0.440   6.878  82.493  1.00  0.00     0.193 HD
ENDROOT
BRANCH   3   5
HETATM    5  N4  UNL     1      -1.284   7.148  80.700  1.00  0.00    -0.069 N 
HETATM    6  N5  UNL     1      -1.853   8.054  80.028  1.00  0.00    -0.287 NA
HETATM    7  C7  UNL     1      -2.225   8.722  79.095  1.00  0.00     0.266 A 
HETATM    8  C8  UNL     1      -2.660   9.503  78.005  1.00  0.00     0.263 C 
HETATM    9  C11 UNL     1      -1.380   7.694  78.051  1.00  0.00     0.298 A 
HETATM   10  O3  UNL     1      -1.466   7.997  76.887  1.00  0.00    -0.264 OA
HETATM   11  N8  UNL     1      -0.741   6.719  78.529  1.00  0.00    -0.269 N 
HETATM   12  C12 UNL     1      -0.612   6.335  79.833  1.00  0.00     0.374 A 
ATOM     13  H8  UNL     1      -0.252   6.137  77.848  1.00  0.00     0.174 HD
HETATM   14  O4  UNL     1       0.024   5.386  80.153  1.00  0.00    -0.242 OA
BRANCH   8  15
HETATM   15  O2  UNL     1      -3.440  10.526  78.653  1.00  0.00    -0.333 OA
ATOM     16  H2  UNL     1      -3.280  10.350  79.573  1.00  0.00     0.220 HD
ENDBRANCH   8  15
BRANCH   8  17
HETATM   17  N6  UNL     1      -2.700   9.746  76.763  1.00  0.00    -0.393 NA
BRANCH  17  18
HETATM   18  C9  UNL     1      -2.760  10.008  75.597  1.00  0.00     0.185 C 
BRANCH  18  19
HETATM   19  C10 UNL     1      -3.759   9.353  74.689  1.00  0.00     0.288 C 
BRANCH  19  20
HETATM   20  N7  UNL     1      -3.602   7.922  74.724  1.00  0.00    -0.074 N 
ATOM     21  H73 UNL     1      -4.102   7.466  73.960  1.00  0.00     0.274 HD
ATOM     22  H72 UNL     1      -2.654   7.637  74.474  1.00  0.00     0.274 HD
ATOM     23  H71 UNL     1      -3.882   7.558  75.634  1.00  0.00     0.274 HD
ENDBRANCH  19  20
ENDBRANCH  18  19
ENDBRANCH  17  18
ENDBRANCH   8  17
ENDBRANCH   3   5
BRANCH   1  24
HETATM   24  C5  UNL     1      -2.045   6.734  84.414  1.00  0.00     0.142 C 
BRANCH  24  25
HETATM   25  C4  UNL     1      -0.660   6.240  84.568  1.00  0.00     0.232 C 
BRANCH  25  26
HETATM   26  C3  UNL     1      -0.602   4.906  85.163  1.00  0.00     0.056 A 
HETATM   27  C2  UNL     1      -1.725   4.311  85.687  1.00  0.00     0.110 A 
HETATM   28  N1  UNL     1      -1.721   3.066  86.238  1.00  0.00    -0.313 N 
HETATM   29  C1  UNL     1      -2.962   2.489  86.765  1.00  0.00     0.160 C 
HETATM   30  C14 UNL     1      -0.568   2.388  86.272  1.00  0.00     0.328 A 
HETATM   31  N9  UNL     1       0.561   2.951  85.761  1.00  0.00    -0.275 N 
HETATM   32  O6  UNL     1      -0.559   1.240  86.778  1.00  0.00    -0.246 OA
HETATM   33  C13 UNL     1       0.571   4.167  85.220  1.00  0.00     0.259 A 
ATOM     34  H9  UNL     1       1.432   2.420  85.793  1.00  0.00     0.173 HD
HETATM   35  O5  UNL     1       1.624   4.665  84.756  1.00  0.00    -0.267 OA
ENDBRANCH  25  26
BRANCH  25  36
HETATM   36  N2  UNL     1       0.214   7.187  85.222  1.00  0.00    -0.070 N 
ATOM     37  H23 UNL     1      -0.277   8.059  85.419  1.00  0.00     0.275 HD
ATOM     38  H22 UNL     1       0.421   6.893  86.177  1.00  0.00     0.275 HD
ATOM     39  H21 UNL     1       1.073   7.362  84.701  1.00  0.00     0.275 HD
ENDBRANCH  25  36
ENDBRANCH  24  25
ENDBRANCH   1  24
TORSDOF 10
ENDMDL
MODEL 5
REMARK VINA RESULT: -6.871467606      1.863      9.122
REMARK  10 active torsions:
REMARK  status: ('A' for Active; 'I' for Inactive)
REMARK    1  A    between atoms: C3_4  and  C4_5 
REMARK    2  A    between atoms: C4_5  and  N2_6 
REMARK    3  A    between atoms: C4_5  and  C5_10 
REMARK    4  A    between atoms: C5_10  and  C6_11 
REMARK       I    between atoms: C6_11  and  N3_13 
REMARK    5  A    between atoms: N3_13  and  N4_15 
REMARK    6  A    between atoms: C8_18  and  O2_19 
REMARK    7  A    between atoms: C8_18  and  N6_21 
REMARK    8  A    between atoms: N6_21  and  C9_22 
REMARK    9  A    between atoms: C9_22  and  C10_23 
REMARK   10  A    between atoms: C10_23  and  N7_24 
ROOT
HETATM    1  C6  UNL     1       2.632   5.726  81.243  1.00  0.00     0.240 C 
HETATM    2  O1  UNL     1       2.047   4.833  80.618  1.00  0.00    -0.272 OA
HETATM    3  N3  UNL     1       2.161   6.302  82.420  1.00  0.00    -0.233 N 
ATOM      4  H3  UNL     1       2.777   7.026  82.789  1.00  0.00     0.193 HD
ENDROOT
BRANCH   3   5
HETATM    5  N4  UNL     1       1.049   6.099  83.183  1.00  0.00    -0.069 N 
HETATM    6  N5  UNL     1       0.875   5.164  84.015  1.00  0.00    -0.287 NA
HETATM    7  C7  UNL     1       0.362   4.451  84.840  1.00  0.00     0.266 A 
HETATM    8  C8  UNL     1      -0.237   3.617  85.807  1.00  0.00     0.263 C 
HETATM    9  C11 UNL     1      -1.027   5.414  84.778  1.00  0.00     0.298 A 
HETATM   10  O3  UNL     1      -1.911   5.050  85.514  1.00  0.00    -0.264 OA
HETATM   11  N8  UNL     1      -1.055   6.406  84.002  1.00  0.00    -0.269 N 
HETATM   12  C12 UNL     1      -0.086   6.859  83.153  1.00  0.00     0.374 A 
ATOM     13  H8  UNL     1      -1.920   6.947  84.010  1.00  0.00     0.174 HD
HETATM   14  O4  UNL     1      -0.241   7.815  82.468  1.00  0.00    -0.242 OA
BRANCH   8  15
HETATM   15  O2  UNL     1       0.802   2.654  86.067  1.00  0.00    -0.333 OA
ATOM     16  H2  UNL     1       0.354   2.013  86.606  1.00  0.00     0.220 HD
ENDBRANCH   8  15
BRANCH   8  17
HETATM   17  N6  UNL     1      -1.216   3.304  86.545  1.00  0.00    -0.393 NA
BRANCH  17  18
HETATM   18  C9  UNL     1      -2.123   2.974  87.254  1.00  0.00     0.185 C 
BRANCH  18  19
HETATM   19  C10 UNL     1      -2.641   1.566  87.272  1.00  0.00     0.288 C 
BRANCH  19  20
HETATM   20  N7  UNL     1      -1.549   0.631  87.206  1.00  0.00    -0.074 N 
ATOM     21  H73 UNL     1      -1.572  -0.036  87.977  1.00  0.00     0.274 HD
ATOM     22  H72 UNL     1      -1.657  -0.028  86.434  1.00  0.00     0.274 HD
ATOM     23  H71 UNL     1      -0.659   1.129  87.160  1.00  0.00     0.274 HD
ENDBRANCH  19  20
ENDBRANCH  18  19
ENDBRANCH  17  18
ENDBRANCH   8  17
ENDBRANCH   3   5
BRANCH   1  24
HETATM   24  C5  UNL     1       3.950   6.252  80.712  1.00  0.00     0.142 C 
BRANCH  24  25
HETATM   25  C4  UNL     1       4.961   5.179  80.597  1.00  0.00     0.232 C 
BRANCH  25  26
HETATM   26  C3  UNL     1       5.316   4.888  79.209  1.00  0.00     0.056 A 
HETATM   27  C2  UNL     1       4.408   5.060  78.191  1.00  0.00     0.110 A 
HETATM   28  N1  UNL     1       4.698   4.815  76.884  1.00  0.00    -0.313 N 
HETATM   29  C1  UNL     1       3.682   5.035  75.849  1.00  0.00     0.160 C 
HETATM   30  C14 UNL     1       5.927   4.386  76.574  1.00  0.00     0.328 A 
HETATM   31  N9  UNL     1       6.849   4.207  77.560  1.00  0.00    -0.275 N 
HETATM   32  O6  UNL     1       6.200   4.160  75.370  1.00  0.00    -0.246 OA
HETATM   33  C13 UNL     1       6.578   4.442  78.841  1.00  0.00     0.259 A 
ATOM     34  H9  UNL     1       7.781   3.880  77.307  1.00  0.00     0.173 HD
HETATM   35  O5  UNL     1       7.442   4.269  79.732  1.00  0.00    -0.267 OA
ENDBRANCH  25  26
BRANCH  25  36
HETATM   36  N2  UNL     1       4.624   3.994  81.352  1.00  0.00    -0.070 N 
ATOM     37  H23 UNL     1       3.740   4.117  81.847  1.00  0.00     0.275 HD
ATOM     38  H22 UNL     1       4.362   3.229  80.732  1.00  0.00     0.275 HD
ATOM     39  H21 UNL     1       5.364   3.707  81.993  1.00  0.00     0.275 HD
ENDBRANCH  25  36
ENDBRANCH  24  25
ENDBRANCH   1  24
TORSDOF 10
ENDMDL
