MODEL 1
REMARK VINA RESULT: -7.663545161      0.000      0.000
REMARK  7 active torsions:
REMARK  status: ('A' for Active; 'I' for Inactive)
REMARK    1  A    between atoms: O1_2  and  C2_3 
REMARK    2  A    between atoms: C5_9  and  N2_10 
REMARK    3  A    between atoms: N2_10  and  C6_12 
REMARK    4  A    between atoms: C6_12  and  C7_13 
REMARK    5  A    between atoms: C7_13  and  N3_14 
REMARK       I    between atoms: N4_16  and  C9_18 
REMARK    6  A    between atoms: C9_18  and  C10_20 
REMARK    7  A    between atoms: C10_20  and  O4_21 
ROOT
HETATM    1  N3  UNL     1       0.108   6.605  82.837  1.00  0.00    -0.172 N 
HETATM    2  C8  UNL     1      -0.154   7.276  81.675  1.00  0.00     0.689 A 
HETATM    3  N4  UNL     1      -1.130   8.103  81.539  1.00  0.00    -0.157 N 
ATOM      4  H4  UNL     1      -1.755   8.285  82.324  1.00  0.00     0.187 HD
HETATM    5  C9  UNL     1      -1.342   8.764  80.300  1.00  0.00     0.259 C 
HETATM    6  O3  UNL     1      -0.454   9.462  79.737  1.00  0.00    -0.270 OA
HETATM    7  N5  UNL     1       0.723   6.956  80.740  1.00  0.00    -0.173 N 
ATOM      8  H5  UNL     1       0.742   7.322  79.788  1.00  0.00     0.186 HD
HETATM    9  C11 UNL     1       1.581   6.073  81.253  1.00  0.00     0.160 A 
HETATM   10  C12 UNL     1       1.189   5.854  82.579  1.00  0.00     0.164 A 
HETATM   11  C13 UNL     1       1.899   4.983  83.358  1.00  0.00     0.280 A 
HETATM   12  O5  UNL     1       1.546   4.787  84.548  1.00  0.00    -0.265 OA
HETATM   13  N6  UNL     1       2.966   4.332  82.877  1.00  0.00    -0.273 N 
ATOM     14  H6  UNL     1       3.492   3.684  83.464  1.00  0.00     0.173 HD
HETATM   15  C14 UNL     1       3.327   4.553  81.607  1.00  0.00     0.330 A 
HETATM   16  O6  UNL     1       4.315   3.953  81.154  1.00  0.00    -0.246 OA
HETATM   17  N7  UNL     1       2.654   5.395  80.831  1.00  0.00    -0.287 N 
HETATM   18  C15 UNL     1       3.099   5.586  79.466  1.00  0.00     0.163 C 
ENDROOT
BRANCH   1  19
HETATM   19  C7  UNL     1      -0.649   6.719  84.055  1.00  0.00     0.168 C 
BRANCH  19  20
HETATM   20  C6  UNL     1      -1.821   5.730  84.101  1.00  0.00     0.159 C 
BRANCH  20  21
HETATM   21  N2  UNL     1      -1.735   5.044  85.347  1.00  0.00    -0.224 N 
ATOM     22  H2  UNL     1      -1.956   5.574  86.189  1.00  0.00     0.177 HD
BRANCH  21  23
HETATM   23  C5  UNL     1      -1.396   3.795  85.497  1.00  0.00     0.682 A 
HETATM   24  N1  UNL     1      -1.463   3.149  86.664  1.00  0.00    -0.156 N 
HETATM   25  C4  UNL     1      -1.107   1.863  86.790  1.00  0.00     0.263 A 
ATOM     26  H1  UNL     1      -1.795   3.651  87.487  1.00  0.00     0.187 HD
HETATM   27  C3  UNL     1      -0.660   1.188  85.677  1.00  0.00     0.131 A 
HETATM   28  O2  UNL     1      -1.178   1.262  87.918  1.00  0.00    -0.268 OA
HETATM   29  C2  UNL     1      -0.579   1.826  84.453  1.00  0.00     0.162 A 
HETATM   30  N8  UNL     1      -0.952   3.106  84.419  1.00  0.00    -0.170 N 
ATOM     31  H8  UNL     1      -0.901   3.597  83.527  1.00  0.00     0.186 HD
BRANCH  29  32
HETATM   32  O1  UNL     1      -0.125   1.140  83.330  1.00  0.00    -0.340 OA
HETATM   33  C1  UNL     1      -0.516   1.517  82.023  1.00  0.00     0.211 C 
ENDBRANCH  29  32
ENDBRANCH  21  23
ENDBRANCH  20  21
ENDBRANCH  19  20
ENDBRANCH   1  19
BRANCH   5  34
HETATM   34  C10 UNL     1      -2.655   8.626  79.647  1.00  0.00     0.267 C 
BRANCH  34  35
HETATM   35  O4  UNL     1      -3.120   7.309  79.728  1.00  0.00    -0.392 OA
ATOM     36  H4  UNL     1      -3.349   6.975  78.869  1.00  0.00     0.210 HD
ENDBRANCH  34  35
ENDBRANCH   5  34
TORSDOF 7
ENDMDL
MODEL 2
REMARK VINA RESULT: -7.586693390      1.954      6.603
REMARK  7 active torsions:
REMARK  status: ('A' for Active; 'I' for Inactive)
REMARK    1  A    between atoms: O1_2  and  C2_3 
REMARK    2  A    between atoms: C5_9  and  N2_10 
REMARK    3  A    between atoms: N2_10  and  C6_12 
REMARK    4  A    between atoms: C6_12  and  C7_13 
REMARK    5  A    between atoms: C7_13  and  N3_14 
REMARK       I    between atoms: N4_16  and  C9_18 
REMARK    6  A    between atoms: C9_18  and  C10_20 
REMARK    7  A    between atoms: C10_20  and  O4_21 
ROOT
HETATM    1  N3  UNL     1      -1.128   4.993  84.655  1.00  0.00    -0.172 N 
HETATM    2  C8  UNL     1      -0.276   4.546  83.682  1.00  0.00     0.689 A 
HETATM    3  N4  UNL     1       0.217   5.305  82.769  1.00  0.00    -0.157 N 
ATOM      4  H4  UNL     1      -0.023   6.296  82.748  1.00  0.00     0.187 HD
HETATM    5  C9  UNL     1       1.096   4.771  81.790  1.00  0.00     0.259 C 
HETATM    6  O3  UNL     1       2.158   4.158  82.086  1.00  0.00    -0.270 OA
HETATM    7  N5  UNL     1      -0.043   3.252  83.820  1.00  0.00    -0.173 N 
ATOM      8  H5  UNL     1       0.558   2.687  83.221  1.00  0.00     0.186 HD
HETATM    9  C11 UNL     1      -0.728   2.813  84.877  1.00  0.00     0.160 A 
HETATM   10  C12 UNL     1      -1.411   3.916  85.402  1.00  0.00     0.164 A 
HETATM   11  C13 UNL     1      -2.204   3.757  86.505  1.00  0.00     0.280 A 
HETATM   12  O5  UNL     1      -2.818   4.748  86.976  1.00  0.00    -0.265 OA
HETATM   13  N6  UNL     1      -2.340   2.563  87.097  1.00  0.00    -0.273 N 
ATOM     14  H6  UNL     1      -2.932   2.452  87.920  1.00  0.00     0.173 HD
HETATM   15  C14 UNL     1      -1.679   1.519  86.582  1.00  0.00     0.330 A 
HETATM   16  O6  UNL     1      -1.799   0.409  87.125  1.00  0.00    -0.246 OA
HETATM   17  N7  UNL     1      -0.903   1.648  85.511  1.00  0.00    -0.287 N 
HETATM   18  C15 UNL     1      -0.218   0.476  85.006  1.00  0.00     0.163 C 
ENDROOT
BRANCH   1  19
HETATM   19  C7  UNL     1      -1.589   6.347  84.801  1.00  0.00     0.168 C 
BRANCH  19  20
HETATM   20  C6  UNL     1      -2.499   6.775  83.642  1.00  0.00     0.159 C 
BRANCH  20  21
HETATM   21  N2  UNL     1      -2.198   8.140  83.362  1.00  0.00    -0.224 N 
ATOM     22  H2  UNL     1      -2.282   8.805  84.131  1.00  0.00     0.177 HD
BRANCH  21  23
HETATM   23  C5  UNL     1      -1.826   8.607  82.204  1.00  0.00     0.682 A 
HETATM   24  N1  UNL     1      -1.393   9.857  82.019  1.00  0.00    -0.156 N 
HETATM   25  C4  UNL     1      -1.017  10.312  80.816  1.00  0.00     0.263 A 
ATOM     26  H1  UNL     1      -1.348  10.486  82.820  1.00  0.00     0.187 HD
HETATM   27  C3  UNL     1      -1.079   9.459  79.737  1.00  0.00     0.131 A 
HETATM   28  O2  UNL     1      -0.605  11.513  80.659  1.00  0.00    -0.268 OA
HETATM   29  C2  UNL     1      -1.523   8.159  79.893  1.00  0.00     0.162 A 
HETATM   30  N8  UNL     1      -1.878   7.791  81.126  1.00  0.00    -0.170 N 
ATOM     31  H8  UNL     1      -2.208   6.836  81.264  1.00  0.00     0.186 HD
BRANCH  29  32
HETATM   32  O1  UNL     1      -1.584   7.299  78.800  1.00  0.00    -0.340 OA
HETATM   33  C1  UNL     1      -0.738   7.465  77.678  1.00  0.00     0.211 C 
ENDBRANCH  29  32
ENDBRANCH  21  23
ENDBRANCH  20  21
ENDBRANCH  19  20
ENDBRANCH   1  19
BRANCH   5  34
HETATM   34  C10 UNL     1       0.749   4.942  80.369  1.00  0.00     0.267 C 
BRANCH  34  35
HETATM   35  O4  UNL     1      -0.636   4.885  80.180  1.00  0.00    -0.392 OA
ATOM     36  H4  UNL     1      -1.097   5.257  80.923  1.00  0.00     0.210 HD
ENDBRANCH  34  35
ENDBRANCH   5  34
TORSDOF 7
ENDMDL
MODEL 3
REMARK VINA RESULT: -7.513496541      1.917      6.736
REMARK  7 active torsions:
REMARK  status: ('A' for Active; 'I' for Inactive)
REMARK    1  A    between atoms: O1_2  and  C2_3 
REMARK    2  A    between atoms: C5_9  and  N2_10 
REMARK    3  A    between atoms: N2_10  and  C6_12 
REMARK    4  A    between atoms: C6_12  and  C7_13 
REMARK    5  A    between atoms: C7_13  and  N3_14 
REMARK       I    between atoms: N4_16  and  C9_18 
REMARK    6  A    between atoms: C9_18  and  C10_20 
REMARK    7  A    between atoms: C10_20  and  O4_21 
ROOT
HETATM    1  N3  UNL     1      -0.903   5.020  84.989  1.00  0.00    -0.172 N 
HETATM    2  C8  UNL     1      -0.108   4.603  83.957  1.00  0.00     0.689 A 
HETATM    3  N4  UNL     1       0.406   5.402  83.090  1.00  0.00    -0.157 N 
ATOM      4  H4  UNL     1       0.226   6.404  83.154  1.00  0.00     0.187 HD
HETATM    5  C9  UNL     1       1.223   4.896  82.045  1.00  0.00     0.259 C 
HETATM    6  O3  UNL     1       2.252   4.199  82.257  1.00  0.00    -0.270 OA
HETATM    7  N5  UNL     1       0.049   3.291  83.986  1.00  0.00    -0.173 N 
ATOM      8  H5  UNL     1       0.597   2.740  83.326  1.00  0.00     0.186 HD
HETATM    9  C11 UNL     1      -0.632   2.810  85.027  1.00  0.00     0.160 A 
HETATM   10  C12 UNL     1      -1.232   3.906  85.659  1.00  0.00     0.164 A 
HETATM   11  C13 UNL     1      -2.002   3.707  86.772  1.00  0.00     0.280 A 
HETATM   12  O5  UNL     1      -2.539   4.692  87.337  1.00  0.00    -0.265 OA
HETATM   13  N6  UNL     1      -2.194   2.480  87.273  1.00  0.00    -0.273 N 
ATOM     14  H6  UNL     1      -2.768   2.338  88.104  1.00  0.00     0.173 HD
HETATM   15  C14 UNL     1      -1.613   1.443  86.656  1.00  0.00     0.330 A 
HETATM   16  O6  UNL     1      -1.787   0.302  87.115  1.00  0.00    -0.246 OA
HETATM   17  N7  UNL     1      -0.861   1.610  85.574  1.00  0.00    -0.287 N 
HETATM   18  C15 UNL     1      -0.264   0.444  84.958  1.00  0.00     0.163 C 
ENDROOT
BRANCH   1  19
HETATM   19  C7  UNL     1      -1.276   6.384  85.255  1.00  0.00     0.168 C 
BRANCH  19  20
HETATM   20  C6  UNL     1      -2.360   6.884  84.291  1.00  0.00     0.159 C 
BRANCH  20  21
HETATM   21  N2  UNL     1      -1.889   8.111  83.740  1.00  0.00    -0.224 N 
ATOM     22  H2  UNL     1      -1.562   8.823  84.394  1.00  0.00     0.177 HD
BRANCH  21  23
HETATM   23  C5  UNL     1      -1.843   8.399  82.470  1.00  0.00     0.682 A 
HETATM   24  N1  UNL     1      -2.145   7.524  81.506  1.00  0.00    -0.156 N 
HETATM   25  C4  UNL     1      -2.089   7.847  80.207  1.00  0.00     0.263 A 
ATOM     26  H1  UNL     1      -2.427   6.580  81.768  1.00  0.00     0.187 HD
HETATM   27  C3  UNL     1      -1.708   9.122  79.857  1.00  0.00     0.131 A 
HETATM   28  O2  UNL     1      -2.381   6.995  79.298  1.00  0.00    -0.268 OA
HETATM   29  C2  UNL     1      -1.389  10.052  80.830  1.00  0.00     0.162 A 
HETATM   30  N8  UNL     1      -1.471   9.645  82.098  1.00  0.00    -0.170 N 
ATOM     31  H8  UNL     1      -1.241  10.315  82.832  1.00  0.00     0.186 HD
BRANCH  29  32
HETATM   32  O1  UNL     1      -1.003  11.341  80.472  1.00  0.00    -0.340 OA
HETATM   33  C1  UNL     1      -1.635  12.037  79.414  1.00  0.00     0.211 C 
ENDBRANCH  29  32
ENDBRANCH  21  23
ENDBRANCH  20  21
ENDBRANCH  19  20
ENDBRANCH   1  19
BRANCH   5  34
HETATM   34  C10 UNL     1       0.847   5.200  80.653  1.00  0.00     0.267 C 
BRANCH  34  35
HETATM   35  O4  UNL     1      -0.498   4.895  80.418  1.00  0.00    -0.392 OA
ATOM     36  H4  UNL     1      -0.582   4.178  79.801  1.00  0.00     0.210 HD
ENDBRANCH  34  35
ENDBRANCH   5  34
TORSDOF 7
ENDMDL
MODEL 4
REMARK VINA RESULT: -7.495480297      2.990      6.894
REMARK  7 active torsions:
REMARK  status: ('A' for Active; 'I' for Inactive)
REMARK    1  A    between atoms: O1_2  and  C2_3 
REMARK    2  A    between atoms: C5_9  and  N2_10 
REMARK    3  A    between atoms: N2_10  and  C6_12 
REMARK    4  A    between atoms: C6_12  and  C7_13 
REMARK    5  A    between atoms: C7_13  and  N3_14 
REMARK       I    between atoms: N4_16  and  C9_18 
REMARK    6  A    between atoms: C9_18  and  C10_20 
REMARK    7  A    between atoms: C10_20  and  O4_21 
ROOT
HETATM    1  N3  UNL     1      -1.378   4.915  84.443  1.00  0.00    -0.172 N 
HETATM    2  C8  UNL     1      -0.520   4.475  83.473  1.00  0.00     0.689 A 
HETATM    3  N4  UNL     1      -0.099   5.216  82.510  1.00  0.00    -0.157 N 
ATOM      4  H4  UNL     1      -0.406   6.187  82.444  1.00  0.00     0.187 HD
HETATM    5  C9  UNL     1       0.792   4.691  81.537  1.00  0.00     0.259 C 
HETATM    6  O3  UNL     1       1.899   4.165  81.837  1.00  0.00    -0.270 OA
HETATM    7  N5  UNL     1      -0.198   3.209  83.670  1.00  0.00    -0.173 N 
ATOM      8  H5  UNL     1       0.427   2.654  83.086  1.00  0.00     0.186 HD
HETATM    9  C11 UNL     1      -0.828   2.781  84.765  1.00  0.00     0.160 A 
HETATM   10  C12 UNL     1      -1.572   3.862  85.251  1.00  0.00     0.164 A 
HETATM   11  C13 UNL     1      -2.328   3.710  86.381  1.00  0.00     0.280 A 
HETATM   12  O5  UNL     1      -2.996   4.681  86.815  1.00  0.00    -0.265 OA
HETATM   13  N6  UNL     1      -2.369   2.542  87.036  1.00  0.00    -0.273 N 
ATOM     14  H6  UNL     1      -2.934   2.436  87.879  1.00  0.00     0.173 HD
HETATM   15  C14 UNL     1      -1.651   1.519  86.558  1.00  0.00     0.330 A 
HETATM   16  O6  UNL     1      -1.685   0.433  87.159  1.00  0.00    -0.246 OA
HETATM   17  N7  UNL     1      -0.910   1.642  85.462  1.00  0.00    -0.287 N 
HETATM   18  C15 UNL     1      -0.159   0.493  85.001  1.00  0.00     0.163 C 
ENDROOT
BRANCH   1  19
HETATM   19  C7  UNL     1      -1.926   6.242  84.531  1.00  0.00     0.168 C 
BRANCH  19  20
HETATM   20  C6  UNL     1      -0.893   7.262  85.028  1.00  0.00     0.159 C 
BRANCH  20  21
HETATM   21  N2  UNL     1      -0.703   8.204  83.976  1.00  0.00    -0.224 N 
ATOM     22  H2  UNL     1      -1.258   8.079  83.129  1.00  0.00     0.177 HD
BRANCH  21  23
HETATM   23  C5  UNL     1       0.122   9.212  84.007  1.00  0.00     0.682 A 
HETATM   24  N1  UNL     1      -0.179  10.426  83.538  1.00  0.00    -0.156 N 
HETATM   25  C4  UNL     1       0.690  11.445  83.583  1.00  0.00     0.263 A 
ATOM     26  H1  UNL     1      -1.102  10.582  83.132  1.00  0.00     0.187 HD
HETATM   27  C3  UNL     1       1.933  11.231  84.132  1.00  0.00     0.131 A 
HETATM   28  O2  UNL     1       0.382  12.600  83.127  1.00  0.00    -0.268 OA
HETATM   29  C2  UNL     1       2.278   9.986  84.627  1.00  0.00     0.162 A 
HETATM   30  N8  UNL     1       1.352   9.029  84.542  1.00  0.00    -0.170 N 
ATOM     31  H8  UNL     1       1.585   8.104  84.901  1.00  0.00     0.186 HD
BRANCH  29  32
HETATM   32  O1  UNL     1       3.537   9.774  85.182  1.00  0.00    -0.340 OA
HETATM   33  C1  UNL     1       4.552  10.758  85.118  1.00  0.00     0.211 C 
ENDBRANCH  29  32
ENDBRANCH  21  23
ENDBRANCH  20  21
ENDBRANCH  19  20
ENDBRANCH   1  19
BRANCH   5  34
HETATM   34  C10 UNL     1       0.402   4.763  80.118  1.00  0.00     0.267 C 
BRANCH  34  35
HETATM   35  O4  UNL     1      -0.696   3.937  79.856  1.00  0.00    -0.392 OA
ATOM     36  H4  UNL     1      -1.394   4.423  79.434  1.00  0.00     0.210 HD
ENDBRANCH  34  35
ENDBRANCH   5  34
TORSDOF 7
ENDMDL
MODEL 5
REMARK VINA RESULT: -7.485967938      2.895      6.861
REMARK  7 active torsions:
REMARK  status: ('A' for Active; 'I' for Inactive)
REMARK    1  A    between atoms: O1_2  and  C2_3 
REMARK    2  A    between atoms: C5_9  and  N2_10 
REMARK    3  A    between atoms: N2_10  and  C6_12 
REMARK    4  A    between atoms: C6_12  and  C7_13 
REMARK    5  A    between atoms: C7_13  and  N3_14 
REMARK       I    between atoms: N4_16  and  C9_18 
REMARK    6  A    between atoms: C9_18  and  C10_20 
REMARK    7  A    between atoms: C10_20  and  O4_21 
ROOT
HETATM    1  N3  UNL     1      -1.366   4.917  84.430  1.00  0.00    -0.172 N 
HETATM    2  C8  UNL     1      -0.515   4.487  83.449  1.00  0.00     0.689 A 
HETATM    3  N4  UNL     1      -0.103   5.238  82.490  1.00  0.00    -0.157 N 
ATOM      4  H4  UNL     1      -0.411   6.209  82.436  1.00  0.00     0.187 HD
HETATM    5  C9  UNL     1       0.781   4.723  81.506  1.00  0.00     0.259 C 
HETATM    6  O3  UNL     1       1.891   4.196  81.792  1.00  0.00    -0.270 OA
HETATM    7  N5  UNL     1      -0.189   3.219  83.632  1.00  0.00    -0.173 N 
ATOM      8  H5  UNL     1       0.431   2.671  83.037  1.00  0.00     0.186 HD
HETATM    9  C11 UNL     1      -0.810   2.780  84.727  1.00  0.00     0.160 A 
HETATM   10  C12 UNL     1      -1.552   3.856  85.229  1.00  0.00     0.164 A 
HETATM   11  C13 UNL     1      -2.299   3.691  86.364  1.00  0.00     0.280 A 
HETATM   12  O5  UNL     1      -2.965   4.657  86.813  1.00  0.00    -0.265 OA
HETATM   13  N6  UNL     1      -2.334   2.517  87.008  1.00  0.00    -0.273 N 
ATOM     14  H6  UNL     1      -2.892   2.401  87.854  1.00  0.00     0.173 HD
HETATM   15  C14 UNL     1      -1.618   1.499  86.514  1.00  0.00     0.330 A 
HETATM   16  O6  UNL     1      -1.646   0.408  87.105  1.00  0.00    -0.246 OA
HETATM   17  N7  UNL     1      -0.886   1.634  85.414  1.00  0.00    -0.287 N 
HETATM   18  C15 UNL     1      -0.136   0.491  84.936  1.00  0.00     0.163 C 
ENDROOT
BRANCH   1  19
HETATM   19  C7  UNL     1      -1.915   6.242  84.536  1.00  0.00     0.168 C 
BRANCH  19  20
HETATM   20  C6  UNL     1      -0.906   7.241  85.116  1.00  0.00     0.159 C 
BRANCH  20  21
HETATM   21  N2  UNL     1      -0.765   8.289  84.161  1.00  0.00    -0.224 N 
ATOM     22  H2  UNL     1      -1.461   8.341  83.417  1.00  0.00     0.177 HD
BRANCH  21  23
HETATM   23  C5  UNL     1       0.179   9.186  84.161  1.00  0.00     0.682 A 
HETATM   24  N1  UNL     1       1.413   8.957  84.618  1.00  0.00    -0.156 N 
HETATM   25  C4  UNL     1       2.366   9.899  84.607  1.00  0.00     0.263 A 
ATOM     26  H1  UNL     1       1.637   8.034  84.989  1.00  0.00     0.187 HD
HETATM   27  C3  UNL     1       2.060  11.144  84.105  1.00  0.00     0.131 A 
HETATM   28  O2  UNL     1       3.542   9.660  85.050  1.00  0.00    -0.268 OA
HETATM   29  C2  UNL     1       0.793  11.415  83.623  1.00  0.00     0.162 A 
HETATM   30  N8  UNL     1      -0.094  10.419  83.674  1.00  0.00    -0.170 N 
ATOM     31  H8  UNL     1      -1.035  10.597  83.324  1.00  0.00     0.186 HD
BRANCH  29  32
HETATM   32  O1  UNL     1       0.487  12.675  83.117  1.00  0.00    -0.340 OA
HETATM   33  C1  UNL     1       0.796  13.033  81.783  1.00  0.00     0.211 C 
ENDBRANCH  29  32
ENDBRANCH  21  23
ENDBRANCH  20  21
ENDBRANCH  19  20
ENDBRANCH   1  19
BRANCH   5  34
HETATM   34  C10 UNL     1       0.381   4.809  80.091  1.00  0.00     0.267 C 
BRANCH  34  35
HETATM   35  O4  UNL     1      -0.684   3.944  79.817  1.00  0.00    -0.392 OA
ATOM     36  H4  UNL     1      -1.210   4.269  79.096  1.00  0.00     0.210 HD
ENDBRANCH  34  35
ENDBRANCH   5  34
TORSDOF 7
ENDMDL
