MODEL 1
REMARK VINA RESULT: -7.809916682      0.000      0.000
REMARK  7 active torsions:
REMARK  status: ('A' for Active; 'I' for Inactive)
REMARK       I    between atoms: N1_2  and  C2_4 
REMARK    1  A    between atoms: C2_4  and  C3_6 
REMARK    2  A    between atoms: C3_6  and  O2_7 
REMARK    3  A    between atoms: C3_6  and  C4_9 
REMARK    4  A    between atoms: C4_9  and  N2_10 
REMARK       I    between atoms: N2_10  and  C5_12 
REMARK    5  A    between atoms: C5_12  and  C6_14 
REMARK    6  A    between atoms: C6_14  and  N3_15 
REMARK    7  A    between atoms: N3_15  and  C7_17 
ROOT
HETATM    1  C7  UNL     1      -0.523   1.381  82.199  1.00  0.00     0.684 A 
HETATM    2  N4  UNL     1      -0.751   0.728  83.351  1.00  0.00    -0.184 N 
ATOM      3  H4  UNL     1      -0.371  -0.213  83.462  1.00  0.00     0.184 HD
HETATM    4  C8  UNL     1      -1.460   1.261  84.363  1.00  0.00     0.149 A 
HETATM    5  C9  UNL     1      -1.673   0.553  85.534  1.00  0.00     0.281 A 
HETATM    6  O4  UNL     1      -1.183  -0.597  85.616  1.00  0.00    -0.265 OA
HETATM    7  N5  UNL     1      -2.385   1.126  86.514  1.00  0.00    -0.269 N 
HETATM    8  C10 UNL     1      -2.618   0.388  87.758  1.00  0.00     0.164 C 
HETATM    9  C11 UNL     1      -2.870   2.358  86.338  1.00  0.00     0.331 A 
HETATM   10  O5  UNL     1      -3.535   2.863  87.282  1.00  0.00    -0.246 OA
HETATM   11  N6  UNL     1      -2.696   3.102  85.216  1.00  0.00    -0.297 N 
HETATM   12  C12 UNL     1      -3.248   4.424  85.098  1.00  0.00     0.161 C 
HETATM   13  C13 UNL     1      -1.987   2.549  84.222  1.00  0.00     0.140 A 
HETATM   14  C14 UNL     1      -1.757   3.221  83.052  1.00  0.00     0.291 A 
HETATM   15  O6  UNL     1      -2.219   4.375  82.906  1.00  0.00    -0.265 OA
HETATM   16  N7  UNL     1      -1.037   2.618  82.085  1.00  0.00    -0.150 N 
HETATM   17  C15 UNL     1      -0.809   3.350  80.856  1.00  0.00     0.179 C 
ENDROOT
BRANCH   1  18
HETATM   18  N3  UNL     1       0.147   0.878  81.246  1.00  0.00    -0.217 N 
ATOM     19  H3  UNL     1      -0.385   0.553  80.438  1.00  0.00     0.178 HD
BRANCH  18  20
HETATM   20  C6  UNL     1       1.556   0.717  81.181  1.00  0.00     0.240 C 
BRANCH  20  21
HETATM   21  C5  UNL     1       2.211   2.017  80.948  1.00  0.00     0.235 C 
HETATM   22  N2  UNL     1       2.677   2.819  82.059  1.00  0.00    -0.357 N 
ATOM     23  H2  UNL     1       2.543   2.464  83.006  1.00  0.00     0.162 HD
HETATM   24  O3  UNL     1       2.356   2.413  79.767  1.00  0.00    -0.272 OA
BRANCH  22  25
HETATM   25  C4  UNL     1       3.316   4.087  81.889  1.00  0.00     0.164 C 
BRANCH  25  26
HETATM   26  C3  UNL     1       2.288   5.195  81.858  1.00  0.00     0.227 C 
BRANCH  26  27
HETATM   27  C2  UNL     1       1.541   5.322  83.133  1.00  0.00     0.247 C 
HETATM   28  N1  UNL     1       0.478   6.204  83.398  1.00  0.00    -0.363 N 
HETATM   29  C1  UNL     1      -0.191   6.242  84.700  1.00  0.00     0.149 C 
ATOM     30  H1  UNL     1       0.165   6.835  82.661  1.00  0.00     0.162 HD
HETATM   31  O1  UNL     1       1.886   4.556  84.106  1.00  0.00    -0.271 OA
ENDBRANCH  26  27
BRANCH  26  32
HETATM   32  O2  UNL     1       3.065   6.396  81.782  1.00  0.00    -0.384 OA
ATOM     33  H2  UNL     1       2.850   6.760  80.931  1.00  0.00     0.210 HD
ENDBRANCH  26  32
ENDBRANCH  25  26
ENDBRANCH  22  25
ENDBRANCH  20  21
ENDBRANCH  18  20
ENDBRANCH   1  18
TORSDOF 7
ENDMDL
MODEL 2
REMARK VINA RESULT: -7.686276375      1.677      2.727
REMARK  7 active torsions:
REMARK  status: ('A' for Active; 'I' for Inactive)
REMARK       I    between atoms: N1_2  and  C2_4 
REMARK    1  A    between atoms: C2_4  and  C3_6 
REMARK    2  A    between atoms: C3_6  and  O2_7 
REMARK    3  A    between atoms: C3_6  and  C4_9 
REMARK    4  A    between atoms: C4_9  and  N2_10 
REMARK       I    between atoms: N2_10  and  C5_12 
REMARK    5  A    between atoms: C5_12  and  C6_14 
REMARK    6  A    between atoms: C6_14  and  N3_15 
REMARK    7  A    between atoms: N3_15  and  C7_17 
ROOT
HETATM    1  C7  UNL     1      -0.422   1.665  82.225  1.00  0.00     0.684 A 
HETATM    2  N4  UNL     1      -0.681   0.933  83.321  1.00  0.00    -0.184 N 
ATOM      3  H4  UNL     1      -0.305  -0.014  83.377  1.00  0.00     0.184 HD
HETATM    4  C8  UNL     1      -1.415   1.396  84.350  1.00  0.00     0.149 A 
HETATM    5  C9  UNL     1      -1.659   0.609  85.463  1.00  0.00     0.281 A 
HETATM    6  O4  UNL     1      -1.172  -0.545  85.477  1.00  0.00    -0.265 OA
HETATM    7  N5  UNL     1      -2.395   1.114  86.461  1.00  0.00    -0.269 N 
HETATM    8  C10 UNL     1      -2.661   0.293  87.645  1.00  0.00     0.164 C 
HETATM    9  C11 UNL     1      -2.875   2.357  86.359  1.00  0.00     0.331 A 
HETATM   10  O5  UNL     1      -3.564   2.797  87.319  1.00  0.00    -0.246 OA
HETATM   11  N6  UNL     1      -2.671   3.177  85.296  1.00  0.00    -0.297 N 
HETATM   12  C12 UNL     1      -3.220   4.505  85.256  1.00  0.00     0.161 C 
HETATM   13  C13 UNL     1      -1.937   2.693  84.285  1.00  0.00     0.140 A 
HETATM   14  C14 UNL     1      -1.677   3.444  83.171  1.00  0.00     0.291 A 
HETATM   15  O6  UNL     1      -2.135   4.606  83.093  1.00  0.00    -0.265 OA
HETATM   16  N7  UNL     1      -0.933   2.907  82.183  1.00  0.00    -0.150 N 
HETATM   17  C15 UNL     1      -0.672   3.723  81.015  1.00  0.00     0.179 C 
ENDROOT
BRANCH   1  18
HETATM   18  N3  UNL     1       0.271   1.227  81.256  1.00  0.00    -0.217 N 
ATOM     19  H3  UNL     1      -0.240   0.954  80.417  1.00  0.00     0.178 HD
BRANCH  18  20
HETATM   20  C6  UNL     1       1.682   1.075  81.213  1.00  0.00     0.240 C 
BRANCH  20  21
HETATM   21  C5  UNL     1       2.327   2.361  80.887  1.00  0.00     0.235 C 
HETATM   22  N2  UNL     1       2.881   3.196  81.931  1.00  0.00    -0.357 N 
ATOM     23  H2  UNL     1       2.816   2.874  82.897  1.00  0.00     0.162 HD
HETATM   24  O3  UNL     1       2.386   2.715  79.685  1.00  0.00    -0.272 OA
BRANCH  22  25
HETATM   25  C4  UNL     1       3.514   4.451  81.670  1.00  0.00     0.164 C 
BRANCH  25  26
HETATM   26  C3  UNL     1       5.017   4.289  81.660  1.00  0.00     0.227 C 
BRANCH  26  27
HETATM   27  C2  UNL     1       5.592   4.338  80.294  1.00  0.00     0.247 C 
HETATM   28  N1  UNL     1       4.877   4.368  79.084  1.00  0.00    -0.363 N 
HETATM   29  C1  UNL     1       5.552   4.418  77.785  1.00  0.00     0.149 C 
ATOM     30  H1  UNL     1       3.857   4.355  79.112  1.00  0.00     0.162 HD
HETATM   31  O1  UNL     1       6.873   4.354  80.186  1.00  0.00    -0.271 OA
ENDBRANCH  26  27
BRANCH  26  32
HETATM   32  O2  UNL     1       5.505   5.478  82.293  1.00  0.00    -0.384 OA
ATOM     33  H2  UNL     1       5.829   5.180  83.135  1.00  0.00     0.210 HD
ENDBRANCH  26  32
ENDBRANCH  25  26
ENDBRANCH  22  25
ENDBRANCH  20  21
ENDBRANCH  18  20
ENDBRANCH   1  18
TORSDOF 7
ENDMDL
MODEL 3
REMARK VINA RESULT: -7.536138928      2.383      3.641
REMARK  7 active torsions:
REMARK  status: ('A' for Active; 'I' for Inactive)
REMARK       I    between atoms: N1_2  and  C2_4 
REMARK    1  A    between atoms: C2_4  and  C3_6 
REMARK    2  A    between atoms: C3_6  and  O2_7 
REMARK    3  A    between atoms: C3_6  and  C4_9 
REMARK    4  A    between atoms: C4_9  and  N2_10 
REMARK       I    between atoms: N2_10  and  C5_12 
REMARK    5  A    between atoms: C5_12  and  C6_14 
REMARK    6  A    between atoms: C6_14  and  N3_15 
REMARK    7  A    between atoms: N3_15  and  C7_17 
ROOT
HETATM    1  C7  UNL     1      -0.415   1.740  82.186  1.00  0.00     0.684 A 
HETATM    2  N4  UNL     1      -0.695   0.993  83.267  1.00  0.00    -0.184 N 
ATOM      3  H4  UNL     1      -0.333   0.040  83.310  1.00  0.00     0.184 HD
HETATM    4  C8  UNL     1      -1.433   1.449  84.296  1.00  0.00     0.149 A 
HETATM    5  C9  UNL     1      -1.700   0.647  85.393  1.00  0.00     0.281 A 
HETATM    6  O4  UNL     1      -1.230  -0.514  85.392  1.00  0.00    -0.265 OA
HETATM    7  N5  UNL     1      -2.439   1.145  86.393  1.00  0.00    -0.269 N 
HETATM    8  C10 UNL     1      -2.729   0.308  87.559  1.00  0.00     0.164 C 
HETATM    9  C11 UNL     1      -2.899   2.396  86.307  1.00  0.00     0.331 A 
HETATM   10  O5  UNL     1      -3.592   2.830  87.268  1.00  0.00    -0.246 OA
HETATM   11  N6  UNL     1      -2.673   3.232  85.261  1.00  0.00    -0.297 N 
HETATM   12  C12 UNL     1      -3.202   4.568  85.239  1.00  0.00     0.161 C 
HETATM   13  C13 UNL     1      -1.936   2.754  84.249  1.00  0.00     0.140 A 
HETATM   14  C14 UNL     1      -1.654   3.521  83.150  1.00  0.00     0.291 A 
HETATM   15  O6  UNL     1      -2.093   4.691  83.089  1.00  0.00    -0.265 OA
HETATM   16  N7  UNL     1      -0.907   2.990  82.161  1.00  0.00    -0.150 N 
HETATM   17  C15 UNL     1      -0.623   3.822  81.010  1.00  0.00     0.179 C 
ENDROOT
BRANCH   1  18
HETATM   18  N3  UNL     1       0.282   1.309  81.217  1.00  0.00    -0.217 N 
ATOM     19  H3  UNL     1      -0.218   1.109  80.351  1.00  0.00     0.178 HD
BRANCH  18  20
HETATM   20  C6  UNL     1       1.682   1.075  81.207  1.00  0.00     0.240 C 
BRANCH  20  21
HETATM   21  C5  UNL     1       2.412   2.340  80.998  1.00  0.00     0.235 C 
HETATM   22  N2  UNL     1       2.625   2.858  79.663  1.00  0.00    -0.357 N 
ATOM     23  H2  UNL     1       2.258   2.330  78.872  1.00  0.00     0.162 HD
HETATM   24  O3  UNL     1       2.844   2.956  82.001  1.00  0.00    -0.272 OA
BRANCH  22  25
HETATM   25  C4  UNL     1       3.327   4.077  79.405  1.00  0.00     0.164 C 
BRANCH  25  26
HETATM   26  C3  UNL     1       3.861   4.087  77.991  1.00  0.00     0.227 C 
BRANCH  26  27
HETATM   27  C2  UNL     1       5.240   3.551  77.893  1.00  0.00     0.247 C 
HETATM   28  N1  UNL     1       6.011   3.430  76.723  1.00  0.00    -0.363 N 
HETATM   29  C1  UNL     1       7.371   2.886  76.744  1.00  0.00     0.149 C 
ATOM     30  H1  UNL     1       5.611   3.730  75.834  1.00  0.00     0.162 HD
HETATM   31  O1  UNL     1       5.804   3.152  78.977  1.00  0.00    -0.271 OA
ENDBRANCH  26  27
BRANCH  26  32
HETATM   32  O2  UNL     1       3.056   3.122  77.303  1.00  0.00    -0.384 OA
ATOM     33  H2  UNL     1       2.237   3.575  77.138  1.00  0.00     0.210 HD
ENDBRANCH  26  32
ENDBRANCH  25  26
ENDBRANCH  22  25
ENDBRANCH  20  21
ENDBRANCH  18  20
ENDBRANCH   1  18
TORSDOF 7
ENDMDL
MODEL 4
REMARK VINA RESULT: -7.385458838      3.276      4.999
REMARK  7 active torsions:
REMARK  status: ('A' for Active; 'I' for Inactive)
REMARK       I    between atoms: N1_2  and  C2_4 
REMARK    1  A    between atoms: C2_4  and  C3_6 
REMARK    2  A    between atoms: C3_6  and  O2_7 
REMARK    3  A    between atoms: C3_6  and  C4_9 
REMARK    4  A    between atoms: C4_9  and  N2_10 
REMARK       I    between atoms: N2_10  and  C5_12 
REMARK    5  A    between atoms: C5_12  and  C6_14 
REMARK    6  A    between atoms: C6_14  and  N3_15 
REMARK    7  A    between atoms: N3_15  and  C7_17 
ROOT
HETATM    1  C7  UNL     1       1.205   4.240  81.600  1.00  0.00     0.684 A 
HETATM    2  N4  UNL     1       0.970   2.970  81.229  1.00  0.00    -0.184 N 
ATOM      3  H4  UNL     1       1.287   2.664  80.308  1.00  0.00     0.184 HD
HETATM    4  C8  UNL     1       0.335   2.086  82.019  1.00  0.00     0.149 A 
HETATM    5  C9  UNL     1       0.112   0.785  81.599  1.00  0.00     0.281 A 
HETATM    6  O4  UNL     1       0.523   0.464  80.460  1.00  0.00    -0.265 OA
HETATM    7  N5  UNL     1      -0.524  -0.059  82.421  1.00  0.00    -0.269 N 
HETATM    8  C10 UNL     1      -0.767  -1.438  81.989  1.00  0.00     0.164 C 
HETATM    9  C11 UNL     1      -0.928   0.372  83.619  1.00  0.00     0.331 A 
HETATM   10  O5  UNL     1      -1.524  -0.452  84.365  1.00  0.00    -0.246 OA
HETATM   11  N6  UNL     1      -0.740   1.632  84.089  1.00  0.00    -0.297 N 
HETATM   12  C12 UNL     1      -1.203   2.024  85.392  1.00  0.00     0.161 C 
HETATM   13  C13 UNL     1      -0.105   2.494  83.283  1.00  0.00     0.140 A 
HETATM   14  C14 UNL     1       0.131   3.786  83.668  1.00  0.00     0.291 A 
HETATM   15  O6  UNL     1      -0.254   4.171  84.795  1.00  0.00    -0.265 OA
HETATM   16  N7  UNL     1       0.774   4.611  82.818  1.00  0.00    -0.150 N 
HETATM   17  C15 UNL     1       1.012   5.974  83.249  1.00  0.00     0.179 C 
ENDROOT
BRANCH   1  18
HETATM   18  N3  UNL     1       1.805   5.073  80.854  1.00  0.00    -0.217 N 
ATOM     19  H3  UNL     1       2.303   5.829  81.324  1.00  0.00     0.178 HD
BRANCH  18  20
HETATM   20  C6  UNL     1       1.859   5.068  79.435  1.00  0.00     0.240 C 
BRANCH  20  21
HETATM   21  C5  UNL     1       0.507   5.229  78.869  1.00  0.00     0.235 C 
HETATM   22  N2  UNL     1      -0.161   6.512  78.904  1.00  0.00    -0.357 N 
ATOM     23  H2  UNL     1       0.326   7.302  79.328  1.00  0.00     0.162 HD
HETATM   24  O3  UNL     1      -0.051   4.230  78.356  1.00  0.00    -0.272 OA
BRANCH  22  25
HETATM   25  C4  UNL     1      -1.471   6.722  78.371  1.00  0.00     0.164 C 
BRANCH  25  26
HETATM   26  C3  UNL     1      -2.504   6.648  79.472  1.00  0.00     0.227 C 
BRANCH  26  27
HETATM   27  C2  UNL     1      -3.892   6.791  78.969  1.00  0.00     0.247 C 
HETATM   28  N1  UNL     1      -4.620   7.987  78.845  1.00  0.00    -0.363 N 
HETATM   29  C1  UNL     1      -5.991   8.012  78.331  1.00  0.00     0.149 C 
ATOM     30  H1  UNL     1      -4.179   8.865  79.122  1.00  0.00     0.162 HD
HETATM   31  O1  UNL     1      -4.507   5.723  78.604  1.00  0.00    -0.271 OA
ENDBRANCH  26  27
BRANCH  26  32
HETATM   32  O2  UNL     1      -2.432   5.293  79.933  1.00  0.00    -0.384 OA
ATOM     33  H2  UNL     1      -2.353   5.370  80.876  1.00  0.00     0.210 HD
ENDBRANCH  26  32
ENDBRANCH  25  26
ENDBRANCH  22  25
ENDBRANCH  20  21
ENDBRANCH  18  20
ENDBRANCH   1  18
TORSDOF 7
ENDMDL
MODEL 5
REMARK VINA RESULT: -7.295141487      2.069      4.239
REMARK  7 active torsions:
REMARK  status: ('A' for Active; 'I' for Inactive)
REMARK       I    between atoms: N1_2  and  C2_4 
REMARK    1  A    between atoms: C2_4  and  C3_6 
REMARK    2  A    between atoms: C3_6  and  O2_7 
REMARK    3  A    between atoms: C3_6  and  C4_9 
REMARK    4  A    between atoms: C4_9  and  N2_10 
REMARK       I    between atoms: N2_10  and  C5_12 
REMARK    5  A    between atoms: C5_12  and  C6_14 
REMARK    6  A    between atoms: C6_14  and  N3_15 
REMARK    7  A    between atoms: N3_15  and  C7_17 
ROOT
HETATM    1  C7  UNL     1       1.229   4.480  83.181  1.00  0.00     0.684 A 
HETATM    2  N4  UNL     1       0.932   3.575  84.129  1.00  0.00    -0.184 N 
ATOM      3  H4  UNL     1       1.670   2.949  84.456  1.00  0.00     0.184 HD
HETATM    4  C8  UNL     1      -0.297   3.458  84.665  1.00  0.00     0.149 A 
HETATM    5  C9  UNL     1      -0.562   2.511  85.640  1.00  0.00     0.281 A 
HETATM    6  O4  UNL     1       0.382   1.770  86.003  1.00  0.00    -0.265 OA
HETATM    7  N5  UNL     1      -1.800   2.433  86.143  1.00  0.00    -0.269 N 
HETATM    8  C10 UNL     1      -2.095   1.435  87.176  1.00  0.00     0.164 C 
HETATM    9  C11 UNL     1      -2.745   3.264  85.695  1.00  0.00     0.331 A 
HETATM   10  O5  UNL     1      -3.898   3.160  86.192  1.00  0.00    -0.246 OA
HETATM   11  N6  UNL     1      -2.548   4.212  84.743  1.00  0.00    -0.297 N 
HETATM   12  C12 UNL     1      -3.614   5.073  84.309  1.00  0.00     0.161 C 
HETATM   13  C13 UNL     1      -1.316   4.309  84.224  1.00  0.00     0.140 A 
HETATM   14  C14 UNL     1      -1.020   5.233  83.259  1.00  0.00     0.291 A 
HETATM   15  O6  UNL     1      -1.918   6.004  82.852  1.00  0.00    -0.265 OA
HETATM   16  N7  UNL     1       0.236   5.287  82.773  1.00  0.00    -0.150 N 
HETATM   17  C15 UNL     1       0.523   6.274  81.753  1.00  0.00     0.179 C 
ENDROOT
BRANCH   1  18
HETATM   18  N3  UNL     1       2.389   4.589  82.677  1.00  0.00    -0.217 N 
ATOM     19  H3  UNL     1       2.846   5.495  82.781  1.00  0.00     0.178 HD
BRANCH  18  20
HETATM   20  C6  UNL     1       3.120   3.589  81.985  1.00  0.00     0.240 C 
BRANCH  20  21
HETATM   21  C5  UNL     1       2.212   2.765  81.165  1.00  0.00     0.235 C 
HETATM   22  N2  UNL     1       1.900   1.405  81.547  1.00  0.00    -0.357 N 
ATOM     23  H2  UNL     1       2.321   1.030  82.397  1.00  0.00     0.162 HD
HETATM   24  O3  UNL     1       1.717   3.270  80.129  1.00  0.00    -0.272 OA
BRANCH  22  25
HETATM   25  C4  UNL     1       1.028   0.564  80.787  1.00  0.00     0.164 C 
BRANCH  25  26
HETATM   26  C3  UNL     1      -0.202   0.216  81.594  1.00  0.00     0.227 C 
BRANCH  26  27
HETATM   27  C2  UNL     1      -0.418  -1.246  81.713  1.00  0.00     0.247 C 
HETATM   28  N1  UNL     1       0.403  -2.260  81.189  1.00  0.00    -0.363 N 
HETATM   29  C1  UNL     1       0.093  -3.680  81.369  1.00  0.00     0.149 C 
ATOM     30  H1  UNL     1       1.241  -1.999  80.668  1.00  0.00     0.162 HD
HETATM   31  O1  UNL     1      -1.457  -1.646  82.356  1.00  0.00    -0.271 OA
ENDBRANCH  26  27
BRANCH  26  32
HETATM   32  O2  UNL     1       0.119   0.636  82.926  1.00  0.00    -0.384 OA
ATOM     33  H2  UNL     1      -0.555   1.271  83.140  1.00  0.00     0.210 HD
ENDBRANCH  26  32
ENDBRANCH  25  26
ENDBRANCH  22  25
ENDBRANCH  20  21
ENDBRANCH  18  20
ENDBRANCH   1  18
TORSDOF 7
ENDMDL
