MODEL 1
REMARK VINA RESULT: -5.836922282      0.000      0.000
REMARK  3 active torsions:
REMARK  status: ('A' for Active; 'I' for Inactive)
REMARK    1  A    between atoms: C3_6  and  C4_7 
REMARK    2  A    between atoms: C4_7  and  N2_8 
REMARK    3  A    between atoms: N2_8  and  C6_10 
ROOT
HETATM    1  C1  UNL     1     137.040  -4.302 -54.695  1.00  0.00     0.050 C 
HETATM    2  C2  UNL     1     136.048  -3.189 -54.931  1.00  0.00     0.273 C 
HETATM    3  N1  UNL     1     136.522  -1.932 -54.344  1.00  0.00    -0.055 N 
ATOM      4  H11 UNL     1     137.378  -2.069 -53.808  1.00  0.00     0.278 HD
ATOM      5  H12 UNL     1     135.913  -1.617 -53.589  1.00  0.00     0.278 HD
HETATM    6  C3  UNL     1     136.682  -0.927 -55.337  1.00  0.00     0.232 C 
HETATM    7  C11 UNL     1     137.617  -1.500 -56.430  1.00  0.00     0.157 C 
HETATM    8  N4  UNL     1     136.753  -2.414 -57.167  1.00  0.00    -0.357 N 
ATOM      9  H4  UNL     1     136.846  -2.567 -58.171  1.00  0.00     0.162 HD
HETATM   10  C12 UNL     1     135.776  -3.073 -56.385  1.00  0.00     0.248 C 
HETATM   11  O1  UNL     1     134.733  -3.542 -56.864  1.00  0.00    -0.271 OA
ENDROOT
BRANCH   6  12
HETATM   12  C4  UNL     1     137.284   0.341 -54.896  1.00  0.00     0.309 C 
BRANCH  12  13
HETATM   13  N2  UNL     1     137.358   0.675 -53.519  1.00  0.00     0.108 N 
HETATM   14  C5  UNL     1     136.544   1.906 -53.290  1.00  0.00     0.312 C 
BRANCH  13  15
HETATM   15  C6  UNL     1     138.705   0.972 -53.008  1.00  0.00     0.317 C 
HETATM   16  C7  UNL     1     139.370  -0.323 -52.577  1.00  0.00     0.057 C 
HETATM   17  C8  UNL     1     140.415  -0.046 -51.533  1.00  0.00     0.006 C 
HETATM   18  C9  UNL     1     139.705   0.479 -50.320  1.00  0.00     0.019 C 
HETATM   19  C10 UNL     1     138.797   1.634 -50.655  1.00  0.00     0.116 C 
HETATM   20  N3  UNL     1     138.709   1.986 -52.020  1.00  0.00    -0.393 N 
ATOM     21  H3  UNL     1     138.649   2.967 -52.293  1.00  0.00     0.155 HD
ENDBRANCH  13  15
ENDBRANCH  12  13
ENDBRANCH   6  12
TORSDOF 3
ENDMDL
MODEL 2
REMARK VINA RESULT: -5.776855617      2.246      3.492
REMARK  3 active torsions:
REMARK  status: ('A' for Active; 'I' for Inactive)
REMARK    1  A    between atoms: C3_6  and  C4_7 
REMARK    2  A    between atoms: C4_7  and  N2_8 
REMARK    3  A    between atoms: N2_8  and  C6_10 
ROOT
HETATM    1  C1  UNL     1     134.614  -3.902 -52.241  1.00  0.00     0.050 C 
HETATM    2  C2  UNL     1     134.531  -4.296 -53.696  1.00  0.00     0.273 C 
HETATM    3  N1  UNL     1     134.985  -3.203 -54.561  1.00  0.00    -0.055 N 
ATOM      4  H11 UNL     1     135.176  -2.356 -54.025  1.00  0.00     0.278 HD
ATOM      5  H12 UNL     1     134.228  -2.849 -55.147  1.00  0.00     0.278 HD
HETATM    6  C3  UNL     1     136.108  -3.592 -55.339  1.00  0.00     0.232 C 
HETATM    7  C11 UNL     1     137.192  -4.110 -54.362  1.00  0.00     0.157 C 
HETATM    8  N4  UNL     1     136.704  -5.431 -53.987  1.00  0.00    -0.357 N 
ATOM      9  H4  UNL     1     137.331  -6.213 -53.794  1.00  0.00     0.162 HD
HETATM   10  C12 UNL     1     135.297  -5.548 -53.910  1.00  0.00     0.248 C 
HETATM   11  O1  UNL     1     134.704  -6.633 -54.014  1.00  0.00    -0.271 OA
ENDROOT
BRANCH   6  12
HETATM   12  C4  UNL     1     136.743  -2.540 -56.148  1.00  0.00     0.309 C 
BRANCH  12  13
HETATM   13  N2  UNL     1     136.171  -1.245 -56.243  1.00  0.00     0.108 N 
HETATM   14  C5  UNL     1     136.333  -0.761 -57.646  1.00  0.00     0.312 C 
BRANCH  13  15
HETATM   15  C6  UNL     1     136.777  -0.219 -55.381  1.00  0.00     0.317 C 
HETATM   16  C7  UNL     1     138.175  -0.661 -54.988  1.00  0.00     0.057 C 
HETATM   17  C8  UNL     1     138.576  -0.016 -53.691  1.00  0.00     0.006 C 
HETATM   18  C9  UNL     1     137.659  -0.544 -52.627  1.00  0.00     0.019 C 
HETATM   19  C10 UNL     1     136.209  -0.393 -53.008  1.00  0.00     0.116 C 
HETATM   20  N3  UNL     1     135.951   0.142 -54.289  1.00  0.00    -0.393 N 
ATOM     21  H3  UNL     1     135.172   0.786 -54.427  1.00  0.00     0.155 HD
ENDBRANCH  13  15
ENDBRANCH  12  13
ENDBRANCH   6  12
TORSDOF 3
ENDMDL
MODEL 3
REMARK VINA RESULT: -5.637888848      1.009      1.329
REMARK  3 active torsions:
REMARK  status: ('A' for Active; 'I' for Inactive)
REMARK    1  A    between atoms: C3_6  and  C4_7 
REMARK    2  A    between atoms: C4_7  and  N2_8 
REMARK    3  A    between atoms: N2_8  and  C6_10 
ROOT
HETATM    1  C1  UNL     1     136.914  -4.471 -54.745  1.00  0.00     0.050 C 
HETATM    2  C2  UNL     1     135.989  -3.295 -54.944  1.00  0.00     0.273 C 
HETATM    3  N1  UNL     1     136.463  -2.125 -54.198  1.00  0.00    -0.055 N 
ATOM      4  H11 UNL     1     137.267  -2.354 -53.613  1.00  0.00     0.278 HD
ATOM      5  H12 UNL     1     135.807  -1.857 -53.464  1.00  0.00     0.278 HD
HETATM    6  C3  UNL     1     136.745  -1.037 -55.068  1.00  0.00     0.232 C 
HETATM    7  C11 UNL     1     137.742  -1.545 -56.138  1.00  0.00     0.157 C 
HETATM    8  N4  UNL     1     136.906  -2.340 -57.028  1.00  0.00    -0.357 N 
ATOM      9  H4  UNL     1     137.075  -2.397 -58.033  1.00  0.00     0.162 HD
HETATM   10  C12 UNL     1     135.843  -3.025 -56.395  1.00  0.00     0.248 C 
HETATM   11  O1  UNL     1     134.824  -3.394 -56.999  1.00  0.00    -0.271 OA
ENDROOT
BRANCH   6  12
HETATM   12  C4  UNL     1     137.358   0.152 -54.455  1.00  0.00     0.309 C 
BRANCH  12  13
HETATM   13  N2  UNL     1     136.954   0.605 -53.174  1.00  0.00     0.108 N 
HETATM   14  C5  UNL     1     136.491   2.019 -53.299  1.00  0.00     0.312 C 
BRANCH  13  15
HETATM   15  C6  UNL     1     138.000   0.604 -52.140  1.00  0.00     0.317 C 
HETATM   16  C7  UNL     1     139.299   1.105 -52.747  1.00  0.00     0.057 C 
HETATM   17  C8  UNL     1     140.472   0.565 -51.977  1.00  0.00     0.006 C 
HETATM   18  C9  UNL     1     140.477  -0.924 -52.159  1.00  0.00     0.019 C 
HETATM   19  C10 UNL     1     139.141  -1.537 -51.824  1.00  0.00     0.116 C 
HETATM   20  N3  UNL     1     138.112  -0.638 -51.469  1.00  0.00    -0.393 N 
ATOM     21  H3  UNL     1     137.451  -0.882 -50.731  1.00  0.00     0.155 HD
ENDBRANCH  13  15
ENDBRANCH  12  13
ENDBRANCH   6  12
TORSDOF 3
ENDMDL
MODEL 4
REMARK VINA RESULT: -5.540103217      3.171      6.289
REMARK  3 active torsions:
REMARK  status: ('A' for Active; 'I' for Inactive)
REMARK    1  A    between atoms: C3_6  and  C4_7 
REMARK    2  A    between atoms: C4_7  and  N2_8 
REMARK    3  A    between atoms: N2_8  and  C6_10 
ROOT
HETATM    1  C1  UNL     1     142.581  -0.199 -50.440  1.00  0.00     0.050 C 
HETATM    2  C2  UNL     1     142.082   0.295 -51.775  1.00  0.00     0.273 C 
HETATM    3  N1  UNL     1     140.751  -0.244 -52.069  1.00  0.00    -0.055 N 
ATOM      4  H11 UNL     1     140.459  -0.923 -51.367  1.00  0.00     0.278 HD
ATOM      5  H12 UNL     1     140.767  -0.859 -52.883  1.00  0.00     0.278 HD
HETATM    6  C3  UNL     1     139.794   0.795 -52.220  1.00  0.00     0.232 C 
HETATM    7  C11 UNL     1     139.849   1.665 -50.940  1.00  0.00     0.157 C 
HETATM    8  N4  UNL     1     141.066   2.447 -51.116  1.00  0.00    -0.357 N 
ATOM      9  H4  UNL     1     141.156   3.405 -50.777  1.00  0.00     0.162 HD
HETATM   10  C12 UNL     1     142.112   1.779 -51.793  1.00  0.00     0.248 C 
HETATM   11  O1  UNL     1     143.025   2.378 -52.382  1.00  0.00    -0.271 OA
ENDROOT
BRANCH   6  12
HETATM   12  C4  UNL     1     138.392   0.378 -52.381  1.00  0.00     0.309 C 
BRANCH  12  13
HETATM   13  N2  UNL     1     137.693   0.617 -53.593  1.00  0.00     0.108 N 
HETATM   14  C5  UNL     1     136.701   1.707 -53.357  1.00  0.00     0.312 C 
BRANCH  13  15
HETATM   15  C6  UNL     1     136.932  -0.525 -54.122  1.00  0.00     0.317 C 
HETATM   16  C7  UNL     1     137.838  -1.743 -54.180  1.00  0.00     0.057 C 
HETATM   17  C8  UNL     1     137.349  -2.702 -55.228  1.00  0.00     0.006 C 
HETATM   18  C9  UNL     1     137.487  -2.020 -56.557  1.00  0.00     0.019 C 
HETATM   19  C10 UNL     1     136.834  -0.662 -56.563  1.00  0.00     0.116 C 
HETATM   20  N3  UNL     1     136.273  -0.232 -55.340  1.00  0.00    -0.393 N 
ATOM     21  H3  UNL     1     135.396   0.288 -55.335  1.00  0.00     0.155 HD
ENDBRANCH  13  15
ENDBRANCH  12  13
ENDBRANCH   6  12
TORSDOF 3
ENDMDL
MODEL 5
REMARK VINA RESULT: -5.529194949      2.830      5.142
REMARK  3 active torsions:
REMARK  status: ('A' for Active; 'I' for Inactive)
REMARK    1  A    between atoms: C3_6  and  C4_7 
REMARK    2  A    between atoms: C4_7  and  N2_8 
REMARK    3  A    between atoms: N2_8  and  C6_10 
ROOT
HETATM    1  C1  UNL     1     139.646  -0.634 -52.211  1.00  0.00     0.050 C 
HETATM    2  C2  UNL     1     138.951  -1.871 -51.694  1.00  0.00     0.273 C 
HETATM    3  N1  UNL     1     137.622  -2.014 -52.296  1.00  0.00    -0.055 N 
ATOM      4  H11 UNL     1     137.382  -1.207 -52.870  1.00  0.00     0.278 HD
ATOM      5  H12 UNL     1     136.883  -1.935 -51.597  1.00  0.00     0.278 HD
HETATM    6  C3  UNL     1     137.516  -3.227 -53.030  1.00  0.00     0.232 C 
HETATM    7  C11 UNL     1     138.675  -3.250 -54.056  1.00  0.00     0.157 C 
HETATM    8  N4  UNL     1     139.839  -3.576 -53.243  1.00  0.00    -0.357 N 
ATOM      9  H4  UNL     1     140.614  -4.138 -53.595  1.00  0.00     0.162 HD
HETATM   10  C12 UNL     1     139.814  -3.054 -51.929  1.00  0.00     0.248 C 
HETATM   11  O1  UNL     1     140.472  -3.542 -50.997  1.00  0.00    -0.271 OA
ENDROOT
BRANCH   6  12
HETATM   12  C4  UNL     1     136.275  -3.424 -53.796  1.00  0.00     0.309 C 
BRANCH  12  13
HETATM   13  N2  UNL     1     135.242  -2.451 -53.777  1.00  0.00     0.108 N 
HETATM   14  C5  UNL     1     133.929  -3.160 -53.801  1.00  0.00     0.312 C 
BRANCH  13  15
HETATM   15  C6  UNL     1     135.227  -1.519 -54.914  1.00  0.00     0.317 C 
HETATM   16  C7  UNL     1     135.895  -2.179 -56.108  1.00  0.00     0.057 C 
HETATM   17  C8  UNL     1     136.445  -1.133 -57.036  1.00  0.00     0.006 C 
HETATM   18  C9  UNL     1     137.534  -0.410 -56.299  1.00  0.00     0.019 C 
HETATM   19  C10 UNL     1     137.068   0.092 -54.957  1.00  0.00     0.116 C 
HETATM   20  N3  UNL     1     135.746  -0.242 -54.589  1.00  0.00    -0.393 N 
ATOM     21  H3  UNL     1     135.168   0.433 -54.089  1.00  0.00     0.155 HD
ENDBRANCH  13  15
ENDBRANCH  12  13
ENDBRANCH   6  12
TORSDOF 3
ENDMDL
