MODEL 1
REMARK VINA RESULT: -8.447142131      0.000      0.000
REMARK  6 active torsions:
REMARK  status: ('A' for Active; 'I' for Inactive)
REMARK    1  A    between atoms: C3_5  and  C4_6 
REMARK    2  A    between atoms: C4_6  and  N2_7 
REMARK    3  A    between atoms: N2_7  and  C5_9 
REMARK    4  A    between atoms: C8_13  and  C9_14 
REMARK    5  A    between atoms: C15_20  and  O2_21 
REMARK    6  A    between atoms: C16_23  and  O3_24 
ROOT
HETATM    1  C5  UNL     1      16.230  10.678  10.843  1.00  0.00     0.179 C 
HETATM    2  C6  UNL     1      16.338   9.506  11.739  1.00  0.00     0.155 C 
HETATM    3  O1  UNL     1      16.903   9.600  12.843  1.00  0.00    -0.295 OA
HETATM    4  C7  UNL     1      15.772   8.196  11.329  1.00  0.00     0.117 C 
HETATM    5  C8  UNL     1      16.388   7.836   9.983  1.00  0.00    -0.040 C 
HETATM    6  C15 UNL     1      16.963   8.959   9.221  1.00  0.00     0.179 C 
HETATM    7  C16 UNL     1      16.208  10.275   9.427  1.00  0.00     0.180 C 
ENDROOT
BRANCH   1   8
HETATM    8  N2  UNL     1      15.192  11.517  11.287  1.00  0.00    -0.403 N 
ATOM      9  H2  UNL     1      15.388  12.374  11.805  1.00  0.00     0.154 HD
BRANCH   8  10
HETATM   10  C4  UNL     1      13.830  11.114  10.978  1.00  0.00     0.172 C 
BRANCH  10  11
HETATM   11  C3  UNL     1      13.083  11.250  12.327  1.00  0.00     0.034 A 
HETATM   12  N1  UNL     1      13.358  10.508  13.333  1.00  0.00    -0.356 N 
HETATM   13  C2  UNL     1      12.767  10.768  14.503  1.00  0.00     0.047 A 
ATOM     14  H1  UNL     1      14.015   9.733  13.244  1.00  0.00     0.166 HD
HETATM   15  C1  UNL     1      12.951  10.043  15.825  1.00  0.00     0.076 C 
HETATM   16  S1  UNL     1      11.790  12.115  14.131  1.00  0.00    -0.087 SA
HETATM   17  C17 UNL     1      12.186  12.283  12.490  1.00  0.00     0.078 A 
ENDBRANCH  10  11
ENDBRANCH   8  10
ENDBRANCH   1   8
BRANCH   7  18
HETATM   18  O3  UNL     1      16.984  11.210   8.685  1.00  0.00    -0.390 OA
ATOM     19  H3  UNL     1      17.284  11.887   9.281  1.00  0.00     0.210 HD
ENDBRANCH   7  18
BRANCH   6  20
HETATM   20  O2  UNL     1      18.274   9.216   9.669  1.00  0.00    -0.389 OA
ATOM     21  H2  UNL     1      18.734   8.396   9.802  1.00  0.00     0.210 HD
ENDBRANCH   6  20
BRANCH   5  22
HETATM   22  C9  UNL     1      15.612   6.816   9.212  1.00  0.00    -0.074 C 
HETATM   23  C10 UNL     1      15.714   5.421   9.732  1.00  0.00     0.034 C 
HETATM   24  C11 UNL     1      15.029   4.493   8.733  1.00  0.00     0.004 C 
HETATM   25  C12 UNL     1      15.726   4.513   7.409  1.00  0.00     0.001 C 
HETATM   26  C13 UNL     1      16.505   5.774   7.169  1.00  0.00     0.004 C 
HETATM   27  C14 UNL     1      15.676   6.916   7.731  1.00  0.00     0.034 C 
ENDBRANCH   5  22
TORSDOF 6
ENDMDL
MODEL 2
REMARK VINA RESULT: -8.387112187      1.732      2.489
REMARK  6 active torsions:
REMARK  status: ('A' for Active; 'I' for Inactive)
REMARK    1  A    between atoms: C3_5  and  C4_6 
REMARK    2  A    between atoms: C4_6  and  N2_7 
REMARK    3  A    between atoms: N2_7  and  C5_9 
REMARK    4  A    between atoms: C8_13  and  C9_14 
REMARK    5  A    between atoms: C15_20  and  O2_21 
REMARK    6  A    between atoms: C16_23  and  O3_24 
ROOT
HETATM    1  C5  UNL     1      14.861   9.664  12.947  1.00  0.00     0.179 C 
HETATM    2  C6  UNL     1      14.852   8.228  13.305  1.00  0.00     0.155 C 
HETATM    3  O1  UNL     1      14.707   7.870  14.488  1.00  0.00    -0.295 OA
HETATM    4  C7  UNL     1      15.017   7.193  12.254  1.00  0.00     0.117 C 
HETATM    5  C8  UNL     1      16.314   7.499  11.515  1.00  0.00    -0.040 C 
HETATM    6  C15 UNL     1      16.816   8.880  11.648  1.00  0.00     0.179 C 
HETATM    7  C16 UNL     1      15.697   9.918  11.761  1.00  0.00     0.180 C 
ENDROOT
BRANCH   1   8
HETATM    8  N2  UNL     1      13.543  10.151  12.917  1.00  0.00    -0.403 N 
ATOM      9  H2  UNL     1      12.774   9.578  12.568  1.00  0.00     0.154 HD
BRANCH   8  10
HETATM   10  C4  UNL     1      13.319  11.503  13.404  1.00  0.00     0.172 C 
BRANCH  10  11
HETATM   11  C3  UNL     1      12.656  11.298  14.789  1.00  0.00     0.034 A 
HETATM   12  N1  UNL     1      13.056  10.399  15.607  1.00  0.00    -0.356 N 
HETATM   13  C2  UNL     1      12.527  10.366  16.833  1.00  0.00     0.047 A 
ATOM     14  H1  UNL     1      13.766   9.721  15.329  1.00  0.00     0.166 HD
HETATM   15  C1  UNL     1      12.855   9.412  17.968  1.00  0.00     0.076 C 
HETATM   16  S1  UNL     1      11.422  11.664  16.793  1.00  0.00    -0.087 SA
HETATM   17  C17 UNL     1      11.693  12.191  15.203  1.00  0.00     0.078 A 
ENDBRANCH  10  11
ENDBRANCH   8  10
ENDBRANCH   1   8
BRANCH   7  18
HETATM   18  O3  UNL     1      16.407  11.134  11.969  1.00  0.00    -0.390 OA
ATOM     19  H3  UNL     1      17.218  11.093  11.476  1.00  0.00     0.210 HD
ENDBRANCH   7  18
BRANCH   6  20
HETATM   20  O2  UNL     1      17.554   9.005  12.841  1.00  0.00    -0.389 OA
ATOM     21  H2  UNL     1      18.061   9.807  12.821  1.00  0.00     0.210 HD
ENDBRANCH   6  20
BRANCH   5  22
HETATM   22  C9  UNL     1      16.407   6.868  10.163  1.00  0.00    -0.074 C 
HETATM   23  C10 UNL     1      15.366   7.307   9.188  1.00  0.00     0.034 C 
HETATM   24  C11 UNL     1      15.488   6.437   7.941  1.00  0.00     0.004 C 
HETATM   25  C12 UNL     1      15.208   5.001   8.253  1.00  0.00     0.001 C 
HETATM   26  C13 UNL     1      15.445   4.651   9.695  1.00  0.00     0.004 C 
HETATM   27  C14 UNL     1      16.686   5.409  10.132  1.00  0.00     0.034 C 
ENDBRANCH   5  22
TORSDOF 6
ENDMDL
MODEL 3
REMARK VINA RESULT: -8.325489547      2.851      6.965
REMARK  6 active torsions:
REMARK  status: ('A' for Active; 'I' for Inactive)
REMARK    1  A    between atoms: C3_5  and  C4_6 
REMARK    2  A    between atoms: C4_6  and  N2_7 
REMARK    3  A    between atoms: N2_7  and  C5_9 
REMARK    4  A    between atoms: C8_13  and  C9_14 
REMARK    5  A    between atoms: C15_20  and  O2_21 
REMARK    6  A    between atoms: C16_23  and  O3_24 
ROOT
HETATM    1  C5  UNL     1      15.842   9.329  11.837  1.00  0.00     0.179 C 
HETATM    2  C6  UNL     1      14.970   8.358  12.534  1.00  0.00     0.155 C 
HETATM    3  O1  UNL     1      14.702   7.259  12.015  1.00  0.00    -0.295 OA
HETATM    4  C7  UNL     1      14.401   8.684  13.865  1.00  0.00     0.117 C 
HETATM    5  C8  UNL     1      13.646  10.000  13.728  1.00  0.00    -0.040 C 
HETATM    6  C15 UNL     1      14.016  10.831  12.567  1.00  0.00     0.179 C 
HETATM    7  C16 UNL     1      15.495  10.716  12.191  1.00  0.00     0.180 C 
ENDROOT
BRANCH   1   8
HETATM    8  N2  UNL     1      17.186   8.947  11.985  1.00  0.00    -0.403 N 
ATOM      9  H2  UNL     1      17.562   8.671  12.893  1.00  0.00     0.154 HD
BRANCH   8  10
HETATM   10  C4  UNL     1      18.020   8.961  10.794  1.00  0.00     0.172 C 
BRANCH  10  11
HETATM   11  C3  UNL     1      17.257   8.062   9.791  1.00  0.00     0.034 A 
HETATM   12  N1  UNL     1      17.029   6.824  10.025  1.00  0.00    -0.356 N 
HETATM   13  C2  UNL     1      16.252   6.144   9.178  1.00  0.00     0.047 A 
ATOM     14  H1  UNL     1      17.432   6.367  10.843  1.00  0.00     0.166 HD
HETATM   15  C1  UNL     1      15.831   4.687   9.260  1.00  0.00     0.076 C 
HETATM   16  S1  UNL     1      15.849   7.325   8.016  1.00  0.00    -0.087 SA
HETATM   17  C17 UNL     1      16.697   8.640   8.673  1.00  0.00     0.078 A 
ENDBRANCH  10  11
ENDBRANCH   8  10
ENDBRANCH   1   8
BRANCH   7  18
HETATM   18  O3  UNL     1      15.591  11.513  11.016  1.00  0.00    -0.390 OA
ATOM     19  H3  UNL     1      15.268  12.383  11.220  1.00  0.00     0.210 HD
ENDBRANCH   7  18
BRANCH   6  20
HETATM   20  O2  UNL     1      13.313  10.395  11.426  1.00  0.00    -0.389 OA
ATOM     21  H2  UNL     1      13.852   9.792  10.929  1.00  0.00     0.210 HD
ENDBRANCH   6  20
BRANCH   5  22
HETATM   22  C9  UNL     1      13.413  10.706  15.024  1.00  0.00    -0.074 C 
HETATM   23  C10 UNL     1      12.862   9.852  16.117  1.00  0.00     0.034 C 
HETATM   24  C11 UNL     1      12.509  10.757  17.293  1.00  0.00     0.004 C 
HETATM   25  C12 UNL     1      11.435  11.731  16.924  1.00  0.00     0.001 C 
HETATM   26  C13 UNL     1      11.363  12.003  15.448  1.00  0.00     0.004 C 
HETATM   27  C14 UNL     1      12.795  12.055  14.942  1.00  0.00     0.034 C 
ENDBRANCH   5  22
TORSDOF 6
ENDMDL
MODEL 4
REMARK VINA RESULT: -8.251588076      1.930      2.825
REMARK  6 active torsions:
REMARK  status: ('A' for Active; 'I' for Inactive)
REMARK    1  A    between atoms: C3_5  and  C4_6 
REMARK    2  A    between atoms: C4_6  and  N2_7 
REMARK    3  A    between atoms: N2_7  and  C5_9 
REMARK    4  A    between atoms: C8_13  and  C9_14 
REMARK    5  A    between atoms: C15_20  and  O2_21 
REMARK    6  A    between atoms: C16_23  and  O3_24 
ROOT
HETATM    1  C5  UNL     1      13.484  10.968  12.516  1.00  0.00     0.179 C 
HETATM    2  C6  UNL     1      14.281   9.789  12.919  1.00  0.00     0.155 C 
HETATM    3  O1  UNL     1      14.690   9.668  14.088  1.00  0.00    -0.295 OA
HETATM    4  C7  UNL     1      14.605   8.730  11.931  1.00  0.00     0.117 C 
HETATM    5  C8  UNL     1      15.299   9.404  10.754  1.00  0.00    -0.040 C 
HETATM    6  C15 UNL     1      15.081  10.857  10.629  1.00  0.00     0.179 C 
HETATM    7  C16 UNL     1      13.692  11.299  11.096  1.00  0.00     0.180 C 
ENDROOT
BRANCH   1   8
HETATM    8  N2  UNL     1      12.156  10.810  12.949  1.00  0.00    -0.403 N 
ATOM      9  H2  UNL     1      11.647   9.940  12.794  1.00  0.00     0.154 HD
BRANCH   8  10
HETATM   10  C4  UNL     1      11.536  11.938  13.627  1.00  0.00     0.172 C 
BRANCH  10  11
HETATM   11  C3  UNL     1      12.047  11.826  15.085  1.00  0.00     0.034 A 
HETATM   12  N1  UNL     1      12.142  10.701  15.687  1.00  0.00    -0.356 N 
HETATM   13  C2  UNL     1      12.714  10.666  16.894  1.00  0.00     0.047 A 
ATOM     14  H1  UNL     1      11.789   9.848  15.254  1.00  0.00     0.166 HD
HETATM   15  C1  UNL     1      12.952   9.456  17.780  1.00  0.00     0.076 C 
HETATM   16  S1  UNL     1      13.117  12.301  17.159  1.00  0.00    -0.087 SA
HETATM   17  C17 UNL     1      12.533  12.955  15.706  1.00  0.00     0.078 A 
ENDBRANCH  10  11
ENDBRANCH   8  10
ENDBRANCH   1   8
BRANCH   7  18
HETATM   18  O3  UNL     1      13.747  12.716  10.973  1.00  0.00    -0.390 OA
ATOM     19  H3  UNL     1      13.435  12.951  10.106  1.00  0.00     0.210 HD
ENDBRANCH   7  18
BRANCH   6  20
HETATM   20  O2  UNL     1      15.984  11.548  11.462  1.00  0.00    -0.389 OA
ATOM     21  H2  UNL     1      15.797  12.478  11.436  1.00  0.00     0.210 HD
ENDBRANCH   6  20
BRANCH   5  22
HETATM   22  C9  UNL     1      15.278   8.601   9.493  1.00  0.00    -0.074 C 
HETATM   23  C10 UNL     1      15.322   7.122   9.687  1.00  0.00     0.034 C 
HETATM   24  C11 UNL     1      15.485   6.470   8.318  1.00  0.00     0.004 C 
HETATM   25  C12 UNL     1      16.782   6.861   7.682  1.00  0.00     0.001 C 
HETATM   26  C13 UNL     1      17.324   8.165   8.194  1.00  0.00     0.004 C 
HETATM   27  C14 UNL     1      16.133   9.091   8.382  1.00  0.00     0.034 C 
ENDBRANCH   5  22
TORSDOF 6
ENDMDL
MODEL 5
REMARK VINA RESULT: -8.244272498      3.091      7.881
REMARK  6 active torsions:
REMARK  status: ('A' for Active; 'I' for Inactive)
REMARK    1  A    between atoms: C3_5  and  C4_6 
REMARK    2  A    between atoms: C4_6  and  N2_7 
REMARK    3  A    between atoms: N2_7  and  C5_9 
REMARK    4  A    between atoms: C8_13  and  C9_14 
REMARK    5  A    between atoms: C15_20  and  O2_21 
REMARK    6  A    between atoms: C16_23  and  O3_24 
ROOT
HETATM    1  C5  UNL     1      13.931  11.040  12.744  1.00  0.00     0.179 C 
HETATM    2  C6  UNL     1      13.591   9.930  13.661  1.00  0.00     0.155 C 
HETATM    3  O1  UNL     1      13.511   8.761  13.241  1.00  0.00    -0.295 OA
HETATM    4  C7  UNL     1      13.340  10.197  15.099  1.00  0.00     0.117 C 
HETATM    5  C8  UNL     1      12.238  11.247  15.180  1.00  0.00    -0.040 C 
HETATM    6  C15 UNL     1      12.029  12.050  13.962  1.00  0.00     0.179 C 
HETATM    7  C16 UNL     1      13.321  12.306  13.181  1.00  0.00     0.180 C 
ENDROOT
BRANCH   1   8
HETATM    8  N2  UNL     1      15.317  11.046  12.504  1.00  0.00    -0.403 N 
ATOM      9  H2  UNL     1      15.988  11.062  13.272  1.00  0.00     0.154 HD
BRANCH   8  10
HETATM   10  C4  UNL     1      15.755  11.029  11.118  1.00  0.00     0.172 C 
BRANCH  10  11
HETATM   11  C3  UNL     1      15.921   9.523  10.795  1.00  0.00     0.034 A 
HETATM   12  N1  UNL     1      15.376   8.984   9.771  1.00  0.00    -0.356 N 
HETATM   13  C2  UNL     1      15.670   7.713   9.482  1.00  0.00     0.047 A 
ATOM     14  H1  UNL     1      14.730   9.513   9.185  1.00  0.00     0.166 HD
HETATM   15  C1  UNL     1      15.165   6.877   8.319  1.00  0.00     0.076 C 
HETATM   16  S1  UNL     1      16.756   7.293  10.728  1.00  0.00    -0.087 SA
HETATM   17  C17 UNL     1      16.784   8.771  11.562  1.00  0.00     0.078 A 
ENDBRANCH  10  11
ENDBRANCH   8  10
ENDBRANCH   1   8
BRANCH   7  18
HETATM   18  O3  UNL     1      12.865  13.003  12.026  1.00  0.00    -0.390 OA
ATOM     19  H3  UNL     1      13.233  12.580  11.259  1.00  0.00     0.210 HD
ENDBRANCH   7  18
BRANCH   6  20
HETATM   20  O2  UNL     1      11.194  11.351  13.068  1.00  0.00    -0.389 OA
ATOM     21  H2  UNL     1      11.720  10.927  12.402  1.00  0.00     0.210 HD
ENDBRANCH   6  20
BRANCH   5  22
HETATM   22  C9  UNL     1      12.180  11.966  16.490  1.00  0.00    -0.074 C 
HETATM   23  C10 UNL     1      13.474  12.039  17.228  1.00  0.00     0.034 C 
HETATM   24  C11 UNL     1      13.200  12.628  18.608  1.00  0.00     0.004 C 
HETATM   25  C12 UNL     1      12.297  11.741  19.406  1.00  0.00     0.001 C 
HETATM   26  C13 UNL     1      11.439  10.849  18.555  1.00  0.00     0.004 C 
HETATM   27  C14 UNL     1      11.007  11.673  17.354  1.00  0.00     0.034 C 
ENDBRANCH   5  22
TORSDOF 6
ENDMDL
