MODEL 1
REMARK VINA RESULT: -7.594580839      0.000      0.000
REMARK  9 active torsions:
REMARK  status: ('A' for Active; 'I' for Inactive)
REMARK       I    between atoms: N1_2  and  C2_3 
REMARK    1  A    between atoms: N1_2  and  N4_10 
REMARK    2  A    between atoms: C2_3  and  C3_5 
REMARK    3  A    between atoms: C3_5  and  N2_6 
REMARK    4  A    between atoms: N2_6  and  N3_7 
REMARK    5  A    between atoms: N4_10  and  N5_11 
REMARK    6  A    between atoms: N4_10  and  N6_14 
REMARK    7  A    between atoms: N7_16  and  C4_18 
REMARK    8  A    between atoms: C5_21  and  N9_22 
REMARK    9  A    between atoms: C6_27  and  N11_28 
ROOT
HETATM    1  N6  UNL     1      -5.029  21.648  -9.790  1.00  0.00    -0.192 N 
ATOM      2  H6  UNL     1      -4.058  21.761 -10.082  1.00  0.00     0.212 HD
HETATM    3  N7  UNL     1      -5.522  22.632  -9.221  1.00  0.00    -0.114 N 
ATOM      4  H7  UNL     1      -4.896  23.430  -9.118  1.00  0.00     0.207 HD
ENDROOT
BRANCH   3   5
HETATM    5  C4  UNL     1      -6.805  22.813  -8.698  1.00  0.00     0.727 A 
HETATM    6  N8  UNL     1      -7.406  24.014  -8.669  1.00  0.00    -0.020 N 
HETATM    7  C5  UNL     1      -8.650  24.182  -8.165  1.00  0.00     0.705 A 
ATOM      8  H8  UNL     1      -6.909  24.825  -9.038  1.00  0.00     0.203 HD
HETATM    9  N10 UNL     1      -9.312  23.119  -7.676  1.00  0.00    -0.022 N 
HETATM   10  C6  UNL     1      -8.727  21.899  -7.695  1.00  0.00     0.705 A 
ATOM     11  H10 UNL     1     -10.251  23.231  -7.292  1.00  0.00     0.203 HD
HETATM   12  N12 UNL     1      -7.484  21.762  -8.205  1.00  0.00    -0.020 N 
ATOM     13  H12 UNL     1      -7.049  20.840  -8.216  1.00  0.00     0.203 HD
BRANCH   7  14
HETATM   14  N9  UNL     1      -9.216  25.348  -8.143  1.00  0.00    -0.234 N 
ATOM     15  H92 UNL     1      -9.836  25.618  -8.907  1.00  0.00     0.174 HD
ATOM     16  H91 UNL     1      -9.056  26.001  -7.375  1.00  0.00     0.174 HD
ENDBRANCH   7  14
BRANCH  10  17
HETATM   17  N11 UNL     1      -9.347  20.853  -7.228  1.00  0.00    -0.234 N 
ATOM     18 2H11 UNL     1     -10.203  20.533  -7.681  1.00  0.00     0.174 HD
ATOM     19 1H11 UNL     1      -8.987  20.351  -6.416  1.00  0.00     0.174 HD
ENDBRANCH  10  17
ENDBRANCH   3   5
BRANCH   1  20
HETATM   20  N4  UNL     1      -5.586  20.431 -10.089  1.00  0.00    -0.118 N 
BRANCH  20  21
HETATM   21  N1  UNL     1      -6.408  20.308 -11.221  1.00  0.00    -0.227 N 
HETATM   22  C1  UNL     1      -5.842  20.556 -12.530  1.00  0.00     0.185 C 
HETATM   23  C2  UNL     1      -7.758  19.953 -11.112  1.00  0.00     0.257 C 
HETATM   24  O1  UNL     1      -8.252  19.739  -9.989  1.00  0.00    -0.270 OA
BRANCH  23  25
HETATM   25  C3  UNL     1      -8.603  19.831 -12.309  1.00  0.00     0.238 C 
BRANCH  25  26
HETATM   26  N2  UNL     1      -9.424  21.016 -12.500  1.00  0.00    -0.139 NA
BRANCH  26  27
HETATM   27  N3  UNL     1      -9.047  21.958 -11.541  1.00  0.00    -0.348 N 
ATOM     28  H32 UNL     1      -8.278  21.850 -10.881  1.00  0.00     0.172 HD
ATOM     29  H31 UNL     1      -9.675  22.757 -11.625  1.00  0.00     0.172 HD
ENDBRANCH  26  27
ENDBRANCH  25  26
ENDBRANCH  23  25
ENDBRANCH  20  21
BRANCH  20  30
HETATM   30  N5  UNL     1      -5.329  19.329  -9.274  1.00  0.00    -0.307 N 
ATOM     31  H52 UNL     1      -5.357  19.430  -8.259  1.00  0.00     0.180 HD
ATOM     32  H51 UNL     1      -5.108  18.420  -9.681  1.00  0.00     0.180 HD
ENDBRANCH  20  30
ENDBRANCH   1  20
TORSDOF 9
ENDMDL
MODEL 2
REMARK VINA RESULT: -7.529364130      0.187      1.838
REMARK  9 active torsions:
REMARK  status: ('A' for Active; 'I' for Inactive)
REMARK       I    between atoms: N1_2  and  C2_3 
REMARK    1  A    between atoms: N1_2  and  N4_10 
REMARK    2  A    between atoms: C2_3  and  C3_5 
REMARK    3  A    between atoms: C3_5  and  N2_6 
REMARK    4  A    between atoms: N2_6  and  N3_7 
REMARK    5  A    between atoms: N4_10  and  N5_11 
REMARK    6  A    between atoms: N4_10  and  N6_14 
REMARK    7  A    between atoms: N7_16  and  C4_18 
REMARK    8  A    between atoms: C5_21  and  N9_22 
REMARK    9  A    between atoms: C6_27  and  N11_28 
ROOT
HETATM    1  N6  UNL     1      -5.137  21.681 -10.018  1.00  0.00    -0.192 N 
ATOM      2  H6  UNL     1      -4.194  21.838 -10.377  1.00  0.00     0.212 HD
HETATM    3  N7  UNL     1      -5.647  22.654  -9.447  1.00  0.00    -0.114 N 
ATOM      4  H7  UNL     1      -5.063  23.489  -9.409  1.00  0.00     0.207 HD
ENDROOT
BRANCH   3   5
HETATM    5  C4  UNL     1      -6.902  22.782  -8.846  1.00  0.00     0.727 A 
HETATM    6  N8  UNL     1      -7.536  21.743  -8.277  1.00  0.00    -0.020 N 
HETATM    7  C5  UNL     1      -8.750  21.875  -7.694  1.00  0.00     0.705 A 
ATOM      8  H8  UNL     1      -7.088  20.827  -8.284  1.00  0.00     0.203 HD
HETATM    9  N10 UNL     1      -9.347  23.079  -7.680  1.00  0.00    -0.022 N 
HETATM   10  C6  UNL     1      -8.728  24.140  -8.247  1.00  0.00     0.705 A 
ATOM     11  H10 UNL     1     -10.263  23.193  -7.244  1.00  0.00     0.203 HD
HETATM   12  N12 UNL     1      -7.517  23.978  -8.821  1.00  0.00    -0.020 N 
ATOM     13  H12 UNL     1      -7.056  24.783  -9.247  1.00  0.00     0.203 HD
BRANCH   7  14
HETATM   14  N9  UNL     1      -9.349  20.862  -7.149  1.00  0.00    -0.234 N 
ATOM     15  H92 UNL     1      -9.792  20.163  -7.746  1.00  0.00     0.174 HD
ATOM     16  H91 UNL     1      -9.385  20.749  -6.136  1.00  0.00     0.174 HD
ENDBRANCH   7  14
BRANCH  10  17
HETATM   17  N11 UNL     1      -9.285  25.318  -8.247  1.00  0.00    -0.234 N 
ATOM     18 2H11 UNL     1     -10.142  25.468  -7.714  1.00  0.00     0.174 HD
ATOM     19 1H11 UNL     1      -8.876  26.090  -8.772  1.00  0.00     0.174 HD
ENDBRANCH  10  17
ENDBRANCH   3   5
BRANCH   1  20
HETATM   20  N4  UNL     1      -5.641  20.426 -10.243  1.00  0.00    -0.118 N 
BRANCH  20  21
HETATM   21  N1  UNL     1      -6.481  20.208 -11.348  1.00  0.00    -0.227 N 
HETATM   22  C1  UNL     1      -5.942  20.365 -12.682  1.00  0.00     0.185 C 
HETATM   23  C2  UNL     1      -7.824  19.845 -11.187  1.00  0.00     0.257 C 
HETATM   24  O1  UNL     1      -8.295  19.708 -10.042  1.00  0.00    -0.270 OA
BRANCH  23  25
HETATM   25  C3  UNL     1      -8.688  19.622 -12.355  1.00  0.00     0.238 C 
BRANCH  25  26
HETATM   26  N2  UNL     1      -9.578  20.752 -12.578  1.00  0.00    -0.139 NA
BRANCH  26  27
HETATM   27  N3  UNL     1      -9.130  21.812 -11.788  1.00  0.00    -0.348 N 
ATOM     28  H32 UNL     1      -9.696  22.320 -11.109  1.00  0.00     0.172 HD
ATOM     29  H31 UNL     1      -8.150  21.978 -12.015  1.00  0.00     0.172 HD
ENDBRANCH  26  27
ENDBRANCH  25  26
ENDBRANCH  23  25
ENDBRANCH  20  21
BRANCH  20  30
HETATM   30  N5  UNL     1      -5.313  19.379  -9.382  1.00  0.00    -0.307 N 
ATOM     31  H52 UNL     1      -6.021  18.692  -9.124  1.00  0.00     0.180 HD
ATOM     32  H51 UNL     1      -4.370  19.294  -9.002  1.00  0.00     0.180 HD
ENDBRANCH  20  30
ENDBRANCH   1  20
TORSDOF 9
ENDMDL
MODEL 3
REMARK VINA RESULT: -7.250845452      1.458      3.477
REMARK  9 active torsions:
REMARK  status: ('A' for Active; 'I' for Inactive)
REMARK       I    between atoms: N1_2  and  C2_3 
REMARK    1  A    between atoms: N1_2  and  N4_10 
REMARK    2  A    between atoms: C2_3  and  C3_5 
REMARK    3  A    between atoms: C3_5  and  N2_6 
REMARK    4  A    between atoms: N2_6  and  N3_7 
REMARK    5  A    between atoms: N4_10  and  N5_11 
REMARK    6  A    between atoms: N4_10  and  N6_14 
REMARK    7  A    between atoms: N7_16  and  C4_18 
REMARK    8  A    between atoms: C5_21  and  N9_22 
REMARK    9  A    between atoms: C6_27  and  N11_28 
ROOT
HETATM    1  N6  UNL     1      -8.800  21.384 -12.258  1.00  0.00    -0.192 N 
ATOM      2  H6  UNL     1      -8.967  21.450 -13.263  1.00  0.00     0.212 HD
HETATM    3  N7  UNL     1      -9.277  22.310 -11.587  1.00  0.00    -0.114 N 
ATOM      4  H7  UNL     1      -9.778  23.018 -12.123  1.00  0.00     0.207 HD
ENDROOT
BRANCH   3   5
HETATM    5  C4  UNL     1      -9.234  22.530 -10.208  1.00  0.00     0.727 A 
HETATM    6  N8  UNL     1      -9.293  21.526  -9.318  1.00  0.00    -0.020 N 
HETATM    7  C5  UNL     1      -9.246  21.747  -7.983  1.00  0.00     0.705 A 
ATOM      8  H8  UNL     1      -9.375  20.568  -9.657  1.00  0.00     0.203 HD
HETATM    9  N10 UNL     1      -9.138  23.007  -7.527  1.00  0.00    -0.022 N 
HETATM   10  C6  UNL     1      -9.077  24.034  -8.405  1.00  0.00     0.705 A 
ATOM     11  H10 UNL     1      -9.102  23.188  -6.523  1.00  0.00     0.203 HD
HETATM   12  N12 UNL     1      -9.125  23.783  -9.731  1.00  0.00    -0.020 N 
ATOM     13  H12 UNL     1      -9.079  24.563 -10.387  1.00  0.00     0.203 HD
BRANCH   7  14
HETATM   14  N9  UNL     1      -9.305  20.767  -7.136  1.00  0.00    -0.234 N 
ATOM     15  H92 UNL     1      -8.992  19.839  -7.423  1.00  0.00     0.174 HD
ATOM     16  H91 UNL     1      -9.657  20.905  -6.189  1.00  0.00     0.174 HD
ENDBRANCH   7  14
BRANCH  10  17
HETATM   17  N11 UNL     1      -8.971  25.264  -7.989  1.00  0.00    -0.234 N 
ATOM     18 2H11 UNL     1      -9.778  25.885  -8.047  1.00  0.00     0.174 HD
ATOM     19 1H11 UNL     1      -8.093  25.612  -7.605  1.00  0.00     0.174 HD
ENDBRANCH  10  17
ENDBRANCH   3   5
BRANCH   1  20
HETATM   20  N4  UNL     1      -8.082  20.286 -11.861  1.00  0.00    -0.118 N 
BRANCH  20  21
HETATM   21  N1  UNL     1      -6.730  20.435 -11.511  1.00  0.00    -0.227 N 
HETATM   22  C1  UNL     1      -5.786  20.864 -12.522  1.00  0.00     0.185 C 
HETATM   23  C2  UNL     1      -6.276  20.180 -10.212  1.00  0.00     0.257 C 
HETATM   24  O1  UNL     1      -7.081  19.810  -9.337  1.00  0.00    -0.270 OA
BRANCH  23  25
HETATM   25  C3  UNL     1      -4.856  20.341  -9.865  1.00  0.00     0.238 C 
BRANCH  25  26
HETATM   26  N2  UNL     1      -4.681  21.293  -8.778  1.00  0.00    -0.139 NA
BRANCH  26  27
HETATM   27  N3  UNL     1      -5.478  22.405  -9.051  1.00  0.00    -0.348 N 
ATOM     28  H32 UNL     1      -5.708  22.751  -9.983  1.00  0.00     0.172 HD
ATOM     29  H31 UNL     1      -5.782  22.799  -8.161  1.00  0.00     0.172 HD
ENDBRANCH  26  27
ENDBRANCH  25  26
ENDBRANCH  23  25
ENDBRANCH  20  21
BRANCH  20  30
HETATM   30  N5  UNL     1      -8.697  19.036 -11.802  1.00  0.00    -0.307 N 
ATOM     31  H52 UNL     1      -9.597  18.890 -12.259  1.00  0.00     0.180 HD
ATOM     32  H51 UNL     1      -8.259  18.263 -11.302  1.00  0.00     0.180 HD
ENDBRANCH  20  30
ENDBRANCH   1  20
TORSDOF 9
ENDMDL
MODEL 4
REMARK VINA RESULT: -7.227474493      1.459      2.965
REMARK  9 active torsions:
REMARK  status: ('A' for Active; 'I' for Inactive)
REMARK       I    between atoms: N1_2  and  C2_3 
REMARK    1  A    between atoms: N1_2  and  N4_10 
REMARK    2  A    between atoms: C2_3  and  C3_5 
REMARK    3  A    between atoms: C3_5  and  N2_6 
REMARK    4  A    between atoms: N2_6  and  N3_7 
REMARK    5  A    between atoms: N4_10  and  N5_11 
REMARK    6  A    between atoms: N4_10  and  N6_14 
REMARK    7  A    between atoms: N7_16  and  C4_18 
REMARK    8  A    between atoms: C5_21  and  N9_22 
REMARK    9  A    between atoms: C6_27  and  N11_28 
ROOT
HETATM    1  N6  UNL     1      -8.822  21.317 -12.250  1.00  0.00    -0.192 N 
ATOM      2  H6  UNL     1      -9.003  21.343 -13.254  1.00  0.00     0.212 HD
HETATM    3  N7  UNL     1      -9.295  22.266 -11.609  1.00  0.00    -0.114 N 
ATOM      4  H7  UNL     1      -9.807  22.951 -12.164  1.00  0.00     0.207 HD
ENDROOT
BRANCH   3   5
HETATM    5  C4  UNL     1      -9.233  22.539 -10.240  1.00  0.00     0.727 A 
HETATM    6  N8  UNL     1      -9.109  23.788  -9.762  1.00  0.00    -0.020 N 
HETATM    7  C5  UNL     1      -9.053  24.046  -8.434  1.00  0.00     0.705 A 
ATOM      8  H8  UNL     1      -9.054  24.567 -10.418  1.00  0.00     0.203 HD
HETATM    9  N10 UNL     1      -9.123  23.026  -7.561  1.00  0.00    -0.022 N 
HETATM   10  C6  UNL     1      -9.249  21.759  -8.020  1.00  0.00     0.705 A 
ATOM     11  H10 UNL     1      -9.082  23.206  -6.558  1.00  0.00     0.203 HD
HETATM   12  N12 UNL     1      -9.302  21.533  -9.350  1.00  0.00    -0.020 N 
ATOM     13  H12 UNL     1      -9.397  20.575  -9.689  1.00  0.00     0.203 HD
BRANCH   7  14
HETATM   14  N9  UNL     1      -8.932  25.257  -7.988  1.00  0.00    -0.234 N 
ATOM     15  H92 UNL     1      -9.770  25.808  -7.801  1.00  0.00     0.174 HD
ATOM     16  H91 UNL     1      -8.014  25.671  -7.819  1.00  0.00     0.174 HD
ENDBRANCH   7  14
BRANCH  10  17
HETATM   17  N11 UNL     1      -9.320  20.754  -7.195  1.00  0.00    -0.234 N 
ATOM     18 2H11 UNL     1     -10.232  20.442  -6.861  1.00  0.00     0.174 HD
ATOM     19 1H11 UNL     1      -8.476  20.275  -6.880  1.00  0.00     0.174 HD
ENDBRANCH  10  17
ENDBRANCH   3   5
BRANCH   1  20
HETATM   20  N4  UNL     1      -8.092  20.238 -11.821  1.00  0.00    -0.118 N 
BRANCH  20  21
HETATM   21  N1  UNL     1      -6.741  20.411 -11.481  1.00  0.00    -0.227 N 
HETATM   22  C1  UNL     1      -5.806  20.825 -12.507  1.00  0.00     0.185 C 
HETATM   23  C2  UNL     1      -6.279  20.193 -10.178  1.00  0.00     0.257 C 
HETATM   24  O1  UNL     1      -7.076  19.836  -9.291  1.00  0.00    -0.270 OA
BRANCH  23  25
HETATM   25  C3  UNL     1      -4.859  20.378  -9.842  1.00  0.00     0.238 C 
BRANCH  25  26
HETATM   26  N2  UNL     1      -4.694  21.317  -8.743  1.00  0.00    -0.139 NA
BRANCH  26  27
HETATM   27  N3  UNL     1      -5.461  22.448  -9.027  1.00  0.00    -0.348 N 
ATOM     28  H32 UNL     1      -5.135  23.269  -9.536  1.00  0.00     0.172 HD
ATOM     29  H31 UNL     1      -6.392  22.300  -8.637  1.00  0.00     0.172 HD
ENDBRANCH  26  27
ENDBRANCH  25  26
ENDBRANCH  23  25
ENDBRANCH  20  21
BRANCH  20  30
HETATM   30  N5  UNL     1      -8.696  18.986 -11.721  1.00  0.00    -0.307 N 
ATOM     31  H52 UNL     1      -8.123  18.142 -11.737  1.00  0.00     0.180 HD
ATOM     32  H51 UNL     1      -9.709  18.901 -11.635  1.00  0.00     0.180 HD
ENDBRANCH  20  30
ENDBRANCH   1  20
TORSDOF 9
ENDMDL
MODEL 5
REMARK VINA RESULT: -7.218645520      1.837      3.561
REMARK  9 active torsions:
REMARK  status: ('A' for Active; 'I' for Inactive)
REMARK       I    between atoms: N1_2  and  C2_3 
REMARK    1  A    between atoms: N1_2  and  N4_10 
REMARK    2  A    between atoms: C2_3  and  C3_5 
REMARK    3  A    between atoms: C3_5  and  N2_6 
REMARK    4  A    between atoms: N2_6  and  N3_7 
REMARK    5  A    between atoms: N4_10  and  N5_11 
REMARK    6  A    between atoms: N4_10  and  N6_14 
REMARK    7  A    between atoms: N7_16  and  C4_18 
REMARK    8  A    between atoms: C5_21  and  N9_22 
REMARK    9  A    between atoms: C6_27  and  N11_28 
ROOT
HETATM    1  N6  UNL     1      -9.503  20.187  -9.853  1.00  0.00    -0.192 N 
ATOM      2  H6  UNL     1      -9.744  19.249  -9.530  1.00  0.00     0.212 HD
HETATM    3  N7  UNL     1      -9.807  21.102  -9.074  1.00  0.00    -0.114 N 
ATOM      4  H7  UNL     1     -10.256  20.802  -8.210  1.00  0.00     0.207 HD
ENDROOT
BRANCH   3   5
HETATM    5  C4  UNL     1      -9.626  22.481  -9.201  1.00  0.00     0.727 A 
HETATM    6  N8  UNL     1      -8.523  23.106  -8.757  1.00  0.00    -0.020 N 
HETATM    7  C5  UNL     1      -8.354  24.443  -8.887  1.00  0.00     0.705 A 
ATOM      8  H8  UNL     1      -7.791  22.557  -8.308  1.00  0.00     0.203 HD
HETATM    9  N10 UNL     1      -9.315  25.175  -9.477  1.00  0.00    -0.022 N 
HETATM   10  C6  UNL     1     -10.436  24.567  -9.932  1.00  0.00     0.705 A 
ATOM     11  H10 UNL     1      -9.201  26.183  -9.581  1.00  0.00     0.203 HD
HETATM   12  N12 UNL     1     -10.576  23.232  -9.788  1.00  0.00    -0.020 N 
ATOM     13  H12 UNL     1     -11.423  22.780 -10.134  1.00  0.00     0.203 HD
BRANCH   7  14
HETATM   14  N9  UNL     1      -7.284  25.031  -8.452  1.00  0.00    -0.234 N 
ATOM     15  H92 UNL     1      -6.370  24.705  -8.768  1.00  0.00     0.174 HD
ATOM     16  H91 UNL     1      -7.337  25.815  -7.801  1.00  0.00     0.174 HD
ENDBRANCH   7  14
BRANCH  10  17
HETATM   17  N11 UNL     1     -11.381  25.254 -10.507  1.00  0.00    -0.234 N 
ATOM     18 2H11 UNL     1     -11.470  25.232 -11.523  1.00  0.00     0.174 HD
ATOM     19 1H11 UNL     1     -12.032  25.811  -9.955  1.00  0.00     0.174 HD
ENDBRANCH  10  17
ENDBRANCH   3   5
BRANCH   1  20
HETATM   20  N4  UNL     1      -8.894  20.240 -11.080  1.00  0.00    -0.118 N 
BRANCH  20  21
HETATM   21  N1  UNL     1      -7.572  19.784 -11.214  1.00  0.00    -0.227 N 
HETATM   22  C1  UNL     1      -7.198  19.054 -12.407  1.00  0.00     0.185 C 
HETATM   23  C2  UNL     1      -6.612  20.018 -10.222  1.00  0.00     0.257 C 
HETATM   24  O1  UNL     1      -6.926  20.645  -9.193  1.00  0.00    -0.270 OA
BRANCH  23  25
HETATM   25  C3  UNL     1      -5.233  19.532 -10.380  1.00  0.00     0.238 C 
BRANCH  25  26
HETATM   26  N2  UNL     1      -4.322  20.620 -10.704  1.00  0.00    -0.139 NA
BRANCH  26  27
HETATM   27  N3  UNL     1      -5.084  21.687 -11.183  1.00  0.00    -0.348 N 
ATOM     28  H32 UNL     1      -6.100  21.755 -11.134  1.00  0.00     0.172 HD
ATOM     29  H31 UNL     1      -4.444  22.372 -11.584  1.00  0.00     0.172 HD
ENDBRANCH  26  27
ENDBRANCH  25  26
ENDBRANCH  23  25
ENDBRANCH  20  21
BRANCH  20  30
HETATM   30  N5  UNL     1      -9.589  20.737 -12.181  1.00  0.00    -0.307 N 
ATOM     31  H52 UNL     1      -9.227  20.585 -13.123  1.00  0.00     0.180 HD
ATOM     32  H51 UNL     1     -10.457  21.258 -12.057  1.00  0.00     0.180 HD
ENDBRANCH  20  30
ENDBRANCH   1  20
TORSDOF 9
ENDMDL
