MODEL 1
REMARK VINA RESULT: -8.040619418      0.000      0.000
REMARK  10 active torsions:
REMARK  status: ('A' for Active; 'I' for Inactive)
REMARK    1  A    between atoms: O1_2  and  C2_3 
REMARK    2  A    between atoms: C2_3  and  S1_5 
REMARK    3  A    between atoms: S1_5  and  N1_6 
REMARK    4  A    between atoms: S1_5  and  N2_9 
REMARK    5  A    between atoms: S1_5  and  O3_12 
REMARK    6  A    between atoms: S1_5  and  N3_14 
REMARK    7  A    between atoms: N3_14  and  N4_16 
REMARK    8  A    between atoms: N4_16  and  C3_18 
REMARK    9  A    between atoms: C4_23  and  N7_24 
REMARK   10  A    between atoms: N8_27  and  N9_28 
ROOT
HETATM    1  N3  UNL     1      -5.566  22.149  -8.864  1.00  0.00    -0.229 N 
ATOM      2  H3  UNL     1      -4.570  22.347  -8.770  1.00  0.00     0.199 HD
ENDROOT
BRANCH   1   3
HETATM    3  S1  UNL     1      -6.056  21.212 -10.191  1.00  0.00     0.107 SA
BRANCH   3   4
HETATM    4  C2  UNL     1      -5.011  19.586 -10.820  1.00  0.00     0.369 C 
HETATM    5  O2  UNL     1      -3.783  19.752 -10.768  1.00  0.00    -0.247 OA
BRANCH   4   6
HETATM    6  O1  UNL     1      -5.590  18.454 -11.249  1.00  0.00    -0.314 OA
HETATM    7  C1  UNL     1      -6.126  18.424 -12.591  1.00  0.00     0.214 C 
ENDBRANCH   4   6
ENDBRANCH   3   4
BRANCH   3   8
HETATM    8  N1  UNL     1      -7.723  21.400 -11.142  1.00  0.00    -0.343 N 
ATOM      9  H12 UNL     1      -7.928  20.915 -12.015  1.00  0.00     0.167 HD
ATOM     10  H11 UNL     1      -8.361  22.038 -10.664  1.00  0.00     0.167 HD
ENDBRANCH   3   8
BRANCH   3  11
HETATM   11  N2  UNL     1      -5.217  22.087 -11.462  1.00  0.00    -0.343 N 
ATOM     12  H22 UNL     1      -5.464  22.775 -12.173  1.00  0.00     0.167 HD
ATOM     13  H21 UNL     1      -4.382  21.587 -11.155  1.00  0.00     0.167 HD
ENDBRANCH   3  11
BRANCH   3  14
HETATM   14  O3  UNL     1      -6.887  20.099  -9.343  1.00  0.00    -0.305 OA
ATOM     15  H3  UNL     1      -6.546  20.582  -8.600  1.00  0.00     0.230 HD
ENDBRANCH   3  14
ENDBRANCH   1   3
BRANCH   1  16
HETATM   16  N4  UNL     1      -6.440  22.682  -7.869  1.00  0.00    -0.120 N 
ATOM     17  H4  UNL     1      -6.210  22.540  -6.885  1.00  0.00     0.206 HD
BRANCH  16  18
HETATM   18  C3  UNL     1      -7.613  23.399  -8.198  1.00  0.00     0.748 A 
HETATM   19  N5  UNL     1      -7.677  24.713  -8.464  1.00  0.00    -0.114 N 
HETATM   20  N6  UNL     1      -8.932  25.060  -8.733  1.00  0.00    -0.116 N 
ATOM     21  H5  UNL     1      -6.881  25.351  -8.459  1.00  0.00     0.206 HD
HETATM   22  C4  UNL     1      -9.697  23.961  -8.644  1.00  0.00     0.727 A 
ATOM     23  H6  UNL     1      -9.256  25.998  -8.967  1.00  0.00     0.206 HD
HETATM   24  N8  UNL     1      -8.865  22.940  -8.312  1.00  0.00     0.087 N 
BRANCH  22  25
HETATM   25  N7  UNL     1     -10.966  23.855  -8.829  1.00  0.00    -0.231 N 
ATOM     26  H72 UNL     1     -11.646  23.595  -8.113  1.00  0.00     0.174 HD
ATOM     27  H71 UNL     1     -11.496  24.007  -9.687  1.00  0.00     0.174 HD
ENDBRANCH  22  25
BRANCH  24  28
HETATM   28  N9  UNL     1      -9.249  21.624  -8.118  1.00  0.00    -0.309 N 
ATOM     29  H92 UNL     1      -9.647  21.245  -7.258  1.00  0.00     0.178 HD
ATOM     30  H91 UNL     1      -9.173  20.884  -8.815  1.00  0.00     0.178 HD
ENDBRANCH  24  28
ENDBRANCH  16  18
ENDBRANCH   1  16
TORSDOF 10
ENDMDL
MODEL 2
REMARK VINA RESULT: -7.997628129      1.931      2.404
REMARK  10 active torsions:
REMARK  status: ('A' for Active; 'I' for Inactive)
REMARK    1  A    between atoms: O1_2  and  C2_3 
REMARK    2  A    between atoms: C2_3  and  S1_5 
REMARK    3  A    between atoms: S1_5  and  N1_6 
REMARK    4  A    between atoms: S1_5  and  N2_9 
REMARK    5  A    between atoms: S1_5  and  O3_12 
REMARK    6  A    between atoms: S1_5  and  N3_14 
REMARK    7  A    between atoms: N3_14  and  N4_16 
REMARK    8  A    between atoms: N4_16  and  C3_18 
REMARK    9  A    between atoms: C4_23  and  N7_24 
REMARK   10  A    between atoms: N8_27  and  N9_28 
ROOT
HETATM    1  N3  UNL     1      -5.550  22.351  -9.357  1.00  0.00    -0.229 N 
ATOM      2  H3  UNL     1      -4.779  22.986  -9.567  1.00  0.00     0.199 HD
ENDROOT
BRANCH   1   3
HETATM    3  S1  UNL     1      -5.758  21.009 -10.375  1.00  0.00     0.107 SA
BRANCH   3   4
HETATM    4  C2  UNL     1      -7.406  20.775 -11.542  1.00  0.00     0.369 C 
HETATM    5  O2  UNL     1      -7.285  19.859 -12.370  1.00  0.00    -0.247 OA
BRANCH   4   6
HETATM    6  O1  UNL     1      -8.508  21.533 -11.429  1.00  0.00    -0.314 OA
HETATM    7  C1  UNL     1      -9.721  21.078 -12.070  1.00  0.00     0.214 C 
ENDBRANCH   4   6
ENDBRANCH   3   4
BRANCH   3   8
HETATM    8  N1  UNL     1      -4.430  19.659 -10.737  1.00  0.00    -0.343 N 
ATOM      9  H12 UNL     1      -3.793  19.699 -11.532  1.00  0.00     0.167 HD
ATOM     10  H11 UNL     1      -4.450  18.914 -10.040  1.00  0.00     0.167 HD
ENDBRANCH   3   8
BRANCH   3  11
HETATM   11  N2  UNL     1      -6.561  19.935  -9.242  1.00  0.00    -0.343 N 
ATOM     12  H22 UNL     1      -6.513  18.945  -9.000  1.00  0.00     0.167 HD
ATOM     13  H21 UNL     1      -7.088  20.758  -8.947  1.00  0.00     0.167 HD
ENDBRANCH   3  11
BRANCH   3  14
HETATM   14  O3  UNL     1      -5.151  21.694 -11.721  1.00  0.00    -0.305 OA
ATOM     15  H3  UNL     1      -4.613  22.166 -11.096  1.00  0.00     0.230 HD
ENDBRANCH   3  14
ENDBRANCH   1   3
BRANCH   1  16
HETATM   16  N4  UNL     1      -6.369  22.660  -8.230  1.00  0.00    -0.120 N 
ATOM     17  H4  UNL     1      -6.087  22.323  -7.309  1.00  0.00     0.206 HD
BRANCH  16  18
HETATM   18  C3  UNL     1      -7.558  23.417  -8.343  1.00  0.00     0.748 A 
HETATM   19  N5  UNL     1      -7.631  24.757  -8.374  1.00  0.00    -0.114 N 
HETATM   20  N6  UNL     1      -8.900  25.138  -8.486  1.00  0.00    -0.116 N 
ATOM     21  H5  UNL     1      -6.832  25.388  -8.319  1.00  0.00     0.206 HD
HETATM   22  C4  UNL     1      -9.665  24.036  -8.531  1.00  0.00     0.727 A 
ATOM     23  H6  UNL     1      -9.233  26.101  -8.531  1.00  0.00     0.206 HD
HETATM   24  N8  UNL     1      -8.818  22.977  -8.441  1.00  0.00     0.087 N 
BRANCH  22  25
HETATM   25  N7  UNL     1     -10.945  23.957  -8.636  1.00  0.00    -0.231 N 
ATOM     26  H72 UNL     1     -11.605  24.019  -7.860  1.00  0.00     0.174 HD
ATOM     27  H71 UNL     1     -11.503  23.824  -9.479  1.00  0.00     0.174 HD
ENDBRANCH  22  25
BRANCH  24  28
HETATM   28  N9  UNL     1      -9.196  21.645  -8.448  1.00  0.00    -0.309 N 
ATOM     29  H92 UNL     1      -8.565  20.851  -8.340  1.00  0.00     0.178 HD
ATOM     30  H91 UNL     1     -10.152  21.310  -8.564  1.00  0.00     0.178 HD
ENDBRANCH  24  28
ENDBRANCH  16  18
ENDBRANCH   1  16
TORSDOF 10
ENDMDL
MODEL 3
REMARK VINA RESULT: -7.942616823      1.026      1.301
REMARK  10 active torsions:
REMARK  status: ('A' for Active; 'I' for Inactive)
REMARK    1  A    between atoms: O1_2  and  C2_3 
REMARK    2  A    between atoms: C2_3  and  S1_5 
REMARK    3  A    between atoms: S1_5  and  N1_6 
REMARK    4  A    between atoms: S1_5  and  N2_9 
REMARK    5  A    between atoms: S1_5  and  O3_12 
REMARK    6  A    between atoms: S1_5  and  N3_14 
REMARK    7  A    between atoms: N3_14  and  N4_16 
REMARK    8  A    between atoms: N4_16  and  C3_18 
REMARK    9  A    between atoms: C4_23  and  N7_24 
REMARK   10  A    between atoms: N8_27  and  N9_28 
ROOT
HETATM    1  N3  UNL     1      -6.441  20.864  -8.995  1.00  0.00    -0.229 N 
ATOM      2  H3  UNL     1      -6.165  20.023  -8.488  1.00  0.00     0.199 HD
ENDROOT
BRANCH   1   3
HETATM    3  S1  UNL     1      -6.883  20.687 -10.624  1.00  0.00     0.107 SA
BRANCH   3   4
HETATM    4  C2  UNL     1      -6.247  19.127 -11.760  1.00  0.00     0.369 C 
HETATM    5  O2  UNL     1      -6.790  19.089 -12.875  1.00  0.00    -0.247 OA
BRANCH   4   6
HETATM    6  O1  UNL     1      -5.337  18.231 -11.346  1.00  0.00    -0.314 OA
HETATM    7  C1  UNL     1      -4.625  17.467 -12.345  1.00  0.00     0.214 C 
ENDBRANCH   4   6
ENDBRANCH   3   4
BRANCH   3   8
HETATM    8  N1  UNL     1      -8.175  21.771 -11.559  1.00  0.00    -0.343 N 
ATOM      9  H12 UNL     1      -9.179  21.720 -11.386  1.00  0.00     0.167 HD
ATOM     10  H11 UNL     1      -7.728  22.390 -12.237  1.00  0.00     0.167 HD
ENDBRANCH   3   8
BRANCH   3  11
HETATM   11  N2  UNL     1      -5.571  21.595 -11.357  1.00  0.00    -0.343 N 
ATOM     12  H22 UNL     1      -5.381  22.017 -12.266  1.00  0.00     0.167 HD
ATOM     13  H21 UNL     1      -5.098  21.498 -10.458  1.00  0.00     0.167 HD
ENDBRANCH   3  11
BRANCH   3  14
HETATM   14  O3  UNL     1      -8.166  19.718 -10.370  1.00  0.00    -0.305 OA
ATOM     15  H3  UNL     1      -8.639  20.542 -10.368  1.00  0.00     0.230 HD
ENDBRANCH   3  14
ENDBRANCH   1   3
BRANCH   1  16
HETATM   16  N4  UNL     1      -6.426  22.099  -8.279  1.00  0.00    -0.120 N 
ATOM     17  H4  UNL     1      -5.614  22.325  -7.704  1.00  0.00     0.206 HD
BRANCH  16  18
HETATM   18  C3  UNL     1      -7.497  23.020  -8.337  1.00  0.00     0.748 A 
HETATM   19  N5  UNL     1      -7.376  24.353  -8.434  1.00  0.00    -0.114 N 
HETATM   20  N6  UNL     1      -8.581  24.915  -8.465  1.00  0.00    -0.116 N 
ATOM     21  H5  UNL     1      -6.492  24.860  -8.478  1.00  0.00     0.206 HD
HETATM   22  C4  UNL     1      -9.499  23.939  -8.388  1.00  0.00     0.727 A 
ATOM     23  H6  UNL     1      -8.774  25.914  -8.535  1.00  0.00     0.206 HD
HETATM   24  N8  UNL     1      -8.812  22.770  -8.310  1.00  0.00     0.087 N 
BRANCH  22  25
HETATM   25  N7  UNL     1     -10.782  24.049  -8.386  1.00  0.00    -0.231 N 
ATOM     26  H72 UNL     1     -11.298  24.926  -8.313  1.00  0.00     0.174 HD
ATOM     27  H71 UNL     1     -11.480  23.308  -8.453  1.00  0.00     0.174 HD
ENDBRANCH  22  25
BRANCH  24  28
HETATM   28  N9  UNL     1      -9.379  21.511  -8.214  1.00  0.00    -0.309 N 
ATOM     29  H92 UNL     1      -9.273  20.762  -8.898  1.00  0.00     0.178 HD
ATOM     30  H91 UNL     1      -9.970  21.193  -7.446  1.00  0.00     0.178 HD
ENDBRANCH  24  28
ENDBRANCH  16  18
ENDBRANCH   1  16
TORSDOF 10
ENDMDL
MODEL 4
REMARK VINA RESULT: -7.917207139      2.026      3.147
REMARK  10 active torsions:
REMARK  status: ('A' for Active; 'I' for Inactive)
REMARK    1  A    between atoms: O1_2  and  C2_3 
REMARK    2  A    between atoms: C2_3  and  S1_5 
REMARK    3  A    between atoms: S1_5  and  N1_6 
REMARK    4  A    between atoms: S1_5  and  N2_9 
REMARK    5  A    between atoms: S1_5  and  O3_12 
REMARK    6  A    between atoms: S1_5  and  N3_14 
REMARK    7  A    between atoms: N3_14  and  N4_16 
REMARK    8  A    between atoms: N4_16  and  C3_18 
REMARK    9  A    between atoms: C4_23  and  N7_24 
REMARK   10  A    between atoms: N8_27  and  N9_28 
ROOT
HETATM    1  N3  UNL     1      -8.304  21.611 -11.935  1.00  0.00    -0.229 N 
ATOM      2  H3  UNL     1      -8.027  22.213 -12.710  1.00  0.00     0.199 HD
ENDROOT
BRANCH   1   3
HETATM    3  S1  UNL     1      -7.200  20.424 -11.432  1.00  0.00     0.107 SA
BRANCH   3   4
HETATM    4  C2  UNL     1      -6.346  20.444  -9.587  1.00  0.00     0.369 C 
HETATM    5  O2  UNL     1      -5.646  19.443  -9.369  1.00  0.00    -0.247 OA
BRANCH   4   6
HETATM    6  O1  UNL     1      -6.524  21.434  -8.699  1.00  0.00    -0.314 OA
HETATM    7  C1  UNL     1      -5.424  22.338  -8.452  1.00  0.00     0.214 C 
ENDBRANCH   4   6
ENDBRANCH   3   4
BRANCH   3   8
HETATM    8  N1  UNL     1      -6.759  18.819 -12.405  1.00  0.00    -0.343 N 
ATOM      9  H12 UNL     1      -7.181  17.911 -12.209  1.00  0.00     0.167 HD
ATOM     10  H11 UNL     1      -6.060  18.995 -13.127  1.00  0.00     0.167 HD
ENDBRANCH   3   8
BRANCH   3  11
HETATM   11  N2  UNL     1      -5.717  21.184 -11.989  1.00  0.00    -0.343 N 
ATOM     12  H22 UNL     1      -5.069  21.060 -12.766  1.00  0.00     0.167 HD
ATOM     13  H21 UNL     1      -5.813  21.797 -11.178  1.00  0.00     0.167 HD
ENDBRANCH   3  11
BRANCH   3  14
HETATM   14  O3  UNL     1      -8.282  19.454 -10.700  1.00  0.00    -0.305 OA
ATOM     15  H3  UNL     1      -7.849  18.781 -11.213  1.00  0.00     0.230 HD
ENDBRANCH   3  14
ENDBRANCH   1   3
BRANCH   1  16
HETATM   16  N4  UNL     1      -9.591  21.831 -11.357  1.00  0.00    -0.120 N 
ATOM     17  H4  UNL     1     -10.396  21.345 -11.750  1.00  0.00     0.206 HD
BRANCH  16  18
HETATM   18  C3  UNL     1      -9.787  22.699 -10.258  1.00  0.00     0.748 A 
HETATM   19  N5  UNL     1     -10.880  22.738  -9.480  1.00  0.00    -0.114 N 
HETATM   20  N6  UNL     1     -10.734  23.670  -8.542  1.00  0.00    -0.116 N 
ATOM     21  H5  UNL     1     -11.701  22.143  -9.592  1.00  0.00     0.206 HD
HETATM   22  C4  UNL     1      -9.532  24.244  -8.708  1.00  0.00     0.727 A 
ATOM     23  H6  UNL     1     -11.417  23.906  -7.822  1.00  0.00     0.206 HD
HETATM   24  N8  UNL     1      -8.957  23.631  -9.775  1.00  0.00     0.087 N 
BRANCH  22  25
HETATM   25  N7  UNL     1      -8.997  25.188  -8.016  1.00  0.00    -0.231 N 
ATOM     26  H72 UNL     1      -9.206  25.394  -7.039  1.00  0.00     0.174 HD
ATOM     27  H71 UNL     1      -8.297  25.869  -8.310  1.00  0.00     0.174 HD
ENDBRANCH  22  25
BRANCH  24  28
HETATM   28  N9  UNL     1      -7.706  23.924 -10.290  1.00  0.00    -0.309 N 
ATOM     29  H92 UNL     1      -6.825  23.527  -9.962  1.00  0.00     0.178 HD
ATOM     30  H91 UNL     1      -7.526  24.572 -11.056  1.00  0.00     0.178 HD
ENDBRANCH  24  28
ENDBRANCH  16  18
ENDBRANCH   1  16
TORSDOF 10
ENDMDL
MODEL 5
REMARK VINA RESULT: -7.747752916      1.957      2.280
REMARK  10 active torsions:
REMARK  status: ('A' for Active; 'I' for Inactive)
REMARK    1  A    between atoms: O1_2  and  C2_3 
REMARK    2  A    between atoms: C2_3  and  S1_5 
REMARK    3  A    between atoms: S1_5  and  N1_6 
REMARK    4  A    between atoms: S1_5  and  N2_9 
REMARK    5  A    between atoms: S1_5  and  O3_12 
REMARK    6  A    between atoms: S1_5  and  N3_14 
REMARK    7  A    between atoms: N3_14  and  N4_16 
REMARK    8  A    between atoms: N4_16  and  C3_18 
REMARK    9  A    between atoms: C4_23  and  N7_24 
REMARK   10  A    between atoms: N8_27  and  N9_28 
ROOT
HETATM    1  N3  UNL     1      -6.140  22.288  -8.310  1.00  0.00    -0.229 N 
ATOM      2  H3  UNL     1      -5.537  21.912  -7.578  1.00  0.00     0.199 HD
ENDROOT
BRANCH   1   3
HETATM    3  S1  UNL     1      -6.374  21.338  -9.697  1.00  0.00     0.107 SA
BRANCH   3   4
HETATM    4  C2  UNL     1      -8.022  20.177  -9.955  1.00  0.00     0.369 C 
HETATM    5  O2  UNL     1      -8.888  20.368  -9.087  1.00  0.00    -0.247 OA
BRANCH   4   6
HETATM    6  O1  UNL     1      -8.158  19.296 -10.958  1.00  0.00    -0.314 OA
HETATM    7  C1  UNL     1      -8.913  19.697 -12.124  1.00  0.00     0.214 C 
ENDBRANCH   4   6
ENDBRANCH   3   4
BRANCH   3   8
HETATM    8  N1  UNL     1      -5.268  21.368 -11.276  1.00  0.00    -0.343 N 
ATOM      9  H12 UNL     1      -4.906  22.227 -11.690  1.00  0.00     0.167 HD
ATOM     10  H11 UNL     1      -5.097  20.428 -11.636  1.00  0.00     0.167 HD
ENDBRANCH   3   8
BRANCH   3  11
HETATM   11  N2  UNL     1      -5.579  19.869  -9.153  1.00  0.00    -0.343 N 
ATOM     12  H22 UNL     1      -5.362  18.955  -9.549  1.00  0.00     0.167 HD
ATOM     13  H21 UNL     1      -5.441  20.358  -8.268  1.00  0.00     0.167 HD
ENDBRANCH   3  11
BRANCH   3  14
HETATM   14  O3  UNL     1      -7.255  22.424 -10.527  1.00  0.00    -0.305 OA
ATOM     15  H3  UNL     1      -6.440  22.550 -10.998  1.00  0.00     0.230 HD
ENDBRANCH   3  14
ENDBRANCH   1   3
BRANCH   1  16
HETATM   16  N4  UNL     1      -6.722  23.572  -8.089  1.00  0.00    -0.120 N 
ATOM     17  H4  UNL     1      -6.223  24.245  -7.506  1.00  0.00     0.206 HD
BRANCH  16  18
HETATM   18  C3  UNL     1      -7.965  23.946  -8.649  1.00  0.00     0.748 A 
HETATM   19  N5  UNL     1      -8.139  24.825  -9.648  1.00  0.00    -0.114 N 
HETATM   20  N6  UNL     1      -9.434  24.942  -9.927  1.00  0.00    -0.116 N 
ATOM     21  H5  UNL     1      -7.390  25.327 -10.123  1.00  0.00     0.206 HD
HETATM   22  C4  UNL     1     -10.114  24.130  -9.102  1.00  0.00     0.727 A 
ATOM     23  H6  UNL     1      -9.840  25.544 -10.643  1.00  0.00     0.206 HD
HETATM   24  N8  UNL     1      -9.189  23.520  -8.316  1.00  0.00     0.087 N 
BRANCH  22  25
HETATM   25  N7  UNL     1     -11.385  23.942  -9.037  1.00  0.00    -0.231 N 
ATOM     26  H72 UNL     1     -12.061  24.229  -9.745  1.00  0.00     0.174 HD
ATOM     27  H71 UNL     1     -11.921  23.489  -8.296  1.00  0.00     0.174 HD
ENDBRANCH  22  25
BRANCH  24  28
HETATM   28  N9  UNL     1      -9.466  22.599  -7.320  1.00  0.00    -0.309 N 
ATOM     29  H92 UNL     1      -8.807  21.914  -6.948  1.00  0.00     0.178 HD
ATOM     30  H91 UNL     1     -10.364  22.502  -6.847  1.00  0.00     0.178 HD
ENDBRANCH  24  28
ENDBRANCH  16  18
ENDBRANCH   1  16
TORSDOF 10
ENDMDL
