MODEL 1
REMARK VINA RESULT: -7.177304391      0.000      0.000
REMARK  8 active torsions:
REMARK  status: ('A' for Active; 'I' for Inactive)
REMARK    1  A    between atoms: O1_2  and  C2_3 
REMARK    2  A    between atoms: C7_8  and  C8_9 
REMARK    3  A    between atoms: C8_9  and  O2_10 
REMARK    4  A    between atoms: O2_10  and  C9_11 
REMARK    5  A    between atoms: C9_11  and  C12_14 
REMARK    6  A    between atoms: C15_19  and  N2_20 
REMARK    7  A    between atoms: C16_25  and  N4_26 
REMARK    8  A    between atoms: C17_29  and  O3_30 
ROOT
HETATM    1  C9  UNL     1      89.188  72.305  31.072  1.00  0.00     0.086 C 
HETATM    2  C10 UNL     1      89.323  71.876  32.494  1.00  0.00     0.051 C 
HETATM    3  C11 UNL     1      89.167  71.199  30.045  1.00  0.00     0.051 C 
ENDROOT
BRANCH   1   4
HETATM    4  O2  UNL     1      90.420  72.970  30.792  1.00  0.00    -0.371 OA
BRANCH   4   5
HETATM    5  C8  UNL     1      91.123  72.225  29.861  1.00  0.00     0.210 C 
BRANCH   5   6
HETATM    6  C7  UNL     1      92.422  71.732  30.314  1.00  0.00     0.002 A 
HETATM    7  C6  UNL     1      93.047  72.033  31.504  1.00  0.00     0.019 A 
HETATM    8  C4  UNL     1      94.295  71.499  31.833  1.00  0.00    -0.059 A 
HETATM    9  C3  UNL     1      94.943  70.645  30.965  1.00  0.00     0.046 A 
HETATM   10  C5  UNL     1      94.969  71.820  33.107  1.00  0.00     0.048 C 
HETATM   11  C2  UNL     1      94.333  70.334  29.775  1.00  0.00     0.102 A 
HETATM   12  C17 UNL     1      93.104  70.874  29.476  1.00  0.00     0.110 A 
BRANCH  11  13
HETATM   13  O1  UNL     1      94.970  69.482  28.900  1.00  0.00    -0.353 OA
HETATM   14  C1  UNL     1      95.797  68.466  29.421  1.00  0.00     0.210 C 
ENDBRANCH  11  13
BRANCH  12  15
HETATM   15  O3  UNL     1      92.525  70.537  28.269  1.00  0.00    -0.352 OA
HETATM   16  C18 UNL     1      91.825  69.309  28.187  1.00  0.00     0.210 C 
ENDBRANCH  12  15
ENDBRANCH   5   6
ENDBRANCH   4   5
ENDBRANCH   1   4
BRANCH   1  17
HETATM   17  C12 UNL     1      88.056  73.196  30.816  1.00  0.00     0.042 A 
HETATM   18  C13 UNL     1      86.803  72.692  30.637  1.00  0.00     0.035 A 
HETATM   19  C14 UNL     1      86.461  71.300  30.691  1.00  0.00     0.069 C 
HETATM   20  N1  UNL     1      85.791  73.570  30.397  1.00  0.00    -0.195 N 
HETATM   21  C15 UNL     1      85.937  74.883  30.322  1.00  0.00     0.677 A 
ATOM     22  H1  UNL     1      84.853  73.189  30.265  1.00  0.00     0.184 HD
HETATM   23  N3  UNL     1      87.144  75.399  30.492  1.00  0.00    -0.177 N 
HETATM   24  C16 UNL     1      88.204  74.590  30.735  1.00  0.00     0.126 A 
ATOM     25  H3  UNL     1      87.277  76.409  30.440  1.00  0.00     0.185 HD
BRANCH  21  26
HETATM   26  N2  UNL     1      84.912  75.646  30.088  1.00  0.00    -0.234 N 
ATOM     27  H22 UNL     1      83.975  75.253  30.002  1.00  0.00     0.174 HD
ATOM     28  H21 UNL     1      85.032  76.654  29.984  1.00  0.00     0.174 HD
ENDBRANCH  21  26
BRANCH  24  29
HETATM   29  N4  UNL     1      89.350  75.111  30.893  1.00  0.00    -0.384 N 
ATOM     30  H42 UNL     1      89.431  75.975  31.429  1.00  0.00     0.157 HD
ATOM     31  H41 UNL     1      90.169  74.662  30.485  1.00  0.00     0.157 HD
ENDBRANCH  24  29
ENDBRANCH   1  17
TORSDOF 8
ENDMDL
MODEL 2
REMARK VINA RESULT: -7.047174862      1.076      1.241
REMARK  8 active torsions:
REMARK  status: ('A' for Active; 'I' for Inactive)
REMARK    1  A    between atoms: O1_2  and  C2_3 
REMARK    2  A    between atoms: C7_8  and  C8_9 
REMARK    3  A    between atoms: C8_9  and  O2_10 
REMARK    4  A    between atoms: O2_10  and  C9_11 
REMARK    5  A    between atoms: C9_11  and  C12_14 
REMARK    6  A    between atoms: C15_19  and  N2_20 
REMARK    7  A    between atoms: C16_25  and  N4_26 
REMARK    8  A    between atoms: C17_29  and  O3_30 
ROOT
HETATM    1  C9  UNL     1      90.134  72.090  31.373  1.00  0.00     0.086 C 
HETATM    2  C10 UNL     1      90.126  71.665  32.803  1.00  0.00     0.051 C 
HETATM    3  C11 UNL     1      90.252  70.982  30.355  1.00  0.00     0.051 C 
ENDROOT
BRANCH   1   4
HETATM    4  O2  UNL     1      91.370  72.787  31.225  1.00  0.00    -0.371 OA
BRANCH   4   5
HETATM    5  C8  UNL     1      92.210  72.032  30.424  1.00  0.00     0.210 C 
BRANCH   5   6
HETATM    6  C7  UNL     1      93.432  71.564  31.076  1.00  0.00     0.002 A 
HETATM    7  C6  UNL     1      93.896  71.932  32.319  1.00  0.00     0.019 A 
HETATM    8  C4  UNL     1      95.082  71.415  32.844  1.00  0.00    -0.059 A 
HETATM    9  C3  UNL     1      95.831  70.509  32.122  1.00  0.00     0.046 A 
HETATM   10  C5  UNL     1      95.583  71.809  34.176  1.00  0.00     0.048 C 
HETATM   11  C2  UNL     1      95.383  70.130  30.881  1.00  0.00     0.102 A 
HETATM   12  C17 UNL     1      94.211  70.655  30.388  1.00  0.00     0.110 A 
BRANCH  11  13
HETATM   13  O1  UNL     1      96.122  69.226  30.150  1.00  0.00    -0.353 OA
HETATM   14  C1  UNL     1      96.505  68.013  30.758  1.00  0.00     0.210 C 
ENDBRANCH  11  13
BRANCH  12  15
HETATM   15  O3  UNL     1      93.795  70.249  29.137  1.00  0.00    -0.352 OA
HETATM   16  C18 UNL     1      93.144  68.997  29.026  1.00  0.00     0.210 C 
ENDBRANCH  12  15
ENDBRANCH   5   6
ENDBRANCH   4   5
ENDBRANCH   1   4
BRANCH   1  17
HETATM   17  C12 UNL     1      89.013  72.949  30.993  1.00  0.00     0.042 A 
HETATM   18  C13 UNL     1      87.811  72.410  30.645  1.00  0.00     0.035 A 
HETATM   19  C14 UNL     1      87.515  71.006  30.625  1.00  0.00     0.069 C 
HETATM   20  N1  UNL     1      86.807  73.260  30.296  1.00  0.00    -0.195 N 
HETATM   21  C15 UNL     1      86.915  74.579  30.268  1.00  0.00     0.677 A 
ATOM     22  H1  UNL     1      85.908  72.852  30.037  1.00  0.00     0.184 HD
HETATM   23  N3  UNL     1      88.072  75.129  30.602  1.00  0.00    -0.177 N 
HETATM   24  C16 UNL     1      89.120  74.349  30.962  1.00  0.00     0.126 A 
ATOM     25  H3  UNL     1      88.174  76.144  30.589  1.00  0.00     0.185 HD
BRANCH  21  26
HETATM   26  N2  UNL     1      85.902  75.314  29.921  1.00  0.00    -0.234 N 
ATOM     27  H22 UNL     1      84.978  74.903  29.790  1.00  0.00     0.174 HD
ATOM     28  H21 UNL     1      86.019  76.317  29.773  1.00  0.00     0.174 HD
ENDBRANCH  21  26
BRANCH  24  29
HETATM   29  N4  UNL     1      90.217  74.903  31.277  1.00  0.00    -0.384 N 
ATOM     30  H42 UNL     1      90.474  74.966  32.262  1.00  0.00     0.157 HD
ATOM     31  H41 UNL     1      90.824  75.273  30.546  1.00  0.00     0.157 HD
ENDBRANCH  24  29
ENDBRANCH   1  17
TORSDOF 8
ENDMDL
MODEL 3
REMARK VINA RESULT: -6.731973161      1.556      2.366
REMARK  8 active torsions:
REMARK  status: ('A' for Active; 'I' for Inactive)
REMARK    1  A    between atoms: O1_2  and  C2_3 
REMARK    2  A    between atoms: C7_8  and  C8_9 
REMARK    3  A    between atoms: C8_9  and  O2_10 
REMARK    4  A    between atoms: O2_10  and  C9_11 
REMARK    5  A    between atoms: C9_11  and  C12_14 
REMARK    6  A    between atoms: C15_19  and  N2_20 
REMARK    7  A    between atoms: C16_25  and  N4_26 
REMARK    8  A    between atoms: C17_29  and  O3_30 
ROOT
HETATM    1  C9  UNL     1      90.589  71.759  30.352  1.00  0.00     0.086 C 
HETATM    2  C10 UNL     1      90.398  70.622  31.299  1.00  0.00     0.051 C 
HETATM    3  C11 UNL     1      90.954  71.386  28.936  1.00  0.00     0.051 C 
ENDROOT
BRANCH   1   4
HETATM    4  O2  UNL     1      91.770  72.407  30.822  1.00  0.00    -0.371 OA
BRANCH   4   5
HETATM    5  C8  UNL     1      92.856  71.910  30.121  1.00  0.00     0.210 C 
BRANCH   5   6
HETATM    6  C7  UNL     1      93.952  71.411  30.950  1.00  0.00     0.002 A 
HETATM    7  C6  UNL     1      94.266  71.812  32.229  1.00  0.00     0.019 A 
HETATM    8  C4  UNL     1      95.343  71.262  32.928  1.00  0.00    -0.059 A 
HETATM    9  C3  UNL     1      96.130  70.289  32.349  1.00  0.00     0.046 A 
HETATM   10  C5  UNL     1      95.682  71.690  34.300  1.00  0.00     0.048 C 
HETATM   11  C2  UNL     1      95.831  69.877  31.075  1.00  0.00     0.102 A 
HETATM   12  C17 UNL     1      94.765  70.436  30.409  1.00  0.00     0.110 A 
BRANCH  11  13
HETATM   13  O1  UNL     1      96.611  68.906  30.485  1.00  0.00    -0.353 OA
HETATM   14  C1  UNL     1      96.619  67.611  31.043  1.00  0.00     0.210 C 
ENDBRANCH  11  13
BRANCH  12  15
HETATM   15  O3  UNL     1      94.499  69.995  29.128  1.00  0.00    -0.352 OA
HETATM   16  C18 UNL     1      93.720  68.822  28.978  1.00  0.00     0.210 C 
ENDBRANCH  12  15
ENDBRANCH   5   6
ENDBRANCH   4   5
ENDBRANCH   1   4
BRANCH   1  17
HETATM   17  C12 UNL     1      89.471  72.701  30.308  1.00  0.00     0.042 A 
HETATM   18  C13 UNL     1      89.548  73.900  30.951  1.00  0.00     0.035 A 
HETATM   19  C14 UNL     1      90.684  74.363  31.696  1.00  0.00     0.069 C 
HETATM   20  N1  UNL     1      88.473  74.733  30.879  1.00  0.00    -0.195 N 
HETATM   21  C15 UNL     1      87.354  74.459  30.229  1.00  0.00     0.677 A 
ATOM     22  H1  UNL     1      88.536  75.631  31.360  1.00  0.00     0.184 HD
HETATM   23  N3  UNL     1      87.252  73.301  29.596  1.00  0.00    -0.177 N 
HETATM   24  C16 UNL     1      88.280  72.418  29.620  1.00  0.00     0.126 A 
ATOM     25  H3  UNL     1      86.398  73.073  29.087  1.00  0.00     0.185 HD
BRANCH  21  26
HETATM   26  N2  UNL     1      86.377  75.316  30.214  1.00  0.00    -0.234 N 
ATOM     27  H22 UNL     1      85.535  75.140  29.666  1.00  0.00     0.174 HD
ATOM     28  H21 UNL     1      86.441  76.181  30.751  1.00  0.00     0.174 HD
ENDBRANCH  21  26
BRANCH  24  29
HETATM   29  N4  UNL     1      88.156  71.315  29.006  1.00  0.00    -0.384 N 
ATOM     30  H42 UNL     1      88.640  70.492  29.366  1.00  0.00     0.157 HD
ATOM     31  H41 UNL     1      87.578  71.266  28.168  1.00  0.00     0.157 HD
ENDBRANCH  24  29
ENDBRANCH   1  17
TORSDOF 8
ENDMDL
MODEL 4
REMARK VINA RESULT: -6.639435154      3.077      3.851
REMARK  8 active torsions:
REMARK  status: ('A' for Active; 'I' for Inactive)
REMARK    1  A    between atoms: O1_2  and  C2_3 
REMARK    2  A    between atoms: C7_8  and  C8_9 
REMARK    3  A    between atoms: C8_9  and  O2_10 
REMARK    4  A    between atoms: O2_10  and  C9_11 
REMARK    5  A    between atoms: C9_11  and  C12_14 
REMARK    6  A    between atoms: C15_19  and  N2_20 
REMARK    7  A    between atoms: C16_25  and  N4_26 
REMARK    8  A    between atoms: C17_29  and  O3_30 
ROOT
HETATM    1  C9  UNL     1      87.483  70.820  30.881  1.00  0.00     0.086 C 
HETATM    2  C10 UNL     1      86.675  69.570  30.978  1.00  0.00     0.051 C 
HETATM    3  C11 UNL     1      88.446  70.898  29.722  1.00  0.00     0.051 C 
ENDROOT
BRANCH   1   4
HETATM    4  O2  UNL     1      88.354  70.759  32.010  1.00  0.00    -0.371 OA
BRANCH   4   5
HETATM    5  C8  UNL     1      89.566  70.227  31.605  1.00  0.00     0.210 C 
BRANCH   5   6
HETATM    6  C7  UNL     1      90.053  69.109  32.411  1.00  0.00     0.002 A 
HETATM    7  C6  UNL     1      89.308  68.316  33.256  1.00  0.00     0.019 A 
HETATM    8  C4  UNL     1      89.884  67.270  33.979  1.00  0.00    -0.059 A 
HETATM    9  C3  UNL     1      91.231  66.998  33.866  1.00  0.00     0.046 A 
HETATM   10  C5  UNL     1      89.088  66.419  34.886  1.00  0.00     0.048 C 
HETATM   11  C2  UNL     1      91.989  67.778  33.029  1.00  0.00     0.102 A 
HETATM   12  C17 UNL     1      91.396  68.802  32.327  1.00  0.00     0.110 A 
BRANCH  11  13
HETATM   13  O1  UNL     1      93.336  67.516  32.907  1.00  0.00    -0.353 OA
HETATM   14  C1  UNL     1      94.154  67.622  34.050  1.00  0.00     0.210 C 
ENDBRANCH  11  13
BRANCH  12  15
HETATM   15  O3  UNL     1      92.193  69.564  31.497  1.00  0.00    -0.352 OA
HETATM   16  C18 UNL     1      92.904  70.647  32.067  1.00  0.00     0.210 C 
ENDBRANCH  12  15
ENDBRANCH   5   6
ENDBRANCH   4   5
ENDBRANCH   1   4
BRANCH   1  17
HETATM   17  C12 UNL     1      86.694  72.051  30.910  1.00  0.00     0.042 A 
HETATM   18  C13 UNL     1      85.406  72.061  30.465  1.00  0.00     0.035 A 
HETATM   19  C14 UNL     1      84.704  70.919  29.954  1.00  0.00     0.069 C 
HETATM   20  N1  UNL     1      84.724  73.239  30.511  1.00  0.00    -0.195 N 
HETATM   21  C15 UNL     1      85.224  74.379  30.958  1.00  0.00     0.677 A 
ATOM     22  H1  UNL     1      83.760  73.242  30.178  1.00  0.00     0.184 HD
HETATM   23  N3  UNL     1      86.473  74.397  31.398  1.00  0.00    -0.177 N 
HETATM   24  C16 UNL     1      87.217  73.265  31.384  1.00  0.00     0.126 A 
ATOM     25  H3  UNL     1      86.875  75.267  31.748  1.00  0.00     0.185 HD
BRANCH  21  26
HETATM   26  N2  UNL     1      84.498  75.457  30.966  1.00  0.00    -0.234 N 
ATOM     27  H22 UNL     1      84.873  76.343  30.629  1.00  0.00     0.174 HD
ATOM     28  H21 UNL     1      83.539  75.430  31.314  1.00  0.00     0.174 HD
ENDBRANCH  21  26
BRANCH  24  29
HETATM   29  N4  UNL     1      88.412  73.311  31.810  1.00  0.00    -0.384 N 
ATOM     30  H42 UNL     1      88.811  72.483  32.251  1.00  0.00     0.157 HD
ATOM     31  H41 UNL     1      88.953  74.169  31.705  1.00  0.00     0.157 HD
ENDBRANCH  24  29
ENDBRANCH   1  17
TORSDOF 8
ENDMDL
MODEL 5
REMARK VINA RESULT: -6.595562854      4.032      8.289
REMARK  8 active torsions:
REMARK  status: ('A' for Active; 'I' for Inactive)
REMARK    1  A    between atoms: O1_2  and  C2_3 
REMARK    2  A    between atoms: C7_8  and  C8_9 
REMARK    3  A    between atoms: C8_9  and  O2_10 
REMARK    4  A    between atoms: O2_10  and  C9_11 
REMARK    5  A    between atoms: C9_11  and  C12_14 
REMARK    6  A    between atoms: C15_19  and  N2_20 
REMARK    7  A    between atoms: C16_25  and  N4_26 
REMARK    8  A    between atoms: C17_29  and  O3_30 
ROOT
HETATM    1  C9  UNL     1      87.781  69.902  28.950  1.00  0.00     0.086 C 
HETATM    2  C10 UNL     1      87.472  69.237  27.651  1.00  0.00     0.051 C 
HETATM    3  C11 UNL     1      87.557  69.069  30.189  1.00  0.00     0.051 C 
ENDROOT
BRANCH   1   4
HETATM    4  O2  UNL     1      86.784  70.915  29.067  1.00  0.00    -0.371 OA
BRANCH   4   5
HETATM    5  C8  UNL     1      85.579  70.315  29.390  1.00  0.00     0.210 C 
BRANCH   5   6
HETATM    6  C7  UNL     1      84.757  71.050  30.350  1.00  0.00     0.002 A 
HETATM    7  C6  UNL     1      85.057  72.259  30.934  1.00  0.00     0.019 A 
HETATM    8  C4  UNL     1      84.190  72.872  31.842  1.00  0.00    -0.059 A 
HETATM    9  C3  UNL     1      82.994  72.274  32.181  1.00  0.00     0.046 A 
HETATM   10  C5  UNL     1      84.510  74.169  32.472  1.00  0.00     0.048 C 
HETATM   11  C2  UNL     1      82.679  71.068  31.607  1.00  0.00     0.102 A 
HETATM   12  C17 UNL     1      83.551  70.487  30.716  1.00  0.00     0.110 A 
BRANCH  11  13
HETATM   13  O1  UNL     1      81.487  70.461  31.937  1.00  0.00    -0.353 OA
HETATM   14  C1  UNL     1      80.411  71.266  32.365  1.00  0.00     0.210 C 
ENDBRANCH  11  13
BRANCH  12  15
HETATM   15  O3  UNL     1      83.197  69.274  30.161  1.00  0.00    -0.352 OA
HETATM   16  C18 UNL     1      83.438  68.102  30.918  1.00  0.00     0.210 C 
ENDBRANCH  12  15
ENDBRANCH   5   6
ENDBRANCH   4   5
ENDBRANCH   1   4
BRANCH   1  17
HETATM   17  C12 UNL     1      89.119  70.489  29.024  1.00  0.00     0.042 A 
HETATM   18  C13 UNL     1      90.228  69.712  28.872  1.00  0.00     0.035 A 
HETATM   19  C14 UNL     1      90.214  68.300  28.620  1.00  0.00     0.069 C 
HETATM   20  N1  UNL     1      91.445  70.315  28.956  1.00  0.00    -0.195 N 
HETATM   21  C15 UNL     1      91.630  71.606  29.178  1.00  0.00     0.677 A 
ATOM     22  H1  UNL     1      92.273  69.730  28.840  1.00  0.00     0.184 HD
HETATM   23  N3  UNL     1      90.570  72.384  29.329  1.00  0.00    -0.177 N 
HETATM   24  C16 UNL     1      89.323  71.859  29.259  1.00  0.00     0.126 A 
ATOM     25  H3  UNL     1      90.693  73.382  29.499  1.00  0.00     0.185 HD
BRANCH  21  26
HETATM   26  N2  UNL     1      92.832  72.096  29.243  1.00  0.00    -0.234 N 
ATOM     27  H22 UNL     1      93.610  71.639  28.768  1.00  0.00     0.174 HD
ATOM     28  H21 UNL     1      93.014  72.947  29.775  1.00  0.00     0.174 HD
ENDBRANCH  21  26
BRANCH  24  29
HETATM   29  N4  UNL     1      88.324  72.626  29.409  1.00  0.00    -0.384 N 
ATOM     30  H42 UNL     1      87.584  72.617  28.707  1.00  0.00     0.157 HD
ATOM     31  H41 UNL     1      88.275  73.238  30.223  1.00  0.00     0.157 HD
ENDBRANCH  24  29
ENDBRANCH   1  17
TORSDOF 8
ENDMDL
