MODEL 1
REMARK VINA RESULT: -7.476852883      0.000      0.000
REMARK  7 active torsions:
REMARK  status: ('A' for Active; 'I' for Inactive)
REMARK    1  A    between atoms: C4_6  and  O1_7 
REMARK    2  A    between atoms: C7_11  and  C8_12 
REMARK    3  A    between atoms: C8_12  and  O3_14 
REMARK    4  A    between atoms: O3_14  and  C9_15 
REMARK    5  A    between atoms: C9_15  and  C10_16 
REMARK    6  A    between atoms: C10_16  and  C11_17 
REMARK    7  A    between atoms: C11_17  and  C12_18 
ROOT
HETATM    1  C1  UNL     1      83.897  74.199  32.068  1.00  0.00     0.038 C 
HETATM    2  C2  UNL     1      84.833  73.163  31.582  1.00  0.00    -0.004 C 
HETATM    3  C3  UNL     1      86.059  73.500  31.247  1.00  0.00     0.037 C 
HETATM    4  N1  UNL     1      86.777  74.722  31.232  1.00  0.00    -0.363 N 
ATOM      5  H1  UNL     1      86.716  75.608  31.735  1.00  0.00     0.162 HD
HETATM    6  C4  UNL     1      87.635  74.173  30.196  1.00  0.00     0.254 C 
HETATM    7  C5  UNL     1      87.271  72.830  30.737  1.00  0.00     0.150 C 
HETATM    8  C6  UNL     1      88.193  72.334  31.774  1.00  0.00     0.027 C 
HETATM    9  C7  UNL     1      88.801  71.132  31.735  1.00  0.00     0.042 C 
HETATM   10  C14 UNL     1      88.491  70.297  30.563  1.00  0.00     0.079 C 
HETATM   11  C15 UNL     1      89.485  69.259  30.194  1.00  0.00     0.033 C 
HETATM   12  C16 UNL     1      89.000  67.834  30.490  1.00  0.00     0.002 C 
HETATM   13  C17 UNL     1      87.831  67.486  29.594  1.00  0.00     0.000 C 
HETATM   14  C18 UNL     1      86.896  68.686  29.606  1.00  0.00     0.002 C 
HETATM   15  C19 UNL     1      87.161  69.581  30.768  1.00  0.00     0.033 C 
HETATM   16  N2  UNL     1      88.257  71.231  29.439  1.00  0.00    -0.131 NA
HETATM   17  N3  UNL     1      87.041  71.852  29.692  1.00  0.00    -0.122 NA
ENDROOT
BRANCH   6  18
HETATM   18  O1  UNL     1      87.163  74.385  28.898  1.00  0.00    -0.374 OA
ATOM     19  H1  UNL     1      86.581  73.702  28.585  1.00  0.00     0.212 HD
ENDBRANCH   6  18
BRANCH   9  20
HETATM   20  C8  UNL     1      89.683  70.787  32.836  1.00  0.00     0.291 C 
HETATM   21  O2  UNL     1      89.179  70.411  33.935  1.00  0.00    -0.260 OA
BRANCH  20  22
HETATM   22  O3  UNL     1      91.052  70.831  32.791  1.00  0.00    -0.318 OA
BRANCH  22  23
HETATM   23  C9  UNL     1      91.821  71.947  32.445  1.00  0.00     0.179 C 
BRANCH  23  24
HETATM   24  C10 UNL     1      93.112  71.687  31.784  1.00  0.00     0.027 C 
BRANCH  24  25
HETATM   25  C11 UNL     1      93.171  72.004  30.322  1.00  0.00     0.002 C 
BRANCH  25  26
HETATM   26  C12 UNL     1      91.839  72.415  29.748  1.00  0.00    -0.004 C 
HETATM   27  C13 UNL     1      91.539  71.697  28.450  1.00  0.00     0.005 C 
ENDBRANCH  25  26
ENDBRANCH  24  25
ENDBRANCH  23  24
ENDBRANCH  22  23
ENDBRANCH  20  22
ENDBRANCH   9  20
TORSDOF 7
ENDMDL
MODEL 2
REMARK VINA RESULT: -7.295103037      0.935      1.310
REMARK  7 active torsions:
REMARK  status: ('A' for Active; 'I' for Inactive)
REMARK    1  A    between atoms: C4_6  and  O1_7 
REMARK    2  A    between atoms: C7_11  and  C8_12 
REMARK    3  A    between atoms: C8_12  and  O3_14 
REMARK    4  A    between atoms: O3_14  and  C9_15 
REMARK    5  A    between atoms: C9_15  and  C10_16 
REMARK    6  A    between atoms: C10_16  and  C11_17 
REMARK    7  A    between atoms: C11_17  and  C12_18 
ROOT
HETATM    1  C1  UNL     1      83.647  73.345  31.687  1.00  0.00     0.038 C 
HETATM    2  C2  UNL     1      84.831  72.585  31.234  1.00  0.00    -0.004 C 
HETATM    3  C3  UNL     1      85.978  73.206  31.070  1.00  0.00     0.037 C 
HETATM    4  N1  UNL     1      86.406  74.547  31.233  1.00  0.00    -0.363 N 
ATOM      5  H1  UNL     1      86.103  75.345  31.792  1.00  0.00     0.162 HD
HETATM    6  C4  UNL     1      87.460  74.300  30.263  1.00  0.00     0.254 C 
HETATM    7  C5  UNL     1      87.352  72.862  30.653  1.00  0.00     0.150 C 
HETATM    8  C6  UNL     1      88.257  72.471  31.748  1.00  0.00     0.027 C 
HETATM    9  C7  UNL     1      89.116  71.435  31.687  1.00  0.00     0.042 C 
HETATM   10  C14 UNL     1      89.113  70.675  30.426  1.00  0.00     0.079 C 
HETATM   11  C15 UNL     1      90.343  69.914  30.096  1.00  0.00     0.033 C 
HETATM   12  C16 UNL     1      90.158  68.396  30.223  1.00  0.00     0.002 C 
HETATM   13  C17 UNL     1      89.187  67.900  29.173  1.00  0.00     0.000 C 
HETATM   14  C18 UNL     1      88.013  68.868  29.170  1.00  0.00     0.002 C 
HETATM   15  C19 UNL     1      87.961  69.677  30.421  1.00  0.00     0.033 C 
HETATM   16  N2  UNL     1      88.787  71.647  29.358  1.00  0.00    -0.131 NA
HETATM   17  N3  UNL     1      87.445  71.967  29.517  1.00  0.00    -0.122 NA
ENDROOT
BRANCH   6  18
HETATM   18  O1  UNL     1      87.079  74.536  28.940  1.00  0.00    -0.374 OA
ATOM     19  H1  UNL     1      86.924  75.452  28.742  1.00  0.00     0.212 HD
ENDBRANCH   6  18
BRANCH   9  20
HETATM   20  C8  UNL     1      89.943  71.175  32.852  1.00  0.00     0.291 C 
HETATM   21  O2  UNL     1      89.424  70.619  33.865  1.00  0.00    -0.260 OA
BRANCH  20  22
HETATM   22  O3  UNL     1      91.273  71.486  32.959  1.00  0.00    -0.318 OA
BRANCH  22  23
HETATM   23  C9  UNL     1      91.978  72.354  32.117  1.00  0.00     0.179 C 
BRANCH  23  24
HETATM   24  C10 UNL     1      93.289  71.890  31.629  1.00  0.00     0.027 C 
BRANCH  24  25
HETATM   25  C11 UNL     1      93.478  71.916  30.145  1.00  0.00     0.002 C 
BRANCH  25  26
HETATM   26  C12 UNL     1      94.495  70.916  29.656  1.00  0.00    -0.004 C 
HETATM   27  C13 UNL     1      95.341  70.372  30.787  1.00  0.00     0.005 C 
ENDBRANCH  25  26
ENDBRANCH  24  25
ENDBRANCH  23  24
ENDBRANCH  22  23
ENDBRANCH  20  22
ENDBRANCH   9  20
TORSDOF 7
ENDMDL
MODEL 3
REMARK VINA RESULT: -7.274771783      1.668      3.405
REMARK  7 active torsions:
REMARK  status: ('A' for Active; 'I' for Inactive)
REMARK    1  A    between atoms: C4_6  and  O1_7 
REMARK    2  A    between atoms: C7_11  and  C8_12 
REMARK    3  A    between atoms: C8_12  and  O3_14 
REMARK    4  A    between atoms: O3_14  and  C9_15 
REMARK    5  A    between atoms: C9_15  and  C10_16 
REMARK    6  A    between atoms: C10_16  and  C11_17 
REMARK    7  A    between atoms: C11_17  and  C12_18 
ROOT
HETATM    1  C1  UNL     1      83.540  73.285  31.334  1.00  0.00     0.038 C 
HETATM    2  C2  UNL     1      84.713  72.467  30.957  1.00  0.00    -0.004 C 
HETATM    3  C3  UNL     1      85.908  73.015  30.937  1.00  0.00     0.037 C 
HETATM    4  N1  UNL     1      86.401  74.314  31.212  1.00  0.00    -0.363 N 
ATOM      5  H1  UNL     1      86.096  75.104  31.782  1.00  0.00     0.162 HD
HETATM    6  C4  UNL     1      87.529  74.042  30.336  1.00  0.00     0.254 C 
HETATM    7  C5  UNL     1      87.291  72.598  30.636  1.00  0.00     0.150 C 
HETATM    8  C6  UNL     1      88.057  72.094  31.790  1.00  0.00     0.027 C 
HETATM    9  C7  UNL     1      88.850  71.006  31.755  1.00  0.00     0.042 C 
HETATM   10  C14 UNL     1      88.923  70.309  30.461  1.00  0.00     0.079 C 
HETATM   11  C15 UNL     1      90.129  69.481  30.209  1.00  0.00     0.033 C 
HETATM   12  C16 UNL     1      89.836  67.976  30.235  1.00  0.00     0.002 C 
HETATM   13  C17 UNL     1      88.945  67.598  29.073  1.00  0.00     0.000 C 
HETATM   14  C18 UNL     1      87.841  68.643  29.009  1.00  0.00     0.002 C 
HETATM   15  C19 UNL     1      87.716  69.393  30.291  1.00  0.00     0.033 C 
HETATM   16  N2  UNL     1      88.767  71.350  29.420  1.00  0.00    -0.131 NA
HETATM   17  N3  UNL     1      87.439  71.754  29.467  1.00  0.00    -0.122 NA
ENDROOT
BRANCH   6  18
HETATM   18  O1  UNL     1      87.296  74.366  28.997  1.00  0.00    -0.374 OA
ATOM     19  H1  UNL     1      88.061  74.702  28.545  1.00  0.00     0.212 HD
ENDBRANCH   6  18
BRANCH   9  20
HETATM   20  C8  UNL     1      89.539  70.635  32.979  1.00  0.00     0.291 C 
HETATM   21  O2  UNL     1      90.644  71.187  33.257  1.00  0.00    -0.260 OA
BRANCH  20  22
HETATM   22  O3  UNL     1      89.087  69.714  33.887  1.00  0.00    -0.318 OA
BRANCH  22  23
HETATM   23  C9  UNL     1      89.299  68.332  33.822  1.00  0.00     0.179 C 
BRANCH  23  24
HETATM   24  C10 UNL     1      88.133  67.495  33.489  1.00  0.00     0.027 C 
BRANCH  24  25
HETATM   25  C11 UNL     1      88.438  66.087  33.080  1.00  0.00     0.002 C 
BRANCH  25  26
HETATM   26  C12 UNL     1      87.521  65.569  32.001  1.00  0.00    -0.004 C 
HETATM   27  C13 UNL     1      86.214  66.331  31.956  1.00  0.00     0.005 C 
ENDBRANCH  25  26
ENDBRANCH  24  25
ENDBRANCH  23  24
ENDBRANCH  22  23
ENDBRANCH  20  22
ENDBRANCH   9  20
TORSDOF 7
ENDMDL
MODEL 4
REMARK VINA RESULT: -7.133493507      1.805      2.908
REMARK  7 active torsions:
REMARK  status: ('A' for Active; 'I' for Inactive)
REMARK    1  A    between atoms: C4_6  and  O1_7 
REMARK    2  A    between atoms: C7_11  and  C8_12 
REMARK    3  A    between atoms: C8_12  and  O3_14 
REMARK    4  A    between atoms: O3_14  and  C9_15 
REMARK    5  A    between atoms: C9_15  and  C10_16 
REMARK    6  A    between atoms: C10_16  and  C11_17 
REMARK    7  A    between atoms: C11_17  and  C12_18 
ROOT
HETATM    1  C1  UNL     1      83.550  73.211  31.275  1.00  0.00     0.038 C 
HETATM    2  C2  UNL     1      84.750  72.434  30.897  1.00  0.00    -0.004 C 
HETATM    3  C3  UNL     1      85.931  73.011  30.917  1.00  0.00     0.037 C 
HETATM    4  N1  UNL     1      86.387  74.314  31.238  1.00  0.00    -0.363 N 
ATOM      5  H1  UNL     1      86.051  75.079  31.824  1.00  0.00     0.162 HD
HETATM    6  C4  UNL     1      87.537  74.095  30.377  1.00  0.00     0.254 C 
HETATM    7  C5  UNL     1      87.330  72.638  30.631  1.00  0.00     0.150 C 
HETATM    8  C6  UNL     1      88.086  72.119  31.784  1.00  0.00     0.027 C 
HETATM    9  C7  UNL     1      88.907  71.053  31.734  1.00  0.00     0.042 C 
HETATM   10  C14 UNL     1      89.022  70.395  30.422  1.00  0.00     0.079 C 
HETATM   11  C15 UNL     1      90.252  69.605  30.170  1.00  0.00     0.033 C 
HETATM   12  C16 UNL     1      89.997  68.093  30.148  1.00  0.00     0.002 C 
HETATM   13  C17 UNL     1      89.138  67.727  28.957  1.00  0.00     0.000 C 
HETATM   14  C18 UNL     1      88.009  68.746  28.902  1.00  0.00     0.002 C 
HETATM   15  C19 UNL     1      87.842  69.456  30.203  1.00  0.00     0.033 C 
HETATM   16  N2  UNL     1      88.860  71.463  29.409  1.00  0.00    -0.131 NA
HETATM   17  N3  UNL     1      87.521  71.832  29.441  1.00  0.00    -0.122 NA
ENDROOT
BRANCH   6  18
HETATM   18  O1  UNL     1      87.322  74.452  29.044  1.00  0.00    -0.374 OA
ATOM     19  H1  UNL     1      87.830  75.202  28.760  1.00  0.00     0.212 HD
ENDBRANCH   6  18
BRANCH   9  20
HETATM   20  C8  UNL     1      89.582  70.663  32.960  1.00  0.00     0.291 C 
HETATM   21  O2  UNL     1      90.688  71.204  33.254  1.00  0.00    -0.260 OA
BRANCH  20  22
HETATM   22  O3  UNL     1      89.115  69.734  33.853  1.00  0.00    -0.318 OA
BRANCH  22  23
HETATM   23  C9  UNL     1      88.724  68.427  33.543  1.00  0.00     0.179 C 
BRANCH  23  24
HETATM   24  C10 UNL     1      89.382  67.341  34.290  1.00  0.00     0.027 C 
BRANCH  24  25
HETATM   25  C11 UNL     1      90.449  66.595  33.552  1.00  0.00     0.002 C 
BRANCH  25  26
HETATM   26  C12 UNL     1      91.845  67.015  33.936  1.00  0.00    -0.004 C 
HETATM   27  C13 UNL     1      92.410  68.039  32.976  1.00  0.00     0.005 C 
ENDBRANCH  25  26
ENDBRANCH  24  25
ENDBRANCH  23  24
ENDBRANCH  22  23
ENDBRANCH  20  22
ENDBRANCH   9  20
TORSDOF 7
ENDMDL
MODEL 5
REMARK VINA RESULT: -7.081571721      1.540      1.944
REMARK  7 active torsions:
REMARK  status: ('A' for Active; 'I' for Inactive)
REMARK    1  A    between atoms: C4_6  and  O1_7 
REMARK    2  A    between atoms: C7_11  and  C8_12 
REMARK    3  A    between atoms: C8_12  and  O3_14 
REMARK    4  A    between atoms: O3_14  and  C9_15 
REMARK    5  A    between atoms: C9_15  and  C10_16 
REMARK    6  A    between atoms: C10_16  and  C11_17 
REMARK    7  A    between atoms: C11_17  and  C12_18 
ROOT
HETATM    1  C1  UNL     1      82.742  72.971  32.770  1.00  0.00     0.038 C 
HETATM    2  C2  UNL     1      83.932  72.592  31.979  1.00  0.00    -0.004 C 
HETATM    3  C3  UNL     1      84.871  73.483  31.750  1.00  0.00     0.037 C 
HETATM    4  N1  UNL     1      85.046  74.844  32.103  1.00  0.00    -0.363 N 
ATOM      5  H1  UNL     1      84.715  75.450  32.854  1.00  0.00     0.162 HD
HETATM    6  C4  UNL     1      85.900  75.008  30.938  1.00  0.00     0.254 C 
HETATM    7  C5  UNL     1      86.166  73.542  31.044  1.00  0.00     0.150 C 
HETATM    8  C6  UNL     1      87.341  73.206  31.868  1.00  0.00     0.027 C 
HETATM    9  C7  UNL     1      88.357  72.425  31.454  1.00  0.00     0.042 C 
HETATM   10  C14 UNL     1      88.240  71.895  30.086  1.00  0.00     0.079 C 
HETATM   11  C15 UNL     1      89.499  71.506  29.404  1.00  0.00     0.033 C 
HETATM   12  C16 UNL     1      89.653  69.987  29.253  1.00  0.00     0.002 C 
HETATM   13  C17 UNL     1      88.602  69.449  28.307  1.00  0.00     0.000 C 
HETATM   14  C18 UNL     1      87.284  70.102  28.698  1.00  0.00     0.002 C 
HETATM   15  C19 UNL     1      87.336  70.667  30.076  1.00  0.00     0.033 C 
HETATM   16  N2  UNL     1      87.509  72.919  29.306  1.00  0.00    -0.131 NA
HETATM   17  N3  UNL     1      86.194  72.886  29.752  1.00  0.00    -0.122 NA
ENDROOT
BRANCH   6  18
HETATM   18  O1  UNL     1      85.209  75.354  29.774  1.00  0.00    -0.374 OA
ATOM     19  H1  UNL     1      85.763  75.712  29.091  1.00  0.00     0.212 HD
ENDBRANCH   6  18
BRANCH   9  20
HETATM   20  C8  UNL     1      89.446  72.186  32.385  1.00  0.00     0.291 C 
HETATM   21  O2  UNL     1      89.384  71.188  33.163  1.00  0.00    -0.260 OA
BRANCH  20  22
HETATM   22  O3  UNL     1      90.567  72.965  32.502  1.00  0.00    -0.318 OA
BRANCH  22  23
HETATM   23  C9  UNL     1      91.495  73.217  31.485  1.00  0.00     0.179 C 
BRANCH  23  24
HETATM   24  C10 UNL     1      92.566  72.223  31.300  1.00  0.00     0.027 C 
BRANCH  24  25
HETATM   25  C11 UNL     1      93.117  72.109  29.913  1.00  0.00     0.002 C 
BRANCH  25  26
HETATM   26  C12 UNL     1      94.265  71.136  29.806  1.00  0.00    -0.004 C 
HETATM   27  C13 UNL     1      94.773  70.711  31.166  1.00  0.00     0.005 C 
ENDBRANCH  25  26
ENDBRANCH  24  25
ENDBRANCH  23  24
ENDBRANCH  22  23
ENDBRANCH  20  22
ENDBRANCH   9  20
TORSDOF 7
ENDMDL
