MODEL 1
REMARK VINA RESULT: -7.779869026      0.000      0.000
REMARK  7 active torsions:
REMARK  status: ('A' for Active; 'I' for Inactive)
REMARK    1  A    between atoms: N1_1  and  C1_4 
REMARK    2  A    between atoms: C3_10  and  C4_11 
REMARK    3  A    between atoms: C4_11  and  C5_13 
REMARK    4  A    between atoms: C5_13  and  N4_14 
REMARK    5  A    between atoms: C5_13  and  O2_18 
REMARK    6  A    between atoms: C7_23  and  N6_24 
REMARK    7  A    between atoms: N7_27  and  N8_28 
ROOT
HETATM    1  C1  UNL     1     -16.425 -27.195  18.284  1.00  0.00     0.172 C 
HETATM    2  N2  UNL     1     -16.821 -26.992  19.574  1.00  0.00    -0.322 N 
ATOM      3  H2  UNL     1     -17.826 -27.031  19.741  1.00  0.00     0.169 HD
HETATM    4  C2  UNL     1     -16.058 -26.748  20.651  1.00  0.00     0.139 A 
HETATM    5  N3  UNL     1     -16.483 -26.289  21.845  1.00  0.00    -0.323 N 
ATOM      6  H3  UNL     1     -17.451 -26.070  22.079  1.00  0.00     0.169 HD
HETATM    7  C3  UNL     1     -15.438 -26.164  22.681  1.00  0.00     0.159 A 
HETATM    8  N5  UNL     1     -14.358 -26.553  21.984  1.00  0.00    -0.333 N 
ATOM      9  H5  UNL     1     -13.408 -26.569  22.354  1.00  0.00     0.168 HD
HETATM   10  C6  UNL     1     -14.692 -26.919  20.736  1.00  0.00     0.124 A 
HETATM   11  C7  UNL     1     -13.816 -27.375  19.759  1.00  0.00     0.154 C 
HETATM   12  N7  UNL     1     -13.945 -27.359  18.411  1.00  0.00    -0.205 N 
HETATM   13  C8  UNL     1     -15.144 -27.264  17.777  1.00  0.00     0.311 C 
HETATM   14  O3  UNL     1     -15.040 -27.235  16.523  1.00  0.00    -0.262 OA
ENDROOT
BRANCH   7  15
HETATM   15  C4  UNL     1     -15.462 -25.695  24.084  1.00  0.00     0.248 C 
HETATM   16  O1  UNL     1     -14.900 -24.614  24.391  1.00  0.00    -0.284 OA
BRANCH  15  17
HETATM   17  C5  UNL     1     -16.126 -26.461  25.131  1.00  0.00     0.395 C 
BRANCH  17  18
HETATM   18  N4  UNL     1     -15.257 -26.438  26.314  1.00  0.00    -0.045 N 
ATOM     19  H43 UNL     1     -14.380 -25.943  26.153  1.00  0.00     0.277 HD
ATOM     20  H42 UNL     1     -15.614 -25.840  27.058  1.00  0.00     0.277 HD
ATOM     21  H41 UNL     1     -15.119 -27.404  26.612  1.00  0.00     0.277 HD
ENDBRANCH  17  18
BRANCH  17  22
HETATM   22  O2  UNL     1     -16.239 -27.791  24.745  1.00  0.00    -0.364 OA
ATOM     23  H2  UNL     1     -15.410 -28.237  24.874  1.00  0.00     0.212 HD
ENDBRANCH  17  22
ENDBRANCH  15  17
ENDBRANCH   7  15
BRANCH  11  24
HETATM   24  N6  UNL     1     -12.719 -27.892  20.173  1.00  0.00    -0.382 N 
ATOM     25  H62 UNL     1     -12.384 -27.506  21.055  1.00  0.00     0.157 HD
ATOM     26  H61 UNL     1     -12.309 -28.618  19.584  1.00  0.00     0.157 HD
ENDBRANCH  11  24
BRANCH   1  27
HETATM   27  N1  UNL     1     -17.381 -27.341  17.432  1.00  0.00    -0.381 N 
ATOM     28  H12 UNL     1     -17.695 -28.298  17.268  1.00  0.00     0.157 HD
ATOM     29  H11 UNL     1     -17.723 -26.478  17.011  1.00  0.00     0.157 HD
ENDBRANCH   1  27
BRANCH  12  30
HETATM   30  N8  UNL     1     -12.793 -27.446  17.636  1.00  0.00    -0.334 N 
ATOM     31  H82 UNL     1     -12.366 -28.363  17.503  1.00  0.00     0.177 HD
ATOM     32  H81 UNL     1     -12.417 -26.589  17.230  1.00  0.00     0.177 HD
ENDBRANCH  12  30
TORSDOF 7
ENDMDL
MODEL 2
REMARK VINA RESULT: -7.705733418      0.825      1.420
REMARK  7 active torsions:
REMARK  status: ('A' for Active; 'I' for Inactive)
REMARK    1  A    between atoms: N1_1  and  C1_4 
REMARK    2  A    between atoms: C3_10  and  C4_11 
REMARK    3  A    between atoms: C4_11  and  C5_13 
REMARK    4  A    between atoms: C5_13  and  N4_14 
REMARK    5  A    between atoms: C5_13  and  O2_18 
REMARK    6  A    between atoms: C7_23  and  N6_24 
REMARK    7  A    between atoms: N7_27  and  N8_28 
ROOT
HETATM    1  C1  UNL     1     -16.448 -27.231  18.105  1.00  0.00     0.172 C 
HETATM    2  N2  UNL     1     -16.840 -27.051  19.401  1.00  0.00    -0.322 N 
ATOM      3  H2  UNL     1     -17.844 -27.088  19.570  1.00  0.00     0.169 HD
HETATM    4  C2  UNL     1     -16.072 -26.830  20.480  1.00  0.00     0.139 A 
HETATM    5  N3  UNL     1     -16.491 -26.392  21.683  1.00  0.00    -0.323 N 
ATOM      6  H3  UNL     1     -17.457 -26.173  21.924  1.00  0.00     0.169 HD
HETATM    7  C3  UNL     1     -15.443 -26.286  22.518  1.00  0.00     0.159 A 
HETATM    8  N5  UNL     1     -14.367 -26.667  21.810  1.00  0.00    -0.333 N 
ATOM      9  H5  UNL     1     -13.415 -26.694  22.177  1.00  0.00     0.168 HD
HETATM   10  C6  UNL     1     -14.707 -27.009  20.556  1.00  0.00     0.124 A 
HETATM   11  C7  UNL     1     -13.835 -27.450  19.568  1.00  0.00     0.154 C 
HETATM   12  N7  UNL     1     -13.969 -27.409  18.221  1.00  0.00    -0.205 N 
HETATM   13  C8  UNL     1     -15.170 -27.296  17.593  1.00  0.00     0.311 C 
HETATM   14  O3  UNL     1     -15.070 -27.245  16.339  1.00  0.00    -0.262 OA
ENDROOT
BRANCH   7  15
HETATM   15  C4  UNL     1     -15.460 -25.843  23.929  1.00  0.00     0.248 C 
HETATM   16  O1  UNL     1     -16.272 -26.360  24.736  1.00  0.00    -0.284 OA
BRANCH  15  17
HETATM   17  C5  UNL     1     -14.550 -24.813  24.414  1.00  0.00     0.395 C 
BRANCH  17  18
HETATM   18  N4  UNL     1     -15.234 -24.092  25.494  1.00  0.00    -0.045 N 
ATOM     19  H43 UNL     1     -15.816 -23.327  25.154  1.00  0.00     0.277 HD
ATOM     20  H42 UNL     1     -15.976 -24.640  25.931  1.00  0.00     0.277 HD
ATOM     21  H41 UNL     1     -14.523 -23.786  26.158  1.00  0.00     0.277 HD
ENDBRANCH  17  18
BRANCH  17  22
HETATM   22  O2  UNL     1     -14.306 -23.886  23.409  1.00  0.00    -0.364 OA
ATOM     23  H2  UNL     1     -14.651 -23.038  23.660  1.00  0.00     0.212 HD
ENDBRANCH  17  22
ENDBRANCH  15  17
ENDBRANCH   7  15
BRANCH  11  24
HETATM   24  N6  UNL     1     -12.740 -27.980  19.968  1.00  0.00    -0.382 N 
ATOM     25  H62 UNL     1     -12.008 -27.304  20.191  1.00  0.00     0.157 HD
ATOM     26  H61 UNL     1     -12.719 -28.998  20.018  1.00  0.00     0.157 HD
ENDBRANCH  11  24
BRANCH   1  27
HETATM   27  N1  UNL     1     -17.408 -27.358  17.254  1.00  0.00    -0.381 N 
ATOM     28  H12 UNL     1     -18.091 -28.090  17.452  1.00  0.00     0.157 HD
ATOM     29  H11 UNL     1     -17.381 -26.707  16.470  1.00  0.00     0.157 HD
ENDBRANCH   1  27
BRANCH  12  30
HETATM   30  N8  UNL     1     -12.820 -27.486  17.441  1.00  0.00    -0.334 N 
ATOM     31  H82 UNL     1     -12.419 -28.405  17.257  1.00  0.00     0.177 HD
ATOM     32  H81 UNL     1     -12.419 -26.619  17.082  1.00  0.00     0.177 HD
ENDBRANCH  12  30
TORSDOF 7
ENDMDL
MODEL 3
REMARK VINA RESULT: -7.629280582      2.248      6.555
REMARK  7 active torsions:
REMARK  status: ('A' for Active; 'I' for Inactive)
REMARK    1  A    between atoms: N1_1  and  C1_4 
REMARK    2  A    between atoms: C3_10  and  C4_11 
REMARK    3  A    between atoms: C4_11  and  C5_13 
REMARK    4  A    between atoms: C5_13  and  N4_14 
REMARK    5  A    between atoms: C5_13  and  O2_18 
REMARK    6  A    between atoms: C7_23  and  N6_24 
REMARK    7  A    between atoms: N7_27  and  N8_28 
ROOT
HETATM    1  C1  UNL     1     -16.758 -26.606  20.299  1.00  0.00     0.172 C 
HETATM    2  N2  UNL     1     -16.797 -26.939  18.975  1.00  0.00    -0.322 N 
ATOM      3  H2  UNL     1     -17.675 -26.746  18.495  1.00  0.00     0.169 HD
HETATM    4  C2  UNL     1     -15.828 -27.487  18.226  1.00  0.00     0.139 A 
HETATM    5  N3  UNL     1     -15.978 -28.047  17.009  1.00  0.00    -0.323 N 
ATOM      6  H3  UNL     1     -16.860 -28.123  16.503  1.00  0.00     0.169 HD
HETATM    7  C3  UNL     1     -14.791 -28.492  16.565  1.00  0.00     0.159 A 
HETATM    8  N5  UNL     1     -13.901 -28.197  17.528  1.00  0.00    -0.333 N 
ATOM      9  H5  UNL     1     -12.905 -28.413  17.478  1.00  0.00     0.168 HD
HETATM   10  C6  UNL     1     -14.494 -27.581  18.563  1.00  0.00     0.124 A 
HETATM   11  C7  UNL     1     -13.861 -27.140  19.718  1.00  0.00     0.154 C 
HETATM   12  N7  UNL     1     -14.376 -26.915  20.951  1.00  0.00    -0.205 N 
HETATM   13  C8  UNL     1     -15.698 -26.688  21.176  1.00  0.00     0.311 C 
HETATM   14  O3  UNL     1     -15.971 -26.533  22.395  1.00  0.00    -0.262 OA
ENDROOT
BRANCH   7  15
HETATM   15  C4  UNL     1     -14.509 -29.169  15.279  1.00  0.00     0.248 C 
HETATM   16  O1  UNL     1     -15.372 -29.927  14.770  1.00  0.00    -0.284 OA
BRANCH  15  17
HETATM   17  C5  UNL     1     -13.244 -28.979  14.581  1.00  0.00     0.395 C 
BRANCH  17  18
HETATM   18  N4  UNL     1     -13.027 -30.155  13.731  1.00  0.00    -0.045 N 
ATOM     19  H43 UNL     1     -12.601 -30.934  14.232  1.00  0.00     0.277 HD
ATOM     20  H42 UNL     1     -13.895 -30.623  13.470  1.00  0.00     0.277 HD
ATOM     21  H41 UNL     1     -12.480 -29.855  12.924  1.00  0.00     0.277 HD
ENDBRANCH  17  18
BRANCH  17  22
HETATM   22  O2  UNL     1     -12.198 -28.950  15.495  1.00  0.00    -0.364 OA
ATOM     23  H2  UNL     1     -11.415 -28.609  15.081  1.00  0.00     0.212 HD
ENDBRANCH  17  22
ENDBRANCH  15  17
ENDBRANCH   7  15
BRANCH  11  24
HETATM   24  N6  UNL     1     -12.605 -26.903  19.626  1.00  0.00    -0.382 N 
ATOM     25  H62 UNL     1     -12.347 -26.335  18.818  1.00  0.00     0.157 HD
ATOM     26  H61 UNL     1     -12.013 -27.301  20.355  1.00  0.00     0.157 HD
ENDBRANCH  11  24
BRANCH   1  27
HETATM   27  N1  UNL     1     -17.863 -26.154  20.784  1.00  0.00    -0.381 N 
ATOM     28  H12 UNL     1     -18.712 -26.396  20.272  1.00  0.00     0.157 HD
ATOM     29  H11 UNL     1     -17.769 -25.599  21.635  1.00  0.00     0.157 HD
ENDBRANCH   1  27
BRANCH  12  30
HETATM   30  N8  UNL     1     -13.510 -26.914  22.038  1.00  0.00    -0.334 N 
ATOM     31  H82 UNL     1     -12.938 -27.743  22.204  1.00  0.00     0.177 HD
ATOM     32  H81 UNL     1     -13.478 -26.085  22.632  1.00  0.00     0.177 HD
ENDBRANCH  12  30
TORSDOF 7
ENDMDL
MODEL 4
REMARK VINA RESULT: -7.611260878      1.458      2.793
REMARK  7 active torsions:
REMARK  status: ('A' for Active; 'I' for Inactive)
REMARK    1  A    between atoms: N1_1  and  C1_4 
REMARK    2  A    between atoms: C3_10  and  C4_11 
REMARK    3  A    between atoms: C4_11  and  C5_13 
REMARK    4  A    between atoms: C5_13  and  N4_14 
REMARK    5  A    between atoms: C5_13  and  O2_18 
REMARK    6  A    between atoms: C7_23  and  N6_24 
REMARK    7  A    between atoms: N7_27  and  N8_28 
ROOT
HETATM    1  C1  UNL     1     -13.615 -27.314  18.865  1.00  0.00     0.172 C 
HETATM    2  N2  UNL     1     -13.258 -27.213  20.179  1.00  0.00    -0.322 N 
ATOM      3  H2  UNL     1     -12.259 -27.128  20.362  1.00  0.00     0.169 HD
HETATM    4  C2  UNL     1     -14.053 -27.213  21.261  1.00  0.00     0.139 A 
HETATM    5  N3  UNL     1     -13.663 -27.383  22.540  1.00  0.00    -0.323 N 
ATOM      6  H3  UNL     1     -12.702 -27.533  22.845  1.00  0.00     0.169 HD
HETATM    7  C3  UNL     1     -14.733 -27.324  23.351  1.00  0.00     0.159 A 
HETATM    8  N5  UNL     1     -15.792 -27.115  22.552  1.00  0.00    -0.333 N 
ATOM      9  H5  UNL     1     -16.754 -27.024  22.881  1.00  0.00     0.168 HD
HETATM   10  C6  UNL     1     -15.421 -27.040  21.264  1.00  0.00     0.124 A 
HETATM   11  C7  UNL     1     -16.269 -26.828  20.183  1.00  0.00     0.154 C 
HETATM   12  N7  UNL     1     -16.098 -27.150  18.879  1.00  0.00    -0.205 N 
HETATM   13  C8  UNL     1     -14.880 -27.375  18.319  1.00  0.00     0.311 C 
HETATM   14  O3  UNL     1     -14.945 -27.691  17.102  1.00  0.00    -0.262 OA
ENDROOT
BRANCH   7  15
HETATM   15  C4  UNL     1     -14.751 -27.461  24.824  1.00  0.00     0.248 C 
HETATM   16  O1  UNL     1     -13.673 -27.420  25.469  1.00  0.00    -0.284 OA
BRANCH  15  17
HETATM   17  C5  UNL     1     -15.998 -27.642  25.556  1.00  0.00     0.395 C 
BRANCH  17  18
HETATM   18  N4  UNL     1     -16.509 -28.980  25.234  1.00  0.00    -0.045 N 
ATOM     19  H43 UNL     1     -16.525 -29.168  24.232  1.00  0.00     0.277 HD
ATOM     20  H42 UNL     1     -15.866 -29.726  25.499  1.00  0.00     0.277 HD
ATOM     21  H41 UNL     1     -17.426 -29.072  25.671  1.00  0.00     0.277 HD
ENDBRANCH  17  18
BRANCH  17  22
HETATM   22  O2  UNL     1     -16.948 -26.734  25.105  1.00  0.00    -0.364 OA
ATOM     23  H2  UNL     1     -17.778 -26.890  25.540  1.00  0.00     0.212 HD
ENDBRANCH  17  22
ENDBRANCH  15  17
ENDBRANCH   7  15
BRANCH  11  24
HETATM   24  N6  UNL     1     -17.379 -26.241  20.436  1.00  0.00    -0.382 N 
ATOM     25  H62 UNL     1     -17.405 -25.772  21.341  1.00  0.00     0.157 HD
ATOM     26  H61 UNL     1     -18.101 -26.307  19.719  1.00  0.00     0.157 HD
ENDBRANCH  11  24
BRANCH   1  27
HETATM   27  N1  UNL     1     -12.634 -27.357  18.031  1.00  0.00    -0.381 N 
ATOM     28  H12 UNL     1     -12.858 -27.136  17.060  1.00  0.00     0.157 HD
ATOM     29  H11 UNL     1     -11.732 -27.608  18.435  1.00  0.00     0.157 HD
ENDBRANCH   1  27
BRANCH  12  30
HETATM   30  N8  UNL     1     -17.226 -27.253  18.072  1.00  0.00    -0.334 N 
ATOM     31  H82 UNL     1     -17.913 -26.500  18.099  1.00  0.00     0.177 HD
ATOM     32  H81 UNL     1     -17.325 -28.080  17.482  1.00  0.00     0.177 HD
ENDBRANCH  12  30
TORSDOF 7
ENDMDL
MODEL 5
REMARK VINA RESULT: -7.462286045      1.691      5.830
REMARK  7 active torsions:
REMARK  status: ('A' for Active; 'I' for Inactive)
REMARK    1  A    between atoms: N1_1  and  C1_4 
REMARK    2  A    between atoms: C3_10  and  C4_11 
REMARK    3  A    between atoms: C4_11  and  C5_13 
REMARK    4  A    between atoms: C5_13  and  N4_14 
REMARK    5  A    between atoms: C5_13  and  O2_18 
REMARK    6  A    between atoms: C7_23  and  N6_24 
REMARK    7  A    between atoms: N7_27  and  N8_28 
ROOT
HETATM    1  C1  UNL     1     -15.444 -26.611  23.047  1.00  0.00     0.172 C 
HETATM    2  N2  UNL     1     -16.198 -26.714  21.913  1.00  0.00    -0.322 N 
ATOM      3  H2  UNL     1     -17.197 -26.545  22.027  1.00  0.00     0.169 HD
HETATM    4  C2  UNL     1     -15.792 -27.008  20.668  1.00  0.00     0.139 A 
HETATM    5  N3  UNL     1     -16.579 -27.365  19.634  1.00  0.00    -0.323 N 
ATOM      6  H3  UNL     1     -17.594 -27.454  19.673  1.00  0.00     0.169 HD
HETATM    7  C3  UNL     1     -15.824 -27.585  18.544  1.00  0.00     0.159 A 
HETATM    8  N5  UNL     1     -14.555 -27.358  18.921  1.00  0.00    -0.333 N 
ATOM      9  H5  UNL     1     -13.746 -27.445  18.305  1.00  0.00     0.168 HD
HETATM   10  C6  UNL     1     -14.490 -27.002  20.215  1.00  0.00     0.124 A 
HETATM   11  C7  UNL     1     -13.331 -26.695  20.917  1.00  0.00     0.154 C 
HETATM   12  N7  UNL     1     -13.091 -26.747  22.249  1.00  0.00    -0.205 N 
HETATM   13  C8  UNL     1     -14.077 -26.719  23.185  1.00  0.00     0.311 C 
HETATM   14  O3  UNL     1     -13.642 -26.808  24.363  1.00  0.00    -0.262 OA
ENDROOT
BRANCH   7  15
HETATM   15  C4  UNL     1     -16.286 -27.994  17.199  1.00  0.00     0.248 C 
HETATM   16  O1  UNL     1     -17.464 -27.745  16.841  1.00  0.00    -0.284 OA
BRANCH  15  17
HETATM   17  C5  UNL     1     -15.402 -28.684  16.268  1.00  0.00     0.395 C 
BRANCH  17  18
HETATM   18  N4  UNL     1     -15.033 -29.967  16.878  1.00  0.00    -0.045 N 
ATOM     19  H43 UNL     1     -14.456 -30.545  16.268  1.00  0.00     0.277 HD
ATOM     20  H42 UNL     1     -14.362 -29.866  17.640  1.00  0.00     0.277 HD
ATOM     21  H41 UNL     1     -15.895 -30.430  17.166  1.00  0.00     0.277 HD
ENDBRANCH  17  18
BRANCH  17  22
HETATM   22  O2  UNL     1     -14.225 -27.964  16.112  1.00  0.00    -0.364 OA
ATOM     23  H2  UNL     1     -13.767 -27.907  16.942  1.00  0.00     0.212 HD
ENDBRANCH  17  22
ENDBRANCH  15  17
ENDBRANCH   7  15
BRANCH  11  24
HETATM   24  N6  UNL     1     -12.330 -26.301  20.221  1.00  0.00    -0.382 N 
ATOM     25  H62 UNL     1     -11.486 -26.859  20.353  1.00  0.00     0.157 HD
ATOM     26  H61 UNL     1     -12.483 -25.488  19.625  1.00  0.00     0.157 HD
ENDBRANCH  11  24
BRANCH   1  27
HETATM   27  N1  UNL     1     -16.108 -26.381  24.128  1.00  0.00    -0.381 N 
ATOM     28  H12 UNL     1     -16.798 -25.631  24.082  1.00  0.00     0.157 HD
ATOM     29  H11 UNL     1     -15.870 -26.979  24.919  1.00  0.00     0.157 HD
ENDBRANCH   1  27
BRANCH  12  30
HETATM   30  N8  UNL     1     -11.772 -26.832  22.680  1.00  0.00    -0.334 N 
ATOM     31  H82 UNL     1     -11.218 -25.977  22.718  1.00  0.00     0.177 HD
ATOM     32  H81 UNL     1     -11.406 -27.747  22.942  1.00  0.00     0.177 HD
ENDBRANCH  12  30
TORSDOF 7
ENDMDL
