MODEL 1
REMARK VINA RESULT: -6.802772668      0.000      0.000
REMARK  6 active torsions:
REMARK  status: ('A' for Active; 'I' for Inactive)
REMARK    1  A    between atoms: C3_6  and  O1_7 
REMARK    2  A    between atoms: O1_7  and  C4_8 
REMARK    3  A    between atoms: C4_8  and  C5_9 
REMARK    4  A    between atoms: C6_11  and  N3_12 
REMARK    5  A    between atoms: N3_12  and  C7_14 
REMARK    6  A    between atoms: C9_20  and  N6_21 
ROOT
HETATM    1  N1  UNL     1      -4.092 -31.267  10.420  1.00  0.00    -0.190 NA
HETATM    2  C1  UNL     1      -5.230 -31.169  10.523  1.00  0.00     0.121 C 
HETATM    3  C2  UNL     1      -6.649 -31.044  10.669  1.00  0.00     0.157 A 
HETATM    4  N2  UNL     1      -7.132 -30.098  11.525  1.00  0.00    -0.322 N 
ATOM      5  H2  UNL     1      -6.473 -29.510  12.035  1.00  0.00     0.169 HD
HETATM    6  C3  UNL     1      -8.443 -29.919  11.716  1.00  0.00     0.189 A 
HETATM    7  C6  UNL     1      -9.310 -30.727  11.017  1.00  0.00     0.174 A 
HETATM    8  N8  UNL     1      -8.851 -31.678  10.157  1.00  0.00    -0.325 N 
ATOM      9  H8  UNL     1      -9.506 -32.269   9.646  1.00  0.00     0.169 HD
HETATM   10  C10 UNL     1      -7.523 -31.830   9.990  1.00  0.00     0.155 A 
HETATM   11  N9  UNL     1      -7.056 -32.829   9.089  1.00  0.00    -0.079 NA
ENDROOT
BRANCH   6  12
HETATM   12  O1  UNL     1      -8.962 -28.977  12.568  1.00  0.00    -0.326 OA
BRANCH  12  13
HETATM   13  C4  UNL     1      -8.901 -29.001  13.954  1.00  0.00     0.246 C 
BRANCH  13  14
HETATM   14  C5  UNL     1      -9.688 -30.074  14.582  1.00  0.00     0.257 C 
HETATM   15  O2  UNL     1     -10.884 -30.106  14.399  1.00  0.00    -0.305 OA
ENDBRANCH  13  14
ENDBRANCH  12  13
ENDBRANCH   6  12
BRANCH   7  16
HETATM   16  N3  UNL     1     -10.585 -30.610  11.153  1.00  0.00    -0.171 N 
ATOM     17  H3  UNL     1     -11.081 -31.249  11.774  1.00  0.00     0.186 HD
BRANCH  16  18
HETATM   18  C7  UNL     1     -11.322 -29.603  10.451  1.00  0.00     0.700 A 
HETATM   19  N4  UNL     1     -10.680 -28.648   9.774  1.00  0.00    -0.132 N 
HETATM   20  N5  UNL     1     -11.331 -27.710   9.120  1.00  0.00    -0.294 N 
ATOM     21  H4  UNL     1      -9.660 -28.645   9.763  1.00  0.00     0.205 HD
HETATM   22  C8  UNL     1     -12.669 -27.663   9.099  1.00  0.00     0.156 A 
ATOM     23  H5  UNL     1     -10.802 -26.999   8.614  1.00  0.00     0.186 HD
HETATM   24  C9  UNL     1     -13.326 -28.651   9.800  1.00  0.00     0.131 A 
HETATM   25  N7  UNL     1     -12.658 -29.606  10.466  1.00  0.00    -0.174 N 
ATOM     26  H7  UNL     1     -13.166 -30.327  10.979  1.00  0.00     0.186 HD
BRANCH  24  27
HETATM   27  N6  UNL     1     -14.617 -28.655   9.815  1.00  0.00    -0.384 N 
ATOM     28  H62 UNL     1     -15.119 -27.767   9.847  1.00  0.00     0.157 HD
ATOM     29  H61 UNL     1     -15.109 -29.548   9.795  1.00  0.00     0.157 HD
ENDBRANCH  24  27
ENDBRANCH  16  18
ENDBRANCH   7  16
TORSDOF 6
ENDMDL
MODEL 2
REMARK VINA RESULT: -6.666250885      2.373      3.710
REMARK  6 active torsions:
REMARK  status: ('A' for Active; 'I' for Inactive)
REMARK    1  A    between atoms: C3_6  and  O1_7 
REMARK    2  A    between atoms: O1_7  and  C4_8 
REMARK    3  A    between atoms: C4_8  and  C5_9 
REMARK    4  A    between atoms: C6_11  and  N3_12 
REMARK    5  A    between atoms: N3_12  and  C7_14 
REMARK    6  A    between atoms: C9_20  and  N6_21 
ROOT
HETATM    1  N1  UNL     1      -7.274 -31.272  15.465  1.00  0.00    -0.190 NA
HETATM    2  C1  UNL     1      -7.747 -30.932  14.477  1.00  0.00     0.121 C 
HETATM    3  C2  UNL     1      -8.325 -30.517  13.234  1.00  0.00     0.157 A 
HETATM    4  N2  UNL     1      -8.381 -31.418  12.211  1.00  0.00    -0.322 N 
ATOM      5  H2  UNL     1      -8.010 -32.357  12.359  1.00  0.00     0.169 HD
HETATM    6  C3  UNL     1      -8.906 -31.107  11.022  1.00  0.00     0.189 A 
HETATM    7  C6  UNL     1      -9.397 -29.833  10.850  1.00  0.00     0.174 A 
HETATM    8  N8  UNL     1      -9.352 -28.918  11.856  1.00  0.00    -0.325 N 
ATOM      9  H8  UNL     1      -9.720 -27.977  11.713  1.00  0.00     0.169 HD
HETATM   10  C10 UNL     1      -8.815 -29.266  13.041  1.00  0.00     0.155 A 
HETATM   11  N9  UNL     1      -8.774 -28.298  14.085  1.00  0.00    -0.079 NA
ENDROOT
BRANCH   6  12
HETATM   12  O1  UNL     1      -8.978 -31.989   9.973  1.00  0.00    -0.326 OA
BRANCH  12  13
HETATM   13  C4  UNL     1      -7.912 -32.653   9.384  1.00  0.00     0.246 C 
BRANCH  13  14
HETATM   14  C5  UNL     1      -7.540 -33.915  10.042  1.00  0.00     0.257 C 
HETATM   15  O2  UNL     1      -8.216 -34.316  10.963  1.00  0.00    -0.305 OA
ENDBRANCH  13  14
ENDBRANCH  12  13
ENDBRANCH   6  12
BRANCH   7  16
HETATM   16  N3  UNL     1      -9.915 -29.466   9.730  1.00  0.00    -0.171 N 
ATOM     17  H3  UNL     1      -9.452 -29.722   8.858  1.00  0.00     0.186 HD
BRANCH  16  18
HETATM   18  C7  UNL     1     -11.127 -28.706   9.681  1.00  0.00     0.700 A 
HETATM   19  N4  UNL     1     -11.099 -27.415   9.339  1.00  0.00    -0.132 N 
HETATM   20  N5  UNL     1     -12.197 -26.692   9.286  1.00  0.00    -0.294 N 
ATOM     21  H4  UNL     1     -10.204 -26.979   9.114  1.00  0.00     0.205 HD
HETATM   22  C8  UNL     1     -13.399 -27.210   9.571  1.00  0.00     0.156 A 
ATOM     23  H5  UNL     1     -12.131 -25.709   9.019  1.00  0.00     0.186 HD
HETATM   24  C9  UNL     1     -13.421 -28.542   9.923  1.00  0.00     0.131 A 
HETATM   25  N7  UNL     1     -12.299 -29.276   9.977  1.00  0.00    -0.174 N 
ATOM     26  H7  UNL     1     -12.340 -30.261  10.241  1.00  0.00     0.186 HD
BRANCH  24  27
HETATM   27  N6  UNL     1     -14.553 -29.094  10.208  1.00  0.00    -0.384 N 
ATOM     28  H62 UNL     1     -15.094 -28.745  10.999  1.00  0.00     0.157 HD
ATOM     29  H61 UNL     1     -14.881 -29.872   9.636  1.00  0.00     0.157 HD
ENDBRANCH  24  27
ENDBRANCH  16  18
ENDBRANCH   7  16
TORSDOF 6
ENDMDL
MODEL 3
REMARK VINA RESULT: -6.420895930      0.457      1.382
REMARK  6 active torsions:
REMARK  status: ('A' for Active; 'I' for Inactive)
REMARK    1  A    between atoms: C3_6  and  O1_7 
REMARK    2  A    between atoms: O1_7  and  C4_8 
REMARK    3  A    between atoms: C4_8  and  C5_9 
REMARK    4  A    between atoms: C6_11  and  N3_12 
REMARK    5  A    between atoms: N3_12  and  C7_14 
REMARK    6  A    between atoms: C9_20  and  N6_21 
ROOT
HETATM    1  N1  UNL     1      -4.066 -31.089  10.343  1.00  0.00    -0.190 NA
HETATM    2  C1  UNL     1      -5.205 -31.032  10.471  1.00  0.00     0.121 C 
HETATM    3  C2  UNL     1      -6.624 -30.957  10.649  1.00  0.00     0.157 A 
HETATM    4  N2  UNL     1      -7.122 -30.014  11.500  1.00  0.00    -0.322 N 
ATOM      5  H2  UNL     1      -6.474 -29.393  11.984  1.00  0.00     0.169 HD
HETATM    6  C3  UNL     1      -8.434 -29.881  11.717  1.00  0.00     0.189 A 
HETATM    7  C6  UNL     1      -9.286 -30.733  11.053  1.00  0.00     0.174 A 
HETATM    8  N8  UNL     1      -8.811 -31.681  10.200  1.00  0.00    -0.325 N 
ATOM      9  H8  UNL     1      -9.455 -32.305   9.714  1.00  0.00     0.169 HD
HETATM   10  C10 UNL     1      -7.483 -31.787  10.004  1.00  0.00     0.155 A 
HETATM   11  N9  UNL     1      -7.000 -32.784   9.109  1.00  0.00    -0.079 NA
ENDROOT
BRANCH   6  12
HETATM   12  O1  UNL     1      -8.969 -28.944  12.565  1.00  0.00    -0.326 OA
BRANCH  12  13
HETATM   13  C4  UNL     1      -8.913 -28.964  13.952  1.00  0.00     0.246 C 
BRANCH  13  14
HETATM   14  C5  UNL     1      -9.669 -30.060  14.577  1.00  0.00     0.257 C 
HETATM   15  O2  UNL     1     -10.874 -30.082  14.460  1.00  0.00    -0.305 OA
ENDBRANCH  13  14
ENDBRANCH  12  13
ENDBRANCH   6  12
BRANCH   7  16
HETATM   16  N3  UNL     1     -10.561 -30.661  11.217  1.00  0.00    -0.171 N 
ATOM     17  H3  UNL     1     -11.023 -31.330  11.831  1.00  0.00     0.186 HD
BRANCH  16  18
HETATM   18  C7  UNL     1     -11.344 -29.662  10.555  1.00  0.00     0.700 A 
HETATM   19  N4  UNL     1     -12.678 -29.738  10.564  1.00  0.00    -0.132 N 
HETATM   20  N5  UNL     1     -13.423 -28.834   9.965  1.00  0.00    -0.294 N 
ATOM     21  H4  UNL     1     -13.130 -30.515  11.047  1.00  0.00     0.205 HD
HETATM   22  C8  UNL     1     -12.887 -27.793   9.315  1.00  0.00     0.156 A 
ATOM     23  H5  UNL     1     -14.439 -28.929   9.996  1.00  0.00     0.186 HD
HETATM   24  C9  UNL     1     -11.511 -27.721   9.310  1.00  0.00     0.131 A 
HETATM   25  N7  UNL     1     -10.753 -28.645   9.923  1.00  0.00    -0.174 N 
ATOM     26  H7  UNL     1      -9.736 -28.570   9.904  1.00  0.00     0.186 HD
BRANCH  24  27
HETATM   27  N6  UNL     1     -10.938 -26.738   8.699  1.00  0.00    -0.384 N 
ATOM     28  H62 UNL     1     -10.157 -26.927   8.071  1.00  0.00     0.157 HD
ATOM     29  H61 UNL     1     -11.280 -25.790   8.859  1.00  0.00     0.157 HD
ENDBRANCH  24  27
ENDBRANCH  16  18
ENDBRANCH   7  16
TORSDOF 6
ENDMDL
MODEL 4
REMARK VINA RESULT: -6.273358710      2.219      3.724
REMARK  6 active torsions:
REMARK  status: ('A' for Active; 'I' for Inactive)
REMARK    1  A    between atoms: C3_6  and  O1_7 
REMARK    2  A    between atoms: O1_7  and  C4_8 
REMARK    3  A    between atoms: C4_8  and  C5_9 
REMARK    4  A    between atoms: C6_11  and  N3_12 
REMARK    5  A    between atoms: N3_12  and  C7_14 
REMARK    6  A    between atoms: C9_20  and  N6_21 
ROOT
HETATM    1  N1  UNL     1      -5.346 -29.878  14.095  1.00  0.00    -0.190 NA
HETATM    2  C1  UNL     1      -6.340 -30.007  13.539  1.00  0.00     0.121 C 
HETATM    3  C2  UNL     1      -7.573 -30.172  12.828  1.00  0.00     0.157 A 
HETATM    4  N2  UNL     1      -7.629 -31.104  11.834  1.00  0.00    -0.322 N 
ATOM      5  H2  UNL     1      -6.796 -31.655  11.624  1.00  0.00     0.169 HD
HETATM    6  C3  UNL     1      -8.742 -31.317  11.126  1.00  0.00     0.189 A 
HETATM    7  C6  UNL     1      -9.850 -30.559  11.428  1.00  0.00     0.174 A 
HETATM    8  N8  UNL     1      -9.817 -29.623  12.415  1.00  0.00    -0.325 N 
ATOM      9  H8  UNL     1     -10.647 -29.070  12.628  1.00  0.00     0.169 HD
HETATM   10  C10 UNL     1      -8.678 -29.436  13.109  1.00  0.00     0.155 A 
HETATM   11  N9  UNL     1      -8.657 -28.452  14.139  1.00  0.00    -0.079 NA
ENDROOT
BRANCH   6  12
HETATM   12  O1  UNL     1      -8.833 -32.246  10.120  1.00  0.00    -0.326 OA
BRANCH  12  13
HETATM   13  C4  UNL     1      -7.772 -32.864   9.474  1.00  0.00     0.246 C 
BRANCH  13  14
HETATM   14  C5  UNL     1      -7.462 -34.217   9.965  1.00  0.00     0.257 C 
HETATM   15  O2  UNL     1      -8.080 -34.651  10.911  1.00  0.00    -0.305 OA
ENDBRANCH  13  14
ENDBRANCH  12  13
ENDBRANCH   6  12
BRANCH   7  16
HETATM   16  N3  UNL     1     -10.956 -30.711  10.785  1.00  0.00    -0.171 N 
ATOM     17  H3  UNL     1     -11.328 -31.651  10.648  1.00  0.00     0.186 HD
BRANCH  16  18
HETATM   18  C7  UNL     1     -11.674 -29.591  10.258  1.00  0.00     0.700 A 
HETATM   19  N4  UNL     1     -13.000 -29.514  10.403  1.00  0.00    -0.132 N 
HETATM   20  N5  UNL     1     -13.687 -28.496   9.930  1.00  0.00    -0.294 N 
ATOM     21  H4  UNL     1     -13.492 -30.262  10.892  1.00  0.00     0.205 HD
HETATM   22  C8  UNL     1     -13.095 -27.487   9.279  1.00  0.00     0.156 A 
ATOM     23  H5  UNL     1     -14.698 -28.476  10.063  1.00  0.00     0.186 HD
HETATM   24  C9  UNL     1     -11.728 -27.572   9.132  1.00  0.00     0.131 A 
HETATM   25  N7  UNL     1     -11.031 -28.612   9.617  1.00  0.00    -0.174 N 
ATOM     26  H7  UNL     1     -10.018 -28.654   9.496  1.00  0.00     0.186 HD
BRANCH  24  27
HETATM   27  N6  UNL     1     -11.105 -26.626   8.513  1.00  0.00    -0.384 N 
ATOM     28  H62 UNL     1     -10.087 -26.579   8.569  1.00  0.00     0.157 HD
ATOM     29  H61 UNL     1     -11.644 -25.944   7.981  1.00  0.00     0.157 HD
ENDBRANCH  24  27
ENDBRANCH  16  18
ENDBRANCH   7  16
TORSDOF 6
ENDMDL
MODEL 5
REMARK VINA RESULT: -6.251346072      2.467      4.010
REMARK  6 active torsions:
REMARK  status: ('A' for Active; 'I' for Inactive)
REMARK    1  A    between atoms: C3_6  and  O1_7 
REMARK    2  A    between atoms: O1_7  and  C4_8 
REMARK    3  A    between atoms: C4_8  and  C5_9 
REMARK    4  A    between atoms: C6_11  and  N3_12 
REMARK    5  A    between atoms: N3_12  and  C7_14 
REMARK    6  A    between atoms: C9_20  and  N6_21 
ROOT
HETATM    1  N1  UNL     1      -7.140 -32.377  15.979  1.00  0.00    -0.190 NA
HETATM    2  C1  UNL     1      -7.471 -31.786  15.054  1.00  0.00     0.121 C 
HETATM    3  C2  UNL     1      -7.872 -31.056  13.889  1.00  0.00     0.157 A 
HETATM    4  N2  UNL     1      -7.829 -31.688  12.681  1.00  0.00    -0.322 N 
ATOM      5  H2  UNL     1      -7.513 -32.657  12.641  1.00  0.00     0.169 HD
HETATM    6  C3  UNL     1      -8.187 -31.074  11.548  1.00  0.00     0.189 A 
HETATM    7  C6  UNL     1      -8.607 -29.767  11.631  1.00  0.00     0.174 A 
HETATM    8  N8  UNL     1      -8.658 -29.116  12.826  1.00  0.00    -0.325 N 
ATOM      9  H8  UNL     1      -8.973 -28.147  12.871  1.00  0.00     0.169 HD
HETATM   10  C10 UNL     1      -8.290 -29.765  13.947  1.00  0.00     0.155 A 
HETATM   11  N9  UNL     1      -8.347 -29.073  15.190  1.00  0.00    -0.079 NA
ENDROOT
BRANCH   6  12
HETATM   12  O1  UNL     1      -8.156 -31.680  10.318  1.00  0.00    -0.326 OA
BRANCH  12  13
HETATM   13  C4  UNL     1      -7.190 -32.567   9.863  1.00  0.00     0.246 C 
BRANCH  13  14
HETATM   14  C5  UNL     1      -7.596 -33.981   9.897  1.00  0.00     0.257 C 
HETATM   15  O2  UNL     1      -8.079 -34.427  10.914  1.00  0.00    -0.305 OA
ENDBRANCH  13  14
ENDBRANCH  12  13
ENDBRANCH   6  12
BRANCH   7  16
HETATM   16  N3  UNL     1      -8.966 -29.115  10.580  1.00  0.00    -0.171 N 
ATOM     17  H3  UNL     1      -8.250 -28.746   9.954  1.00  0.00     0.186 HD
BRANCH  16  18
HETATM   18  C7  UNL     1     -10.346 -28.898  10.270  1.00  0.00     0.700 A 
HETATM   19  N4  UNL     1     -11.261 -29.818  10.589  1.00  0.00    -0.132 N 
HETATM   20  N5  UNL     1     -12.536 -29.645  10.317  1.00  0.00    -0.294 N 
ATOM     21  H4  UNL     1     -10.963 -30.676  11.054  1.00  0.00     0.205 HD
HETATM   22  C8  UNL     1     -12.985 -28.540   9.707  1.00  0.00     0.156 A 
ATOM     23  H5  UNL     1     -13.202 -30.372  10.578  1.00  0.00     0.186 HD
HETATM   24  C9  UNL     1     -12.037 -27.595   9.381  1.00  0.00     0.131 A 
HETATM   25  N7  UNL     1     -10.736 -27.775   9.660  1.00  0.00    -0.174 N 
ATOM     26  H7  UNL     1     -10.052 -27.061   9.408  1.00  0.00     0.186 HD
BRANCH  24  27
HETATM   27  N6  UNL     1     -12.413 -26.510   8.791  1.00  0.00    -0.384 N 
ATOM     28  H62 UNL     1     -13.366 -26.439   8.434  1.00  0.00     0.157 HD
ATOM     29  H61 UNL     1     -11.746 -25.744   8.694  1.00  0.00     0.157 HD
ENDBRANCH  24  27
ENDBRANCH  16  18
ENDBRANCH   7  16
TORSDOF 6
ENDMDL
