MODEL 1
REMARK VINA RESULT: -6.869354856      0.000      0.000
REMARK  1 active torsions:
REMARK  status: ('A' for Active; 'I' for Inactive)
REMARK    1  A    between atoms: N1_1  and  C1_4 
ROOT
HETATM    1  C1  UNL     1       9.654  13.052  11.285  1.00  0.00     0.680 A 
HETATM    2  N2  UNL     1       9.414  12.500  12.483  1.00  0.00    -0.154 N 
ATOM      3  H2  UNL     1      10.184  12.368  13.139  1.00  0.00     0.187 HD
HETATM    4  C2  UNL     1       8.171  12.116  12.835  1.00  0.00     0.290 A 
HETATM    5  O1  UNL     1       7.998  11.602  13.973  1.00  0.00    -0.265 OA
HETATM    6  C3  UNL     1       7.110  12.291  11.947  1.00  0.00     0.153 A 
HETATM    7  N3  UNL     1       5.920  11.875  12.397  1.00  0.00    -0.316 N 
ATOM      8  H3  UNL     1       5.795  11.460  13.320  1.00  0.00     0.175 HD
HETATM    9  S1  UNL     1       4.640  12.091  11.308  1.00  0.00     0.023 SA
HETATM   10  C4  UNL     1       5.156  12.809   9.840  1.00  0.00     0.160 A 
HETATM   11  N4  UNL     1       4.318  13.053   8.888  1.00  0.00    -0.379 N 
ATOM     12  H41 UNL     1       4.625  13.480   8.014  1.00  0.00     0.158 HD
ATOM     13  H42 UNL     1       3.321  12.844   8.935  1.00  0.00     0.158 HD
HETATM   14  N5  UNL     1       6.450  13.080   9.779  1.00  0.00    -0.320 N 
ATOM     15  H5  UNL     1       6.786  13.507   8.916  1.00  0.00     0.169 HD
HETATM   16  C5  UNL     1       7.369  12.852  10.733  1.00  0.00     0.156 A 
HETATM   17  N6  UNL     1       8.645  13.227  10.418  1.00  0.00    -0.174 N 
ATOM     18  H6  UNL     1       8.834  13.647   9.507  1.00  0.00     0.186 HD
ENDROOT
BRANCH   1  19
HETATM   19  N1  UNL     1      10.846  13.421  10.945  1.00  0.00    -0.234 N 
ATOM     20  H12 UNL     1      11.389  12.827  10.319  1.00  0.00     0.174 HD
ATOM     21  H11 UNL     1      11.249  14.291  11.292  1.00  0.00     0.174 HD
ENDBRANCH   1  19
TORSDOF 1
ENDMDL
MODEL 2
REMARK VINA RESULT: -6.774492834      2.816      3.695
REMARK  1 active torsions:
REMARK  status: ('A' for Active; 'I' for Inactive)
REMARK    1  A    between atoms: N1_1  and  C1_4 
ROOT
HETATM    1  C1  UNL     1       8.234  11.389  13.236  1.00  0.00     0.680 A 
HETATM    2  N2  UNL     1       7.293  10.956  12.383  1.00  0.00    -0.154 N 
ATOM      3  H2  UNL     1       7.289   9.977  12.095  1.00  0.00     0.187 HD
HETATM    4  C2  UNL     1       6.355  11.793  11.900  1.00  0.00     0.290 A 
HETATM    5  O1  UNL     1       5.493  11.336  11.101  1.00  0.00    -0.265 OA
HETATM    6  C3  UNL     1       6.350  13.133  12.287  1.00  0.00     0.153 A 
HETATM    7  N3  UNL     1       5.375  13.875  11.748  1.00  0.00    -0.316 N 
ATOM      8  H3  UNL     1       4.684  13.492  11.102  1.00  0.00     0.175 HD
HETATM    9  S1  UNL     1       5.381  15.501  12.224  1.00  0.00     0.023 SA
HETATM   10  C4  UNL     1       6.658  15.850  13.312  1.00  0.00     0.160 A 
HETATM   11  N4  UNL     1       6.823  17.040  13.785  1.00  0.00    -0.379 N 
ATOM     12  H41 UNL     1       7.583  17.248  14.433  1.00  0.00     0.158 HD
ATOM     13  H42 UNL     1       6.228  17.836  13.556  1.00  0.00     0.158 HD
HETATM   14  N5  UNL     1       7.432  14.817  13.610  1.00  0.00    -0.320 N 
ATOM     15  H5  UNL     1       8.201  14.996  14.255  1.00  0.00     0.169 HD
HETATM   16  C5  UNL     1       7.311  13.560  13.153  1.00  0.00     0.156 A 
HETATM   17  N6  UNL     1       8.245  12.676  13.617  1.00  0.00    -0.174 N 
ATOM     18  H6  UNL     1       8.963  13.000  14.266  1.00  0.00     0.186 HD
ENDROOT
BRANCH   1  19
HETATM   19  N1  UNL     1       9.136  10.588  13.700  1.00  0.00    -0.234 N 
ATOM     20  H12 UNL     1       9.341  10.599  14.699  1.00  0.00     0.174 HD
ATOM     21  H11 UNL     1       9.643   9.950  13.087  1.00  0.00     0.174 HD
ENDBRANCH   1  19
TORSDOF 1
ENDMDL
MODEL 3
REMARK VINA RESULT: -6.769730704      2.117      2.310
REMARK  1 active torsions:
REMARK  status: ('A' for Active; 'I' for Inactive)
REMARK    1  A    between atoms: N1_1  and  C1_4 
ROOT
HETATM    1  C1  UNL     1       8.431  11.626  13.070  1.00  0.00     0.680 A 
HETATM    2  N2  UNL     1       8.272  12.834  13.630  1.00  0.00    -0.154 N 
ATOM      3  H2  UNL     1       8.735  13.043  14.515  1.00  0.00     0.187 HD
HETATM    4  C2  UNL     1       7.510  13.777  13.042  1.00  0.00     0.290 A 
HETATM    5  O1  UNL     1       7.393  14.897  13.609  1.00  0.00    -0.265 OA
HETATM    6  C3  UNL     1       6.872  13.504  11.833  1.00  0.00     0.153 A 
HETATM    7  N3  UNL     1       6.141  14.510  11.338  1.00  0.00    -0.316 N 
ATOM      8  H3  UNL     1       6.055  15.411  11.807  1.00  0.00     0.175 HD
HETATM    9  S1  UNL     1       5.370  14.165   9.869  1.00  0.00     0.023 SA
HETATM   10  C4  UNL     1       5.699  12.573   9.325  1.00  0.00     0.160 A 
HETATM   11  N4  UNL     1       5.197  12.130   8.221  1.00  0.00    -0.379 N 
ATOM     12  H41 UNL     1       5.393  11.183   7.897  1.00  0.00     0.158 HD
ATOM     13  H42 UNL     1       4.588  12.673   7.610  1.00  0.00     0.158 HD
HETATM   14  N5  UNL     1       6.489  11.868  10.119  1.00  0.00    -0.320 N 
ATOM     15  H5  UNL     1       6.702  10.916   9.821  1.00  0.00     0.169 HD
HETATM   16  C5  UNL     1       7.041  12.272  11.276  1.00  0.00     0.156 A 
HETATM   17  N6  UNL     1       7.823  11.345  11.907  1.00  0.00    -0.174 N 
ATOM     18  H6  UNL     1       7.947  10.424  11.485  1.00  0.00     0.186 HD
ENDROOT
BRANCH   1  19
HETATM   19  N1  UNL     1       9.161  10.719  13.632  1.00  0.00    -0.234 N 
ATOM     20  H12 UNL     1      10.173  10.843  13.658  1.00  0.00     0.174 HD
ATOM     21  H11 UNL     1       8.743   9.885  14.046  1.00  0.00     0.174 HD
ENDBRANCH   1  19
TORSDOF 1
ENDMDL
MODEL 4
REMARK VINA RESULT: -6.746744054      1.797      2.761
REMARK  1 active torsions:
REMARK  status: ('A' for Active; 'I' for Inactive)
REMARK    1  A    between atoms: N1_1  and  C1_4 
ROOT
HETATM    1  C1  UNL     1       8.094  11.541  13.740  1.00  0.00     0.680 A 
HETATM    2  N2  UNL     1       9.151  12.064  13.102  1.00  0.00    -0.154 N 
ATOM      3  H2  UNL     1      10.086  11.935  13.491  1.00  0.00     0.187 HD
HETATM    4  C2  UNL     1       8.999  12.756  11.958  1.00  0.00     0.290 A 
HETATM    5  O1  UNL     1      10.025  13.227  11.397  1.00  0.00    -0.265 OA
HETATM    6  C3  UNL     1       7.726  12.939  11.417  1.00  0.00     0.153 A 
HETATM    7  N3  UNL     1       7.690  13.642  10.278  1.00  0.00    -0.316 N 
ATOM      8  H3  UNL     1       8.529  14.018   9.836  1.00  0.00     0.175 HD
HETATM    9  S1  UNL     1       6.139  13.859   9.633  1.00  0.00     0.023 SA
HETATM   10  C4  UNL     1       4.930  13.117  10.594  1.00  0.00     0.160 A 
HETATM   11  N4  UNL     1       3.684  13.176  10.260  1.00  0.00    -0.379 N 
ATOM     12  H41 UNL     1       2.964  12.734  10.832  1.00  0.00     0.158 HD
ATOM     13  H42 UNL     1       3.336  13.651   9.427  1.00  0.00     0.158 HD
HETATM   14  N5  UNL     1       5.382  12.500  11.675  1.00  0.00    -0.320 N 
ATOM     15  H5  UNL     1       4.684  12.050  12.267  1.00  0.00     0.169 HD
HETATM   16  C5  UNL     1       6.661  12.404  12.075  1.00  0.00     0.156 A 
HETATM   17  N6  UNL     1       6.861  11.708  13.234  1.00  0.00    -0.174 N 
ATOM     18  H6  UNL     1       6.060  11.309  13.724  1.00  0.00     0.186 HD
ENDROOT
BRANCH   1  19
HETATM   19  N1  UNL     1       8.236  10.875  14.839  1.00  0.00    -0.234 N 
ATOM     20  H12 UNL     1       8.329  11.384  15.718  1.00  0.00     0.174 HD
ATOM     21  H11 UNL     1       8.257   9.856  14.841  1.00  0.00     0.174 HD
ENDBRANCH   1  19
TORSDOF 1
ENDMDL
MODEL 5
REMARK VINA RESULT: -6.720823228      3.173      4.521
REMARK  1 active torsions:
REMARK  status: ('A' for Active; 'I' for Inactive)
REMARK    1  A    between atoms: N1_1  and  C1_4 
ROOT
HETATM    1  C1  UNL     1       6.400  15.829  13.429  1.00  0.00     0.680 A 
HETATM    2  N2  UNL     1       5.866  15.813  12.199  1.00  0.00    -0.154 N 
ATOM      3  H2  UNL     1       5.297  16.602  11.889  1.00  0.00     0.187 HD
HETATM    4  C2  UNL     1       6.067  14.774  11.367  1.00  0.00     0.290 A 
HETATM    5  O1  UNL     1       5.543  14.809  10.221  1.00  0.00    -0.265 OA
HETATM    6  C3  UNL     1       6.843  13.691  11.779  1.00  0.00     0.153 A 
HETATM    7  N3  UNL     1       6.978  12.714  10.875  1.00  0.00    -0.316 N 
ATOM      8  H3  UNL     1       6.548  12.755   9.951  1.00  0.00     0.175 HD
HETATM    9  S1  UNL     1       7.921  11.403  11.388  1.00  0.00     0.023 SA
HETATM   10  C4  UNL     1       8.508  11.616  12.985  1.00  0.00     0.160 A 
HETATM   11  N4  UNL     1       9.247  10.720  13.547  1.00  0.00    -0.379 N 
ATOM     12  H41 UNL     1       9.597  10.847  14.497  1.00  0.00     0.158 HD
ATOM     13  H42 UNL     1       9.529   9.847  13.102  1.00  0.00     0.158 HD
HETATM   14  N5  UNL     1       8.143  12.750  13.563  1.00  0.00    -0.320 N 
ATOM     15  H5  UNL     1       8.477  12.903  14.514  1.00  0.00     0.169 HD
HETATM   16  C5  UNL     1       7.379  13.719  13.031  1.00  0.00     0.156 A 
HETATM   17  N6  UNL     1       7.148  14.794  13.843  1.00  0.00    -0.174 N 
ATOM     18  H6  UNL     1       7.552  14.810  14.780  1.00  0.00     0.186 HD
ENDROOT
BRANCH   1  19
HETATM   19  N1  UNL     1       6.208  16.825  14.231  1.00  0.00    -0.234 N 
ATOM     20  H12 UNL     1       5.290  17.270  14.257  1.00  0.00     0.174 HD
ATOM     21  H11 UNL     1       6.955  17.171  14.832  1.00  0.00     0.174 HD
ENDBRANCH   1  19
TORSDOF 1
ENDMDL
