MODEL 1
REMARK VINA RESULT: -7.797948372      0.000      0.000
REMARK  7 active torsions:
REMARK  status: ('A' for Active; 'I' for Inactive)
REMARK    1  A    between atoms: C2_2  and  N1_3 
REMARK    2  A    between atoms: N1_3  and  C3_4 
REMARK    3  A    between atoms: N1_3  and  C9_12 
REMARK    4  A    between atoms: C3_4  and  C4_5 
REMARK    5  A    between atoms: C4_5  and  N2_6 
REMARK    6  A    between atoms: C9_12  and  C10_13 
REMARK    7  A    between atoms: C11_18  and  C12_19 
ROOT
HETATM    1  C10 UNL     1      19.104   4.992  13.308  1.00  0.00     0.116 A 
HETATM    2  N3  UNL     1      19.759   4.918  14.447  1.00  0.00    -0.286 N 
ATOM      3  H3  UNL     1      20.756   5.098  14.568  1.00  0.00     0.188 HD
HETATM    4  N4  UNL     1      18.928   4.577  15.402  1.00  0.00    -0.283 N 
ATOM      5  H4  UNL     1      19.182   4.451  16.382  1.00  0.00     0.188 HD
HETATM    6  C11 UNL     1      17.702   4.418  14.903  1.00  0.00     0.134 A 
HETATM    7  N6  UNL     1      17.833   4.686  13.579  1.00  0.00    -0.328 N 
ATOM      8  H6  UNL     1      17.077   4.657  12.895  1.00  0.00     0.169 HD
ENDROOT
BRANCH   1   9
HETATM    9  C9  UNL     1      19.591   5.340  11.944  1.00  0.00     0.205 C 
BRANCH   9  10
HETATM   10  N1  UNL     1      20.533   4.409  11.404  1.00  0.00    -0.362 N 
BRANCH  10  11
HETATM   11  C2  UNL     1      21.521   4.915  10.572  1.00  0.00     0.059 C 
HETATM   12  C1  UNL     1      22.905   5.045  11.157  1.00  0.00     0.055 C 
ENDBRANCH  10  11
BRANCH  10  13
HETATM   13  C3  UNL     1      20.295   3.066  11.616  1.00  0.00     0.107 C 
BRANCH  13  14
HETATM   14  C4  UNL     1      19.700   2.334  10.481  1.00  0.00     0.102 C 
BRANCH  14  15
HETATM   15  N2  UNL     1      18.438   1.728  10.624  1.00  0.00    -0.385 N 
HETATM   16  C5  UNL     1      17.331   2.590  10.833  1.00  0.00     0.148 C 
HETATM   17  C6  UNL     1      16.178   2.024  11.593  1.00  0.00     0.187 C 
HETATM   18  O1  UNL     1      16.685   1.222  12.641  1.00  0.00    -0.388 OA
HETATM   19  C7  UNL     1      17.174   0.076  11.972  1.00  0.00     0.187 C 
HETATM   20  C8  UNL     1      18.427   0.467  11.283  1.00  0.00     0.148 C 
ENDBRANCH  14  15
ENDBRANCH  13  14
ENDBRANCH  10  13
ENDBRANCH   9  10
ENDBRANCH   1   9
BRANCH   6  21
HETATM   21  C12 UNL     1      16.462   4.034  15.573  1.00  0.00     0.039 A 
HETATM   22  C13 UNL     1      15.331   4.738  15.844  1.00  0.00     0.020 A 
HETATM   23  C14 UNL     1      15.082   6.150  15.519  1.00  0.00     0.069 C 
HETATM   24  N5  UNL     1      14.429   3.957  16.482  1.00  0.00    -0.362 N 
HETATM   25  C15 UNL     1      14.951   2.737  16.636  1.00  0.00     0.012 A 
ATOM     26  H5  UNL     1      13.505   4.251  16.795  1.00  0.00     0.165 HD
HETATM   27  C16 UNL     1      14.249   1.598  17.299  1.00  0.00     0.068 C 
HETATM   28  C17 UNL     1      16.225   2.750  16.077  1.00  0.00    -0.024 A 
HETATM   29  C18 UNL     1      17.168   1.609  16.021  1.00  0.00     0.051 C 
ENDBRANCH   6  21
TORSDOF 7
ENDMDL
MODEL 2
REMARK VINA RESULT: -7.606640969      0.792      1.042
REMARK  7 active torsions:
REMARK  status: ('A' for Active; 'I' for Inactive)
REMARK    1  A    between atoms: C2_2  and  N1_3 
REMARK    2  A    between atoms: N1_3  and  C3_4 
REMARK    3  A    between atoms: N1_3  and  C9_12 
REMARK    4  A    between atoms: C3_4  and  C4_5 
REMARK    5  A    between atoms: C4_5  and  N2_6 
REMARK    6  A    between atoms: C9_12  and  C10_13 
REMARK    7  A    between atoms: C11_18  and  C12_19 
ROOT
HETATM    1  C10 UNL     1      19.245   5.162  13.391  1.00  0.00     0.116 A 
HETATM    2  N3  UNL     1      19.880   4.913  14.518  1.00  0.00    -0.286 N 
ATOM      3  H3  UNL     1      20.883   5.018  14.666  1.00  0.00     0.188 HD
HETATM    4  N4  UNL     1      19.017   4.508  15.418  1.00  0.00    -0.283 N 
ATOM      5  H4  UNL     1      19.250   4.250  16.377  1.00  0.00     0.188 HD
HETATM    6  C11 UNL     1      17.791   4.483  14.896  1.00  0.00     0.134 A 
HETATM    7  N6  UNL     1      17.955   4.900  13.614  1.00  0.00    -0.328 N 
ATOM      8  H6  UNL     1      17.208   4.999  12.927  1.00  0.00     0.169 HD
ENDROOT
BRANCH   1   9
HETATM    9  C9  UNL     1      19.770   5.643  12.082  1.00  0.00     0.205 C 
BRANCH   9  10
HETATM   10  N1  UNL     1      19.982   4.606  11.121  1.00  0.00    -0.362 N 
BRANCH  10  11
HETATM   11  C2  UNL     1      19.840   4.941   9.782  1.00  0.00     0.059 C 
HETATM   12  C1  UNL     1      18.576   5.663   9.389  1.00  0.00     0.055 C 
ENDBRANCH  10  11
BRANCH  10  13
HETATM   13  C3  UNL     1      20.149   3.321  11.596  1.00  0.00     0.107 C 
BRANCH  13  14
HETATM   14  C4  UNL     1      19.770   2.240  10.665  1.00  0.00     0.102 C 
BRANCH  14  15
HETATM   15  N2  UNL     1      18.491   1.659  10.751  1.00  0.00    -0.385 N 
HETATM   16  C5  UNL     1      17.421   2.514  11.119  1.00  0.00     0.148 C 
HETATM   17  C6  UNL     1      16.267   1.875  11.817  1.00  0.00     0.187 C 
HETATM   18  O1  UNL     1      16.769   0.908  12.718  1.00  0.00    -0.388 OA
HETATM   19  C7  UNL     1      17.202  -0.138  11.870  1.00  0.00     0.187 C 
HETATM   20  C8  UNL     1      18.451   0.314  11.212  1.00  0.00     0.148 C 
ENDBRANCH  14  15
ENDBRANCH  13  14
ENDBRANCH  10  13
ENDBRANCH   9  10
ENDBRANCH   1   9
BRANCH   6  21
HETATM   21  C12 UNL     1      16.522   4.094  15.505  1.00  0.00     0.039 A 
HETATM   22  C13 UNL     1      15.362   4.780  15.684  1.00  0.00     0.020 A 
HETATM   23  C14 UNL     1      15.102   6.174  15.293  1.00  0.00     0.069 C 
HETATM   24  N5  UNL     1      14.441   4.002  16.297  1.00  0.00    -0.362 N 
HETATM   25  C15 UNL     1      14.979   2.801  16.526  1.00  0.00     0.012 A 
ATOM     26  H5  UNL     1      13.493   4.285  16.544  1.00  0.00     0.165 HD
HETATM   27  C16 UNL     1      14.264   1.670  17.189  1.00  0.00     0.068 C 
HETATM   28  C17 UNL     1      16.283   2.823  16.043  1.00  0.00    -0.024 A 
HETATM   29  C18 UNL     1      17.252   1.704  16.085  1.00  0.00     0.051 C 
ENDBRANCH   6  21
TORSDOF 7
ENDMDL
MODEL 3
REMARK VINA RESULT: -7.202124101      1.403      2.233
REMARK  7 active torsions:
REMARK  status: ('A' for Active; 'I' for Inactive)
REMARK    1  A    between atoms: C2_2  and  N1_3 
REMARK    2  A    between atoms: N1_3  and  C3_4 
REMARK    3  A    between atoms: N1_3  and  C9_12 
REMARK    4  A    between atoms: C3_4  and  C4_5 
REMARK    5  A    between atoms: C4_5  and  N2_6 
REMARK    6  A    between atoms: C9_12  and  C10_13 
REMARK    7  A    between atoms: C11_18  and  C12_19 
ROOT
HETATM    1  C10 UNL     1      19.145   5.315  13.667  1.00  0.00     0.116 A 
HETATM    2  N3  UNL     1      19.795   4.895  14.732  1.00  0.00    -0.286 N 
ATOM      3  H3  UNL     1      20.806   4.943  14.864  1.00  0.00     0.188 HD
HETATM    4  N4  UNL     1      18.939   4.404  15.595  1.00  0.00    -0.283 N 
ATOM      5  H4  UNL     1      19.184   4.012  16.504  1.00  0.00     0.188 HD
HETATM    6  C11 UNL     1      17.701   4.493  15.109  1.00  0.00     0.134 A 
HETATM    7  N6  UNL     1      17.852   5.072  13.890  1.00  0.00    -0.328 N 
ATOM      8  H6  UNL     1      17.093   5.288  13.243  1.00  0.00     0.169 HD
ENDROOT
BRANCH   1   9
HETATM    9  C9  UNL     1      19.657   5.947  12.419  1.00  0.00     0.205 C 
BRANCH   9  10
HETATM   10  N1  UNL     1      18.634   6.361  11.511  1.00  0.00    -0.362 N 
BRANCH  10  11
HETATM   11  C2  UNL     1      17.984   7.556  11.786  1.00  0.00     0.059 C 
HETATM   12  C1  UNL     1      16.482   7.562  11.652  1.00  0.00     0.055 C 
ENDBRANCH  10  11
BRANCH  10  13
HETATM   13  C3  UNL     1      18.257   5.471  10.526  1.00  0.00     0.107 C 
BRANCH  13  14
HETATM   14  C4  UNL     1      18.995   4.193  10.503  1.00  0.00     0.102 C 
BRANCH  14  15
HETATM   15  N2  UNL     1      18.394   3.029  11.017  1.00  0.00    -0.385 N 
HETATM   16  C5  UNL     1      19.002   1.791  10.686  1.00  0.00     0.148 C 
HETATM   17  C6  UNL     1      18.107   0.597  10.646  1.00  0.00     0.187 C 
HETATM   18  O1  UNL     1      16.875   0.981  10.068  1.00  0.00    -0.388 OA
HETATM   19  C7  UNL     1      16.266   1.759  11.080  1.00  0.00     0.187 C 
HETATM   20  C8  UNL     1      16.975   3.060  11.126  1.00  0.00     0.148 C 
ENDBRANCH  14  15
ENDBRANCH  13  14
ENDBRANCH  10  13
ENDBRANCH   9  10
ENDBRANCH   1   9
BRANCH   6  21
HETATM   21  C12 UNL     1      16.432   4.072  15.697  1.00  0.00     0.039 A 
HETATM   22  C13 UNL     1      15.275   4.750  15.919  1.00  0.00     0.020 A 
HETATM   23  C14 UNL     1      15.018   6.165  15.613  1.00  0.00     0.069 C 
HETATM   24  N5  UNL     1      14.353   3.938  16.487  1.00  0.00    -0.362 N 
HETATM   25  C15 UNL     1      14.887   2.725  16.643  1.00  0.00     0.012 A 
ATOM     26  H5  UNL     1      13.407   4.209  16.753  1.00  0.00     0.165 HD
HETATM   27  C16 UNL     1      14.170   1.558  17.239  1.00  0.00     0.068 C 
HETATM   28  C17 UNL     1      16.191   2.772  16.158  1.00  0.00    -0.024 A 
HETATM   29  C18 UNL     1      17.157   1.649  16.131  1.00  0.00     0.051 C 
ENDBRANCH   6  21
TORSDOF 7
ENDMDL
MODEL 4
REMARK VINA RESULT: -7.167168923      3.117      5.870
REMARK  7 active torsions:
REMARK  status: ('A' for Active; 'I' for Inactive)
REMARK    1  A    between atoms: C2_2  and  N1_3 
REMARK    2  A    between atoms: N1_3  and  C3_4 
REMARK    3  A    between atoms: N1_3  and  C9_12 
REMARK    4  A    between atoms: C3_4  and  C4_5 
REMARK    5  A    between atoms: C4_5  and  N2_6 
REMARK    6  A    between atoms: C9_12  and  C10_13 
REMARK    7  A    between atoms: C11_18  and  C12_19 
ROOT
HETATM    1  C10 UNL     1      18.419   4.984  14.939  1.00  0.00     0.116 A 
HETATM    2  N3  UNL     1      19.672   4.833  14.565  1.00  0.00    -0.286 N 
ATOM      3  H3  UNL     1      20.215   3.972  14.650  1.00  0.00     0.188 HD
HETATM    4  N4  UNL     1      20.113   5.962  14.065  1.00  0.00    -0.283 N 
ATOM      5  H4  UNL     1      21.054   6.113  13.701  1.00  0.00     0.188 HD
HETATM    6  C11 UNL     1      19.150   6.883  14.103  1.00  0.00     0.134 A 
HETATM    7  N6  UNL     1      18.088   6.246  14.658  1.00  0.00    -0.328 N 
ATOM      8  H6  UNL     1      17.175   6.667  14.833  1.00  0.00     0.169 HD
ENDROOT
BRANCH   1   9
HETATM    9  C9  UNL     1      17.480   4.008  15.558  1.00  0.00     0.205 C 
BRANCH   9  10
HETATM   10  N1  UNL     1      16.452   3.547  14.677  1.00  0.00    -0.362 N 
BRANCH  10  11
HETATM   11  C2  UNL     1      15.201   4.137  14.793  1.00  0.00     0.059 C 
HETATM   12  C1  UNL     1      14.874   4.784  16.115  1.00  0.00     0.055 C 
ENDBRANCH  10  11
BRANCH  10  13
HETATM   13  C3  UNL     1      16.730   2.445  13.894  1.00  0.00     0.107 C 
BRANCH  13  14
HETATM   14  C4  UNL     1      16.490   2.610  12.447  1.00  0.00     0.102 C 
BRANCH  14  15
HETATM   15  N2  UNL     1      17.576   2.823  11.578  1.00  0.00    -0.385 N 
HETATM   16  C5  UNL     1      18.612   1.855  11.594  1.00  0.00     0.148 C 
HETATM   17  C6  UNL     1      19.977   2.332  11.222  1.00  0.00     0.187 C 
HETATM   18  O1  UNL     1      20.170   3.616  11.782  1.00  0.00    -0.388 OA
HETATM   19  C7  UNL     1      19.351   4.449  10.986  1.00  0.00     0.187 C 
HETATM   20  C8  UNL     1      17.943   4.181  11.367  1.00  0.00     0.148 C 
ENDBRANCH  14  15
ENDBRANCH  13  14
ENDBRANCH  10  13
ENDBRANCH   9  10
ENDBRANCH   1   9
BRANCH   6  21
HETATM   21  C12 UNL     1      19.174   8.279  13.673  1.00  0.00     0.039 A 
HETATM   22  C13 UNL     1      18.930   8.852  12.465  1.00  0.00     0.020 A 
HETATM   23  C14 UNL     1      18.577   8.152  11.221  1.00  0.00     0.069 C 
HETATM   24  N5  UNL     1      19.064  10.196  12.543  1.00  0.00    -0.362 N 
HETATM   25  C15 UNL     1      19.394  10.522  13.795  1.00  0.00     0.012 A 
ATOM     26  H5  UNL     1      18.935  10.852  11.773  1.00  0.00     0.165 HD
HETATM   27  C16 UNL     1      19.628  11.919  14.269  1.00  0.00     0.068 C 
HETATM   28  C17 UNL     1      19.472   9.344  14.532  1.00  0.00    -0.024 A 
HETATM   29  C18 UNL     1      19.808   9.231  15.970  1.00  0.00     0.051 C 
ENDBRANCH   6  21
TORSDOF 7
ENDMDL
MODEL 5
REMARK VINA RESULT: -7.081882871      2.583      4.269
REMARK  7 active torsions:
REMARK  status: ('A' for Active; 'I' for Inactive)
REMARK    1  A    between atoms: C2_2  and  N1_3 
REMARK    2  A    between atoms: N1_3  and  C3_4 
REMARK    3  A    between atoms: N1_3  and  C9_12 
REMARK    4  A    between atoms: C3_4  and  C4_5 
REMARK    5  A    between atoms: C4_5  and  N2_6 
REMARK    6  A    between atoms: C9_12  and  C10_13 
REMARK    7  A    between atoms: C11_18  and  C12_19 
ROOT
HETATM    1  C10 UNL     1      18.401   4.135  12.529  1.00  0.00     0.116 A 
HETATM    2  N3  UNL     1      19.115   4.693  13.484  1.00  0.00    -0.286 N 
ATOM      3  H3  UNL     1      20.047   5.092  13.368  1.00  0.00     0.188 HD
HETATM    4  N4  UNL     1      18.440   4.654  14.607  1.00  0.00    -0.283 N 
ATOM      5  H4  UNL     1      18.768   5.021  15.500  1.00  0.00     0.188 HD
HETATM    6  C11 UNL     1      17.260   4.065  14.409  1.00  0.00     0.134 A 
HETATM    7  N6  UNL     1      17.254   3.744  13.090  1.00  0.00    -0.328 N 
ATOM      8  H6  UNL     1      16.490   3.277  12.601  1.00  0.00     0.169 HD
ENDROOT
BRANCH   1   9
HETATM    9  C9  UNL     1      18.718   3.935  11.087  1.00  0.00     0.205 C 
BRANCH   9  10
HETATM   10  N1  UNL     1      19.807   3.039  10.847  1.00  0.00    -0.362 N 
BRANCH  10  11
HETATM   11  C2  UNL     1      19.623   1.707  11.191  1.00  0.00     0.059 C 
HETATM   12  C1  UNL     1      18.387   1.030  10.657  1.00  0.00     0.055 C 
ENDBRANCH  10  11
BRANCH  10  13
HETATM   13  C3  UNL     1      21.008   3.588  10.447  1.00  0.00     0.107 C 
BRANCH  13  14
HETATM   14  C4  UNL     1      20.986   4.305   9.156  1.00  0.00     0.102 C 
BRANCH  14  15
HETATM   15  N2  UNL     1      22.188   4.778   8.598  1.00  0.00    -0.385 N 
HETATM   16  C5  UNL     1      22.381   4.560   7.210  1.00  0.00     0.148 C 
HETATM   17  C6  UNL     1      23.794   4.449   6.742  1.00  0.00     0.187 C 
HETATM   18  O1  UNL     1      24.526   3.714   7.703  1.00  0.00    -0.388 OA
HETATM   19  C7  UNL     1      24.655   4.621   8.780  1.00  0.00     0.187 C 
HETATM   20  C8  UNL     1      23.331   4.713   9.442  1.00  0.00     0.148 C 
ENDBRANCH  14  15
ENDBRANCH  13  14
ENDBRANCH  10  13
ENDBRANCH   9  10
ENDBRANCH   1   9
BRANCH   6  21
HETATM   21  C12 UNL     1      16.183   3.786  15.355  1.00  0.00     0.039 A 
HETATM   22  C13 UNL     1      15.226   4.590  15.889  1.00  0.00     0.020 A 
HETATM   23  C14 UNL     1      15.048   6.027  15.634  1.00  0.00     0.069 C 
HETATM   24  N5  UNL     1      14.428   3.884  16.724  1.00  0.00    -0.362 N 
HETATM   25  C15 UNL     1      14.847   2.617  16.748  1.00  0.00     0.012 A 
ATOM     26  H5  UNL     1      13.638   4.259  17.249  1.00  0.00     0.165 HD
HETATM   27  C16 UNL     1      14.213   1.535  17.559  1.00  0.00     0.068 C 
HETATM   28  C17 UNL     1      15.946   2.519  15.901  1.00  0.00    -0.024 A 
HETATM   29  C18 UNL     1      16.730   1.294  15.621  1.00  0.00     0.051 C 
ENDBRANCH   6  21
TORSDOF 7
ENDMDL
