MODEL 1
REMARK VINA RESULT: -7.489759939      0.000      0.000
REMARK  9 active torsions:
REMARK  status: ('A' for Active; 'I' for Inactive)
REMARK    1  A    between atoms: C2_2  and  C3_3 
REMARK    2  A    between atoms: C4_6  and  C5_7 
REMARK    3  A    between atoms: C5_7  and  C6_8 
REMARK    4  A    between atoms: C6_8  and  N2_9 
REMARK    5  A    between atoms: N2_9  and  C7_11 
REMARK    6  A    between atoms: C8_14  and  N4_15 
REMARK    7  A    between atoms: N4_15  and  C9_17 
REMARK    8  A    between atoms: C13_23  and  C14_24 
REMARK    9  A    between atoms: C14_24  and  C15_25 
ROOT
HETATM    1  C7  UNL     1      18.440   5.267  12.571  1.00  0.00     0.124 A 
HETATM    2  N3  UNL     1      17.864   6.503  12.616  1.00  0.00    -0.176 N 
ATOM      3  H3  UNL     1      18.044   7.116  13.412  1.00  0.00     0.186 HD
HETATM    4  C8  UNL     1      17.065   6.921  11.627  1.00  0.00     0.679 A 
HETATM    5  N5  UNL     1      16.832   6.115  10.585  1.00  0.00    -0.201 N 
ATOM      6  H5  UNL     1      16.222   6.440   9.834  1.00  0.00     0.183 HD
HETATM    7  C12 UNL     1      17.379   4.882  10.498  1.00  0.00     0.117 A 
HETATM    8  C13 UNL     1      18.195   4.451  11.503  1.00  0.00     0.003 A 
ENDROOT
BRANCH   1   9
HETATM    9  N2  UNL     1      19.194   4.908  13.539  1.00  0.00    -0.375 N 
ATOM     10  H2  UNL     1      20.084   4.465  13.311  1.00  0.00     0.161 HD
BRANCH   9  11
HETATM   11  C6  UNL     1      18.868   5.088  14.938  1.00  0.00     0.129 C 
BRANCH  11  12
HETATM   12  C5  UNL     1      17.378   4.859  15.070  1.00  0.00     0.098 C 
BRANCH  12  13
HETATM   13  C4  UNL     1      17.124   3.571  15.789  1.00  0.00     0.105 A 
HETATM   14  N1  UNL     1      15.942   3.168  16.288  1.00  0.00    -0.327 N 
HETATM   15  C3  UNL     1      16.085   1.965  16.864  1.00  0.00     0.147 A 
ATOM     16  H1  UNL     1      15.071   3.697  16.237  1.00  0.00     0.169 HD
HETATM   17  O1  UNL     1      17.342   1.635  16.717  1.00  0.00    -0.223 OA
HETATM   18  N6  UNL     1      17.987   2.583  16.075  1.00  0.00    -0.247 N 
ATOM     19  H6  UNL     1      18.978   2.571  15.834  1.00  0.00     0.196 HD
BRANCH  15  20
HETATM   20  C2  UNL     1      15.071   1.111  17.550  1.00  0.00     0.082 C 
HETATM   21  C1  UNL     1      13.682   1.682  17.271  1.00  0.00     0.013 C 
ENDBRANCH  15  20
ENDBRANCH  12  13
ENDBRANCH  11  12
ENDBRANCH   9  11
ENDBRANCH   1   9
BRANCH   8  22
HETATM   22  C14 UNL     1      18.804   3.096  11.412  1.00  0.00     0.048 C 
BRANCH  22  23
HETATM   23  C15 UNL     1      17.737   2.030  11.319  1.00  0.00    -0.010 C 
HETATM   24  C16 UNL     1      18.348   0.645  11.175  1.00  0.00     0.005 C 
HETATM   25  C17 UNL     1      17.183   0.151  12.045  1.00  0.00     0.001 C 
HETATM   26  C18 UNL     1      17.204   1.555  12.669  1.00  0.00     0.005 C 
ENDBRANCH  22  23
ENDBRANCH   8  22
BRANCH   4  27
HETATM   27  N4  UNL     1      16.519   8.079  11.658  1.00  0.00    -0.222 N 
ATOM     28  H4  UNL     1      16.905   8.772  12.300  1.00  0.00     0.178 HD
BRANCH  27  29
HETATM   29  C9  UNL     1      15.392   8.463  10.843  1.00  0.00     0.091 C 
HETATM   30  C10 UNL     1      14.119   8.435  11.693  1.00  0.00     0.032 C 
HETATM   31  C11 UNL     1      15.562   9.880  10.335  1.00  0.00     0.032 C 
ENDBRANCH  27  29
ENDBRANCH   4  27
TORSDOF 9
ENDMDL
MODEL 2
REMARK VINA RESULT: -7.482401789      1.118      4.825
REMARK  9 active torsions:
REMARK  status: ('A' for Active; 'I' for Inactive)
REMARK    1  A    between atoms: C2_2  and  C3_3 
REMARK    2  A    between atoms: C4_6  and  C5_7 
REMARK    3  A    between atoms: C5_7  and  C6_8 
REMARK    4  A    between atoms: C6_8  and  N2_9 
REMARK    5  A    between atoms: N2_9  and  C7_11 
REMARK    6  A    between atoms: C8_14  and  N4_15 
REMARK    7  A    between atoms: N4_15  and  C9_17 
REMARK    8  A    between atoms: C13_23  and  C14_24 
REMARK    9  A    between atoms: C14_24  and  C15_25 
ROOT
HETATM    1  C7  UNL     1      18.409   5.419  12.614  1.00  0.00     0.124 A 
HETATM    2  N3  UNL     1      18.695   4.090  12.499  1.00  0.00    -0.176 N 
ATOM      3  H3  UNL     1      19.276   3.636  13.203  1.00  0.00     0.186 HD
HETATM    4  C8  UNL     1      18.221   3.376  11.471  1.00  0.00     0.679 A 
HETATM    5  N5  UNL     1      17.459   3.976  10.550  1.00  0.00    -0.201 N 
ATOM      6  H5  UNL     1      17.100   3.426   9.769  1.00  0.00     0.183 HD
HETATM    7  C12 UNL     1      17.150   5.290  10.621  1.00  0.00     0.117 A 
HETATM    8  C13 UNL     1      17.631   6.023  11.667  1.00  0.00     0.003 A 
ENDROOT
BRANCH   1   9
HETATM    9  N2  UNL     1      18.886   6.064  13.610  1.00  0.00    -0.375 N 
ATOM     10  H2  UNL     1      19.469   6.878  13.416  1.00  0.00     0.161 HD
BRANCH   9  11
HETATM   11  C6  UNL     1      18.651   5.715  14.995  1.00  0.00     0.129 C 
BRANCH  11  12
HETATM   12  C5  UNL     1      17.197   5.310  15.102  1.00  0.00     0.098 C 
BRANCH  12  13
HETATM   13  C4  UNL     1      17.091   3.965  15.750  1.00  0.00     0.105 A 
HETATM   14  N1  UNL     1      15.970   3.420  16.252  1.00  0.00    -0.327 N 
HETATM   15  C3  UNL     1      16.246   2.206  16.753  1.00  0.00     0.147 A 
ATOM     16  H1  UNL     1      15.050   3.861  16.253  1.00  0.00     0.169 HD
HETATM   17  O1  UNL     1      17.525   2.012  16.558  1.00  0.00    -0.223 OA
HETATM   18  N6  UNL     1      18.056   3.053  15.958  1.00  0.00    -0.247 N 
ATOM     19  H6  UNL     1      19.036   3.153  15.693  1.00  0.00     0.196 HD
BRANCH  15  20
HETATM   20  C2  UNL     1      15.341   1.218  17.411  1.00  0.00     0.082 C 
HETATM   21  C1  UNL     1      13.900   1.700  17.260  1.00  0.00     0.013 C 
ENDBRANCH  15  20
ENDBRANCH  12  13
ENDBRANCH  11  12
ENDBRANCH   9  11
ENDBRANCH   1   9
BRANCH   8  22
HETATM   22  C14 UNL     1      17.292   7.470  11.755  1.00  0.00     0.048 C 
BRANCH  22  23
HETATM   23  C15 UNL     1      15.970   7.756  11.080  1.00  0.00    -0.010 C 
HETATM   24  C16 UNL     1      14.826   7.762  12.083  1.00  0.00     0.005 C 
HETATM   25  C17 UNL     1      14.226   8.895  11.237  1.00  0.00     0.001 C 
HETATM   26  C18 UNL     1      15.679   9.241  10.875  1.00  0.00     0.005 C 
ENDBRANCH  22  23
ENDBRANCH   8  22
BRANCH   4  27
HETATM   27  N4  UNL     1      18.482   2.128  11.353  1.00  0.00    -0.222 N 
ATOM     28  H4  UNL     1      19.433   1.861  11.101  1.00  0.00     0.178 HD
BRANCH  27  29
HETATM   29  C9  UNL     1      17.513   1.077  11.553  1.00  0.00     0.091 C 
HETATM   30  C10 UNL     1      18.165  -0.276  11.256  1.00  0.00     0.032 C 
HETATM   31  C11 UNL     1      17.052   1.047  12.996  1.00  0.00     0.032 C 
ENDBRANCH  27  29
ENDBRANCH   4  27
TORSDOF 9
ENDMDL
MODEL 3
REMARK VINA RESULT: -7.475338210      2.558      3.968
REMARK  9 active torsions:
REMARK  status: ('A' for Active; 'I' for Inactive)
REMARK    1  A    between atoms: C2_2  and  C3_3 
REMARK    2  A    between atoms: C4_6  and  C5_7 
REMARK    3  A    between atoms: C5_7  and  C6_8 
REMARK    4  A    between atoms: C6_8  and  N2_9 
REMARK    5  A    between atoms: N2_9  and  C7_11 
REMARK    6  A    between atoms: C8_14  and  N4_15 
REMARK    7  A    between atoms: N4_15  and  C9_17 
REMARK    8  A    between atoms: C13_23  and  C14_24 
REMARK    9  A    between atoms: C14_24  and  C15_25 
ROOT
HETATM    1  C7  UNL     1      19.700   4.926  12.372  1.00  0.00     0.124 A 
HETATM    2  N3  UNL     1      20.936   5.500  12.432  1.00  0.00    -0.176 N 
ATOM      3  H3  UNL     1      21.098   6.284  13.064  1.00  0.00     0.186 HD
HETATM    4  C8  UNL     1      21.939   5.045  11.671  1.00  0.00     0.679 A 
HETATM    5  N5  UNL     1      21.721   4.016  10.844  1.00  0.00    -0.201 N 
ATOM      6  H5  UNL     1      22.490   3.674  10.267  1.00  0.00     0.183 HD
HETATM    7  C12 UNL     1      20.514   3.416  10.749  1.00  0.00     0.117 A 
HETATM    8  C13 UNL     1      19.488   3.876  11.524  1.00  0.00     0.003 A 
ENDROOT
BRANCH   1   9
HETATM    9  N2  UNL     1      18.770   5.394  13.115  1.00  0.00    -0.375 N 
ATOM     10  H2  UNL     1      17.966   5.823  12.657  1.00  0.00     0.161 HD
BRANCH   9  11
HETATM   11  C6  UNL     1      18.784   5.355  14.561  1.00  0.00     0.129 C 
BRANCH  11  12
HETATM   12  C5  UNL     1      17.349   5.179  15.006  1.00  0.00     0.098 C 
BRANCH  12  13
HETATM   13  C4  UNL     1      17.187   3.855  15.685  1.00  0.00     0.105 A 
HETATM   14  N1  UNL     1      16.048   3.376  16.214  1.00  0.00    -0.327 N 
HETATM   15  C3  UNL     1      16.272   2.161  16.738  1.00  0.00     0.147 A 
ATOM     16  H1  UNL     1      15.150   3.861  16.216  1.00  0.00     0.169 HD
HETATM   17  O1  UNL     1      17.538   1.901  16.533  1.00  0.00    -0.223 OA
HETATM   18  N6  UNL     1      18.109   2.902  15.902  1.00  0.00    -0.247 N 
ATOM     19  H6  UNL     1      19.089   2.949  15.623  1.00  0.00     0.196 HD
BRANCH  15  20
HETATM   20  C2  UNL     1      15.329   1.233  17.430  1.00  0.00     0.082 C 
HETATM   21  C1  UNL     1      13.904   1.739  17.219  1.00  0.00     0.013 C 
ENDBRANCH  15  20
ENDBRANCH  12  13
ENDBRANCH  11  12
ENDBRANCH   9  11
ENDBRANCH   1   9
BRANCH   8  22
HETATM   22  C14 UNL     1      18.156   3.218  11.428  1.00  0.00     0.048 C 
BRANCH  22  23
HETATM   23  C15 UNL     1      18.248   1.757  11.805  1.00  0.00    -0.010 C 
HETATM   24  C16 UNL     1      17.117   1.353  12.738  1.00  0.00     0.005 C 
HETATM   25  C17 UNL     1      17.124   0.007  11.999  1.00  0.00     0.001 C 
HETATM   26  C18 UNL     1      17.627   0.805  10.786  1.00  0.00     0.005 C 
ENDBRANCH  22  23
ENDBRANCH   8  22
BRANCH   4  27
HETATM   27  N4  UNL     1      23.102   5.576  11.719  1.00  0.00    -0.222 N 
ATOM     28  H4  UNL     1      23.890   5.034  11.365  1.00  0.00     0.178 HD
BRANCH  27  29
HETATM   29  C9  UNL     1      23.368   6.894  12.244  1.00  0.00     0.091 C 
HETATM   30  C10 UNL     1      24.750   6.907  12.903  1.00  0.00     0.032 C 
HETATM   31  C11 UNL     1      23.393   7.916  11.127  1.00  0.00     0.032 C 
ENDBRANCH  27  29
ENDBRANCH   4  27
TORSDOF 9
ENDMDL
MODEL 4
REMARK VINA RESULT: -7.422695967      2.791      6.459
REMARK  9 active torsions:
REMARK  status: ('A' for Active; 'I' for Inactive)
REMARK    1  A    between atoms: C2_2  and  C3_3 
REMARK    2  A    between atoms: C4_6  and  C5_7 
REMARK    3  A    between atoms: C5_7  and  C6_8 
REMARK    4  A    between atoms: C6_8  and  N2_9 
REMARK    5  A    between atoms: N2_9  and  C7_11 
REMARK    6  A    between atoms: C8_14  and  N4_15 
REMARK    7  A    between atoms: N4_15  and  C9_17 
REMARK    8  A    between atoms: C13_23  and  C14_24 
REMARK    9  A    between atoms: C14_24  and  C15_25 
ROOT
HETATM    1  C7  UNL     1      18.934   5.147  14.084  1.00  0.00     0.124 A 
HETATM    2  N3  UNL     1      18.002   4.187  14.351  1.00  0.00    -0.176 N 
ATOM      3  H3  UNL     1      18.193   3.215  14.107  1.00  0.00     0.186 HD
HETATM    4  C8  UNL     1      16.838   4.506  14.931  1.00  0.00     0.679 A 
HETATM    5  N5  UNL     1      16.591   5.782  15.250  1.00  0.00    -0.201 N 
ATOM      6  H5  UNL     1      15.702   6.018  15.692  1.00  0.00     0.183 HD
HETATM    7  C12 UNL     1      17.483   6.767  15.004  1.00  0.00     0.117 A 
HETATM    8  C13 UNL     1      18.671   6.447  14.414  1.00  0.00     0.003 A 
ENDROOT
BRANCH   1   9
HETATM    9  N2  UNL     1      20.030   4.798  13.527  1.00  0.00    -0.375 N 
ATOM     10  H2  UNL     1      20.738   4.349  14.109  1.00  0.00     0.161 HD
BRANCH   9  11
HETATM   11  C6  UNL     1      20.332   4.996  12.126  1.00  0.00     0.129 C 
BRANCH  11  12
HETATM   12  C5  UNL     1      20.643   3.632  11.551  1.00  0.00     0.098 C 
BRANCH  12  13
HETATM   13  C4  UNL     1      19.371   2.878  11.317  1.00  0.00     0.105 A 
HETATM   14  N1  UNL     1      19.151   1.589  11.628  1.00  0.00    -0.327 N 
HETATM   15  C3  UNL     1      17.901   1.249  11.279  1.00  0.00     0.147 A 
ATOM     16  H1  UNL     1      19.830   0.965  12.064  1.00  0.00     0.169 HD
HETATM   17  O1  UNL     1      17.362   2.321  10.758  1.00  0.00    -0.223 OA
HETATM   18  N6  UNL     1      18.224   3.313  10.769  1.00  0.00    -0.247 N 
ATOM     19  H6  UNL     1      18.051   4.256  10.421  1.00  0.00     0.196 HD
BRANCH  15  20
HETATM   20  C2  UNL     1      17.194  -0.058  11.420  1.00  0.00     0.082 C 
HETATM   21  C1  UNL     1      18.234  -1.177  11.435  1.00  0.00     0.013 C 
ENDBRANCH  15  20
ENDBRANCH  12  13
ENDBRANCH  11  12
ENDBRANCH   9  11
ENDBRANCH   1   9
BRANCH   8  22
HETATM   22  C14 UNL     1      19.660   7.526  14.143  1.00  0.00     0.048 C 
BRANCH  22  23
HETATM   23  C15 UNL     1      19.099   8.878  14.518  1.00  0.00    -0.010 C 
HETATM   24  C16 UNL     1      19.972   9.574  15.551  1.00  0.00     0.005 C 
HETATM   25  C17 UNL     1      19.620  10.878  14.821  1.00  0.00     0.001 C 
HETATM   26  C18 UNL     1      19.488  10.005  13.564  1.00  0.00     0.005 C 
ENDBRANCH  22  23
ENDBRANCH   8  22
BRANCH   4  27
HETATM   27  N4  UNL     1      15.956   3.614  15.186  1.00  0.00    -0.222 N 
ATOM     28  H4  UNL     1      15.252   3.420  14.474  1.00  0.00     0.178 HD
BRANCH  27  29
HETATM   29  C9  UNL     1      15.897   2.866  16.419  1.00  0.00     0.091 C 
HETATM   30  C10 UNL     1      14.438   2.743  16.867  1.00  0.00     0.032 C 
HETATM   31  C11 UNL     1      16.424   1.461  16.214  1.00  0.00     0.032 C 
ENDBRANCH  27  29
ENDBRANCH   4  27
TORSDOF 9
ENDMDL
MODEL 5
REMARK VINA RESULT: -7.401608462      2.006      5.145
REMARK  9 active torsions:
REMARK  status: ('A' for Active; 'I' for Inactive)
REMARK    1  A    between atoms: C2_2  and  C3_3 
REMARK    2  A    between atoms: C4_6  and  C5_7 
REMARK    3  A    between atoms: C5_7  and  C6_8 
REMARK    4  A    between atoms: C6_8  and  N2_9 
REMARK    5  A    between atoms: N2_9  and  C7_11 
REMARK    6  A    between atoms: C8_14  and  N4_15 
REMARK    7  A    between atoms: N4_15  and  C9_17 
REMARK    8  A    between atoms: C13_23  and  C14_24 
REMARK    9  A    between atoms: C14_24  and  C15_25 
ROOT
HETATM    1  C7  UNL     1      17.971   5.481  12.610  1.00  0.00     0.124 A 
HETATM    2  N3  UNL     1      17.919   4.138  12.371  1.00  0.00    -0.176 N 
ATOM      3  H3  UNL     1      17.028   3.647  12.443  1.00  0.00     0.186 HD
HETATM    4  C8  UNL     1      19.025   3.459  12.044  1.00  0.00     0.679 A 
HETATM    5  N5  UNL     1      20.191   4.108  11.950  1.00  0.00    -0.201 N 
ATOM      6  H5  UNL     1      21.030   3.585  11.699  1.00  0.00     0.183 HD
HETATM    7  C12 UNL     1      20.292   5.437  12.178  1.00  0.00     0.117 A 
HETATM    8  C13 UNL     1      19.167   6.134  12.512  1.00  0.00     0.003 A 
ENDROOT
BRANCH   1   9
HETATM    9  N2  UNL     1      16.891   6.089  12.923  1.00  0.00    -0.375 N 
ATOM     10  H2  UNL     1      16.632   6.911  12.377  1.00  0.00     0.161 HD
BRANCH   9  11
HETATM   11  C6  UNL     1      16.011   5.687  13.999  1.00  0.00     0.129 C 
BRANCH  11  12
HETATM   12  C5  UNL     1      16.856   5.631  15.253  1.00  0.00     0.098 C 
BRANCH  12  13
HETATM   13  C4  UNL     1      16.904   4.227  15.770  1.00  0.00     0.105 A 
HETATM   14  N1  UNL     1      15.866   3.539  16.278  1.00  0.00    -0.327 N 
HETATM   15  C3  UNL     1      16.274   2.313  16.639  1.00  0.00     0.147 A 
ATOM     16  H1  UNL     1      14.914   3.895  16.373  1.00  0.00     0.169 HD
HETATM   17  O1  UNL     1      17.549   2.253  16.356  1.00  0.00    -0.223 OA
HETATM   18  N6  UNL     1      17.952   3.389  15.832  1.00  0.00    -0.247 N 
ATOM     19  H6  UNL     1      18.901   3.600  15.525  1.00  0.00     0.196 HD
BRANCH  15  20
HETATM   20  C2  UNL     1      15.498   1.192  17.246  1.00  0.00     0.082 C 
HETATM   21  C1  UNL     1      14.025   1.592  17.304  1.00  0.00     0.013 C 
ENDBRANCH  15  20
ENDBRANCH  12  13
ENDBRANCH  11  12
ENDBRANCH   9  11
ENDBRANCH   1   9
BRANCH   8  22
HETATM   22  C14 UNL     1      19.269   7.598  12.761  1.00  0.00     0.048 C 
BRANCH  22  23
HETATM   23  C15 UNL     1      19.814   7.873  14.143  1.00  0.00    -0.010 C 
HETATM   24  C16 UNL     1      20.553   9.202  14.194  1.00  0.00     0.005 C 
HETATM   25  C17 UNL     1      19.981   9.351  15.611  1.00  0.00     0.001 C 
HETATM   26  C18 UNL     1      18.806   8.501  15.103  1.00  0.00     0.005 C 
ENDBRANCH  22  23
ENDBRANCH   8  22
BRANCH   4  27
HETATM   27  N4  UNL     1      18.989   2.200  11.817  1.00  0.00    -0.222 N 
ATOM     28  H4  UNL     1      19.873   1.692  11.794  1.00  0.00     0.178 HD
BRANCH  27  29
HETATM   29  C9  UNL     1      17.773   1.454  11.593  1.00  0.00     0.091 C 
HETATM   30  C10 UNL     1      18.097   0.186  10.798  1.00  0.00     0.032 C 
HETATM   31  C11 UNL     1      17.168   1.016  12.910  1.00  0.00     0.032 C 
ENDBRANCH  27  29
ENDBRANCH   4  27
TORSDOF 9
ENDMDL
