MODEL 1
REMARK VINA RESULT: -7.699895712      0.000      0.000
REMARK  16 active torsions:
REMARK  status: ('A' for Active; 'I' for Inactive)
REMARK       I    between atoms: C2_2  and  N1_4 
REMARK    1  A    between atoms: N1_4  and  C3_6 
REMARK    2  A    between atoms: C3_6  and  C4_7 
REMARK    3  A    between atoms: C3_6  and  C15_37 
REMARK    4  A    between atoms: C4_7  and  S1_8 
REMARK    5  A    between atoms: S1_8  and  S2_9 
REMARK    6  A    between atoms: S2_9  and  C5_10 
REMARK    7  A    between atoms: C5_10  and  C6_11 
REMARK    8  A    between atoms: C6_11  and  N2_12 
REMARK    9  A    between atoms: C6_11  and  C7_16 
REMARK       I    between atoms: C7_16  and  N3_18 
REMARK   10  A    between atoms: N3_18  and  C8_20 
REMARK   11  A    between atoms: C9_22  and  C10_23 
REMARK   12  A    between atoms: C10_23  and  N4_24 
REMARK   13  A    between atoms: C12_29  and  O4_30 
REMARK   14  A    between atoms: C13_32  and  N7_33 
REMARK   15  A    between atoms: C15_37  and  N9_38 
REMARK   16  A    between atoms: C15_37  and  C16_42 
ROOT
HETATM    1  C6  UNL     1      -4.793  10.427 125.467  1.00  0.00     0.284 C 
ENDROOT
BRANCH   1   2
HETATM    2  C5  UNL     1      -3.568  11.293 125.538  1.00  0.00     0.128 C 
BRANCH   2   3
HETATM    3  S2  UNL     1      -3.844  13.041 125.419  1.00  0.00    -0.095 SA
BRANCH   3   4
HETATM    4  S1  UNL     1      -3.672  13.828 123.478  1.00  0.00    -0.096 SA
BRANCH   4   5
HETATM    5  C4  UNL     1      -4.198  15.526 123.336  1.00  0.00     0.113 C 
BRANCH   5   6
HETATM    6  C3  UNL     1      -4.588  15.969 121.962  1.00  0.00     0.133 C 
BRANCH   6   7
HETATM    7  N1  UNL     1      -3.633  15.522 120.985  1.00  0.00    -0.354 N 
HETATM    8  C2  UNL     1      -2.627  16.348 120.432  1.00  0.00     0.214 C 
HETATM    9  C1  UNL     1      -1.682  15.815 119.431  1.00  0.00     0.117 C 
HETATM   10  O1  UNL     1      -2.525  17.545 120.785  1.00  0.00    -0.274 OA
ATOM     11  H1  UNL     1      -3.684  14.553 120.672  1.00  0.00     0.162 HD
ENDBRANCH   6   7
BRANCH   6  12
HETATM   12  C15 UNL     1      -6.022  15.702 121.596  1.00  0.00     0.295 C 
BRANCH  12  13
HETATM   13  N9  UNL     1      -6.785  15.588 122.836  1.00  0.00    -0.065 N 
ATOM     14  H93 UNL     1      -7.443  14.809 122.826  1.00  0.00     0.275 HD
ATOM     15  H92 UNL     1      -6.217  15.275 123.624  1.00  0.00     0.275 HD
ATOM     16  H91 UNL     1      -7.238  16.486 123.007  1.00  0.00     0.275 HD
ENDBRANCH  12  13
BRANCH  12  17
HETATM   17  C16 UNL     1      -6.576  16.846 120.836  1.00  0.00     0.263 C 
HETATM   18  N10 UNL     1      -7.974  17.184 120.936  1.00  0.00    -0.060 NA
HETATM   19  O5  UNL     1      -5.814  17.519 120.104  1.00  0.00    -0.274 OA
ENDBRANCH  12  17
ENDBRANCH   6  12
ENDBRANCH   5   6
ENDBRANCH   4   5
ENDBRANCH   3   4
ENDBRANCH   2   3
ENDBRANCH   1   2
BRANCH   1  20
HETATM   20  N2  UNL     1      -4.765   9.290 126.320  1.00  0.00    -0.066 N 
ATOM     21  H23 UNL     1      -4.905   8.437 125.778  1.00  0.00     0.275 HD
ATOM     22  H22 UNL     1      -3.819   9.128 126.663  1.00  0.00     0.275 HD
ATOM     23  H21 UNL     1      -5.423   9.327 127.099  1.00  0.00     0.275 HD
ENDBRANCH   1  20
BRANCH   1  24
HETATM   24  C7  UNL     1      -5.126  10.007 124.102  1.00  0.00     0.251 C 
HETATM   25  O2  UNL     1      -5.896  10.707 123.419  1.00  0.00    -0.271 OA
HETATM   26  N3  UNL     1      -4.589   8.829 123.559  1.00  0.00    -0.331 N 
ATOM     27  H3  UNL     1      -3.959   8.280 124.145  1.00  0.00     0.165 HD
BRANCH  26  28
HETATM   28  C8  UNL     1      -4.864   8.340 122.229  1.00  0.00     0.249 C 
HETATM   29  O3  UNL     1      -4.182   7.147 122.030  1.00  0.00    -0.355 OA
HETATM   30  C9  UNL     1      -2.959   7.583 121.533  1.00  0.00     0.172 C 
HETATM   31  C12 UNL     1      -3.395   8.492 120.405  1.00  0.00     0.175 C 
HETATM   32  C13 UNL     1      -4.478   9.294 121.133  1.00  0.00     0.162 C 
BRANCH  30  33
HETATM   33  C10 UNL     1      -2.082   6.449 121.082  1.00  0.00     0.156 C 
BRANCH  33  34
HETATM   34  N4  UNL     1      -2.831   5.265 120.823  1.00  0.00    -0.364 N 
HETATM   35  C11 UNL     1      -2.976   4.665 119.712  1.00  0.00     0.197 C 
HETATM   36  N5  UNL     1      -3.773   3.480 119.654  1.00  0.00    -0.067 NA
HETATM   37  N6  UNL     1      -2.384   5.108 118.500  1.00  0.00    -0.067 NA
ATOM     38  H4  UNL     1      -3.307   4.851 121.623  1.00  0.00     0.161 HD
ENDBRANCH  33  34
ENDBRANCH  30  33
BRANCH  31  39
HETATM   39  O4  UNL     1      -3.960   7.694 119.418  1.00  0.00    -0.391 OA
ATOM     40  H4  UNL     1      -4.883   7.601 119.618  1.00  0.00     0.210 HD
ENDBRANCH  31  39
BRANCH  32  41
HETATM   41  N7  UNL     1      -5.565   9.576 120.225  1.00  0.00    -0.377 N 
HETATM   42  C14 UNL     1      -5.781  10.789 119.865  1.00  0.00     0.185 C 
HETATM   43  N8  UNL     1      -4.972  11.844 120.343  1.00  0.00    -0.097 NA
ATOM     44  H7  UNL     1      -6.155   8.821 119.875  1.00  0.00     0.160 HD
ENDBRANCH  32  41
ENDBRANCH  26  28
ENDBRANCH   1  24
TORSDOF 16
ENDMDL
MODEL 2
REMARK VINA RESULT: -7.623507340      1.648      1.986
REMARK  16 active torsions:
REMARK  status: ('A' for Active; 'I' for Inactive)
REMARK       I    between atoms: C2_2  and  N1_4 
REMARK    1  A    between atoms: N1_4  and  C3_6 
REMARK    2  A    between atoms: C3_6  and  C4_7 
REMARK    3  A    between atoms: C3_6  and  C15_37 
REMARK    4  A    between atoms: C4_7  and  S1_8 
REMARK    5  A    between atoms: S1_8  and  S2_9 
REMARK    6  A    between atoms: S2_9  and  C5_10 
REMARK    7  A    between atoms: C5_10  and  C6_11 
REMARK    8  A    between atoms: C6_11  and  N2_12 
REMARK    9  A    between atoms: C6_11  and  C7_16 
REMARK       I    between atoms: C7_16  and  N3_18 
REMARK   10  A    between atoms: N3_18  and  C8_20 
REMARK   11  A    between atoms: C9_22  and  C10_23 
REMARK   12  A    between atoms: C10_23  and  N4_24 
REMARK   13  A    between atoms: C12_29  and  O4_30 
REMARK   14  A    between atoms: C13_32  and  N7_33 
REMARK   15  A    between atoms: C15_37  and  N9_38 
REMARK   16  A    between atoms: C15_37  and  C16_42 
ROOT
HETATM    1  C6  UNL     1      -5.530   9.687 123.451  1.00  0.00     0.284 C 
ENDROOT
BRANCH   1   2
HETATM    2  C5  UNL     1      -4.887  10.865 124.125  1.00  0.00     0.128 C 
BRANCH   2   3
HETATM    3  S2  UNL     1      -5.271  12.456 123.442  1.00  0.00    -0.095 SA
BRANCH   3   4
HETATM    4  S1  UNL     1      -3.673  13.822 123.442  1.00  0.00    -0.096 SA
BRANCH   4   5
HETATM    5  C4  UNL     1      -4.177  15.525 123.286  1.00  0.00     0.113 C 
BRANCH   5   6
HETATM    6  C3  UNL     1      -4.597  15.952 121.917  1.00  0.00     0.133 C 
BRANCH   6   7
HETATM    7  N1  UNL     1      -3.678  15.470 120.921  1.00  0.00    -0.354 N 
HETATM    8  C2  UNL     1      -2.662  16.262 120.337  1.00  0.00     0.214 C 
HETATM    9  C1  UNL     1      -1.757  15.694 119.320  1.00  0.00     0.117 C 
HETATM   10  O1  UNL     1      -2.518  17.458 120.678  1.00  0.00    -0.274 OA
ATOM     11  H1  UNL     1      -3.765  14.500 120.618  1.00  0.00     0.162 HD
ENDBRANCH   6   7
BRANCH   6  12
HETATM   12  C15 UNL     1      -6.045  15.707 121.595  1.00  0.00     0.295 C 
BRANCH  12  13
HETATM   13  N9  UNL     1      -6.780  15.659 122.856  1.00  0.00    -0.065 N 
ATOM     14  H93 UNL     1      -6.432  16.328 123.543  1.00  0.00     0.275 HD
ATOM     15  H92 UNL     1      -7.728  16.028 122.777  1.00  0.00     0.275 HD
ATOM     16  H91 UNL     1      -6.757  14.697 123.193  1.00  0.00     0.275 HD
ENDBRANCH  12  13
BRANCH  12  17
HETATM   17  C16 UNL     1      -6.591  16.835 120.805  1.00  0.00     0.263 C 
HETATM   18  N10 UNL     1      -7.995  17.157 120.861  1.00  0.00    -0.060 NA
HETATM   19  O5  UNL     1      -5.816  17.508 120.086  1.00  0.00    -0.274 OA
ENDBRANCH  12  17
ENDBRANCH   6  12
ENDBRANCH   5   6
ENDBRANCH   4   5
ENDBRANCH   3   4
ENDBRANCH   2   3
ENDBRANCH   1   2
BRANCH   1  20
HETATM   20  N2  UNL     1      -5.424   8.464 124.168  1.00  0.00    -0.066 N 
ATOM     21  H23 UNL     1      -5.266   8.646 125.159  1.00  0.00     0.275 HD
ATOM     22  H22 UNL     1      -6.331   8.001 124.215  1.00  0.00     0.275 HD
ATOM     23  H21 UNL     1      -4.717   7.822 123.809  1.00  0.00     0.275 HD
ENDBRANCH   1  20
BRANCH   1  24
HETATM   24  C7  UNL     1      -5.072   9.488 122.072  1.00  0.00     0.251 C 
HETATM   25  O2  UNL     1      -5.865   9.677 121.132  1.00  0.00    -0.271 OA
HETATM   26  N3  UNL     1      -3.754   9.088 121.801  1.00  0.00    -0.331 N 
ATOM     27  H3  UNL     1      -3.129   8.943 122.595  1.00  0.00     0.165 HD
BRANCH  26  28
HETATM   28  C8  UNL     1      -3.220   8.866 120.478  1.00  0.00     0.249 C 
HETATM   29  O3  UNL     1      -2.475   7.694 120.476  1.00  0.00    -0.355 OA
HETATM   30  C9  UNL     1      -1.208   8.146 120.828  1.00  0.00     0.172 C 
HETATM   31  C12 UNL     1      -0.999   9.269 119.835  1.00  0.00     0.175 C 
HETATM   32  C13 UNL     1      -2.347   9.982 119.975  1.00  0.00     0.162 C 
BRANCH  30  33
HETATM   33  C10 UNL     1      -0.165   7.068 120.739  1.00  0.00     0.156 C 
BRANCH  33  34
HETATM   34  N4  UNL     1      -0.614   5.953 119.974  1.00  0.00    -0.364 N 
HETATM   35  C11 UNL     1      -1.015   4.826 120.403  1.00  0.00     0.197 C 
HETATM   36  N5  UNL     1      -1.428   3.826 119.469  1.00  0.00    -0.067 NA
HETATM   37  N6  UNL     1      -1.078   4.492 121.782  1.00  0.00    -0.067 NA
ATOM     38  H4  UNL     1      -0.612   6.074 118.961  1.00  0.00     0.161 HD
ENDBRANCH  33  34
ENDBRANCH  30  33
BRANCH  31  39
HETATM   39  O4  UNL     1      -0.878   8.698 118.575  1.00  0.00    -0.391 OA
ATOM     40  H4  UNL     1      -1.468   9.160 117.992  1.00  0.00     0.210 HD
ENDBRANCH  31  39
BRANCH  32  41
HETATM   41  N7  UNL     1      -2.766  10.485 118.687  1.00  0.00    -0.377 N 
HETATM   42  C14 UNL     1      -3.369  11.616 118.623  1.00  0.00     0.185 C 
HETATM   43  N8  UNL     1      -3.627  12.369 119.790  1.00  0.00    -0.097 NA
ATOM     44  H7  UNL     1      -2.584   9.948 117.839  1.00  0.00     0.160 HD
ENDBRANCH  32  41
ENDBRANCH  26  28
ENDBRANCH   1  24
TORSDOF 16
ENDMDL
MODEL 3
REMARK VINA RESULT: -7.480130288      1.233      1.390
REMARK  16 active torsions:
REMARK  status: ('A' for Active; 'I' for Inactive)
REMARK       I    between atoms: C2_2  and  N1_4 
REMARK    1  A    between atoms: N1_4  and  C3_6 
REMARK    2  A    between atoms: C3_6  and  C4_7 
REMARK    3  A    between atoms: C3_6  and  C15_37 
REMARK    4  A    between atoms: C4_7  and  S1_8 
REMARK    5  A    between atoms: S1_8  and  S2_9 
REMARK    6  A    between atoms: S2_9  and  C5_10 
REMARK    7  A    between atoms: C5_10  and  C6_11 
REMARK    8  A    between atoms: C6_11  and  N2_12 
REMARK    9  A    between atoms: C6_11  and  C7_16 
REMARK       I    between atoms: C7_16  and  N3_18 
REMARK   10  A    between atoms: N3_18  and  C8_20 
REMARK   11  A    between atoms: C9_22  and  C10_23 
REMARK   12  A    between atoms: C10_23  and  N4_24 
REMARK   13  A    between atoms: C12_29  and  O4_30 
REMARK   14  A    between atoms: C13_32  and  N7_33 
REMARK   15  A    between atoms: C15_37  and  N9_38 
REMARK   16  A    between atoms: C15_37  and  C16_42 
ROOT
HETATM    1  C6  UNL     1      -4.689  10.812 125.044  1.00  0.00     0.284 C 
ENDROOT
BRANCH   1   2
HETATM    2  C5  UNL     1      -3.378  11.545 125.036  1.00  0.00     0.128 C 
BRANCH   2   3
HETATM    3  S2  UNL     1      -3.357  13.109 125.873  1.00  0.00    -0.095 SA
BRANCH   3   4
HETATM    4  S1  UNL     1      -4.133  14.713 124.758  1.00  0.00    -0.096 SA
BRANCH   4   5
HETATM    5  C4  UNL     1      -4.987  14.215 123.273  1.00  0.00     0.113 C 
BRANCH   5   6
HETATM    6  C3  UNL     1      -4.758  15.080 122.076  1.00  0.00     0.133 C 
BRANCH   6   7
HETATM    7  N1  UNL     1      -3.802  14.484 121.184  1.00  0.00    -0.354 N 
HETATM    8  C2  UNL     1      -2.479  14.957 121.017  1.00  0.00     0.214 C 
HETATM    9  C1  UNL     1      -1.555  14.290 120.079  1.00  0.00     0.117 C 
HETATM   10  O1  UNL     1      -2.075  15.949 121.665  1.00  0.00    -0.274 OA
ATOM     11  H1  UNL     1      -4.094  13.674 120.638  1.00  0.00     0.162 HD
ENDBRANCH   6   7
BRANCH   6  12
HETATM   12  C15 UNL     1      -6.010  15.574 121.405  1.00  0.00     0.295 C 
BRANCH  12  13
HETATM   13  N9  UNL     1      -7.068  15.616 122.410  1.00  0.00    -0.065 N 
ATOM     14  H93 UNL     1      -7.958  15.946 122.035  1.00  0.00     0.275 HD
ATOM     15  H92 UNL     1      -7.379  14.688 122.698  1.00  0.00     0.275 HD
ATOM     16  H91 UNL     1      -6.734  16.181 123.191  1.00  0.00     0.275 HD
ENDBRANCH  12  13
BRANCH  12  17
HETATM   17  C16 UNL     1      -5.813  16.956 120.909  1.00  0.00     0.263 C 
HETATM   18  N10 UNL     1      -4.981  17.210 119.760  1.00  0.00    -0.060 NA
HETATM   19  O5  UNL     1      -6.380  17.903 121.500  1.00  0.00    -0.274 OA
ENDBRANCH  12  17
ENDBRANCH   6  12
ENDBRANCH   5   6
ENDBRANCH   4   5
ENDBRANCH   3   4
ENDBRANCH   2   3
ENDBRANCH   1   2
BRANCH   1  20
HETATM   20  N2  UNL     1      -4.818   9.840 126.074  1.00  0.00    -0.066 N 
ATOM     21  H23 UNL     1      -5.798   9.723 126.331  1.00  0.00     0.275 HD
ATOM     22  H22 UNL     1      -4.618   8.909 125.710  1.00  0.00     0.275 HD
ATOM     23  H21 UNL     1      -4.254  10.024 126.905  1.00  0.00     0.275 HD
ENDBRANCH   1  20
BRANCH   1  24
HETATM   24  C7  UNL     1      -5.019  10.201 123.753  1.00  0.00     0.251 C 
HETATM   25  O2  UNL     1      -5.921  10.700 123.054  1.00  0.00    -0.271 OA
HETATM   26  N3  UNL     1      -4.333   9.065 123.295  1.00  0.00    -0.331 N 
ATOM     27  H3  UNL     1      -3.598   8.683 123.891  1.00  0.00     0.165 HD
BRANCH  26  28
HETATM   28  C8  UNL     1      -4.593   8.399 122.041  1.00  0.00     0.249 C 
HETATM   29  O3  UNL     1      -4.400   7.033 122.200  1.00  0.00    -0.355 OA
HETATM   30  C9  UNL     1      -3.048   6.888 121.907  1.00  0.00     0.172 C 
HETATM   31  C12 UNL     1      -2.948   7.595 120.573  1.00  0.00     0.175 C 
HETATM   32  C13 UNL     1      -3.728   8.871 120.906  1.00  0.00     0.162 C 
BRANCH  30  33
HETATM   33  C10 UNL     1      -2.621   5.449 121.854  1.00  0.00     0.156 C 
BRANCH  33  34
HETATM   34  N4  UNL     1      -1.438   5.271 121.080  1.00  0.00    -0.364 N 
HETATM   35  C11 UNL     1      -1.287   4.547 120.046  1.00  0.00     0.197 C 
HETATM   36  N5  UNL     1      -0.011   4.499 119.404  1.00  0.00    -0.067 NA
HETATM   37  N6  UNL     1      -2.328   3.765 119.481  1.00  0.00    -0.067 NA
ATOM     38  H4  UNL     1      -0.615   5.786 121.393  1.00  0.00     0.161 HD
ENDBRANCH  33  34
ENDBRANCH  30  33
BRANCH  31  39
HETATM   39  O4  UNL     1      -3.637   6.831 119.640  1.00  0.00    -0.391 OA
ATOM     40  H4  UNL     1      -3.433   7.176 118.779  1.00  0.00     0.210 HD
ENDBRANCH  31  39
BRANCH  32  41
HETATM   41  N7  UNL     1      -4.492   9.286 119.753  1.00  0.00    -0.377 N 
HETATM   42  C14 UNL     1      -4.607  10.539 119.496  1.00  0.00     0.185 C 
HETATM   43  N8  UNL     1      -3.998  11.509 120.324  1.00  0.00    -0.097 NA
ATOM     44  H7  UNL     1      -4.935   8.593 119.150  1.00  0.00     0.160 HD
ENDBRANCH  32  41
ENDBRANCH  26  28
ENDBRANCH   1  24
TORSDOF 16
ENDMDL
MODEL 4
REMARK VINA RESULT: -7.440294460      2.342      4.057
REMARK  16 active torsions:
REMARK  status: ('A' for Active; 'I' for Inactive)
REMARK       I    between atoms: C2_2  and  N1_4 
REMARK    1  A    between atoms: N1_4  and  C3_6 
REMARK    2  A    between atoms: C3_6  and  C4_7 
REMARK    3  A    between atoms: C3_6  and  C15_37 
REMARK    4  A    between atoms: C4_7  and  S1_8 
REMARK    5  A    between atoms: S1_8  and  S2_9 
REMARK    6  A    between atoms: S2_9  and  C5_10 
REMARK    7  A    between atoms: C5_10  and  C6_11 
REMARK    8  A    between atoms: C6_11  and  N2_12 
REMARK    9  A    between atoms: C6_11  and  C7_16 
REMARK       I    between atoms: C7_16  and  N3_18 
REMARK   10  A    between atoms: N3_18  and  C8_20 
REMARK   11  A    between atoms: C9_22  and  C10_23 
REMARK   12  A    between atoms: C10_23  and  N4_24 
REMARK   13  A    between atoms: C12_29  and  O4_30 
REMARK   14  A    between atoms: C13_32  and  N7_33 
REMARK   15  A    between atoms: C15_37  and  N9_38 
REMARK   16  A    between atoms: C15_37  and  C16_42 
ROOT
HETATM    1  C6  UNL     1      -4.233  10.616 119.196  1.00  0.00     0.284 C 
ENDROOT
BRANCH   1   2
HETATM    2  C5  UNL     1      -3.277  11.705 118.800  1.00  0.00     0.128 C 
BRANCH   2   3
HETATM    3  S2  UNL     1      -2.252  12.348 120.097  1.00  0.00    -0.095 SA
BRANCH   3   4
HETATM    4  S1  UNL     1      -1.874  14.412 119.976  1.00  0.00    -0.096 SA
BRANCH   4   5
HETATM    5  C4  UNL     1      -2.388  15.328 121.417  1.00  0.00     0.113 C 
BRANCH   5   6
HETATM    6  C3  UNL     1      -3.864  15.402 121.642  1.00  0.00     0.133 C 
BRANCH   6   7
HETATM    7  N1  UNL     1      -4.303  14.367 122.537  1.00  0.00    -0.354 N 
HETATM    8  C2  UNL     1      -5.374  13.485 122.259  1.00  0.00     0.214 C 
HETATM    9  C1  UNL     1      -5.766  12.446 123.231  1.00  0.00     0.117 C 
HETATM   10  O1  UNL     1      -6.004  13.576 121.180  1.00  0.00    -0.274 OA
ATOM     11  H1  UNL     1      -3.814  14.262 123.426  1.00  0.00     0.162 HD
ENDBRANCH   6   7
BRANCH   6  12
HETATM   12  C15 UNL     1      -4.384  16.773 121.975  1.00  0.00     0.295 C 
BRANCH  12  13
HETATM   13  N9  UNL     1      -3.273  17.713 121.855  1.00  0.00    -0.065 N 
ATOM     14  H93 UNL     1      -3.491  18.634 122.235  1.00  0.00     0.275 HD
ATOM     15  H92 UNL     1      -2.496  17.490 122.478  1.00  0.00     0.275 HD
ATOM     16  H91 UNL     1      -2.997  17.744 120.874  1.00  0.00     0.275 HD
ENDBRANCH  12  13
BRANCH  12  17
HETATM   17  C16 UNL     1      -5.419  17.179 120.996  1.00  0.00     0.263 C 
HETATM   18  N10 UNL     1      -6.766  17.458 121.427  1.00  0.00    -0.060 NA
HETATM   19  O5  UNL     1      -5.108  17.279 119.787  1.00  0.00    -0.274 OA
ENDBRANCH  12  17
ENDBRANCH   6  12
ENDBRANCH   5   6
ENDBRANCH   4   5
ENDBRANCH   3   4
ENDBRANCH   2   3
ENDBRANCH   1   2
BRANCH   1  20
HETATM   20  N2  UNL     1      -5.473  11.078 119.717  1.00  0.00    -0.066 N 
ATOM     21  H23 UNL     1      -6.164  10.327 119.707  1.00  0.00     0.275 HD
ATOM     22  H22 UNL     1      -5.399  11.235 120.722  1.00  0.00     0.275 HD
ATOM     23  H21 UNL     1      -5.846  11.907 119.255  1.00  0.00     0.275 HD
ENDBRANCH   1  20
BRANCH   1  24
HETATM   24  C7  UNL     1      -3.648   9.640 120.121  1.00  0.00     0.251 C 
HETATM   25  O2  UNL     1      -3.829   9.774 121.345  1.00  0.00    -0.271 OA
HETATM   26  N3  UNL     1      -2.888   8.561 119.643  1.00  0.00    -0.331 N 
ATOM     27  H3  UNL     1      -2.760   8.479 118.634  1.00  0.00     0.165 HD
BRANCH  26  28
HETATM   28  C8  UNL     1      -2.274   7.557 120.480  1.00  0.00     0.249 C 
HETATM   29  O3  UNL     1      -1.520   6.700 119.688  1.00  0.00    -0.355 OA
HETATM   30  C9  UNL     1      -2.449   5.727 119.335  1.00  0.00     0.172 C 
HETATM   31  C12 UNL     1      -3.010   5.337 120.685  1.00  0.00     0.175 C 
HETATM   32  C13 UNL     1      -3.254   6.733 121.267  1.00  0.00     0.162 C 
BRANCH  30  33
HETATM   33  C10 UNL     1      -1.827   4.579 118.592  1.00  0.00     0.156 C 
BRANCH  33  34
HETATM   34  N4  UNL     1      -2.414   3.331 118.950  1.00  0.00    -0.364 N 
HETATM   35  C11 UNL     1      -2.437   2.259 118.268  1.00  0.00     0.197 C 
HETATM   36  N5  UNL     1      -3.081   1.101 118.803  1.00  0.00    -0.067 NA
HETATM   37  N6  UNL     1      -1.852   2.139 116.980  1.00  0.00    -0.067 NA
ATOM     38  H4  UNL     1      -2.870   3.294 119.861  1.00  0.00     0.161 HD
ENDBRANCH  33  34
ENDBRANCH  30  33
BRANCH  31  39
HETATM   39  O4  UNL     1      -2.004   4.685 121.385  1.00  0.00    -0.391 OA
ATOM     40  H4  UNL     1      -2.251   4.676 122.302  1.00  0.00     0.210 HD
ENDBRANCH  31  39
BRANCH  32  41
HETATM   41  N7  UNL     1      -2.969   6.724 122.684  1.00  0.00    -0.377 N 
HETATM   42  C14 UNL     1      -3.905   7.012 123.513  1.00  0.00     0.185 C 
HETATM   43  N8  UNL     1      -5.203   7.337 123.058  1.00  0.00    -0.097 NA
ATOM     44  H7  UNL     1      -2.035   6.491 123.021  1.00  0.00     0.160 HD
ENDBRANCH  32  41
ENDBRANCH  26  28
ENDBRANCH   1  24
TORSDOF 16
ENDMDL
MODEL 5
REMARK VINA RESULT: -7.369393249      1.391      1.578
REMARK  16 active torsions:
REMARK  status: ('A' for Active; 'I' for Inactive)
REMARK       I    between atoms: C2_2  and  N1_4 
REMARK    1  A    between atoms: N1_4  and  C3_6 
REMARK    2  A    between atoms: C3_6  and  C4_7 
REMARK    3  A    between atoms: C3_6  and  C15_37 
REMARK    4  A    between atoms: C4_7  and  S1_8 
REMARK    5  A    between atoms: S1_8  and  S2_9 
REMARK    6  A    between atoms: S2_9  and  C5_10 
REMARK    7  A    between atoms: C5_10  and  C6_11 
REMARK    8  A    between atoms: C6_11  and  N2_12 
REMARK    9  A    between atoms: C6_11  and  C7_16 
REMARK       I    between atoms: C7_16  and  N3_18 
REMARK   10  A    between atoms: N3_18  and  C8_20 
REMARK   11  A    between atoms: C9_22  and  C10_23 
REMARK   12  A    between atoms: C10_23  and  N4_24 
REMARK   13  A    between atoms: C12_29  and  O4_30 
REMARK   14  A    between atoms: C13_32  and  N7_33 
REMARK   15  A    between atoms: C15_37  and  N9_38 
REMARK   16  A    between atoms: C15_37  and  C16_42 
ROOT
HETATM    1  C6  UNL     1      -4.795  10.282 124.798  1.00  0.00     0.284 C 
ENDROOT
BRANCH   1   2
HETATM    2  C5  UNL     1      -3.625  11.186 124.536  1.00  0.00     0.128 C 
BRANCH   2   3
HETATM    3  S2  UNL     1      -3.850  12.400 123.263  1.00  0.00    -0.095 SA
BRANCH   3   4
HETATM    4  S1  UNL     1      -2.937  14.254 123.644  1.00  0.00    -0.096 SA
BRANCH   4   5
HETATM    5  C4  UNL     1      -4.035  15.650 123.474  1.00  0.00     0.113 C 
BRANCH   5   6
HETATM    6  C3  UNL     1      -4.449  15.979 122.076  1.00  0.00     0.133 C 
BRANCH   6   7
HETATM    7  N1  UNL     1      -3.518  15.443 121.122  1.00  0.00    -0.354 N 
HETATM    8  C2  UNL     1      -2.532  16.215 120.463  1.00  0.00     0.214 C 
HETATM    9  C1  UNL     1      -1.611  15.591 119.494  1.00  0.00     0.117 C 
HETATM   10  O1  UNL     1      -2.429  17.441 120.695  1.00  0.00    -0.274 OA
ATOM     11  H1  UNL     1      -3.570  14.447 120.906  1.00  0.00     0.162 HD
ENDBRANCH   6   7
BRANCH   6  12
HETATM   12  C15 UNL     1      -5.892  15.696 121.762  1.00  0.00     0.295 C 
BRANCH  12  13
HETATM   13  N9  UNL     1      -6.616  15.612 123.028  1.00  0.00    -0.065 N 
ATOM     14  H93 UNL     1      -7.155  14.751 123.119  1.00  0.00     0.275 HD
ATOM     15  H92 UNL     1      -6.000  15.471 123.828  1.00  0.00     0.275 HD
ATOM     16  H91 UNL     1      -7.191  16.450 123.114  1.00  0.00     0.275 HD
ENDBRANCH  12  13
BRANCH  12  17
HETATM   17  C16 UNL     1      -6.476  16.816 120.989  1.00  0.00     0.263 C 
HETATM   18  N10 UNL     1      -5.712  17.471 119.957  1.00  0.00    -0.060 NA
HETATM   19  O5  UNL     1      -7.646  17.188 121.242  1.00  0.00    -0.274 OA
ENDBRANCH  12  17
ENDBRANCH   6  12
ENDBRANCH   5   6
ENDBRANCH   4   5
ENDBRANCH   3   4
ENDBRANCH   2   3
ENDBRANCH   1   2
BRANCH   1  20
HETATM   20  N2  UNL     1      -4.687   9.500 125.980  1.00  0.00    -0.066 N 
ATOM     21  H23 UNL     1      -3.780   9.034 126.016  1.00  0.00     0.275 HD
ATOM     22  H22 UNL     1      -4.607  10.104 126.798  1.00  0.00     0.275 HD
ATOM     23  H21 UNL     1      -5.438   8.823 126.112  1.00  0.00     0.275 HD
ENDBRANCH   1  20
BRANCH   1  24
HETATM   24  C7  UNL     1      -5.118   9.410 123.663  1.00  0.00     0.251 C 
HETATM   25  O2  UNL     1      -6.294   9.345 123.259  1.00  0.00    -0.271 OA
HETATM   26  N3  UNL     1      -4.121   8.652 123.029  1.00  0.00    -0.331 N 
ATOM     27  H3  UNL     1      -3.167   8.731 123.384  1.00  0.00     0.165 HD
BRANCH  26  28
HETATM   28  C8  UNL     1      -4.349   7.769 121.911  1.00  0.00     0.249 C 
HETATM   29  O3  UNL     1      -3.903   6.494 122.236  1.00  0.00    -0.355 OA
HETATM   30  C9  UNL     1      -2.573   6.533 121.834  1.00  0.00     0.172 C 
HETATM   31  C12 UNL     1      -2.698   7.035 120.412  1.00  0.00     0.175 C 
HETATM   32  C13 UNL     1      -3.668   8.198 120.642  1.00  0.00     0.162 C 
BRANCH  30  33
HETATM   33  C10 UNL     1      -1.899   5.194 121.938  1.00  0.00     0.156 C 
BRANCH  33  34
HETATM   34  N4  UNL     1      -0.651   5.170 121.252  1.00  0.00    -0.364 N 
HETATM   35  C11 UNL     1      -0.358   4.530 120.193  1.00  0.00     0.197 C 
HETATM   36  N5  UNL     1       0.961   4.634 119.652  1.00  0.00    -0.067 NA
HETATM   37  N6  UNL     1      -1.280   3.701 119.501  1.00  0.00    -0.067 NA
ATOM     38  H4  UNL     1       0.097   5.731 121.659  1.00  0.00     0.161 HD
ENDBRANCH  33  34
ENDBRANCH  30  33
BRANCH  31  39
HETATM   39  O4  UNL     1      -3.306   6.033 119.666  1.00  0.00    -0.391 OA
ATOM     40  H4  UNL     1      -3.848   6.454 119.010  1.00  0.00     0.210 HD
ENDBRANCH  31  39
BRANCH  32  41
HETATM   41  N7  UNL     1      -4.576   8.300 119.523  1.00  0.00    -0.377 N 
HETATM   42  C14 UNL     1      -5.196   9.405 119.319  1.00  0.00     0.185 C 
HETATM   43  N8  UNL     1      -5.001  10.516 120.170  1.00  0.00    -0.097 NA
ATOM     44  H7  UNL     1      -4.724   7.503 118.904  1.00  0.00     0.160 HD
ENDBRANCH  32  41
ENDBRANCH  26  28
ENDBRANCH   1  24
TORSDOF 16
ENDMDL
