MODEL 1
REMARK VINA RESULT: -9.467307471      0.000      0.000
REMARK  3 active torsions:
REMARK  status: ('A' for Active; 'I' for Inactive)
REMARK    1  A    between atoms: O1_1  and  C1_3 
REMARK    2  A    between atoms: C1_3  and  C2_4 
REMARK    3  A    between atoms: C2_4  and  C3_7 
ROOT
HETATM    1  C1  UNL     1      49.210  79.923  77.576  1.00  0.00     0.132 C 
HETATM    2  C4  UNL     1      49.735  80.123  78.949  1.00  0.00     0.044 C 
HETATM    3  C5  UNL     1      51.146  80.182  79.256  1.00  0.00     0.003 C 
HETATM    4  C6  UNL     1      51.424  81.230  80.351  1.00  0.00     0.000 C 
HETATM    5  C7  UNL     1      52.318  82.342  79.809  1.00  0.00     0.000 C 
HETATM    6  C8  UNL     1      51.605  83.223  78.839  1.00  0.00     0.000 C 
HETATM    7  C9  UNL     1      52.042  83.050  77.410  1.00  0.00     0.000 C 
HETATM    8  C10 UNL     1      50.868  82.993  76.473  1.00  0.00     0.000 C 
HETATM    9  C11 UNL     1      50.520  81.547  76.077  1.00  0.00     0.003 C 
HETATM   10  C12 UNL     1      49.272  81.085  76.658  1.00  0.00     0.044 C 
ENDROOT
BRANCH   1  11
HETATM   11  O1  UNL     1      47.784  79.970  77.887  1.00  0.00    -0.383 OA
ATOM     12  H1  UNL     1      47.739  80.888  78.129  1.00  0.00     0.210 HD
ENDBRANCH   1  11
BRANCH   1  13
HETATM   13  C2  UNL     1      49.236  78.579  76.992  1.00  0.00     0.369 C 
HETATM   14  F1  UNL     1      50.588  78.180  76.943  1.00  0.00    -0.193 F 
HETATM   15  F2  UNL     1      48.676  77.676  77.924  1.00  0.00    -0.193 F 
BRANCH  13  16
HETATM   16  C3  UNL     1      48.644  78.228  75.712  1.00  0.00     0.457 C 
HETATM   17  F3  UNL     1      48.834  79.105  74.662  1.00  0.00    -0.165 F 
HETATM   18  F4  UNL     1      47.360  77.724  75.748  1.00  0.00    -0.165 F 
HETATM   19  F5  UNL     1      49.384  77.096  75.276  1.00  0.00    -0.165 F 
ENDBRANCH  13  16
ENDBRANCH   1  13
TORSDOF 3
ENDMDL
MODEL 2
REMARK VINA RESULT: -8.981796726      0.922      1.505
REMARK  3 active torsions:
REMARK  status: ('A' for Active; 'I' for Inactive)
REMARK    1  A    between atoms: O1_1  and  C1_3 
REMARK    2  A    between atoms: C1_3  and  C2_4 
REMARK    3  A    between atoms: C2_4  and  C3_7 
ROOT
HETATM    1  C1  UNL     1      48.876  80.134  78.155  1.00  0.00     0.132 C 
HETATM    2  C4  UNL     1      49.565  80.531  79.406  1.00  0.00     0.044 C 
HETATM    3  C5  UNL     1      51.000  80.479  79.570  1.00  0.00     0.003 C 
HETATM    4  C6  UNL     1      51.500  81.678  80.398  1.00  0.00     0.000 C 
HETATM    5  C7  UNL     1      52.437  82.548  79.564  1.00  0.00     0.000 C 
HETATM    6  C8  UNL     1      51.714  83.304  78.500  1.00  0.00     0.000 C 
HETATM    7  C9  UNL     1      51.972  82.805  77.104  1.00  0.00     0.000 C 
HETATM    8  C10 UNL     1      50.703  82.709  76.305  1.00  0.00     0.000 C 
HETATM    9  C11 UNL     1      50.170  81.266  76.246  1.00  0.00     0.003 C 
HETATM   10  C12 UNL     1      48.953  81.080  77.016  1.00  0.00     0.044 C 
ENDROOT
BRANCH   1  11
HETATM   11  O1  UNL     1      47.504  80.412  78.572  1.00  0.00    -0.383 OA
ATOM     12  H1  UNL     1      47.661  81.268  78.954  1.00  0.00     0.210 HD
ENDBRANCH   1  11
BRANCH   1  13
HETATM   13  C2  UNL     1      48.702  78.709  77.859  1.00  0.00     0.369 C 
HETATM   14  F1  UNL     1      48.523  78.053  79.095  1.00  0.00    -0.193 F 
HETATM   15  F2  UNL     1      47.450  78.533  77.226  1.00  0.00    -0.193 F 
BRANCH  13  16
HETATM   16  C3  UNL     1      49.640  77.910  77.087  1.00  0.00     0.457 C 
HETATM   17  F3  UNL     1      50.987  78.140  77.288  1.00  0.00    -0.165 F 
HETATM   18  F4  UNL     1      49.332  77.720  75.756  1.00  0.00    -0.165 F 
HETATM   19  F5  UNL     1      49.496  76.594  77.604  1.00  0.00    -0.165 F 
ENDBRANCH  13  16
ENDBRANCH   1  13
TORSDOF 3
ENDMDL
MODEL 3
REMARK VINA RESULT: -8.515805525      1.345      2.797
REMARK  3 active torsions:
REMARK  status: ('A' for Active; 'I' for Inactive)
REMARK    1  A    between atoms: O1_1  and  C1_3 
REMARK    2  A    between atoms: C1_3  and  C2_4 
REMARK    3  A    between atoms: C2_4  and  C3_7 
ROOT
HETATM    1  C1  UNL     1      50.411  79.258  77.833  1.00  0.00     0.132 C 
HETATM    2  C4  UNL     1      50.934  80.377  77.013  1.00  0.00     0.044 C 
HETATM    3  C5  UNL     1      50.479  81.742  77.155  1.00  0.00     0.003 C 
HETATM    4  C6  UNL     1      51.650  82.729  76.983  1.00  0.00     0.000 C 
HETATM    5  C7  UNL     1      51.872  83.521  78.269  1.00  0.00     0.000 C 
HETATM    6  C8  UNL     1      52.451  82.683  79.360  1.00  0.00     0.000 C 
HETATM    7  C9  UNL     1      51.490  82.371  80.475  1.00  0.00     0.000 C 
HETATM    8  C10 UNL     1      51.562  80.925  80.881  1.00  0.00     0.000 C 
HETATM    9  C11 UNL     1      50.421  80.097  80.262  1.00  0.00     0.003 C 
HETATM   10  C12 UNL     1      50.881  79.177  79.237  1.00  0.00     0.044 C 
ENDROOT
BRANCH   1  11
HETATM   11  O1  UNL     1      51.227  78.186  77.271  1.00  0.00    -0.383 OA
ATOM     12  H1  UNL     1      50.896  78.230  76.381  1.00  0.00     0.210 HD
ENDBRANCH   1  11
BRANCH   1  13
HETATM   13  C2  UNL     1      49.098  78.691  77.511  1.00  0.00     0.369 C 
HETATM   14  F1  UNL     1      48.922  77.567  78.344  1.00  0.00    -0.193 F 
HETATM   15  F2  UNL     1      48.102  79.582  77.971  1.00  0.00    -0.193 F 
BRANCH  13  16
HETATM   16  C3  UNL     1      48.678  78.299  76.176  1.00  0.00     0.457 C 
HETATM   17  F3  UNL     1      49.202  77.129  75.663  1.00  0.00    -0.165 F 
HETATM   18  F4  UNL     1      48.616  79.305  75.233  1.00  0.00    -0.165 F 
HETATM   19  F5  UNL     1      47.306  77.958  76.320  1.00  0.00    -0.165 F 
ENDBRANCH  13  16
ENDBRANCH   1  13
TORSDOF 3
ENDMDL
MODEL 4
REMARK VINA RESULT: -8.507047722      1.677      3.155
REMARK  3 active torsions:
REMARK  status: ('A' for Active; 'I' for Inactive)
REMARK    1  A    between atoms: O1_1  and  C1_3 
REMARK    2  A    between atoms: C1_3  and  C2_4 
REMARK    3  A    between atoms: C2_4  and  C3_7 
ROOT
HETATM    1  C1  UNL     1      50.551  79.235  77.892  1.00  0.00     0.132 C 
HETATM    2  C4  UNL     1      50.958  80.341  76.993  1.00  0.00     0.044 C 
HETATM    3  C5  UNL     1      50.424  81.680  77.093  1.00  0.00     0.003 C 
HETATM    4  C6  UNL     1      51.518  82.728  76.813  1.00  0.00     0.000 C 
HETATM    5  C7  UNL     1      51.751  83.597  78.047  1.00  0.00     0.000 C 
HETATM    6  C8  UNL     1      52.436  82.853  79.144  1.00  0.00     0.000 C 
HETATM    7  C9  UNL     1      51.554  82.538  80.322  1.00  0.00     0.000 C 
HETATM    8  C10 UNL     1      51.740  81.123  80.792  1.00  0.00     0.000 C 
HETATM    9  C11 UNL     1      50.626  80.195  80.273  1.00  0.00     0.003 C 
HETATM   10  C12 UNL     1      51.094  79.254  79.271  1.00  0.00     0.044 C 
ENDROOT
BRANCH   1  11
HETATM   11  O1  UNL     1      51.406  78.188  77.339  1.00  0.00    -0.383 OA
ATOM     12  H1  UNL     1      51.902  78.735  76.742  1.00  0.00     0.210 HD
ENDBRANCH   1  11
BRANCH   1  13
HETATM   13  C2  UNL     1      49.263  78.571  77.666  1.00  0.00     0.369 C 
HETATM   14  F1  UNL     1      49.071  78.515  76.270  1.00  0.00    -0.193 F 
HETATM   15  F2  UNL     1      49.395  77.209  78.020  1.00  0.00    -0.193 F 
BRANCH  13  16
HETATM   16  C3  UNL     1      48.003  79.001  78.250  1.00  0.00     0.457 C 
HETATM   17  F3  UNL     1      46.841  78.522  77.678  1.00  0.00    -0.165 F 
HETATM   18  F4  UNL     1      47.910  80.335  78.591  1.00  0.00    -0.165 F 
HETATM   19  F5  UNL     1      47.971  78.377  79.527  1.00  0.00    -0.165 F 
ENDBRANCH  13  16
ENDBRANCH   1  13
TORSDOF 3
ENDMDL
MODEL 5
REMARK VINA RESULT: -8.363520982      1.765      3.141
REMARK  3 active torsions:
REMARK  status: ('A' for Active; 'I' for Inactive)
REMARK    1  A    between atoms: O1_1  and  C1_3 
REMARK    2  A    between atoms: C1_3  and  C2_4 
REMARK    3  A    between atoms: C2_4  and  C3_7 
ROOT
HETATM    1  C1  UNL     1      50.655  79.138  78.235  1.00  0.00     0.132 C 
HETATM    2  C4  UNL     1      50.735  79.902  76.967  1.00  0.00     0.044 C 
HETATM    3  C5  UNL     1      50.028  81.143  76.745  1.00  0.00     0.003 C 
HETATM    4  C6  UNL     1      50.889  82.123  75.925  1.00  0.00     0.000 C 
HETATM    5  C7  UNL     1      51.192  83.377  76.740  1.00  0.00     0.000 C 
HETATM    6  C8  UNL     1      52.156  83.115  77.849  1.00  0.00     0.000 C 
HETATM    7  C9  UNL     1      51.541  83.146  79.222  1.00  0.00     0.000 C 
HETATM    8  C10 UNL     1      52.015  81.998  80.069  1.00  0.00     0.000 C 
HETATM    9  C11 UNL     1      50.984  80.856  80.117  1.00  0.00     0.003 C 
HETATM   10  C12 UNL     1      51.413  79.674  79.391  1.00  0.00     0.044 C 
ENDROOT
BRANCH   1  11
HETATM   11  O1  UNL     1      51.554  78.043  77.879  1.00  0.00    -0.383 OA
ATOM     12  H1  UNL     1      52.294  78.311  78.411  1.00  0.00     0.210 HD
ENDBRANCH   1  11
BRANCH   1  13
HETATM   13  C2  UNL     1      49.463  78.329  78.506  1.00  0.00     0.369 C 
HETATM   14  F1  UNL     1      49.618  77.121  77.795  1.00  0.00    -0.193 F 
HETATM   15  F2  UNL     1      49.507  77.906  79.855  1.00  0.00    -0.193 F 
BRANCH  13  16
HETATM   16  C3  UNL     1      48.098  78.778  78.288  1.00  0.00     0.457 C 
HETATM   17  F3  UNL     1      47.518  78.477  77.071  1.00  0.00    -0.165 F 
HETATM   18  F4  UNL     1      47.799  80.056  78.711  1.00  0.00    -0.165 F 
HETATM   19  F5  UNL     1      47.318  77.991  79.178  1.00  0.00    -0.165 F 
ENDBRANCH  13  16
ENDBRANCH   1  13
TORSDOF 3
ENDMDL
