MODEL 1
REMARK VINA RESULT: -4.905039278      0.000      0.000
REMARK  4 active torsions:
REMARK  status: ('A' for Active; 'I' for Inactive)
REMARK    1  A    between atoms: O1_2  and  C2_3 
REMARK    2  A    between atoms: C5_6  and  C6_7 
REMARK    3  A    between atoms: C8_10  and  O3_11 
REMARK    4  A    between atoms: C16_22  and  O5_23 
ROOT
HETATM    1  C2  UNL     1      -7.803  18.390  -9.062  1.00  0.00     0.103 A 
HETATM    2  C3  UNL     1      -9.144  18.315  -8.698  1.00  0.00     0.053 A 
HETATM    3  C4  UNL     1      -9.877  17.149  -8.771  1.00  0.00    -0.002 A 
HETATM    4  C5  UNL     1     -11.213  17.127  -8.395  1.00  0.00     0.055 A 
HETATM    5  C8  UNL     1     -11.889  15.917  -8.496  1.00  0.00     0.093 A 
HETATM    6  C9  UNL     1     -11.249  14.778  -8.956  1.00  0.00     0.035 A 
HETATM    7  C10 UNL     1     -11.688  13.476  -9.147  1.00  0.00     0.049 A 
HETATM    8  C11 UNL     1     -10.598  12.799  -9.624  1.00  0.00     0.051 A 
HETATM    9  C12 UNL     1     -10.547  11.370  -9.986  1.00  0.00     0.077 C 
HETATM   10  O4  UNL     1      -9.576  13.621  -9.716  1.00  0.00    -0.314 OA
HETATM   11  C13 UNL     1      -9.937  14.828  -9.319  1.00  0.00     0.101 A 
HETATM   12  C14 UNL     1      -9.225  16.000  -9.237  1.00  0.00     0.030 A 
HETATM   13  C15 UNL     1      -7.900  16.054  -9.603  1.00  0.00     0.061 A 
HETATM   14 BR1  UNL     1      -7.069  14.460 -10.229  1.00  0.00    -0.047 Br
HETATM   15  C16 UNL     1      -7.192  17.248  -9.516  1.00  0.00     0.119 A 
ENDROOT
BRANCH   4  16
HETATM   16  C6  UNL     1     -11.934  18.262  -7.913  1.00  0.00     0.159 C 
HETATM   17  C7  UNL     1     -11.800  18.768  -6.512  1.00  0.00     0.097 C 
HETATM   18  O2  UNL     1     -12.727  18.921  -8.610  1.00  0.00    -0.293 OA
ENDBRANCH   4  16
BRANCH   5  19
HETATM   19  O3  UNL     1     -13.204  15.846  -8.137  1.00  0.00    -0.359 OA
ATOM     20  H3  UNL     1     -13.653  15.009  -8.162  1.00  0.00     0.217 HD
ENDBRANCH   5  19
BRANCH   1  21
HETATM   21  O1  UNL     1      -7.132  19.558  -8.970  1.00  0.00    -0.353 OA
HETATM   22  C1  UNL     1      -6.623  20.155  -7.819  1.00  0.00     0.210 C 
ENDBRANCH   1  21
BRANCH  15  23
HETATM   23  O5  UNL     1      -5.867  17.214  -9.902  1.00  0.00    -0.352 OA
HETATM   24  C17 UNL     1      -4.819  17.043  -8.965  1.00  0.00     0.210 C 
ENDBRANCH  15  23
TORSDOF 4
ENDMDL
MODEL 2
REMARK VINA RESULT: -4.878210513      4.142      5.035
REMARK  4 active torsions:
REMARK  status: ('A' for Active; 'I' for Inactive)
REMARK    1  A    between atoms: O1_2  and  C2_3 
REMARK    2  A    between atoms: C5_6  and  C6_7 
REMARK    3  A    between atoms: C8_10  and  O3_11 
REMARK    4  A    between atoms: C16_22  and  O5_23 
ROOT
HETATM    1  C2  UNL     1     -11.191  19.986 -12.801  1.00  0.00     0.103 A 
HETATM    2  C3  UNL     1     -12.473  19.443 -12.768  1.00  0.00     0.053 A 
HETATM    3  C4  UNL     1     -12.879  18.536 -11.813  1.00  0.00    -0.002 A 
HETATM    4  C5  UNL     1     -14.168  18.024 -11.824  1.00  0.00     0.055 A 
HETATM    5  C8  UNL     1     -14.507  17.114 -10.830  1.00  0.00     0.093 A 
HETATM    6  C9  UNL     1     -13.588  16.733  -9.866  1.00  0.00     0.035 A 
HETATM    7  C10 UNL     1     -13.672  15.861  -8.791  1.00  0.00     0.049 A 
HETATM    8  C11 UNL     1     -12.437  15.900  -8.203  1.00  0.00     0.051 A 
HETATM    9  C12 UNL     1     -12.012  15.143  -7.011  1.00  0.00     0.077 C 
HETATM   10  O4  UNL     1     -11.661  16.730  -8.865  1.00  0.00    -0.314 OA
HETATM   11  C13 UNL     1     -12.327  17.251  -9.879  1.00  0.00     0.101 A 
HETATM   12  C14 UNL     1     -11.944  18.155 -10.840  1.00  0.00     0.030 A 
HETATM   13  C15 UNL     1     -10.673  18.679 -10.856  1.00  0.00     0.061 A 
HETATM   14 BR1  UNL     1      -9.448  18.123  -9.509  1.00  0.00    -0.047 Br
HETATM   15  C16 UNL     1     -10.298  19.593 -11.836  1.00  0.00     0.119 A 
ENDROOT
BRANCH   4  16
HETATM   16  C6  UNL     1     -15.166  18.371 -12.786  1.00  0.00     0.159 C 
HETATM   17  C7  UNL     1     -15.315  17.654 -14.089  1.00  0.00     0.097 C 
HETATM   18  O2  UNL     1     -15.988  19.291 -12.623  1.00  0.00    -0.293 OA
ENDBRANCH   4  16
BRANCH   5  19
HETATM   19  O3  UNL     1     -15.764  16.583 -10.800  1.00  0.00    -0.359 OA
ATOM     20  H3  UNL     1     -15.891  15.664 -11.000  1.00  0.00     0.217 HD
ENDBRANCH   5  19
BRANCH   1  21
HETATM   21  O1  UNL     1     -10.846  20.873 -13.760  1.00  0.00    -0.353 OA
HETATM   22  C1  UNL     1     -10.553  20.605 -15.095  1.00  0.00     0.210 C 
ENDBRANCH   1  21
BRANCH  15  23
HETATM   23  O5  UNL     1      -9.005  20.071 -11.778  1.00  0.00    -0.352 OA
HETATM   24  C17 UNL     1      -8.696  21.330 -11.208  1.00  0.00     0.210 C 
ENDBRANCH  15  23
TORSDOF 4
ENDMDL
MODEL 3
REMARK VINA RESULT: -4.731155254      1.873      5.907
REMARK  4 active torsions:
REMARK  status: ('A' for Active; 'I' for Inactive)
REMARK    1  A    between atoms: O1_2  and  C2_3 
REMARK    2  A    between atoms: C5_6  and  C6_7 
REMARK    3  A    between atoms: C8_10  and  O3_11 
REMARK    4  A    between atoms: C16_22  and  O5_23 
ROOT
HETATM    1  C2  UNL     1     -12.464  16.421  -9.094  1.00  0.00     0.103 A 
HETATM    2  C3  UNL     1     -11.616  15.344  -9.335  1.00  0.00     0.053 A 
HETATM    3  C4  UNL     1     -10.247  15.475  -9.442  1.00  0.00    -0.002 A 
HETATM    4  C5  UNL     1      -9.446  14.368  -9.683  1.00  0.00     0.055 A 
HETATM    5  C8  UNL     1      -8.075  14.577  -9.779  1.00  0.00     0.093 A 
HETATM    6  C9  UNL     1      -7.533  15.844  -9.640  1.00  0.00     0.035 A 
HETATM    7  C10 UNL     1      -6.228  16.311  -9.692  1.00  0.00     0.049 A 
HETATM    8  C11 UNL     1      -6.323  17.660  -9.481  1.00  0.00     0.051 A 
HETATM    9  C12 UNL     1      -5.204  18.619  -9.442  1.00  0.00     0.077 C 
HETATM   10  O4  UNL     1      -7.585  17.991  -9.314  1.00  0.00    -0.314 OA
HETATM   11  C13 UNL     1      -8.345  16.914  -9.404  1.00  0.00     0.101 A 
HETATM   12  C14 UNL     1      -9.706  16.760  -9.300  1.00  0.00     0.030 A 
HETATM   13  C15 UNL     1     -10.526  17.837  -9.063  1.00  0.00     0.061 A 
HETATM   14 BR1  UNL     1      -9.732  19.558  -8.880  1.00  0.00    -0.047 Br
HETATM   15  C16 UNL     1     -11.904  17.667  -8.961  1.00  0.00     0.119 A 
ENDROOT
BRANCH   4  16
HETATM   16  C6  UNL     1      -9.936  13.035  -9.837  1.00  0.00     0.159 C 
HETATM   17  C7  UNL     1     -10.636  12.301  -8.739  1.00  0.00     0.097 C 
HETATM   18  O2  UNL     1      -9.823  12.378 -10.888  1.00  0.00    -0.293 OA
ENDBRANCH   4  16
BRANCH   5  19
HETATM   19  O3  UNL     1      -7.246  13.519 -10.015  1.00  0.00    -0.359 OA
ATOM     20  H3  UNL     1      -6.510  13.361  -9.435  1.00  0.00     0.217 HD
ENDBRANCH   5  19
BRANCH   1  21
HETATM   21  O1  UNL     1     -13.798  16.235  -8.998  1.00  0.00    -0.353 OA
HETATM   22  C1  UNL     1     -14.750  16.385 -10.004  1.00  0.00     0.210 C 
ENDBRANCH   1  21
BRANCH  15  23
HETATM   23  O5  UNL     1     -12.654  18.800  -8.720  1.00  0.00    -0.352 OA
HETATM   24  C17 UNL     1     -13.214  19.564  -9.774  1.00  0.00     0.210 C 
ENDBRANCH  15  23
TORSDOF 4
ENDMDL
MODEL 4
REMARK VINA RESULT: -4.710293606      3.573      6.912
REMARK  4 active torsions:
REMARK  status: ('A' for Active; 'I' for Inactive)
REMARK    1  A    between atoms: O1_2  and  C2_3 
REMARK    2  A    between atoms: C5_6  and  C6_7 
REMARK    3  A    between atoms: C8_10  and  O3_11 
REMARK    4  A    between atoms: C16_22  and  O5_23 
ROOT
HETATM    1  C2  UNL     1     -13.957  17.761 -11.126  1.00  0.00     0.103 A 
HETATM    2  C3  UNL     1     -12.973  17.030 -10.468  1.00  0.00     0.053 A 
HETATM    3  C4  UNL     1     -12.386  17.450  -9.293  1.00  0.00    -0.002 A 
HETATM    4  C5  UNL     1     -11.408  16.682  -8.676  1.00  0.00     0.055 A 
HETATM    5  C8  UNL     1     -10.861  17.169  -7.495  1.00  0.00     0.093 A 
HETATM    6  C9  UNL     1     -11.278  18.375  -6.957  1.00  0.00     0.035 A 
HETATM    7  C10 UNL     1     -10.899  19.068  -5.817  1.00  0.00     0.049 A 
HETATM    8  C11 UNL     1     -11.665  20.202  -5.818  1.00  0.00     0.051 A 
HETATM    9  C12 UNL     1     -11.640  21.275  -4.806  1.00  0.00     0.077 C 
HETATM   10  O4  UNL     1     -12.450  20.202  -6.874  1.00  0.00    -0.314 OA
HETATM   11  C13 UNL     1     -12.239  19.109  -7.586  1.00  0.00     0.101 A 
HETATM   12  C14 UNL     1     -12.812  18.672  -8.755  1.00  0.00     0.030 A 
HETATM   13  C15 UNL     1     -13.782  19.410  -9.391  1.00  0.00     0.061 A 
HETATM   14 BR1  UNL     1     -14.319  21.061  -8.612  1.00  0.00    -0.047 Br
HETATM   15  C16 UNL     1     -14.353  18.954 -10.575  1.00  0.00     0.119 A 
ENDROOT
BRANCH   4  16
HETATM   16  C6  UNL     1     -10.931  15.431  -9.173  1.00  0.00     0.159 C 
HETATM   17  C7  UNL     1     -11.670  14.147  -8.968  1.00  0.00     0.097 C 
HETATM   18  O2  UNL     1      -9.872  15.303  -9.812  1.00  0.00    -0.293 OA
ENDBRANCH   4  16
BRANCH   5  19
HETATM   19  O3  UNL     1      -9.896  16.449  -6.850  1.00  0.00    -0.359 OA
ATOM     20  H3  UNL     1      -9.884  16.425  -5.901  1.00  0.00     0.217 HD
ENDBRANCH   5  19
BRANCH   1  21
HETATM   21  O1  UNL     1     -14.500  17.303 -12.275  1.00  0.00    -0.353 OA
HETATM   22  C1  UNL     1     -13.944  17.346 -13.552  1.00  0.00     0.210 C 
ENDBRANCH   1  21
BRANCH  15  23
HETATM   23  O5  UNL     1     -15.320  19.756 -11.147  1.00  0.00    -0.352 OA
HETATM   24  C17 UNL     1     -15.020  20.654 -12.201  1.00  0.00     0.210 C 
ENDBRANCH  15  23
TORSDOF 4
ENDMDL
MODEL 5
REMARK VINA RESULT: -4.635726570      1.807      4.465
REMARK  4 active torsions:
REMARK  status: ('A' for Active; 'I' for Inactive)
REMARK    1  A    between atoms: O1_2  and  C2_3 
REMARK    2  A    between atoms: C5_6  and  C6_7 
REMARK    3  A    between atoms: C8_10  and  O3_11 
REMARK    4  A    between atoms: C16_22  and  O5_23 
ROOT
HETATM    1  C2  UNL     1      -9.483  18.876  -8.996  1.00  0.00     0.103 A 
HETATM    2  C3  UNL     1      -8.313  18.154  -9.213  1.00  0.00     0.053 A 
HETATM    3  C4  UNL     1      -8.301  16.794  -9.437  1.00  0.00    -0.002 A 
HETATM    4  C5  UNL     1      -7.106  16.121  -9.648  1.00  0.00     0.055 A 
HETATM    5  C8  UNL     1      -7.172  14.750  -9.868  1.00  0.00     0.093 A 
HETATM    6  C9  UNL     1      -8.386  14.084  -9.874  1.00  0.00     0.035 A 
HETATM    7  C10 UNL     1      -8.717  12.750 -10.064  1.00  0.00     0.049 A 
HETATM    8  C11 UNL     1     -10.081  12.703  -9.956  1.00  0.00     0.051 A 
HETATM    9  C12 UNL     1     -10.926  11.501 -10.082  1.00  0.00     0.077 C 
HETATM   10  O4  UNL     1     -10.546  13.911  -9.720  1.00  0.00    -0.314 OA
HETATM   11  C13 UNL     1      -9.545  14.771  -9.663  1.00  0.00     0.101 A 
HETATM   12  C14 UNL     1      -9.534  16.126  -9.442  1.00  0.00     0.030 A 
HETATM   13  C15 UNL     1     -10.701  16.821  -9.230  1.00  0.00     0.061 A 
HETATM   14 BR1  UNL     1     -12.343  15.860  -9.247  1.00  0.00    -0.047 Br
HETATM   15  C16 UNL     1     -10.674  18.195  -9.006  1.00  0.00     0.119 A 
ENDROOT
BRANCH   4  16
HETATM   16  C6  UNL     1      -5.820  16.742  -9.656  1.00  0.00     0.159 C 
HETATM   17  C7  UNL     1      -5.052  17.021  -8.404  1.00  0.00     0.097 C 
HETATM   18  O2  UNL     1      -5.235  17.100 -10.694  1.00  0.00    -0.293 OA
ENDBRANCH   4  16
BRANCH   5  19
HETATM   19  O3  UNL     1      -6.023  14.044 -10.081  1.00  0.00    -0.359 OA
ATOM     20  H3  UNL     1      -5.600  13.605  -9.353  1.00  0.00     0.217 HD
ENDBRANCH   5  19
BRANCH   1  21
HETATM   21  O1  UNL     1      -9.437  20.209  -8.782  1.00  0.00    -0.353 OA
HETATM   22  C1  UNL     1      -8.948  20.871  -7.657  1.00  0.00     0.210 C 
ENDBRANCH   1  21
BRANCH  15  23
HETATM   23  O5  UNL     1     -11.890  18.815  -8.803  1.00  0.00    -0.352 OA
HETATM   24  C17 UNL     1     -12.332  19.188  -7.509  1.00  0.00     0.210 C 
ENDBRANCH  15  23
TORSDOF 4
ENDMDL
