MODEL 1
REMARK VINA RESULT: -7.212622297      0.000      0.000
REMARK  3 active torsions:
REMARK  status: ('A' for Active; 'I' for Inactive)
REMARK    1  A    between atoms: C3_3  and  C4_4 
REMARK    2  A    between atoms: C10_15  and  C11_16 
REMARK    3  A    between atoms: N3_22  and  C17_23 
ROOT
HETATM    1  C1  UNL     1     -11.123  20.027  -4.775  1.00  0.00     0.052 C 
HETATM    2  C2  UNL     1     -11.250  19.056  -5.904  1.00  0.00    -0.010 A 
HETATM    3  C3  UNL     1     -10.600  17.860  -5.846  1.00  0.00    -0.011 A 
HETATM    4  C7  UNL     1     -10.754  16.978  -6.916  1.00  0.00     0.045 A 
HETATM    5  C8  UNL     1     -11.535  17.285  -8.010  1.00  0.00     0.067 A 
HETATM    6  C9  UNL     1     -12.167  18.511  -8.008  1.00  0.00     0.100 A 
HETATM    7  N2  UNL     1     -12.848  18.546  -9.163  1.00  0.00    -0.341 N 
ATOM      8  H2  UNL     1     -13.428  19.324  -9.476  1.00  0.00     0.167 HD
HETATM    9  C10 UNL     1     -12.652  17.395  -9.857  1.00  0.00     0.089 A 
HETATM   10  N3  UNL     1     -11.840  16.603  -9.156  1.00  0.00    -0.329 N 
HETATM   11  C22 UNL     1     -12.055  19.426  -6.981  1.00  0.00     0.152 A 
HETATM   12  F1  UNL     1     -12.693  20.600  -7.037  1.00  0.00    -0.203 F 
ENDROOT
BRANCH  10  13
HETATM   13  C17 UNL     1     -11.346  15.323  -9.460  1.00  0.00     0.094 C 
HETATM   14  C18 UNL     1     -11.745  14.158  -8.641  1.00  0.00     0.053 C 
HETATM   15  C19 UNL     1     -11.132  12.926  -9.346  1.00  0.00     0.234 C 
HETATM   16  N4  UNL     1      -9.710  13.026  -8.987  1.00  0.00    -0.075 N 
HETATM   17  C20 UNL     1      -9.158  14.083  -9.767  1.00  0.00     0.234 C 
ATOM     18  H42 UNL     1      -9.556  13.144  -7.986  1.00  0.00     0.277 HD
ATOM     19  H41 UNL     1      -9.207  12.144  -9.094  1.00  0.00     0.277 HD
HETATM   20  C21 UNL     1      -9.835  15.373  -9.734  1.00  0.00     0.053 C 
ENDBRANCH  10  13
BRANCH   9  21
HETATM   21  C11 UNL     1     -13.258  17.143 -11.134  1.00  0.00     0.053 C 
HETATM   22  C12 UNL     1     -14.784  17.248 -10.984  1.00  0.00     0.012 C 
HETATM   23  C13 UNL     1     -15.404  17.868 -12.211  1.00  0.00     0.001 C 
HETATM   24  C14 UNL     1     -14.665  17.359 -13.423  1.00  0.00     0.000 C 
HETATM   25  C15 UNL     1     -13.297  18.005 -13.482  1.00  0.00     0.001 C 
HETATM   26  C16 UNL     1     -12.922  18.341 -12.055  1.00  0.00     0.012 C 
ENDBRANCH   9  21
BRANCH   3  27
HETATM   27  C4  UNL     1      -9.754  17.504  -4.703  1.00  0.00     0.016 A 
HETATM   28  C5  UNL     1     -10.172  16.894  -3.533  1.00  0.00     0.128 A 
HETATM   29  N1  UNL     1      -9.080  16.749  -2.780  1.00  0.00    -0.272 N 
HETATM   30  O1  UNL     1      -8.035  17.220  -3.395  1.00  0.00    -0.250 OA
ATOM     31  H1  UNL     1      -9.067  16.327  -1.851  1.00  0.00     0.194 HD
HETATM   32  C6  UNL     1      -8.399  17.698  -4.585  1.00  0.00     0.181 A 
ENDBRANCH   3  27
TORSDOF 3
ENDMDL
MODEL 2
REMARK VINA RESULT: -6.909784110      2.494      5.360
REMARK  3 active torsions:
REMARK  status: ('A' for Active; 'I' for Inactive)
REMARK    1  A    between atoms: C3_3  and  C4_4 
REMARK    2  A    between atoms: C10_15  and  C11_16 
REMARK    3  A    between atoms: N3_22  and  C17_23 
ROOT
HETATM    1  C1  UNL     1     -11.560  19.625  -4.250  1.00  0.00     0.052 C 
HETATM    2  C2  UNL     1     -11.706  18.930  -5.565  1.00  0.00    -0.010 A 
HETATM    3  C3  UNL     1     -12.361  19.545  -6.589  1.00  0.00    -0.011 A 
HETATM    4  C7  UNL     1     -12.466  18.866  -7.803  1.00  0.00     0.045 A 
HETATM    5  C8  UNL     1     -11.931  17.608  -7.984  1.00  0.00     0.067 A 
HETATM    6  C9  UNL     1     -11.280  17.039  -6.909  1.00  0.00     0.100 A 
HETATM    7  N2  UNL     1     -10.864  15.845  -7.355  1.00  0.00    -0.341 N 
ATOM      8  H2  UNL     1     -10.344  15.164  -6.803  1.00  0.00     0.167 HD
HETATM    9  C10 UNL     1     -11.236  15.672  -8.651  1.00  0.00     0.089 A 
HETATM   10  N3  UNL     1     -11.899  16.756  -9.055  1.00  0.00    -0.329 N 
HETATM   11  C22 UNL     1     -11.143  17.660  -5.685  1.00  0.00     0.152 A 
HETATM   12  F1  UNL     1     -10.500  17.056  -4.679  1.00  0.00    -0.203 F 
ENDROOT
BRANCH  10  13
HETATM   13  C17 UNL     1     -12.482  17.043 -10.301  1.00  0.00     0.094 C 
HETATM   14  C18 UNL     1     -11.988  18.179 -11.109  1.00  0.00     0.053 C 
HETATM   15  C19 UNL     1     -12.755  18.100 -12.449  1.00  0.00     0.234 C 
HETATM   16  N4  UNL     1     -14.089  18.596 -12.084  1.00  0.00    -0.075 N 
HETATM   17  C20 UNL     1     -14.731  17.560 -11.346  1.00  0.00     0.234 C 
ATOM     18  H42 UNL     1     -14.064  19.486 -11.586  1.00  0.00     0.277 HD
ATOM     19  H41 UNL     1     -14.633  18.912 -12.888  1.00  0.00     0.277 HD
HETATM   20  C21 UNL     1     -14.015  16.995 -10.209  1.00  0.00     0.053 C 
ENDBRANCH  10  13
BRANCH   9  21
HETATM   21  C11 UNL     1     -10.927  14.486  -9.399  1.00  0.00     0.053 C 
HETATM   22  C12 UNL     1      -9.527  14.644 -10.013  1.00  0.00     0.012 C 
HETATM   23  C13 UNL     1      -8.788  13.329 -10.013  1.00  0.00     0.001 C 
HETATM   24  C14 UNL     1      -9.775  12.231 -10.321  1.00  0.00     0.000 C 
HETATM   25  C15 UNL     1     -10.672  12.013  -9.121  1.00  0.00     0.001 C 
HETATM   26  C16 UNL     1     -10.726  13.333  -8.385  1.00  0.00     0.012 C 
ENDBRANCH   9  21
BRANCH   3  27
HETATM   27  C4  UNL     1     -12.950  20.878  -6.429  1.00  0.00     0.016 A 
HETATM   28  C5  UNL     1     -12.325  22.087  -6.685  1.00  0.00     0.128 A 
HETATM   29  N1  UNL     1     -13.224  23.034  -6.416  1.00  0.00    -0.272 N 
HETATM   30  O1  UNL     1     -14.343  22.502  -6.018  1.00  0.00    -0.250 OA
ATOM     31  H1  UNL     1     -13.059  24.036  -6.510  1.00  0.00     0.194 HD
HETATM   32  C6  UNL     1     -14.224  21.174  -6.008  1.00  0.00     0.181 A 
ENDBRANCH   3  27
TORSDOF 3
ENDMDL
MODEL 3
REMARK VINA RESULT: -6.599338905      1.192      1.322
REMARK  3 active torsions:
REMARK  status: ('A' for Active; 'I' for Inactive)
REMARK    1  A    between atoms: C3_3  and  C4_4 
REMARK    2  A    between atoms: C10_15  and  C11_16 
REMARK    3  A    between atoms: N3_22  and  C17_23 
ROOT
HETATM    1  C1  UNL     1     -12.527  21.098  -5.217  1.00  0.00     0.052 C 
HETATM    2  C2  UNL     1     -12.438  20.060  -6.288  1.00  0.00    -0.010 A 
HETATM    3  C3  UNL     1     -11.735  18.914  -6.066  1.00  0.00    -0.011 A 
HETATM    4  C7  UNL     1     -11.685  17.967  -7.088  1.00  0.00     0.045 A 
HETATM    5  C8  UNL     1     -12.320  18.162  -8.297  1.00  0.00     0.067 A 
HETATM    6  C9  UNL     1     -13.015  19.343  -8.460  1.00  0.00     0.100 A 
HETATM    7  N2  UNL     1     -13.526  19.269  -9.697  1.00  0.00    -0.341 N 
ATOM      8  H2  UNL     1     -14.100  19.989 -10.135  1.00  0.00     0.167 HD
HETATM    9  C10 UNL     1     -13.169  18.097 -10.283  1.00  0.00     0.089 A 
HETATM   10  N3  UNL     1     -12.420  17.399  -9.429  1.00  0.00    -0.329 N 
HETATM   11  C22 UNL     1     -13.102  20.318  -7.487  1.00  0.00     0.152 A 
HETATM   12  F1  UNL     1     -13.792  21.443  -7.705  1.00  0.00    -0.203 F 
ENDROOT
BRANCH  10  13
HETATM   13  C17 UNL     1     -11.816  16.141  -9.580  1.00  0.00     0.094 C 
HETATM   14  C18 UNL     1     -12.158  15.036  -8.658  1.00  0.00     0.053 C 
HETATM   15  C19 UNL     1     -11.422  13.793  -9.209  1.00  0.00     0.234 C 
HETATM   16  N4  UNL     1     -10.029  14.044  -8.814  1.00  0.00    -0.075 N 
HETATM   17  C20 UNL     1      -9.527  15.058  -9.680  1.00  0.00     0.234 C 
ATOM     18  H42 UNL     1      -9.927  14.275  -7.826  1.00  0.00     0.277 HD
ATOM     19  H41 UNL     1      -9.455  13.200  -8.810  1.00  0.00     0.277 HD
HETATM   20  C21 UNL     1     -10.303  16.286  -9.806  1.00  0.00     0.053 C 
ENDBRANCH  10  13
BRANCH   9  21
HETATM   21  C11 UNL     1     -13.574  17.737 -11.613  1.00  0.00     0.053 C 
HETATM   22  C12 UNL     1     -15.096  17.529 -11.625  1.00  0.00     0.012 C 
HETATM   23  C13 UNL     1     -15.696  18.018 -12.919  1.00  0.00     0.001 C 
HETATM   24  C14 UNL     1     -14.745  17.679 -14.040  1.00  0.00     0.000 C 
HETATM   25  C15 UNL     1     -13.538  18.590 -13.964  1.00  0.00     0.001 C 
HETATM   26  C16 UNL     1     -13.392  18.985 -12.511  1.00  0.00     0.012 C 
ENDBRANCH   9  21
BRANCH   3  27
HETATM   27  C4  UNL     1     -11.040  18.678  -4.797  1.00  0.00     0.016 A 
HETATM   28  C5  UNL     1     -11.592  18.136  -3.649  1.00  0.00     0.128 A 
HETATM   29  N1  UNL     1     -10.608  18.092  -2.749  1.00  0.00    -0.272 N 
HETATM   30  O1  UNL     1      -9.506  18.562  -3.254  1.00  0.00    -0.250 OA
ATOM     31  H1  UNL     1     -10.707  17.738  -1.797  1.00  0.00     0.194 HD
HETATM   32  C6  UNL     1      -9.721  18.937  -4.516  1.00  0.00     0.181 A 
ENDBRANCH   3  27
TORSDOF 3
ENDMDL
MODEL 4
REMARK VINA RESULT: -6.563541965      2.557      4.924
REMARK  3 active torsions:
REMARK  status: ('A' for Active; 'I' for Inactive)
REMARK    1  A    between atoms: C3_3  and  C4_4 
REMARK    2  A    between atoms: C10_15  and  C11_16 
REMARK    3  A    between atoms: N3_22  and  C17_23 
ROOT
HETATM    1  C1  UNL     1     -11.637  18.796  -3.171  1.00  0.00     0.052 C 
HETATM    2  C2  UNL     1     -11.683  18.403  -4.612  1.00  0.00    -0.010 A 
HETATM    3  C3  UNL     1     -12.099  19.301  -5.549  1.00  0.00    -0.011 A 
HETATM    4  C7  UNL     1     -12.117  18.897  -6.883  1.00  0.00     0.045 A 
HETATM    5  C8  UNL     1     -11.730  17.630  -7.268  1.00  0.00     0.067 A 
HETATM    6  C9  UNL     1     -11.319  16.767  -6.273  1.00  0.00     0.100 A 
HETATM    7  N2  UNL     1     -11.003  15.633  -6.915  1.00  0.00    -0.341 N 
ATOM      8  H2  UNL     1     -10.660  14.785  -6.465  1.00  0.00     0.167 HD
HETATM    9  C10 UNL     1     -11.205  15.778  -8.250  1.00  0.00     0.089 A 
HETATM   10  N3  UNL     1     -11.657  17.010  -8.486  1.00  0.00    -0.329 N 
HETATM   11  C22 UNL     1     -11.279  17.108  -4.937  1.00  0.00     0.152 A 
HETATM   12  F1  UNL     1     -10.871  16.226  -4.017  1.00  0.00    -0.203 F 
ENDROOT
BRANCH  10  13
HETATM   13  C17 UNL     1     -12.012  17.623  -9.699  1.00  0.00     0.094 C 
HETATM   14  C18 UNL     1     -13.003  16.985 -10.592  1.00  0.00     0.053 C 
HETATM   15  C19 UNL     1     -13.243  17.996 -11.736  1.00  0.00     0.234 C 
HETATM   16  N4  UNL     1     -12.026  17.854 -12.549  1.00  0.00    -0.075 N 
HETATM   17  C20 UNL     1     -10.973  18.499 -11.837  1.00  0.00     0.234 C 
ATOM     18  H42 UNL     1     -11.814  16.886 -12.788  1.00  0.00     0.277 HD
ATOM     19  H41 UNL     1     -12.138  18.202 -13.502  1.00  0.00     0.277 HD
HETATM   20  C21 UNL     1     -10.764  18.118 -10.446  1.00  0.00     0.053 C 
ENDBRANCH  10  13
BRANCH   9  21
HETATM   21  C11 UNL     1     -10.949  14.727  -9.195  1.00  0.00     0.053 C 
HETATM   22  C12 UNL     1      -9.490  14.833  -9.665  1.00  0.00     0.012 C 
HETATM   23  C13 UNL     1      -8.891  13.465  -9.873  1.00  0.00     0.001 C 
HETATM   24  C14 UNL     1      -9.950  12.569 -10.462  1.00  0.00     0.000 C 
HETATM   25  C15 UNL     1     -10.972  12.234  -9.396  1.00  0.00     0.001 C 
HETATM   26  C16 UNL     1     -10.960  13.387  -8.418  1.00  0.00     0.012 C 
ENDBRANCH   9  21
BRANCH   3  27
HETATM   27  C4  UNL     1     -12.526  20.653  -5.174  1.00  0.00     0.016 A 
HETATM   28  C5  UNL     1     -13.815  21.048  -4.861  1.00  0.00     0.128 A 
HETATM   29  N1  UNL     1     -13.745  22.348  -4.572  1.00  0.00    -0.272 N 
HETATM   30  O1  UNL     1     -12.521  22.776  -4.685  1.00  0.00    -0.250 OA
ATOM     31  H1  UNL     1     -14.540  22.927  -4.301  1.00  0.00     0.194 HD
HETATM   32  C6  UNL     1     -11.732  21.767  -5.054  1.00  0.00     0.181 A 
ENDBRANCH   3  27
TORSDOF 3
ENDMDL
MODEL 5
REMARK VINA RESULT: -6.508977992      0.908      1.362
REMARK  3 active torsions:
REMARK  status: ('A' for Active; 'I' for Inactive)
REMARK    1  A    between atoms: C3_3  and  C4_4 
REMARK    2  A    between atoms: C10_15  and  C11_16 
REMARK    3  A    between atoms: N3_22  and  C17_23 
ROOT
HETATM    1  C1  UNL     1     -10.516  19.920  -3.980  1.00  0.00     0.052 C 
HETATM    2  C2  UNL     1     -10.602  18.961  -5.123  1.00  0.00    -0.010 A 
HETATM    3  C3  UNL     1      -9.835  17.834  -5.123  1.00  0.00    -0.011 A 
HETATM    4  C7  UNL     1      -9.954  16.960  -6.203  1.00  0.00     0.045 A 
HETATM    5  C8  UNL     1     -10.814  17.207  -7.252  1.00  0.00     0.067 A 
HETATM    6  C9  UNL     1     -11.563  18.365  -7.193  1.00  0.00     0.100 A 
HETATM    7  N2  UNL     1     -12.299  18.352  -8.314  1.00  0.00    -0.341 N 
ATOM      8  H2  UNL     1     -12.968  19.074  -8.581  1.00  0.00     0.167 HD
HETATM    9  C10 UNL     1     -12.026  17.238  -9.041  1.00  0.00     0.089 A 
HETATM   10  N3  UNL     1     -11.107  16.518  -8.397  1.00  0.00    -0.329 N 
HETATM   11  C22 UNL     1     -11.490  19.268  -6.152  1.00  0.00     0.152 A 
HETATM   12  F1  UNL     1     -12.243  20.374  -6.153  1.00  0.00    -0.203 F 
ENDROOT
BRANCH  10  13
HETATM   13  C17 UNL     1     -10.505  15.299  -8.752  1.00  0.00     0.094 C 
HETATM   14  C18 UNL     1      -9.628  15.221  -9.940  1.00  0.00     0.053 C 
HETATM   15  C19 UNL     1      -9.046  13.788  -9.932  1.00  0.00     0.234 C 
HETATM   16  N4  UNL     1     -10.184  12.978 -10.392  1.00  0.00    -0.075 N 
HETATM   17  C20 UNL     1     -11.104  12.900  -9.306  1.00  0.00     0.234 C 
ATOM     18  H42 UNL     1     -10.606  13.331 -11.250  1.00  0.00     0.277 HD
ATOM     19  H41 UNL     1      -9.906  12.063 -10.749  1.00  0.00     0.277 HD
HETATM   20  C21 UNL     1     -11.522  14.149  -8.681  1.00  0.00     0.053 C 
ENDBRANCH  10  13
BRANCH   9  21
HETATM   21  C11 UNL     1     -12.667  16.949 -10.294  1.00  0.00     0.053 C 
HETATM   22  C12 UNL     1     -14.184  16.873 -10.064  1.00  0.00     0.012 C 
HETATM   23  C13 UNL     1     -14.936  17.447 -11.239  1.00  0.00     0.001 C 
HETATM   24  C14 UNL     1     -14.209  17.058 -12.501  1.00  0.00     0.000 C 
HETATM   25  C15 UNL     1     -12.928  17.860 -12.609  1.00  0.00     0.001 C 
HETATM   26  C16 UNL     1     -12.520  18.201 -11.193  1.00  0.00     0.012 C 
ENDBRANCH   9  21
BRANCH   3  27
HETATM   27  C4  UNL     1      -8.904  17.544  -4.029  1.00  0.00     0.016 A 
HETATM   28  C5  UNL     1      -9.200  16.868  -2.857  1.00  0.00     0.128 A 
HETATM   29  N1  UNL     1      -8.065  16.822  -2.158  1.00  0.00    -0.272 N 
HETATM   30  O1  UNL     1      -7.104  17.413  -2.807  1.00  0.00    -0.250 OA
ATOM     31  H1  UNL     1      -7.963  16.383  -1.243  1.00  0.00     0.194 HD
HETATM   32  C6  UNL     1      -7.572  17.876  -3.967  1.00  0.00     0.181 A 
ENDBRANCH   3  27
TORSDOF 3
ENDMDL
