MODEL 1
REMARK VINA RESULT: -6.606147775      0.000      0.000
REMARK  2 active torsions:
REMARK  status: ('A' for Active; 'I' for Inactive)
REMARK    1  A    between atoms: C2_2  and  C3_3 
REMARK    2  A    between atoms: C4_4  and  C5_5 
ROOT
HETATM    1  C5  UNL     1      31.587  67.269  44.171  1.00  0.00     0.017 A 
HETATM    2  C6  UNL     1      30.964  67.449  42.954  1.00  0.00     0.020 A 
HETATM    3  C7  UNL     1      31.408  66.878  41.790  1.00  0.00     0.001 A 
HETATM    4  C8  UNL     1      32.530  66.085  41.830  1.00  0.00     0.000 A 
HETATM    5  C9  UNL     1      33.202  65.869  43.038  1.00  0.00     0.001 A 
HETATM    6  C10 UNL     1      32.711  66.471  44.188  1.00  0.00     0.020 A 
ENDROOT
BRANCH   1   7
HETATM    7  C4  UNL     1      31.094  67.883  45.369  1.00  0.00    -0.067 C 
HETATM    8  C3  UNL     1      30.659  68.391  46.377  1.00  0.00    -0.101 C 
BRANCH   8   9
HETATM    9  C2  UNL     1      30.115  69.003  47.603  1.00  0.00     0.090 C 
HETATM   10  C1  UNL     1      29.021  68.108  48.097  1.00  0.00     0.018 C 
ENDBRANCH   8   9
ENDBRANCH   1   7
TORSDOF 2
ENDMDL
MODEL 2
REMARK VINA RESULT: -6.591748711      0.053      1.505
REMARK  2 active torsions:
REMARK  status: ('A' for Active; 'I' for Inactive)
REMARK    1  A    between atoms: C2_2  and  C3_3 
REMARK    2  A    between atoms: C4_4  and  C5_5 
ROOT
HETATM    1  C5  UNL     1      31.605  67.239  44.178  1.00  0.00     0.017 A 
HETATM    2  C6  UNL     1      32.706  66.409  44.199  1.00  0.00     0.020 A 
HETATM    3  C7  UNL     1      33.210  65.800  43.079  1.00  0.00     0.001 A 
HETATM    4  C8  UNL     1      32.592  66.022  41.871  1.00  0.00     0.000 A 
HETATM    5  C9  UNL     1      31.471  66.856  41.793  1.00  0.00     0.001 A 
HETATM    6  C10 UNL     1      31.002  67.448  42.956  1.00  0.00     0.020 A 
ENDROOT
BRANCH   1   7
HETATM    7  C4  UNL     1      31.105  67.861  45.369  1.00  0.00    -0.067 C 
HETATM    8  C3  UNL     1      30.665  68.377  46.370  1.00  0.00    -0.101 C 
BRANCH   8   9
HETATM    9  C2  UNL     1      30.113  68.998  47.588  1.00  0.00     0.090 C 
HETATM   10  C1  UNL     1      29.022  68.102  48.087  1.00  0.00     0.018 C 
ENDBRANCH   8   9
ENDBRANCH   1   7
TORSDOF 2
ENDMDL
MODEL 3
REMARK VINA RESULT: -6.391751517      1.905      5.391
REMARK  2 active torsions:
REMARK  status: ('A' for Active; 'I' for Inactive)
REMARK    1  A    between atoms: C2_2  and  C3_3 
REMARK    2  A    between atoms: C4_4  and  C5_5 
ROOT
HETATM    1  C5  UNL     1      31.102  66.827  46.452  1.00  0.00     0.017 A 
HETATM    2  C6  UNL     1      30.159  66.263  47.284  1.00  0.00     0.020 A 
HETATM    3  C7  UNL     1      29.244  66.999  47.992  1.00  0.00     0.001 A 
HETATM    4  C8  UNL     1      29.262  68.369  47.870  1.00  0.00     0.000 A 
HETATM    5  C9  UNL     1      30.199  68.993  47.039  1.00  0.00     0.001 A 
HETATM    6  C10 UNL     1      31.103  68.201  46.345  1.00  0.00     0.020 A 
ENDROOT
BRANCH   1   7
HETATM    7  C4  UNL     1      32.045  66.025  45.727  1.00  0.00    -0.067 C 
HETATM    8  C3  UNL     1      32.825  65.334  45.114  1.00  0.00    -0.101 C 
BRANCH   8   9
HETATM    9  C2  UNL     1      33.765  64.479  44.367  1.00  0.00     0.090 C 
HETATM   10  C1  UNL     1      34.029  65.152  43.055  1.00  0.00     0.018 C 
ENDBRANCH   8   9
ENDBRANCH   1   7
TORSDOF 2
ENDMDL
MODEL 4
REMARK VINA RESULT: -6.370621992      1.896      5.341
REMARK  2 active torsions:
REMARK  status: ('A' for Active; 'I' for Inactive)
REMARK    1  A    between atoms: C2_2  and  C3_3 
REMARK    2  A    between atoms: C4_4  and  C5_5 
ROOT
HETATM    1  C5  UNL     1      31.088  66.811  46.467  1.00  0.00     0.017 A 
HETATM    2  C6  UNL     1      31.064  68.186  46.366  1.00  0.00     0.020 A 
HETATM    3  C7  UNL     1      30.176  68.976  47.051  1.00  0.00     0.001 A 
HETATM    4  C8  UNL     1      29.262  68.373  47.883  1.00  0.00     0.000 A 
HETATM    5  C9  UNL     1      29.243  66.981  48.023  1.00  0.00     0.001 A 
HETATM    6  C10 UNL     1      30.163  66.229  47.307  1.00  0.00     0.020 A 
ENDROOT
BRANCH   1   7
HETATM    7  C4  UNL     1      32.031  66.017  45.736  1.00  0.00    -0.067 C 
HETATM    8  C3  UNL     1      32.811  65.332  45.115  1.00  0.00    -0.101 C 
BRANCH   8   9
HETATM    9  C2  UNL     1      33.750  64.486  44.356  1.00  0.00     0.090 C 
HETATM   10  C1  UNL     1      34.004  65.170  43.048  1.00  0.00     0.018 C 
ENDBRANCH   8   9
ENDBRANCH   1   7
TORSDOF 2
ENDMDL
MODEL 5
REMARK VINA RESULT: -6.310397542      3.250      3.841
REMARK  2 active torsions:
REMARK  status: ('A' for Active; 'I' for Inactive)
REMARK    1  A    between atoms: C2_2  and  C3_3 
REMARK    2  A    between atoms: C4_4  and  C5_5 
ROOT
HETATM    1  C5  UNL     1      31.684  64.727  43.863  1.00  0.00     0.017 A 
HETATM    2  C6  UNL     1      32.784  64.112  44.422  1.00  0.00     0.020 A 
HETATM    3  C7  UNL     1      34.070  64.346  44.007  1.00  0.00     0.001 A 
HETATM    4  C8  UNL     1      34.280  65.237  42.981  1.00  0.00     0.000 A 
HETATM    5  C9  UNL     1      33.199  65.889  42.378  1.00  0.00     0.001 A 
HETATM    6  C10 UNL     1      31.918  65.617  42.837  1.00  0.00     0.020 A 
ENDROOT
BRANCH   1   7
HETATM    7  C4  UNL     1      30.354  64.458  44.324  1.00  0.00    -0.067 C 
HETATM    8  C3  UNL     1      29.237  64.234  44.733  1.00  0.00    -0.101 C 
BRANCH   8   9
HETATM    9  C2  UNL     1      27.883  63.963  45.247  1.00  0.00     0.090 C 
HETATM   10  C1  UNL     1      28.038  63.345  46.602  1.00  0.00     0.018 C 
ENDBRANCH   8   9
ENDBRANCH   1   7
TORSDOF 2
ENDMDL
