MODEL 1
REMARK VINA RESULT: -8.346900504      0.000      0.000
REMARK  18 active torsions:
REMARK  status: ('A' for Active; 'I' for Inactive)
REMARK    1  A    between atoms: C2_2  and  O1_3 
REMARK    2  A    between atoms: O1_3  and  N1_4 
REMARK    3  A    between atoms: N1_4  and  C3_6 
REMARK    4  A    between atoms: C3_6  and  C4_7 
REMARK    5  A    between atoms: C3_6  and  C21_47 
REMARK    6  A    between atoms: C4_7  and  O2_8 
REMARK    7  A    between atoms: C4_7  and  N2_10 
REMARK    8  A    between atoms: N2_10  and  C5_12 
REMARK    9  A    between atoms: C8_17  and  S1_18 
REMARK   10  A    between atoms: C10_23  and  C11_24 
REMARK   11  A    between atoms: C12_27  and  O7_28 
REMARK   12  A    between atoms: O7_28  and  C13_29 
REMARK   13  A    between atoms: C13_29  and  C14_30 
REMARK   14  A    between atoms: C14_30  and  O8_31 
REMARK   15  A    between atoms: C15_34  and  N5_35 
REMARK   16  A    between atoms: C16_39  and  O10_40 
REMARK   17  A    between atoms: O10_40  and  C17_41 
REMARK   18  A    between atoms: C22_50  and  N7_51 
ROOT
HETATM    1  C5  UNL     1     -32.022  61.663 -24.630  1.00  0.00     0.139 C 
HETATM    2  C6  UNL     1     -31.576  62.058 -23.235  1.00  0.00     0.105 C 
HETATM    3  C7  UNL     1     -30.091  62.239 -23.105  1.00  0.00     0.034 C 
HETATM    4  N3  UNL     1     -31.985  61.051 -22.271  1.00  0.00    -0.360 N 
ATOM      5  H3  UNL     1     -32.334  61.364 -21.365  1.00  0.00     0.162 HD
HETATM    6  C8  UNL     1     -31.929  59.744 -22.506  1.00  0.00     0.203 C 
HETATM    7  N4  UNL     1     -31.451  59.441 -23.819  1.00  0.00    -0.299 N 
HETATM    8  C10 UNL     1     -30.865  58.132 -23.974  1.00  0.00     0.149 C 
HETATM    9  C12 UNL     1     -31.318  57.351 -25.000  1.00  0.00     0.113 C 
HETATM   10  C19 UNL     1     -32.341  57.759 -25.928  1.00  0.00     0.086 C 
HETATM   11  S2  UNL     1     -32.664  59.508 -26.184  1.00  0.00    -0.110 SA
HETATM   12  C20 UNL     1     -31.575  60.304 -24.982  1.00  0.00     0.183 C 
ENDROOT
BRANCH   1  13
HETATM   13  N2  UNL     1     -31.536  62.701 -25.573  1.00  0.00    -0.359 N 
ATOM     14  H2  UNL     1     -30.882  62.437 -26.310  1.00  0.00     0.162 HD
BRANCH  13  15
HETATM   15  C4  UNL     1     -31.949  64.023 -25.475  1.00  0.00     0.169 C 
BRANCH  15  16
HETATM   16  C3  UNL     1     -31.189  65.211 -25.471  1.00  0.00     0.149 C 
BRANCH  16  17
HETATM   17  N1  UNL     1     -29.964  65.181 -24.921  1.00  0.00    -0.259 N 
ATOM     18  H1  UNL     1     -29.286  64.527 -25.312  1.00  0.00     0.194 HD
BRANCH  17  19
HETATM   19  O1  UNL     1     -29.568  65.946 -23.900  1.00  0.00    -0.280 OA
BRANCH  19  20
HETATM   20  C2  UNL     1     -28.483  65.556 -23.092  1.00  0.00     0.196 C 
HETATM   21  C1  UNL     1     -27.472  64.707 -23.828  1.00  0.00     0.036 C 
ENDBRANCH  19  20
ENDBRANCH  17  19
ENDBRANCH  16  17
BRANCH  16  22
HETATM   22  C21 UNL     1     -31.562  66.543 -26.026  1.00  0.00     0.147 A 
HETATM   23  N6  UNL     1     -32.760  66.705 -26.553  1.00  0.00    -0.320 N 
HETATM   24  C22 UNL     1     -33.098  67.846 -27.098  1.00  0.00     0.160 A 
ATOM     25  H6  UNL     1     -33.428  65.935 -26.535  1.00  0.00     0.169 HD
HETATM   26  S3  UNL     1     -31.689  68.765 -26.881  1.00  0.00     0.024 SA
HETATM   27  N8  UNL     1     -30.739  67.574 -26.081  1.00  0.00    -0.307 N 
ATOM     28  H8  UNL     1     -29.782  67.646 -25.736  1.00  0.00     0.176 HD
BRANCH  24  29
HETATM   29  N7  UNL     1     -34.245  68.164 -27.661  1.00  0.00    -0.379 N 
ATOM     30  H72 UNL     1     -35.130  68.448 -27.242  1.00  0.00     0.158 HD
ATOM     31  H71 UNL     1     -34.470  68.186 -28.656  1.00  0.00     0.158 HD
ENDBRANCH  24  29
ENDBRANCH  16  22
ENDBRANCH  15  16
BRANCH  15  32
HETATM   32  O2  UNL     1     -33.246  64.239 -25.362  1.00  0.00    -0.344 OA
ATOM     33  H2  UNL     1     -33.726  64.040 -26.157  1.00  0.00     0.219 HD
ENDBRANCH  15  32
ENDBRANCH  13  15
ENDBRANCH   1  13
BRANCH   6  34
HETATM   34  S1  UNL     1     -32.409  58.541 -21.395  1.00  0.00     0.203 S 
HETATM   35  C9  UNL     1     -33.553  57.353 -22.116  1.00  0.00     0.170 C 
HETATM   36  O3  UNL     1     -33.476  59.337 -20.556  1.00  0.00    -0.220 OA
HETATM   37  O4  UNL     1     -31.760  58.068 -20.200  1.00  0.00    -0.220 OA
ENDBRANCH   6  34
BRANCH   8  38
HETATM   38  C11 UNL     1     -29.901  57.721 -23.003  1.00  0.00     0.230 C 
HETATM   39  O5  UNL     1     -28.944  58.428 -22.670  1.00  0.00    -0.643 OA
HETATM   40  O6  UNL     1     -29.925  56.524 -22.345  1.00  0.00    -0.643 OA
ENDBRANCH   8  38
BRANCH   9  41
HETATM   41  O7  UNL     1     -30.710  56.107 -25.085  1.00  0.00    -0.306 OA
BRANCH  41  42
HETATM   42  C13 UNL     1     -29.636  55.708 -25.843  1.00  0.00     0.224 C 
HETATM   43  O9  UNL     1     -29.756  55.994 -27.235  1.00  0.00    -0.315 OA
HETATM   44  C15 UNL     1     -30.114  54.708 -27.588  1.00  0.00     0.356 C 
HETATM   45  C16 UNL     1     -29.542  54.268 -26.244  1.00  0.00     0.253 C 
BRANCH  42  46
HETATM   46  C14 UNL     1     -28.241  56.194 -25.451  1.00  0.00     0.236 C 
BRANCH  46  47
HETATM   47  O8  UNL     1     -27.280  55.237 -25.770  1.00  0.00    -0.395 OA
ATOM     48  H8  UNL     1     -27.009  54.763 -24.992  1.00  0.00     0.209 HD
ENDBRANCH  46  47
ENDBRANCH  42  46
BRANCH  44  49
HETATM   49  N5  UNL     1     -29.394  54.177 -28.732  1.00  0.00    -0.050 N 
ATOM     50  H53 UNL     1     -29.557  54.756 -29.556  1.00  0.00     0.277 HD
ATOM     51  H52 UNL     1     -28.390  54.316 -28.616  1.00  0.00     0.277 HD
ATOM     52  H51 UNL     1     -29.596  53.199 -28.940  1.00  0.00     0.277 HD
ENDBRANCH  44  49
BRANCH  45  53
HETATM   53  O10 UNL     1     -30.281  53.322 -25.544  1.00  0.00    -0.306 OA
BRANCH  53  54
HETATM   54  C17 UNL     1     -29.679  52.402 -24.706  1.00  0.00     0.255 C 
HETATM   55  C18 UNL     1     -30.187  52.241 -23.325  1.00  0.00     0.126 C 
HETATM   56  O11 UNL     1     -28.713  51.702 -25.092  1.00  0.00    -0.266 OA
ENDBRANCH  53  54
ENDBRANCH  45  53
ENDBRANCH  41  42
ENDBRANCH   9  41
TORSDOF 18
ENDMDL
MODEL 2
REMARK VINA RESULT: -8.246403464      2.183      3.037
REMARK  18 active torsions:
REMARK  status: ('A' for Active; 'I' for Inactive)
REMARK    1  A    between atoms: C2_2  and  O1_3 
REMARK    2  A    between atoms: O1_3  and  N1_4 
REMARK    3  A    between atoms: N1_4  and  C3_6 
REMARK    4  A    between atoms: C3_6  and  C4_7 
REMARK    5  A    between atoms: C3_6  and  C21_47 
REMARK    6  A    between atoms: C4_7  and  O2_8 
REMARK    7  A    between atoms: C4_7  and  N2_10 
REMARK    8  A    between atoms: N2_10  and  C5_12 
REMARK    9  A    between atoms: C8_17  and  S1_18 
REMARK   10  A    between atoms: C10_23  and  C11_24 
REMARK   11  A    between atoms: C12_27  and  O7_28 
REMARK   12  A    between atoms: O7_28  and  C13_29 
REMARK   13  A    between atoms: C13_29  and  C14_30 
REMARK   14  A    between atoms: C14_30  and  O8_31 
REMARK   15  A    between atoms: C15_34  and  N5_35 
REMARK   16  A    between atoms: C16_39  and  O10_40 
REMARK   17  A    between atoms: O10_40  and  C17_41 
REMARK   18  A    between atoms: C22_50  and  N7_51 
ROOT
HETATM    1  C5  UNL     1     -32.455  61.332 -24.118  1.00  0.00     0.139 C 
HETATM    2  C6  UNL     1     -33.452  61.775 -23.064  1.00  0.00     0.105 C 
HETATM    3  C7  UNL     1     -32.831  62.056 -21.726  1.00  0.00     0.034 C 
HETATM    4  N3  UNL     1     -34.471  60.757 -22.874  1.00  0.00    -0.360 N 
ATOM      5  H3  UNL     1     -35.437  61.058 -22.747  1.00  0.00     0.162 HD
HETATM    6  C8  UNL     1     -34.212  59.453 -22.859  1.00  0.00     0.203 C 
HETATM    7  N4  UNL     1     -32.829  59.164 -23.077  1.00  0.00    -0.299 N 
HETATM    8  C10 UNL     1     -32.377  57.894 -22.563  1.00  0.00     0.149 C 
HETATM    9  C12 UNL     1     -31.696  57.071 -23.415  1.00  0.00     0.113 C 
HETATM   10  C19 UNL     1     -31.406  57.398 -24.788  1.00  0.00     0.086 C 
HETATM   11  S2  UNL     1     -31.382  59.118 -25.307  1.00  0.00    -0.110 SA
HETATM   12  C20 UNL     1     -31.899  60.001 -23.819  1.00  0.00     0.183 C 
ENDROOT
BRANCH   1  13
HETATM   13  N2  UNL     1     -31.417  62.386 -24.232  1.00  0.00    -0.359 N 
ATOM     14  H2  UNL     1     -30.721  62.482 -23.493  1.00  0.00     0.162 HD
BRANCH  13  15
HETATM   15  C4  UNL     1     -31.371  63.246 -25.321  1.00  0.00     0.169 C 
BRANCH  15  16
HETATM   16  C3  UNL     1     -30.640  64.438 -25.503  1.00  0.00     0.149 C 
BRANCH  16  17
HETATM   17  N1  UNL     1     -29.303  64.389 -25.391  1.00  0.00    -0.259 N 
ATOM     18  H1  UNL     1     -28.750  64.786 -26.150  1.00  0.00     0.194 HD
BRANCH  17  19
HETATM   19  O1  UNL     1     -28.643  63.857 -24.358  1.00  0.00    -0.280 OA
BRANCH  19  20
HETATM   20  C2  UNL     1     -27.867  64.669 -23.510  1.00  0.00     0.196 C 
HETATM   21  C1  UNL     1     -28.699  65.538 -22.595  1.00  0.00     0.036 C 
ENDBRANCH  19  20
ENDBRANCH  17  19
ENDBRANCH  16  17
BRANCH  16  22
HETATM   22  C21 UNL     1     -31.161  65.796 -25.831  1.00  0.00     0.147 A 
HETATM   23  N6  UNL     1     -32.418  65.926 -26.209  1.00  0.00    -0.320 N 
HETATM   24  C22 UNL     1     -32.890  67.096 -26.557  1.00  0.00     0.160 A 
ATOM     25  H6  UNL     1     -33.026  65.108 -26.231  1.00  0.00     0.169 HD
HETATM   26  S3  UNL     1     -31.532  68.092 -26.356  1.00  0.00     0.024 SA
HETATM   27  N8  UNL     1     -30.421  66.890 -25.825  1.00  0.00    -0.307 N 
ATOM     28  H8  UNL     1     -29.439  66.995 -25.570  1.00  0.00     0.176 HD
BRANCH  24  29
HETATM   29  N7  UNL     1     -34.110  67.389 -26.955  1.00  0.00    -0.379 N 
ATOM     30  H72 UNL     1     -34.828  66.798 -27.376  1.00  0.00     0.158 HD
ATOM     31  H71 UNL     1     -34.582  68.293 -26.916  1.00  0.00     0.158 HD
ENDBRANCH  24  29
ENDBRANCH  16  22
ENDBRANCH  15  16
BRANCH  15  32
HETATM   32  O2  UNL     1     -32.117  62.934 -26.364  1.00  0.00    -0.344 OA
ATOM     33  H2  UNL     1     -32.919  62.482 -26.126  1.00  0.00     0.219 HD
ENDBRANCH  15  32
ENDBRANCH  13  15
ENDBRANCH   1  13
BRANCH   6  34
HETATM   34  S1  UNL     1     -35.390  58.237 -22.644  1.00  0.00     0.203 S 
HETATM   35  C9  UNL     1     -35.506  57.132 -24.061  1.00  0.00     0.170 C 
HETATM   36  O3  UNL     1     -36.701  59.054 -22.940  1.00  0.00    -0.220 OA
HETATM   37  O4  UNL     1     -35.952  57.691 -21.436  1.00  0.00    -0.220 OA
ENDBRANCH   6  34
BRANCH   8  38
HETATM   38  C11 UNL     1     -32.732  57.562 -21.220  1.00  0.00     0.230 C 
HETATM   39  O5  UNL     1     -32.477  58.296 -20.260  1.00  0.00    -0.643 OA
HETATM   40  O6  UNL     1     -33.381  56.418 -20.850  1.00  0.00    -0.643 OA
ENDBRANCH   8  38
BRANCH   9  41
HETATM   41  O7  UNL     1     -31.294  55.869 -22.851  1.00  0.00    -0.306 OA
BRANCH  41  42
HETATM   42  C13 UNL     1     -31.647  54.583 -23.185  1.00  0.00     0.224 C 
HETATM   43  O9  UNL     1     -31.530  53.643 -22.119  1.00  0.00    -0.315 OA
HETATM   44  C15 UNL     1     -30.330  53.119 -22.558  1.00  0.00     0.356 C 
HETATM   45  C16 UNL     1     -30.651  53.737 -23.915  1.00  0.00     0.253 C 
BRANCH  42  46
HETATM   46  C14 UNL     1     -33.029  54.336 -23.789  1.00  0.00     0.236 C 
BRANCH  46  47
HETATM   47  O8  UNL     1     -34.014  54.410 -22.806  1.00  0.00    -0.395 OA
ATOM     48  H8  UNL     1     -34.814  53.991 -23.102  1.00  0.00     0.209 HD
ENDBRANCH  46  47
ENDBRANCH  42  46
BRANCH  44  49
HETATM   49  N5  UNL     1     -30.279  51.668 -22.573  1.00  0.00    -0.050 N 
ATOM     50  H53 UNL     1     -29.546  51.331 -21.949  1.00  0.00     0.277 HD
ATOM     51  H52 UNL     1     -31.098  51.278 -22.107  1.00  0.00     0.277 HD
ATOM     52  H51 UNL     1     -30.170  51.259 -23.501  1.00  0.00     0.277 HD
ENDBRANCH  44  49
BRANCH  45  53
HETATM   53  O10 UNL     1     -29.594  54.354 -24.573  1.00  0.00    -0.306 OA
BRANCH  53  54
HETATM   54  C17 UNL     1     -28.973  53.770 -25.662  1.00  0.00     0.255 C 
HETATM   55  C18 UNL     1     -29.327  54.225 -27.025  1.00  0.00     0.126 C 
HETATM   56  O11 UNL     1     -28.119  52.863 -25.518  1.00  0.00    -0.266 OA
ENDBRANCH  53  54
ENDBRANCH  45  53
ENDBRANCH  41  42
ENDBRANCH   9  41
TORSDOF 18
ENDMDL
MODEL 3
REMARK VINA RESULT: -8.199959443      1.160      2.547
REMARK  18 active torsions:
REMARK  status: ('A' for Active; 'I' for Inactive)
REMARK    1  A    between atoms: C2_2  and  O1_3 
REMARK    2  A    between atoms: O1_3  and  N1_4 
REMARK    3  A    between atoms: N1_4  and  C3_6 
REMARK    4  A    between atoms: C3_6  and  C4_7 
REMARK    5  A    between atoms: C3_6  and  C21_47 
REMARK    6  A    between atoms: C4_7  and  O2_8 
REMARK    7  A    between atoms: C4_7  and  N2_10 
REMARK    8  A    between atoms: N2_10  and  C5_12 
REMARK    9  A    between atoms: C8_17  and  S1_18 
REMARK   10  A    between atoms: C10_23  and  C11_24 
REMARK   11  A    between atoms: C12_27  and  O7_28 
REMARK   12  A    between atoms: O7_28  and  C13_29 
REMARK   13  A    between atoms: C13_29  and  C14_30 
REMARK   14  A    between atoms: C14_30  and  O8_31 
REMARK   15  A    between atoms: C15_34  and  N5_35 
REMARK   16  A    between atoms: C16_39  and  O10_40 
REMARK   17  A    between atoms: O10_40  and  C17_41 
REMARK   18  A    between atoms: C22_50  and  N7_51 
ROOT
HETATM    1  C5  UNL     1     -32.023  61.788 -24.620  1.00  0.00     0.139 C 
HETATM    2  C6  UNL     1     -31.591  62.162 -23.214  1.00  0.00     0.105 C 
HETATM    3  C7  UNL     1     -30.106  62.318 -23.060  1.00  0.00     0.034 C 
HETATM    4  N3  UNL     1     -32.031  61.152 -22.267  1.00  0.00    -0.360 N 
ATOM      5  H3  UNL     1     -32.389  61.461 -21.363  1.00  0.00     0.162 HD
HETATM    6  C8  UNL     1     -31.992  59.846 -22.515  1.00  0.00     0.203 C 
HETATM    7  N4  UNL     1     -31.499  59.549 -23.823  1.00  0.00    -0.299 N 
HETATM    8  C10 UNL     1     -30.932  58.232 -23.982  1.00  0.00     0.149 C 
HETATM    9  C12 UNL     1     -31.381  57.469 -25.023  1.00  0.00     0.113 C 
HETATM   10  C19 UNL     1     -32.383  57.903 -25.963  1.00  0.00     0.086 C 
HETATM   11  S2  UNL     1     -32.675  59.660 -26.205  1.00  0.00    -0.110 SA
HETATM   12  C20 UNL     1     -31.592  60.426 -24.979  1.00  0.00     0.183 C 
ENDROOT
BRANCH   1  13
HETATM   13  N2  UNL     1     -31.506  62.828 -25.544  1.00  0.00    -0.359 N 
ATOM     14  H2  UNL     1     -30.772  62.583 -26.209  1.00  0.00     0.162 HD
BRANCH  13  15
HETATM   15  C4  UNL     1     -31.996  64.126 -25.525  1.00  0.00     0.169 C 
BRANCH  15  16
HETATM   16  C3  UNL     1     -31.326  65.350 -25.726  1.00  0.00     0.149 C 
BRANCH  16  17
HETATM   17  N1  UNL     1     -31.897  66.266 -26.526  1.00  0.00    -0.259 N 
ATOM     18  H1  UNL     1     -31.634  66.261 -27.512  1.00  0.00     0.194 HD
BRANCH  17  19
HETATM   19  O1  UNL     1     -32.783  67.181 -26.126  1.00  0.00    -0.280 OA
BRANCH  19  20
HETATM   20  C2  UNL     1     -32.807  68.460 -26.715  1.00  0.00     0.196 C 
HETATM   21  C1  UNL     1     -32.215  69.532 -25.829  1.00  0.00     0.036 C 
ENDBRANCH  19  20
ENDBRANCH  17  19
ENDBRANCH  16  17
BRANCH  16  22
HETATM   22  C21 UNL     1     -30.029  65.796 -25.141  1.00  0.00     0.147 A 
HETATM   23  N6  UNL     1     -29.197  64.890 -24.663  1.00  0.00    -0.320 N 
HETATM   24  C22 UNL     1     -28.076  65.252 -24.093  1.00  0.00     0.160 A 
ATOM     25  H6  UNL     1     -29.430  63.901 -24.738  1.00  0.00     0.169 HD
HETATM   26  S3  UNL     1     -28.156  66.942 -24.214  1.00  0.00     0.024 SA
HETATM   27  N8  UNL     1     -29.675  67.061 -25.013  1.00  0.00    -0.307 N 
ATOM     28  H8  UNL     1     -30.176  67.898 -25.312  1.00  0.00     0.176 HD
BRANCH  24  29
HETATM   29  N7  UNL     1     -27.148  64.478 -23.571  1.00  0.00    -0.379 N 
ATOM     30  H72 UNL     1     -27.233  63.608 -23.046  1.00  0.00     0.158 HD
ATOM     31  H71 UNL     1     -26.137  64.609 -23.594  1.00  0.00     0.158 HD
ENDBRANCH  24  29
ENDBRANCH  16  22
ENDBRANCH  15  16
BRANCH  15  32
HETATM   32  O2  UNL     1     -33.284  64.277 -25.281  1.00  0.00    -0.344 OA
ATOM     33  H2  UNL     1     -33.508  64.136 -24.368  1.00  0.00     0.219 HD
ENDBRANCH  15  32
ENDBRANCH  13  15
ENDBRANCH   1  13
BRANCH   6  34
HETATM   34  S1  UNL     1     -32.507  58.640 -21.423  1.00  0.00     0.203 S 
HETATM   35  C9  UNL     1     -33.669  57.485 -22.170  1.00  0.00     0.170 C 
HETATM   36  O3  UNL     1     -33.565  59.448 -20.584  1.00  0.00    -0.220 OA
HETATM   37  O4  UNL     1     -31.880  58.139 -20.228  1.00  0.00    -0.220 OA
ENDBRANCH   6  34
BRANCH   8  38
HETATM   38  C11 UNL     1     -29.989  57.797 -23.002  1.00  0.00     0.230 C 
HETATM   39  O5  UNL     1     -29.019  58.480 -22.656  1.00  0.00    -0.643 OA
HETATM   40  O6  UNL     1     -30.049  56.599 -22.347  1.00  0.00    -0.643 OA
ENDBRANCH   8  38
BRANCH   9  41
HETATM   41  O7  UNL     1     -30.792  56.217 -25.112  1.00  0.00    -0.306 OA
BRANCH  41  42
HETATM   42  C13 UNL     1     -29.699  55.813 -25.841  1.00  0.00     0.224 C 
HETATM   43  O9  UNL     1     -29.805  56.049 -27.244  1.00  0.00    -0.315 OA
HETATM   44  C15 UNL     1     -30.133  54.745 -27.557  1.00  0.00     0.356 C 
HETATM   45  C16 UNL     1     -29.572  54.363 -26.190  1.00  0.00     0.253 C 
BRANCH  42  46
HETATM   46  C14 UNL     1     -28.320  56.340 -25.448  1.00  0.00     0.236 C 
BRANCH  46  47
HETATM   47  O8  UNL     1     -27.356  55.344 -25.588  1.00  0.00    -0.395 OA
ATOM     48  H8  UNL     1     -27.475  54.669 -24.931  1.00  0.00     0.209 HD
ENDBRANCH  46  47
ENDBRANCH  42  46
BRANCH  44  49
HETATM   49  N5  UNL     1     -29.387  54.189 -28.672  1.00  0.00    -0.050 N 
ATOM     50  H53 UNL     1     -29.205  54.908 -29.372  1.00  0.00     0.277 HD
ATOM     51  H52 UNL     1     -28.431  53.974 -28.388  1.00  0.00     0.277 HD
ATOM     52  H51 UNL     1     -29.821  53.374 -29.105  1.00  0.00     0.277 HD
ENDBRANCH  44  49
BRANCH  45  53
HETATM   53  O10 UNL     1     -30.302  53.427 -25.469  1.00  0.00    -0.306 OA
BRANCH  53  54
HETATM   54  C17 UNL     1     -29.686  52.487 -24.662  1.00  0.00     0.255 C 
HETATM   55  C18 UNL     1     -30.204  52.258 -23.295  1.00  0.00     0.126 C 
HETATM   56  O11 UNL     1     -28.700  51.826 -25.066  1.00  0.00    -0.266 OA
ENDBRANCH  53  54
ENDBRANCH  45  53
ENDBRANCH  41  42
ENDBRANCH   9  41
TORSDOF 18
ENDMDL
MODEL 4
REMARK VINA RESULT: -8.178086776      2.491      3.920
REMARK  18 active torsions:
REMARK  status: ('A' for Active; 'I' for Inactive)
REMARK    1  A    between atoms: C2_2  and  O1_3 
REMARK    2  A    between atoms: O1_3  and  N1_4 
REMARK    3  A    between atoms: N1_4  and  C3_6 
REMARK    4  A    between atoms: C3_6  and  C4_7 
REMARK    5  A    between atoms: C3_6  and  C21_47 
REMARK    6  A    between atoms: C4_7  and  O2_8 
REMARK    7  A    between atoms: C4_7  and  N2_10 
REMARK    8  A    between atoms: N2_10  and  C5_12 
REMARK    9  A    between atoms: C8_17  and  S1_18 
REMARK   10  A    between atoms: C10_23  and  C11_24 
REMARK   11  A    between atoms: C12_27  and  O7_28 
REMARK   12  A    between atoms: O7_28  and  C13_29 
REMARK   13  A    between atoms: C13_29  and  C14_30 
REMARK   14  A    between atoms: C14_30  and  O8_31 
REMARK   15  A    between atoms: C15_34  and  N5_35 
REMARK   16  A    between atoms: C16_39  and  O10_40 
REMARK   17  A    between atoms: O10_40  and  C17_41 
REMARK   18  A    between atoms: C22_50  and  N7_51 
ROOT
HETATM    1  C5  UNL     1     -32.422  61.030 -24.417  1.00  0.00     0.139 C 
HETATM    2  C6  UNL     1     -33.363  61.593 -23.368  1.00  0.00     0.105 C 
HETATM    3  C7  UNL     1     -32.682  61.958 -22.081  1.00  0.00     0.034 C 
HETATM    4  N3  UNL     1     -34.407  60.631 -23.059  1.00  0.00    -0.360 N 
ATOM      5  H3  UNL     1     -35.357  60.977 -22.922  1.00  0.00     0.162 HD
HETATM    6  C8  UNL     1     -34.192  59.324 -22.945  1.00  0.00     0.203 C 
HETATM    7  N4  UNL     1     -32.829  58.968 -23.188  1.00  0.00    -0.299 N 
HETATM    8  C10 UNL     1     -32.400  57.729 -22.587  1.00  0.00     0.149 C 
HETATM    9  C12 UNL     1     -31.780  56.815 -23.392  1.00  0.00     0.113 C 
HETATM   10  C19 UNL     1     -31.532  57.018 -24.796  1.00  0.00     0.086 C 
HETATM   11  S2  UNL     1     -31.470  58.689 -25.456  1.00  0.00    -0.110 SA
HETATM   12  C20 UNL     1     -31.900  59.708 -24.028  1.00  0.00     0.183 C 
ENDROOT
BRANCH   1  13
HETATM   13  N2  UNL     1     -31.355  62.033 -24.654  1.00  0.00    -0.359 N 
ATOM     14  H2  UNL     1     -30.452  61.918 -24.195  1.00  0.00     0.162 HD
BRANCH  13  15
HETATM   15  C4  UNL     1     -31.556  63.125 -25.487  1.00  0.00     0.169 C 
BRANCH  15  16
HETATM   16  C3  UNL     1     -31.085  64.449 -25.374  1.00  0.00     0.149 C 
BRANCH  16  17
HETATM   17  N1  UNL     1     -31.632  65.390 -26.161  1.00  0.00    -0.259 N 
ATOM     18  H1  UNL     1     -31.022  65.861 -26.828  1.00  0.00     0.194 HD
BRANCH  17  19
HETATM   19  O1  UNL     1     -32.918  65.753 -26.134  1.00  0.00    -0.280 OA
BRANCH  19  20
HETATM   20  C2  UNL     1     -33.302  67.053 -26.515  1.00  0.00     0.196 C 
HETATM   21  C1  UNL     1     -32.153  68.035 -26.514  1.00  0.00     0.036 C 
ENDBRANCH  19  20
ENDBRANCH  17  19
ENDBRANCH  16  17
BRANCH  16  22
HETATM   22  C21 UNL     1     -30.034  64.976 -24.457  1.00  0.00     0.147 A 
HETATM   23  N6  UNL     1     -29.412  66.096 -24.772  1.00  0.00    -0.320 N 
HETATM   24  C22 UNL     1     -28.447  66.556 -24.017  1.00  0.00     0.160 A 
ATOM     25  H6  UNL     1     -29.686  66.607 -25.611  1.00  0.00     0.169 HD
HETATM   26  S3  UNL     1     -28.378  65.385 -22.791  1.00  0.00     0.024 SA
HETATM   27  N8  UNL     1     -29.635  64.357 -23.361  1.00  0.00    -0.307 N 
ATOM     28  H8  UNL     1     -29.984  63.489 -22.955  1.00  0.00     0.176 HD
BRANCH  24  29
HETATM   29  N7  UNL     1     -27.735  67.649 -24.192  1.00  0.00    -0.379 N 
ATOM     30  H72 UNL     1     -28.013  68.573 -24.523  1.00  0.00     0.158 HD
ATOM     31  H71 UNL     1     -26.737  67.780 -24.025  1.00  0.00     0.158 HD
ENDBRANCH  24  29
ENDBRANCH  16  22
ENDBRANCH  15  16
BRANCH  15  32
HETATM   32  O2  UNL     1     -32.303  62.933 -26.559  1.00  0.00    -0.344 OA
ATOM     33  H2  UNL     1     -32.654  62.051 -26.614  1.00  0.00     0.219 HD
ENDBRANCH  15  32
ENDBRANCH  13  15
ENDBRANCH   1  13
BRANCH   6  34
HETATM   34  S1  UNL     1     -35.400  58.173 -22.589  1.00  0.00     0.203 S 
HETATM   35  C9  UNL     1     -35.660  57.008 -23.936  1.00  0.00     0.170 C 
HETATM   36  O3  UNL     1     -36.695  59.033 -22.838  1.00  0.00    -0.220 OA
HETATM   37  O4  UNL     1     -35.900  57.713 -21.320  1.00  0.00    -0.220 OA
ENDBRANCH   6  34
BRANCH   8  38
HETATM   38  C11 UNL     1     -32.714  57.521 -21.210  1.00  0.00     0.230 C 
HETATM   39  O5  UNL     1     -32.347  58.291 -20.316  1.00  0.00    -0.643 OA
HETATM   40  O6  UNL     1     -33.440  56.467 -20.731  1.00  0.00    -0.643 OA
ENDBRANCH   8  38
BRANCH   9  41
HETATM   41  O7  UNL     1     -31.397  55.649 -22.745  1.00  0.00    -0.306 OA
BRANCH  41  42
HETATM   42  C13 UNL     1     -31.845  54.362 -22.922  1.00  0.00     0.224 C 
HETATM   43  O9  UNL     1     -31.738  53.535 -21.764  1.00  0.00    -0.315 OA
HETATM   44  C15 UNL     1     -30.595  52.887 -22.190  1.00  0.00     0.356 C 
HETATM   45  C16 UNL     1     -30.939  53.377 -23.593  1.00  0.00     0.253 C 
BRANCH  42  46
HETATM   46  C14 UNL     1     -33.266  54.146 -23.440  1.00  0.00     0.236 C 
BRANCH  46  47
HETATM   47  O8  UNL     1     -34.202  54.530 -22.481  1.00  0.00    -0.395 OA
ATOM     48  H8  UNL     1     -34.455  53.789 -21.944  1.00  0.00     0.209 HD
ENDBRANCH  46  47
ENDBRANCH  42  46
BRANCH  44  49
HETATM   49  N5  UNL     1     -30.636  51.443 -22.048  1.00  0.00    -0.050 N 
ATOM     50  H53 UNL     1     -29.691  51.058 -22.061  1.00  0.00     0.277 HD
ATOM     51  H52 UNL     1     -30.916  51.186 -21.101  1.00  0.00     0.277 HD
ATOM     52  H51 UNL     1     -31.222  50.968 -22.733  1.00  0.00     0.277 HD
ENDBRANCH  44  49
BRANCH  45  53
HETATM   53  O10 UNL     1     -29.877  53.847 -24.356  1.00  0.00    -0.306 OA
BRANCH  53  54
HETATM   54  C17 UNL     1     -29.205  53.032 -25.248  1.00  0.00     0.255 C 
HETATM   55  C18 UNL     1     -28.886  53.548 -26.598  1.00  0.00     0.126 C 
HETATM   56  O11 UNL     1     -28.860  51.868 -24.937  1.00  0.00    -0.266 OA
ENDBRANCH  53  54
ENDBRANCH  45  53
ENDBRANCH  41  42
ENDBRANCH   9  41
TORSDOF 18
ENDMDL
MODEL 5
REMARK VINA RESULT: -8.174004406      1.912      2.347
REMARK  18 active torsions:
REMARK  status: ('A' for Active; 'I' for Inactive)
REMARK    1  A    between atoms: C2_2  and  O1_3 
REMARK    2  A    between atoms: O1_3  and  N1_4 
REMARK    3  A    between atoms: N1_4  and  C3_6 
REMARK    4  A    between atoms: C3_6  and  C4_7 
REMARK    5  A    between atoms: C3_6  and  C21_47 
REMARK    6  A    between atoms: C4_7  and  O2_8 
REMARK    7  A    between atoms: C4_7  and  N2_10 
REMARK    8  A    between atoms: N2_10  and  C5_12 
REMARK    9  A    between atoms: C8_17  and  S1_18 
REMARK   10  A    between atoms: C10_23  and  C11_24 
REMARK   11  A    between atoms: C12_27  and  O7_28 
REMARK   12  A    between atoms: O7_28  and  C13_29 
REMARK   13  A    between atoms: C13_29  and  C14_30 
REMARK   14  A    between atoms: C14_30  and  O8_31 
REMARK   15  A    between atoms: C15_34  and  N5_35 
REMARK   16  A    between atoms: C16_39  and  O10_40 
REMARK   17  A    between atoms: O10_40  and  C17_41 
REMARK   18  A    between atoms: C22_50  and  N7_51 
ROOT
HETATM    1  C5  UNL     1     -33.201  61.643 -24.098  1.00  0.00     0.139 C 
HETATM    2  C6  UNL     1     -33.827  61.766 -22.721  1.00  0.00     0.105 C 
HETATM    3  C7  UNL     1     -32.830  61.719 -21.599  1.00  0.00     0.034 C 
HETATM    4  N3  UNL     1     -34.786  60.696 -22.506  1.00  0.00    -0.360 N 
ATOM      5  H3  UNL     1     -35.659  60.920 -22.028  1.00  0.00     0.162 HD
HETATM    6  C8  UNL     1     -34.587  59.442 -22.899  1.00  0.00     0.203 C 
HETATM    7  N4  UNL     1     -33.342  59.269 -23.579  1.00  0.00    -0.299 N 
HETATM    8  C10 UNL     1     -32.812  57.928 -23.561  1.00  0.00     0.149 C 
HETATM    9  C12 UNL     1     -32.444  57.374 -24.755  1.00  0.00     0.113 C 
HETATM   10  C19 UNL     1     -32.556  58.050 -26.022  1.00  0.00     0.086 C 
HETATM   11  S2  UNL     1     -32.614  59.845 -26.071  1.00  0.00    -0.110 SA
HETATM   12  C20 UNL     1     -32.637  60.301 -24.323  1.00  0.00     0.183 C 
ENDROOT
BRANCH   1  13
HETATM   13  N2  UNL     1     -32.200  62.729 -24.240  1.00  0.00    -0.359 N 
ATOM     14  H2  UNL     1     -31.459  62.817 -23.545  1.00  0.00     0.162 HD
BRANCH  13  15
HETATM   15  C4  UNL     1     -32.248  63.628 -25.296  1.00  0.00     0.169 C 
BRANCH  15  16
HETATM   16  C3  UNL     1     -31.308  64.598 -25.703  1.00  0.00     0.149 C 
BRANCH  16  17
HETATM   17  N1  UNL     1     -30.026  64.224 -25.841  1.00  0.00    -0.259 N 
ATOM     18  H1  UNL     1     -29.813  63.519 -26.548  1.00  0.00     0.194 HD
BRANCH  17  19
HETATM   19  O1  UNL     1     -29.008  64.706 -25.123  1.00  0.00    -0.280 OA
BRANCH  19  20
HETATM   20  C2  UNL     1     -28.814  64.294 -23.790  1.00  0.00     0.196 C 
HETATM   21  C1  UNL     1     -28.874  65.436 -22.802  1.00  0.00     0.036 C 
ENDBRANCH  19  20
ENDBRANCH  17  19
ENDBRANCH  16  17
BRANCH  16  22
HETATM   22  C21 UNL     1     -31.549  66.032 -26.028  1.00  0.00     0.147 A 
HETATM   23  N6  UNL     1     -32.765  66.418 -26.364  1.00  0.00    -0.320 N 
HETATM   24  C22 UNL     1     -32.998  67.659 -26.709  1.00  0.00     0.160 A 
ATOM     25  H6  UNL     1     -33.529  65.743 -26.355  1.00  0.00     0.169 HD
HETATM   26  S3  UNL     1     -31.456  68.353 -26.567  1.00  0.00     0.024 SA
HETATM   27  N8  UNL     1     -30.599  66.950 -26.060  1.00  0.00    -0.307 N 
ATOM     28  H8  UNL     1     -29.608  66.851 -25.841  1.00  0.00     0.176 HD
BRANCH  24  29
HETATM   29  N7  UNL     1     -34.145  68.196 -27.067  1.00  0.00    -0.379 N 
ATOM     30  H72 UNL     1     -34.879  67.839 -27.677  1.00  0.00     0.158 HD
ATOM     31  H71 UNL     1     -34.525  69.102 -26.792  1.00  0.00     0.158 HD
ENDBRANCH  24  29
ENDBRANCH  16  22
ENDBRANCH  15  16
BRANCH  15  32
HETATM   32  O2  UNL     1     -33.326  63.604 -26.057  1.00  0.00    -0.344 OA
ATOM     33  H2  UNL     1     -34.090  63.260 -25.607  1.00  0.00     0.219 HD
ENDBRANCH  15  32
ENDBRANCH  13  15
ENDBRANCH   1  13
BRANCH   6  34
HETATM   34  S1  UNL     1     -35.700  58.169 -22.664  1.00  0.00     0.203 S 
HETATM   35  C9  UNL     1     -36.117  57.327 -24.200  1.00  0.00     0.170 C 
HETATM   36  O3  UNL     1     -37.040  58.982 -22.531  1.00  0.00    -0.220 OA
HETATM   37  O4  UNL     1     -35.998  57.402 -21.483  1.00  0.00    -0.220 OA
ENDBRANCH   6  34
BRANCH   8  38
HETATM   38  C11 UNL     1     -32.771  57.252 -22.303  1.00  0.00     0.230 C 
HETATM   39  O5  UNL     1     -32.286  57.759 -21.286  1.00  0.00    -0.643 OA
HETATM   40  O6  UNL     1     -33.253  55.992 -22.084  1.00  0.00    -0.643 OA
ENDBRANCH   8  38
BRANCH   9  41
HETATM   41  O7  UNL     1     -31.944  56.084 -24.658  1.00  0.00    -0.306 OA
BRANCH  41  42
HETATM   42  C13 UNL     1     -30.642  55.653 -24.573  1.00  0.00     0.224 C 
HETATM   43  O9  UNL     1     -30.063  55.273 -25.819  1.00  0.00    -0.315 OA
HETATM   44  C15 UNL     1     -30.220  53.917 -25.613  1.00  0.00     0.356 C 
HETATM   45  C16 UNL     1     -30.385  54.245 -24.131  1.00  0.00     0.253 C 
BRANCH  42  46
HETATM   46  C14 UNL     1     -29.611  56.565 -23.911  1.00  0.00     0.236 C 
BRANCH  46  47
HETATM   47  O8  UNL     1     -29.658  56.434 -22.524  1.00  0.00    -0.395 OA
ATOM     48  H8  UNL     1     -30.003  55.583 -22.280  1.00  0.00     0.209 HD
ENDBRANCH  46  47
ENDBRANCH  42  46
BRANCH  44  49
HETATM   49  N5  UNL     1     -29.041  53.123 -25.908  1.00  0.00    -0.050 N 
ATOM     50  H53 UNL     1     -29.281  52.133 -25.953  1.00  0.00     0.277 HD
ATOM     51  H52 UNL     1     -28.743  53.274 -26.872  1.00  0.00     0.277 HD
ATOM     52  H51 UNL     1     -28.261  53.271 -25.268  1.00  0.00     0.277 HD
ENDBRANCH  44  49
BRANCH  45  53
HETATM   53  O10 UNL     1     -31.384  53.555 -23.458  1.00  0.00    -0.306 OA
BRANCH  53  54
HETATM   54  C17 UNL     1     -31.123  52.830 -22.310  1.00  0.00     0.255 C 
HETATM   55  C18 UNL     1     -29.992  51.875 -22.300  1.00  0.00     0.126 C 
HETATM   56  O11 UNL     1     -31.823  52.967 -21.278  1.00  0.00    -0.266 OA
ENDBRANCH  53  54
ENDBRANCH  45  53
ENDBRANCH  41  42
ENDBRANCH   9  41
TORSDOF 18
ENDMDL
