MODEL 1
REMARK VINA RESULT: -7.087589298      0.000      0.000
REMARK  10 active torsions:
REMARK  status: ('A' for Active; 'I' for Inactive)
REMARK    1  A    between atoms: C4_7  and  O4_8 
REMARK    2  A    between atoms: C5_11  and  C6_12 
REMARK    3  A    between atoms: C6_12  and  O6_13 
REMARK    4  A    between atoms: C6_12  and  C7_15 
REMARK    5  A    between atoms: C7_15  and  O7_16 
REMARK    6  A    between atoms: C7_15  and  C8_18 
REMARK    7  A    between atoms: C8_18  and  O8_19 
REMARK    8  A    between atoms: C8_18  and  C9_21 
REMARK    9  A    between atoms: C9_21  and  O9_22 
REMARK   10  A    between atoms: C9_21  and  O10_24 
ROOT
HETATM    1  C6  UNL     1      13.738  -3.472  -2.167  1.00  0.00     0.189 C 
ENDROOT
BRANCH   1   2
HETATM    2  C5  UNL     1      14.614  -4.071  -3.195  1.00  0.00     0.232 C 
HETATM    3  O5  UNL     1      15.922  -4.202  -2.924  1.00  0.00    -0.303 OA
HETATM    4  C3  UNL     1      16.663  -3.085  -2.978  1.00  0.00     0.354 C 
HETATM    5  O2  UNL     1      18.022  -3.479  -2.961  1.00  0.00    -0.316 OA
HETATM    6  O3  UNL     1      16.498  -2.193  -1.955  1.00  0.00    -0.285 OA
HETATM    7  S2  UNL     1      16.393  -2.296  -4.624  1.00  0.00     0.005 SA
HETATM    8  C2  UNL     1      18.807  -2.503  -3.572  1.00  0.00     0.258 C 
HETATM    9  C1  UNL     1      18.394  -1.196  -3.007  1.00  0.00     0.204 C 
HETATM   10  O1  UNL     1      19.041  -0.210  -3.306  1.00  0.00    -0.290 OA
HETATM   11  C4  UNL     1      17.240  -1.047  -2.107  1.00  0.00     0.337 C 
HETATM   12  S1  UNL     1      14.441  -3.227  -4.824  1.00  0.00    -0.055 SA
BRANCH  11  13
HETATM   13  O4  UNL     1      17.715  -0.661  -0.855  1.00  0.00    -0.364 OA
ATOM     14  H4  UNL     1      17.574   0.273  -0.761  1.00  0.00     0.213 HD
ENDBRANCH  11  13
ENDBRANCH   1   2
BRANCH   1  15
HETATM   15  O6  UNL     1      13.734  -4.282  -1.048  1.00  0.00    -0.389 OA
ATOM     16  H6  UNL     1      12.840  -4.538  -0.854  1.00  0.00     0.210 HD
ENDBRANCH   1  15
BRANCH   1  17
HETATM   17  C7  UNL     1      12.354  -3.231  -2.730  1.00  0.00     0.183 C 
BRANCH  17  18
HETATM   18  O7  UNL     1      11.937  -2.001  -2.196  1.00  0.00    -0.390 OA
ATOM     19  H7  UNL     1      11.260  -1.684  -2.782  1.00  0.00     0.210 HD
ENDBRANCH  17  18
BRANCH  17  20
HETATM   20  C8  UNL     1      11.382  -4.329  -2.367  1.00  0.00     0.204 C 
BRANCH  20  21
HETATM   21  O8  UNL     1      10.958  -4.226  -1.048  1.00  0.00    -0.388 OA
ATOM     22  H8  UNL     1      10.035  -4.007  -0.991  1.00  0.00     0.210 HD
ENDBRANCH  20  21
BRANCH  20  23
HETATM   23  C9  UNL     1      10.194  -4.269  -3.305  1.00  0.00     0.285 C 
BRANCH  23  24
HETATM   24  O9  UNL     1      10.600  -4.302  -4.637  1.00  0.00    -0.369 OA
ATOM     25  H9  UNL     1      10.347  -5.117  -5.054  1.00  0.00     0.212 HD
ENDBRANCH  23  24
BRANCH  23  26
HETATM   26  O10 UNL     1       9.387  -3.168  -3.080  1.00  0.00    -0.369 OA
ATOM     27  H10 UNL     1       8.584  -3.191  -3.586  1.00  0.00     0.212 HD
ENDBRANCH  23  26
ENDBRANCH  20  23
ENDBRANCH  17  20
ENDBRANCH   1  17
TORSDOF 10
ENDMDL
MODEL 2
REMARK VINA RESULT: -7.073501569      2.394      3.860
REMARK  10 active torsions:
REMARK  status: ('A' for Active; 'I' for Inactive)
REMARK    1  A    between atoms: C4_7  and  O4_8 
REMARK    2  A    between atoms: C5_11  and  C6_12 
REMARK    3  A    between atoms: C6_12  and  O6_13 
REMARK    4  A    between atoms: C6_12  and  C7_15 
REMARK    5  A    between atoms: C7_15  and  O7_16 
REMARK    6  A    between atoms: C7_15  and  C8_18 
REMARK    7  A    between atoms: C8_18  and  O8_19 
REMARK    8  A    between atoms: C8_18  and  C9_21 
REMARK    9  A    between atoms: C9_21  and  O9_22 
REMARK   10  A    between atoms: C9_21  and  O10_24 
ROOT
HETATM    1  C6  UNL     1      11.322  -3.151  -4.299  1.00  0.00     0.189 C 
ENDROOT
BRANCH   1   2
HETATM    2  C5  UNL     1      11.560  -2.891  -2.864  1.00  0.00     0.232 C 
HETATM    3  O5  UNL     1      12.591  -2.105  -2.517  1.00  0.00    -0.303 OA
HETATM    4  C3  UNL     1      13.816  -2.647  -2.598  1.00  0.00     0.354 C 
HETATM    5  O2  UNL     1      14.706  -1.781  -1.921  1.00  0.00    -0.316 OA
HETATM    6  O3  UNL     1      14.322  -2.828  -3.855  1.00  0.00    -0.285 OA
HETATM    7  S2  UNL     1      13.812  -4.217  -1.629  1.00  0.00     0.005 SA
HETATM    8  C2  UNL     1      15.811  -2.497  -1.465  1.00  0.00     0.258 C 
HETATM    9  C1  UNL     1      16.284  -3.332  -2.595  1.00  0.00     0.204 C 
HETATM   10  O1  UNL     1      17.325  -3.947  -2.458  1.00  0.00    -0.290 OA
HETATM   11  C4  UNL     1      15.550  -3.444  -3.864  1.00  0.00     0.337 C 
HETATM   12  S1  UNL     1      11.669  -4.452  -1.891  1.00  0.00    -0.055 SA
BRANCH  11  13
HETATM   13  O4  UNL     1      16.325  -2.863  -4.866  1.00  0.00    -0.364 OA
ATOM     14  H4  UNL     1      17.117  -3.379  -4.963  1.00  0.00     0.213 HD
ENDBRANCH  11  13
ENDBRANCH   1   2
BRANCH   1  15
HETATM   15  O6  UNL     1      11.706  -2.043  -5.028  1.00  0.00    -0.389 OA
ATOM     16  H6  UNL     1      12.480  -2.258  -5.535  1.00  0.00     0.210 HD
ENDBRANCH   1  15
BRANCH   1  17
HETATM   17  C7  UNL     1       9.879  -3.543  -4.531  1.00  0.00     0.183 C 
BRANCH  17  18
HETATM   18  O7  UNL     1       9.813  -3.972  -5.866  1.00  0.00    -0.390 OA
ATOM     19  H7  UNL     1       9.554  -3.208  -6.368  1.00  0.00     0.210 HD
ENDBRANCH  17  18
BRANCH  17  20
HETATM   20  C8  UNL     1       8.922  -2.398  -4.289  1.00  0.00     0.204 C 
BRANCH  20  21
HETATM   21  O8  UNL     1       8.988  -1.450  -5.302  1.00  0.00    -0.388 OA
ATOM     22  H8  UNL     1       9.458  -0.672  -5.026  1.00  0.00     0.210 HD
ENDBRANCH  20  21
BRANCH  20  23
HETATM   23  C9  UNL     1       7.514  -2.945  -4.175  1.00  0.00     0.285 C 
BRANCH  23  24
HETATM   24  O9  UNL     1       7.485  -4.109  -3.410  1.00  0.00    -0.369 OA
ATOM     25  H9  UNL     1       8.159  -4.719  -3.685  1.00  0.00     0.212 HD
ENDBRANCH  23  24
BRANCH  23  26
HETATM   26  O10 UNL     1       6.922  -3.169  -5.405  1.00  0.00    -0.369 OA
ATOM     27  H10 UNL     1       6.742  -4.087  -5.566  1.00  0.00     0.212 HD
ENDBRANCH  23  26
ENDBRANCH  20  23
ENDBRANCH  17  20
ENDBRANCH   1  17
TORSDOF 10
ENDMDL
MODEL 3
REMARK VINA RESULT: -6.938976656      2.621      5.859
REMARK  10 active torsions:
REMARK  status: ('A' for Active; 'I' for Inactive)
REMARK    1  A    between atoms: C4_7  and  O4_8 
REMARK    2  A    between atoms: C5_11  and  C6_12 
REMARK    3  A    between atoms: C6_12  and  O6_13 
REMARK    4  A    between atoms: C6_12  and  C7_15 
REMARK    5  A    between atoms: C7_15  and  O7_16 
REMARK    6  A    between atoms: C7_15  and  C8_18 
REMARK    7  A    between atoms: C8_18  and  O8_19 
REMARK    8  A    between atoms: C8_18  and  C9_21 
REMARK    9  A    between atoms: C9_21  and  O9_22 
REMARK   10  A    between atoms: C9_21  and  O10_24 
ROOT
HETATM    1  C6  UNL     1      14.719  -3.051  -3.831  1.00  0.00     0.189 C 
ENDROOT
BRANCH   1   2
HETATM    2  C5  UNL     1      13.998  -1.937  -4.482  1.00  0.00     0.232 C 
HETATM    3  O5  UNL     1      12.851  -1.508  -3.932  1.00  0.00    -0.303 OA
HETATM    4  C3  UNL     1      11.770  -2.283  -4.112  1.00  0.00     0.354 C 
HETATM    5  O2  UNL     1      10.640  -1.524  -3.727  1.00  0.00    -0.316 OA
HETATM    6  O3  UNL     1      11.727  -3.447  -3.396  1.00  0.00    -0.285 OA
HETATM    7  S2  UNL     1      11.576  -2.585  -5.921  1.00  0.00     0.005 SA
HETATM    8  C2  UNL     1       9.507  -1.989  -4.391  1.00  0.00     0.258 C 
HETATM    9  C1  UNL     1       9.503  -3.467  -4.262  1.00  0.00     0.204 C 
HETATM   10  O1  UNL     1       8.528  -4.076  -4.661  1.00  0.00    -0.290 OA
HETATM   11  C4  UNL     1      10.624  -4.217  -3.676  1.00  0.00     0.337 C 
HETATM   12  S1  UNL     1      13.696  -2.266  -6.270  1.00  0.00    -0.055 SA
BRANCH  11  13
HETATM   13  O4  UNL     1      10.182  -4.799  -2.489  1.00  0.00    -0.364 OA
ATOM     14  H4  UNL     1      10.280  -5.741  -2.568  1.00  0.00     0.213 HD
ENDBRANCH  11  13
ENDBRANCH   1   2
BRANCH   1  15
HETATM   15  O6  UNL     1      14.573  -4.192  -4.596  1.00  0.00    -0.389 OA
ATOM     16  H6  UNL     1      15.004  -4.916  -4.158  1.00  0.00     0.210 HD
ENDBRANCH   1  15
BRANCH   1  17
HETATM   17  C7  UNL     1      14.241  -3.228  -2.406  1.00  0.00     0.183 C 
BRANCH  17  18
HETATM   18  O7  UNL     1      14.591  -2.042  -1.740  1.00  0.00    -0.390 OA
ATOM     19  H7  UNL     1      13.981  -1.966  -1.015  1.00  0.00     0.210 HD
ENDBRANCH  17  18
BRANCH  17  20
HETATM   20  C8  UNL     1      14.865  -4.426  -1.730  1.00  0.00     0.204 C 
BRANCH  20  21
HETATM   21  O8  UNL     1      15.865  -4.052  -0.841  1.00  0.00    -0.388 OA
ATOM     22  H8  UNL     1      15.743  -3.164  -0.527  1.00  0.00     0.210 HD
ENDBRANCH  20  21
BRANCH  20  23
HETATM   23  C9  UNL     1      13.786  -5.204  -1.006  1.00  0.00     0.285 C 
BRANCH  23  24
HETATM   24  O9  UNL     1      13.588  -6.454  -1.589  1.00  0.00    -0.369 OA
ATOM     25  H9  UNL     1      13.481  -7.128  -0.929  1.00  0.00     0.212 HD
ENDBRANCH  23  24
BRANCH  23  26
HETATM   26  O10 UNL     1      12.587  -4.519  -0.931  1.00  0.00    -0.369 OA
ATOM     27  H10 UNL     1      12.002  -4.717  -1.653  1.00  0.00     0.212 HD
ENDBRANCH  23  26
ENDBRANCH  20  23
ENDBRANCH  17  20
ENDBRANCH   1  17
TORSDOF 10
ENDMDL
MODEL 4
REMARK VINA RESULT: -6.911342882      0.835      1.130
REMARK  10 active torsions:
REMARK  status: ('A' for Active; 'I' for Inactive)
REMARK    1  A    between atoms: C4_7  and  O4_8 
REMARK    2  A    between atoms: C5_11  and  C6_12 
REMARK    3  A    between atoms: C6_12  and  O6_13 
REMARK    4  A    between atoms: C6_12  and  C7_15 
REMARK    5  A    between atoms: C7_15  and  O7_16 
REMARK    6  A    between atoms: C7_15  and  C8_18 
REMARK    7  A    between atoms: C8_18  and  O8_19 
REMARK    8  A    between atoms: C8_18  and  C9_21 
REMARK    9  A    between atoms: C9_21  and  O9_22 
REMARK   10  A    between atoms: C9_21  and  O10_24 
ROOT
HETATM    1  C6  UNL     1      13.448  -4.113  -2.002  1.00  0.00     0.189 C 
ENDROOT
BRANCH   1   2
HETATM    2  C5  UNL     1      14.489  -4.339  -3.026  1.00  0.00     0.232 C 
HETATM    3  O5  UNL     1      15.777  -4.260  -2.658  1.00  0.00    -0.303 OA
HETATM    4  C3  UNL     1      16.273  -3.029  -2.459  1.00  0.00     0.354 C 
HETATM    5  O2  UNL     1      17.680  -3.149  -2.379  1.00  0.00    -0.316 OA
HETATM    6  O3  UNL     1      15.866  -2.382  -1.325  1.00  0.00    -0.285 OA
HETATM    7  S2  UNL     1      15.943  -2.027  -3.974  1.00  0.00     0.005 SA
HETATM    8  C2  UNL     1      18.281  -1.947  -2.746  1.00  0.00     0.258 C 
HETATM    9  C1  UNL     1      17.573  -0.866  -2.019  1.00  0.00     0.204 C 
HETATM   10  O1  UNL     1      18.020   0.263  -2.091  1.00  0.00    -0.290 OA
HETATM   11  C4  UNL     1      16.363  -1.106  -1.219  1.00  0.00     0.337 C 
HETATM   12  S1  UNL     1      14.242  -3.268  -4.505  1.00  0.00    -0.055 SA
BRANCH  11  13
HETATM   13  O4  UNL     1      16.672  -0.865   0.119  1.00  0.00    -0.364 OA
ATOM     14  H4  UNL     1      17.404  -1.423   0.357  1.00  0.00     0.213 HD
ENDBRANCH  11  13
ENDBRANCH   1   2
BRANCH   1  15
HETATM   15  O6  UNL     1      13.194  -5.302  -1.346  1.00  0.00    -0.389 OA
ATOM     16  H6  UNL     1      13.880  -5.457  -0.708  1.00  0.00     0.210 HD
ENDBRANCH   1  15
BRANCH   1  17
HETATM   17  C7  UNL     1      12.212  -3.507  -2.631  1.00  0.00     0.183 C 
BRANCH  17  18
HETATM   18  O7  UNL     1      12.087  -2.229  -2.064  1.00  0.00    -0.390 OA
ATOM     19  H7  UNL     1      11.770  -1.669  -2.763  1.00  0.00     0.210 HD
ENDBRANCH  17  18
BRANCH  17  20
HETATM   20  C8  UNL     1      10.970  -4.329  -2.376  1.00  0.00     0.204 C 
BRANCH  20  21
HETATM   21  O8  UNL     1      10.593  -4.291  -1.040  1.00  0.00    -0.388 OA
ATOM     22  H8  UNL     1      11.338  -4.396  -0.460  1.00  0.00     0.210 HD
ENDBRANCH  20  21
BRANCH  20  23
HETATM   23  C9  UNL     1       9.847  -3.814  -3.252  1.00  0.00     0.285 C 
BRANCH  23  24
HETATM   24  O9  UNL     1       8.607  -3.998  -2.644  1.00  0.00    -0.369 OA
ATOM     25  H9  UNL     1       8.246  -4.852  -2.849  1.00  0.00     0.212 HD
ENDBRANCH  23  24
BRANCH  23  26
HETATM   26  O10 UNL     1       9.847  -4.380  -4.514  1.00  0.00    -0.369 OA
ATOM     27  H10 UNL     1       8.993  -4.357  -4.929  1.00  0.00     0.212 HD
ENDBRANCH  23  26
ENDBRANCH  20  23
ENDBRANCH  17  20
ENDBRANCH   1  17
TORSDOF 10
ENDMDL
MODEL 5
REMARK VINA RESULT: -6.899045690      3.468      7.558
REMARK  10 active torsions:
REMARK  status: ('A' for Active; 'I' for Inactive)
REMARK    1  A    between atoms: C4_7  and  O4_8 
REMARK    2  A    between atoms: C5_11  and  C6_12 
REMARK    3  A    between atoms: C6_12  and  O6_13 
REMARK    4  A    between atoms: C6_12  and  C7_15 
REMARK    5  A    between atoms: C7_15  and  O7_16 
REMARK    6  A    between atoms: C7_15  and  C8_18 
REMARK    7  A    between atoms: C8_18  and  O8_19 
REMARK    8  A    between atoms: C8_18  and  C9_21 
REMARK    9  A    between atoms: C9_21  and  O9_22 
REMARK   10  A    between atoms: C9_21  and  O10_24 
ROOT
HETATM    1  C6  UNL     1      11.634  -3.067  -4.281  1.00  0.00     0.189 C 
ENDROOT
BRANCH   1   2
HETATM    2  C5  UNL     1      10.510  -4.027  -4.270  1.00  0.00     0.232 C 
HETATM    3  O5  UNL     1       9.616  -3.977  -5.269  1.00  0.00    -0.303 OA
HETATM    4  C3  UNL     1       8.727  -2.972  -5.233  1.00  0.00     0.354 C 
HETATM    5  O2  UNL     1       7.716  -3.269  -6.177  1.00  0.00    -0.316 OA
HETATM    6  O3  UNL     1       9.200  -1.727  -5.539  1.00  0.00    -0.285 OA
HETATM    7  S2  UNL     1       7.896  -3.003  -3.586  1.00  0.00     0.005 SA
HETATM    8  C2  UNL     1       6.528  -2.636  -5.816  1.00  0.00     0.258 C 
HETATM    9  C1  UNL     1       6.867  -1.229  -5.489  1.00  0.00     0.204 C 
HETATM   10  O1  UNL     1       5.955  -0.454  -5.271  1.00  0.00    -0.290 OA
HETATM   11  C4  UNL     1       8.252  -0.740  -5.420  1.00  0.00     0.337 C 
HETATM   12  S1  UNL     1       9.596  -3.996  -2.671  1.00  0.00    -0.055 SA
BRANCH  11  13
HETATM   13  O4  UNL     1       8.440   0.176  -6.454  1.00  0.00    -0.364 OA
ATOM     14  H4  UNL     1       8.202   1.038  -6.131  1.00  0.00     0.213 HD
ENDBRANCH  11  13
ENDBRANCH   1   2
BRANCH   1  15
HETATM   15  O6  UNL     1      12.636  -3.555  -5.098  1.00  0.00    -0.389 OA
ATOM     16  H6  UNL     1      13.384  -2.971  -5.052  1.00  0.00     0.210 HD
ENDBRANCH   1  15
BRANCH   1  17
HETATM   17  C7  UNL     1      12.102  -2.788  -2.870  1.00  0.00     0.183 C 
BRANCH  17  18
HETATM   18  O7  UNL     1      11.842  -1.426  -2.647  1.00  0.00    -0.390 OA
ATOM     19  H7  UNL     1      11.880  -1.309  -1.705  1.00  0.00     0.210 HD
ENDBRANCH  17  18
BRANCH  17  20
HETATM   20  C8  UNL     1      13.570  -3.090  -2.676  1.00  0.00     0.204 C 
BRANCH  20  21
HETATM   21  O8  UNL     1      14.267  -1.982  -2.210  1.00  0.00    -0.388 OA
ATOM     22  H8  UNL     1      15.195  -2.042  -2.405  1.00  0.00     0.210 HD
ENDBRANCH  20  21
BRANCH  20  23
HETATM   23  C9  UNL     1      13.714  -4.245  -1.707  1.00  0.00     0.285 C 
BRANCH  23  24
HETATM   24  O9  UNL     1      14.338  -5.335  -2.309  1.00  0.00    -0.369 OA
ATOM     25  H9  UNL     1      14.695  -5.929  -1.660  1.00  0.00     0.212 HD
ENDBRANCH  23  24
BRANCH  23  26
HETATM   26  O10 UNL     1      12.509  -4.634  -1.151  1.00  0.00    -0.369 OA
ATOM     27  H10 UNL     1      12.302  -5.545  -1.319  1.00  0.00     0.212 HD
ENDBRANCH  23  26
ENDBRANCH  20  23
ENDBRANCH  17  20
ENDBRANCH   1  17
TORSDOF 10
ENDMDL
