MODEL 1
REMARK VINA RESULT: -8.013066356      0.000      0.000
REMARK  12 active torsions:
REMARK  status: ('A' for Active; 'I' for Inactive)
REMARK    1  A    between atoms: C1_2  and  C2_3 
REMARK    2  A    between atoms: C2_3  and  O3_5 
REMARK    3  A    between atoms: O3_5  and  C3_6 
REMARK    4  A    between atoms: C3_6  and  C4_7 
REMARK    5  A    between atoms: C6_9  and  O4_10 
REMARK    6  A    between atoms: O4_10  and  C7_11 
REMARK    7  A    between atoms: C8_12  and  O5_13 
REMARK    8  A    between atoms: C9_15  and  O6_16 
REMARK    9  A    between atoms: C10_18  and  O7_19 
REMARK   10  A    between atoms: C14_24  and  O8_25 
REMARK   11  A    between atoms: C15_27  and  O9_28 
REMARK   12  A    between atoms: C16_30  and  O10_31 
ROOT
HETATM    1  C4  UNL     1      11.607  -2.884  -6.348  1.00  0.00     0.044 C 
HETATM    2  C5  UNL     1      12.628  -2.306  -5.361  1.00  0.00     0.044 C 
HETATM    3  C6  UNL     1      12.863  -3.250  -4.205  1.00  0.00     0.154 C 
HETATM    4  C14 UNL     1      11.520  -3.455  -3.520  1.00  0.00     0.178 C 
HETATM    5  C15 UNL     1      10.464  -3.998  -4.419  1.00  0.00     0.178 C 
HETATM    6  C16 UNL     1      10.307  -3.180  -5.680  1.00  0.00     0.155 C 
ENDROOT
BRANCH   3   7
HETATM    7  O4  UNL     1      13.650  -2.623  -3.266  1.00  0.00    -0.375 OA
BRANCH   7   8
HETATM    8  C7  UNL     1      14.979  -2.738  -3.388  1.00  0.00     0.158 C 
HETATM    9  C8  UNL     1      15.640  -2.464  -2.053  1.00  0.00     0.178 C 
HETATM   10  C9  UNL     1      17.028  -1.924  -2.403  1.00  0.00     0.178 C 
HETATM   11  C10 UNL     1      17.643  -2.812  -3.423  1.00  0.00     0.154 C 
HETATM   12  C11 UNL     1      16.968  -4.116  -3.643  1.00  0.00     0.024 A 
HETATM   13  C12 UNL     1      16.314  -4.256  -5.036  1.00  0.00     0.015 A 
HETATM   14  C13 UNL     1      15.501  -4.076  -3.836  1.00  0.00     0.024 A 
BRANCH   9  15
HETATM   15  O5  UNL     1      14.942  -1.610  -1.239  1.00  0.00    -0.390 OA
ATOM     16  H5  UNL     1      14.900  -0.715  -1.552  1.00  0.00     0.210 HD
ENDBRANCH   9  15
BRANCH  10  17
HETATM   17  O6  UNL     1      16.824  -0.663  -2.956  1.00  0.00    -0.390 OA
ATOM     18  H6  UNL     1      16.326  -0.171  -2.314  1.00  0.00     0.210 HD
ENDBRANCH  10  17
BRANCH  11  19
HETATM   19  O7  UNL     1      17.839  -2.134  -4.647  1.00  0.00    -0.393 OA
ATOM     20  H7  UNL     1      18.410  -2.624  -5.228  1.00  0.00     0.210 HD
ENDBRANCH  11  19
ENDBRANCH   7   8
ENDBRANCH   3   7
BRANCH   4  21
HETATM   21  O8  UNL     1      11.626  -4.240  -2.390  1.00  0.00    -0.390 OA
ATOM     22  H8  UNL     1      10.791  -4.351  -1.950  1.00  0.00     0.210 HD
ENDBRANCH   4  21
BRANCH   1  23
HETATM   23  C3  UNL     1      11.349  -1.780  -7.374  1.00  0.00     0.186 C 
BRANCH  23  24
HETATM   24  O3  UNL     1      12.612  -1.148  -7.619  1.00  0.00    -0.315 OA
BRANCH  24  25
HETATM   25  C2  UNL     1      12.956  -0.761  -8.901  1.00  0.00     0.321 C 
HETATM   26  O2  UNL     1      12.153  -0.031  -9.541  1.00  0.00    -0.257 OA
BRANCH  25  27
HETATM   27  C1  UNL     1      14.203  -1.170  -9.516  1.00  0.00     0.340 C 
HETATM   28  O1  UNL     1      14.664  -2.296  -9.250  1.00  0.00    -0.296 OA
ENDBRANCH  25  27
ENDBRANCH  24  25
ENDBRANCH  23  24
ENDBRANCH   1  23
BRANCH   5  29
HETATM   29  O9  UNL     1       9.248  -3.921  -3.739  1.00  0.00    -0.390 OA
ATOM     30  H9  UNL     1       8.553  -3.935  -4.387  1.00  0.00     0.210 HD
ENDBRANCH   5  29
BRANCH   6  31
HETATM   31  O10 UNL     1       9.634  -1.979  -5.400  1.00  0.00    -0.392 OA
ATOM     32  H10 UNL     1       9.172  -1.683  -6.175  1.00  0.00     0.210 HD
ENDBRANCH   6  31
TORSDOF 12
ENDMDL
MODEL 2
REMARK VINA RESULT: -7.976305414      2.068      2.637
REMARK  12 active torsions:
REMARK  status: ('A' for Active; 'I' for Inactive)
REMARK    1  A    between atoms: C1_2  and  C2_3 
REMARK    2  A    between atoms: C2_3  and  O3_5 
REMARK    3  A    between atoms: O3_5  and  C3_6 
REMARK    4  A    between atoms: C3_6  and  C4_7 
REMARK    5  A    between atoms: C6_9  and  O4_10 
REMARK    6  A    between atoms: O4_10  and  C7_11 
REMARK    7  A    between atoms: C8_12  and  O5_13 
REMARK    8  A    between atoms: C9_15  and  O6_16 
REMARK    9  A    between atoms: C10_18  and  O7_19 
REMARK   10  A    between atoms: C14_24  and  O8_25 
REMARK   11  A    between atoms: C15_27  and  O9_28 
REMARK   12  A    between atoms: C16_30  and  O10_31 
ROOT
HETATM    1  C4  UNL     1      11.368  -3.177  -5.820  1.00  0.00     0.044 C 
HETATM    2  C5  UNL     1      12.507  -2.295  -5.296  1.00  0.00     0.044 C 
HETATM    3  C6  UNL     1      13.298  -3.007  -4.222  1.00  0.00     0.154 C 
HETATM    4  C14 UNL     1      12.323  -3.337  -3.101  1.00  0.00     0.178 C 
HETATM    5  C15 UNL     1      11.172  -4.178  -3.533  1.00  0.00     0.178 C 
HETATM    6  C16 UNL     1      10.447  -3.591  -4.722  1.00  0.00     0.155 C 
ENDROOT
BRANCH   3   7
HETATM    7  O4  UNL     1      14.195  -2.124  -3.666  1.00  0.00    -0.375 OA
BRANCH   7   8
HETATM    8  C7  UNL     1      15.499  -2.416  -3.763  1.00  0.00     0.158 C 
HETATM    9  C8  UNL     1      16.186  -2.129  -2.444  1.00  0.00     0.178 C 
HETATM   10  C9  UNL     1      17.633  -1.797  -2.817  1.00  0.00     0.178 C 
HETATM   11  C10 UNL     1      18.131  -2.830  -3.761  1.00  0.00     0.154 C 
HETATM   12  C11 UNL     1      17.296  -4.050  -3.891  1.00  0.00     0.024 A 
HETATM   13  C12 UNL     1      16.633  -4.211  -5.278  1.00  0.00     0.015 A 
HETATM   14  C13 UNL     1      15.847  -3.839  -4.104  1.00  0.00     0.024 A 
BRANCH   9  15
HETATM   15  O5  UNL     1      15.601  -1.134  -1.705  1.00  0.00    -0.390 OA
ATOM     16  H5  UNL     1      15.072  -1.443  -0.979  1.00  0.00     0.210 HD
ENDBRANCH   9  15
BRANCH  10  17
HETATM   17  O6  UNL     1      17.593  -0.565  -3.464  1.00  0.00    -0.390 OA
ATOM     18  H6  UNL     1      16.766  -0.166  -3.220  1.00  0.00     0.210 HD
ENDBRANCH  10  17
BRANCH  11  19
HETATM   19  O7  UNL     1      18.416  -2.277  -5.029  1.00  0.00    -0.393 OA
ATOM     20  H7  UNL     1      17.682  -1.773  -5.361  1.00  0.00     0.210 HD
ENDBRANCH  11  19
ENDBRANCH   7   8
ENDBRANCH   3   7
BRANCH   4  21
HETATM   21  O8  UNL     1      12.952  -3.919  -2.020  1.00  0.00    -0.390 OA
ATOM     22  H8  UNL     1      12.592  -3.622  -1.192  1.00  0.00     0.210 HD
ENDBRANCH   4  21
BRANCH   1  23
HETATM   23  C3  UNL     1      10.565  -2.295  -6.777  1.00  0.00     0.186 C 
BRANCH  23  24
HETATM   24  O3  UNL     1       9.267  -2.892  -6.889  1.00  0.00    -0.315 OA
BRANCH  24  25
HETATM   25  C2  UNL     1       8.665  -3.013  -8.128  1.00  0.00     0.321 C 
HETATM   26  O2  UNL     1       8.943  -2.163  -9.014  1.00  0.00    -0.257 OA
BRANCH  25  27
HETATM   27  C1  UNL     1       7.736  -4.085  -8.425  1.00  0.00     0.340 C 
HETATM   28  O1  UNL     1       7.721  -5.091  -7.691  1.00  0.00    -0.296 OA
ENDBRANCH  25  27
ENDBRANCH  24  25
ENDBRANCH  23  24
ENDBRANCH   1  23
BRANCH   5  29
HETATM   29  O9  UNL     1      10.255  -4.213  -2.482  1.00  0.00    -0.390 OA
ATOM     30  H9  UNL     1       9.616  -3.526  -2.634  1.00  0.00     0.210 HD
ENDBRANCH   5  29
BRANCH   6  31
HETATM   31  O10 UNL     1       9.664  -2.496  -4.322  1.00  0.00    -0.392 OA
ATOM     32  H10 UNL     1       9.902  -1.729  -4.830  1.00  0.00     0.210 HD
ENDBRANCH   6  31
TORSDOF 12
ENDMDL
MODEL 3
REMARK VINA RESULT: -7.805577675      1.730      2.309
REMARK  12 active torsions:
REMARK  status: ('A' for Active; 'I' for Inactive)
REMARK    1  A    between atoms: C1_2  and  C2_3 
REMARK    2  A    between atoms: C2_3  and  O3_5 
REMARK    3  A    between atoms: O3_5  and  C3_6 
REMARK    4  A    between atoms: C3_6  and  C4_7 
REMARK    5  A    between atoms: C6_9  and  O4_10 
REMARK    6  A    between atoms: O4_10  and  C7_11 
REMARK    7  A    between atoms: C8_12  and  O5_13 
REMARK    8  A    between atoms: C9_15  and  O6_16 
REMARK    9  A    between atoms: C10_18  and  O7_19 
REMARK   10  A    between atoms: C14_24  and  O8_25 
REMARK   11  A    between atoms: C15_27  and  O9_28 
REMARK   12  A    between atoms: C16_30  and  O10_31 
ROOT
HETATM    1  C4  UNL     1      12.230  -3.156  -5.885  1.00  0.00     0.044 C 
HETATM    2  C5  UNL     1      13.603  -3.655  -5.422  1.00  0.00     0.044 C 
HETATM    3  C6  UNL     1      13.466  -4.707  -4.345  1.00  0.00     0.154 C 
HETATM    4  C14 UNL     1      12.719  -4.060  -3.188  1.00  0.00     0.178 C 
HETATM    5  C15 UNL     1      11.378  -3.529  -3.561  1.00  0.00     0.178 C 
HETATM    6  C16 UNL     1      11.439  -2.599  -4.750  1.00  0.00     0.155 C 
ENDROOT
BRANCH   3   7
HETATM    7  O4  UNL     1      14.714  -5.001  -3.844  1.00  0.00    -0.375 OA
BRANCH   7   8
HETATM    8  C7  UNL     1      15.656  -4.052  -3.915  1.00  0.00     0.158 C 
HETATM    9  C8  UNL     1      16.275  -3.843  -2.549  1.00  0.00     0.178 C 
HETATM   10  C9  UNL     1      16.746  -2.387  -2.547  1.00  0.00     0.178 C 
HETATM   11  C10 UNL     1      17.493  -2.126  -3.803  1.00  0.00     0.154 C 
HETATM   12  C11 UNL     1      17.875  -3.322  -4.595  1.00  0.00     0.024 A 
HETATM   13  C12 UNL     1      17.153  -3.428  -5.958  1.00  0.00     0.015 A 
HETATM   14  C13 UNL     1      16.806  -4.314  -4.849  1.00  0.00     0.024 A 
BRANCH   9  15
HETATM   15  O5  UNL     1      15.438  -4.118  -1.499  1.00  0.00    -0.390 OA
ATOM     16  H5  UNL     1      15.452  -3.470  -0.804  1.00  0.00     0.210 HD
ENDBRANCH   9  15
BRANCH  10  17
HETATM   17  O6  UNL     1      15.592  -1.608  -2.529  1.00  0.00    -0.390 OA
ATOM     18  H6  UNL     1      15.884  -0.704  -2.552  1.00  0.00     0.210 HD
ENDBRANCH  10  17
BRANCH  11  19
HETATM   19  O7  UNL     1      16.830  -1.177  -4.612  1.00  0.00    -0.393 OA
ATOM     20  H7  UNL     1      17.105  -1.241  -5.519  1.00  0.00     0.210 HD
ENDBRANCH  11  19
ENDBRANCH   7   8
ENDBRANCH   3   7
BRANCH   4  21
HETATM   21  O8  UNL     1      12.606  -4.906  -2.103  1.00  0.00    -0.390 OA
ATOM     22  H8  UNL     1      12.088  -5.677  -2.302  1.00  0.00     0.210 HD
ENDBRANCH   4  21
BRANCH   1  23
HETATM   23  C3  UNL     1      12.510  -2.005  -6.851  1.00  0.00     0.186 C 
BRANCH  23  24
HETATM   24  O3  UNL     1      11.255  -1.349  -7.078  1.00  0.00    -0.315 OA
BRANCH  24  25
HETATM   25  C2  UNL     1      10.499  -1.667  -8.191  1.00  0.00     0.321 C 
HETATM   26  O2  UNL     1      10.928  -1.324  -9.324  1.00  0.00    -0.257 OA
BRANCH  25  27
HETATM   27  C1  UNL     1       9.241  -2.378  -8.083  1.00  0.00     0.340 C 
HETATM   28  O1  UNL     1       8.476  -2.401  -9.067  1.00  0.00    -0.296 OA
ENDBRANCH  25  27
ENDBRANCH  24  25
ENDBRANCH  23  24
ENDBRANCH   1  23
BRANCH   5  29
HETATM   29  O9  UNL     1      10.908  -2.774  -2.486  1.00  0.00    -0.390 OA
ATOM     30  H9  UNL     1      11.631  -2.649  -1.882  1.00  0.00     0.210 HD
ENDBRANCH   5  29
BRANCH   6  31
HETATM   31  O10 UNL     1      11.969  -1.356  -4.368  1.00  0.00    -0.392 OA
ATOM     32  H10 UNL     1      11.554  -1.064  -3.565  1.00  0.00     0.210 HD
ENDBRANCH   6  31
TORSDOF 12
ENDMDL
MODEL 4
REMARK VINA RESULT: -7.753085889      2.630      3.777
REMARK  12 active torsions:
REMARK  status: ('A' for Active; 'I' for Inactive)
REMARK    1  A    between atoms: C1_2  and  C2_3 
REMARK    2  A    between atoms: C2_3  and  O3_5 
REMARK    3  A    between atoms: O3_5  and  C3_6 
REMARK    4  A    between atoms: C3_6  and  C4_7 
REMARK    5  A    between atoms: C6_9  and  O4_10 
REMARK    6  A    between atoms: O4_10  and  C7_11 
REMARK    7  A    between atoms: C8_12  and  O5_13 
REMARK    8  A    between atoms: C9_15  and  O6_16 
REMARK    9  A    between atoms: C10_18  and  O7_19 
REMARK   10  A    between atoms: C14_24  and  O8_25 
REMARK   11  A    between atoms: C15_27  and  O9_28 
REMARK   12  A    between atoms: C16_30  and  O10_31 
ROOT
HETATM    1  C4  UNL     1      12.890  -3.104  -4.453  1.00  0.00     0.044 C 
HETATM    2  C5  UNL     1      13.271  -2.169  -3.300  1.00  0.00     0.044 C 
HETATM    3  C6  UNL     1      14.592  -2.573  -2.686  1.00  0.00     0.154 C 
HETATM    4  C14 UNL     1      14.429  -3.999  -2.182  1.00  0.00     0.178 C 
HETATM    5  C15 UNL     1      14.039  -4.970  -3.243  1.00  0.00     0.178 C 
HETATM    6  C16 UNL     1      12.812  -4.524  -4.005  1.00  0.00     0.155 C 
ENDROOT
BRANCH   3   7
HETATM    7  O4  UNL     1      14.811  -1.818  -1.555  1.00  0.00    -0.375 OA
BRANCH   7   8
HETATM    8  C7  UNL     1      15.996  -1.207  -1.433  1.00  0.00     0.158 C 
HETATM    9  C8  UNL     1      16.466  -1.288   0.004  1.00  0.00     0.178 C 
HETATM   10  C9  UNL     1      17.350  -0.054   0.201  1.00  0.00     0.178 C 
HETATM   11  C10 UNL     1      18.298   0.041  -0.938  1.00  0.00     0.154 C 
HETATM   12  C11 UNL     1      18.401  -1.162  -1.802  1.00  0.00     0.024 A 
HETATM   13  C12 UNL     1      17.864  -0.952  -3.236  1.00  0.00     0.015 A 
HETATM   14  C13 UNL     1      17.125  -1.754  -2.264  1.00  0.00     0.024 A 
BRANCH   9  15
HETATM   15  O5  UNL     1      15.457  -1.355   0.929  1.00  0.00    -0.390 OA
ATOM     16  H5  UNL     1      15.743  -1.568   1.809  1.00  0.00     0.210 HD
ENDBRANCH   9  15
BRANCH  10  17
HETATM   17  O6  UNL     1      16.493   1.043   0.176  1.00  0.00    -0.390 OA
ATOM     18  H6  UNL     1      16.901   1.684  -0.394  1.00  0.00     0.210 HD
ENDBRANCH  10  17
BRANCH  11  19
HETATM   19  O7  UNL     1      18.062   1.198  -1.713  1.00  0.00    -0.393 OA
ATOM     20  H7  UNL     1      18.502   1.149  -2.554  1.00  0.00     0.210 HD
ENDBRANCH  11  19
ENDBRANCH   7   8
ENDBRANCH   3   7
BRANCH   4  21
HETATM   21  O8  UNL     1      15.554  -4.450  -1.522  1.00  0.00    -0.390 OA
ATOM     22  H8  UNL     1      16.356  -4.142  -1.928  1.00  0.00     0.210 HD
ENDBRANCH   4  21
BRANCH   1  23
HETATM   23  C3  UNL     1      11.482  -2.685  -4.881  1.00  0.00     0.186 C 
BRANCH  23  24
HETATM   24  O3  UNL     1      10.982  -3.735  -5.719  1.00  0.00    -0.315 OA
BRANCH  24  25
HETATM   25  C2  UNL     1       9.859  -3.522  -6.498  1.00  0.00     0.321 C 
HETATM   26  O2  UNL     1       9.007  -4.445  -6.583  1.00  0.00    -0.257 OA
BRANCH  25  27
HETATM   27  C1  UNL     1       9.645  -2.277  -7.207  1.00  0.00     0.340 C 
HETATM   28  O1  UNL     1       9.337  -2.317  -8.414  1.00  0.00    -0.296 OA
ENDBRANCH  25  27
ENDBRANCH  24  25
ENDBRANCH  23  24
ENDBRANCH   1  23
BRANCH   5  29
HETATM   29  O9  UNL     1      13.704  -6.171  -2.615  1.00  0.00    -0.390 OA
ATOM     30  H9  UNL     1      14.511  -6.644  -2.450  1.00  0.00     0.210 HD
ENDBRANCH   5  29
BRANCH   6  31
HETATM   31  O10 UNL     1      11.660  -4.713  -3.226  1.00  0.00    -0.392 OA
ATOM     32  H10 UNL     1      10.938  -4.217  -3.595  1.00  0.00     0.210 HD
ENDBRANCH   6  31
TORSDOF 12
ENDMDL
MODEL 5
REMARK VINA RESULT: -7.586283591      1.806      5.756
REMARK  12 active torsions:
REMARK  status: ('A' for Active; 'I' for Inactive)
REMARK    1  A    between atoms: C1_2  and  C2_3 
REMARK    2  A    between atoms: C2_3  and  O3_5 
REMARK    3  A    between atoms: O3_5  and  C3_6 
REMARK    4  A    between atoms: C3_6  and  C4_7 
REMARK    5  A    between atoms: C6_9  and  O4_10 
REMARK    6  A    between atoms: O4_10  and  C7_11 
REMARK    7  A    between atoms: C8_12  and  O5_13 
REMARK    8  A    between atoms: C9_15  and  O6_16 
REMARK    9  A    between atoms: C10_18  and  O7_19 
REMARK   10  A    between atoms: C14_24  and  O8_25 
REMARK   11  A    between atoms: C15_27  and  O9_28 
REMARK   12  A    between atoms: C16_30  and  O10_31 
ROOT
HETATM    1  C4  UNL     1      16.656  -2.011  -5.254  1.00  0.00     0.044 C 
HETATM    2  C5  UNL     1      15.541  -3.063  -5.217  1.00  0.00     0.044 C 
HETATM    3  C6  UNL     1      14.456  -2.673  -4.240  1.00  0.00     0.154 C 
HETATM    4  C14 UNL     1      15.114  -2.550  -2.874  1.00  0.00     0.178 C 
HETATM    5  C15 UNL     1      16.225  -1.558  -2.830  1.00  0.00     0.178 C 
HETATM    6  C16 UNL     1      17.257  -1.804  -3.906  1.00  0.00     0.155 C 
ENDROOT
BRANCH   3   7
HETATM    7  O4  UNL     1      13.568  -3.717  -4.115  1.00  0.00    -0.375 OA
BRANCH   7   8
HETATM    8  C7  UNL     1      12.286  -3.488  -4.429  1.00  0.00     0.158 C 
HETATM    9  C8  UNL     1      11.437  -3.538  -3.177  1.00  0.00     0.178 C 
HETATM   10  C9  UNL     1      10.051  -3.976  -3.656  1.00  0.00     0.178 C 
HETATM   11  C10 UNL     1       9.674  -3.158  -4.837  1.00  0.00     0.154 C 
HETATM   12  C11 UNL     1      10.513  -1.961  -5.095  1.00  0.00     0.024 A 
HETATM   13  C12 UNL     1      11.349  -2.049  -6.392  1.00  0.00     0.015 A 
HETATM   14  C13 UNL     1      11.979  -2.167  -5.079  1.00  0.00     0.024 A 
BRANCH   9  15
HETATM   15  O5  UNL     1      11.926  -4.355  -2.191  1.00  0.00    -0.390 OA
ATOM     16  H5  UNL     1      12.092  -3.918  -1.364  1.00  0.00     0.210 HD
ENDBRANCH   9  15
BRANCH  10  17
HETATM   17  O6  UNL     1      10.179  -5.307  -4.044  1.00  0.00    -0.390 OA
ATOM     18  H6  UNL     1       9.332  -5.710  -3.891  1.00  0.00     0.210 HD
ENDBRANCH  10  17
BRANCH  11  19
HETATM   19  O7  UNL     1       9.557  -3.951  -6.000  1.00  0.00    -0.393 OA
ATOM     20  H7  UNL     1       9.200  -4.809  -5.802  1.00  0.00     0.210 HD
ENDBRANCH  11  19
ENDBRANCH   7   8
ENDBRANCH   3   7
BRANCH   4  21
HETATM   21  O8  UNL     1      14.199  -2.277  -1.878  1.00  0.00    -0.390 OA
ATOM     22  H8  UNL     1      14.524  -1.634  -1.258  1.00  0.00     0.210 HD
ENDBRANCH   4  21
BRANCH   1  23
HETATM   23  C3  UNL     1      17.747  -2.592  -6.154  1.00  0.00     0.186 C 
BRANCH  23  24
HETATM   24  O3  UNL     1      17.076  -3.342  -7.175  1.00  0.00    -0.315 OA
BRANCH  24  25
HETATM   25  C2  UNL     1      17.372  -3.116  -8.506  1.00  0.00     0.321 C 
HETATM   26  O2  UNL     1      18.580  -3.133  -8.863  1.00  0.00    -0.257 OA
BRANCH  25  27
HETATM   27  C1  UNL     1      16.336  -2.865  -9.488  1.00  0.00     0.340 C 
HETATM   28  O1  UNL     1      15.144  -2.900  -9.129  1.00  0.00    -0.296 OA
ENDBRANCH  25  27
ENDBRANCH  24  25
ENDBRANCH  23  24
ENDBRANCH   1  23
BRANCH   5  29
HETATM   29  O9  UNL     1      16.879  -1.709  -1.606  1.00  0.00    -0.390 OA
ATOM     30  H9  UNL     1      17.047  -0.840  -1.259  1.00  0.00     0.210 HD
ENDBRANCH   5  29
BRANCH   6  31
HETATM   31  O10 UNL     1      18.056  -2.909  -3.568  1.00  0.00    -0.392 OA
ATOM     32  H10 UNL     1      18.316  -2.850  -2.657  1.00  0.00     0.210 HD
ENDBRANCH   6  31
TORSDOF 12
ENDMDL
