MODEL 1
REMARK VINA RESULT: -8.232040069      0.000      0.000
REMARK  10 active torsions:
REMARK  status: ('A' for Active; 'I' for Inactive)
REMARK    1  A    between atoms: S1_2  and  O4_5 
REMARK    2  A    between atoms: O4_5  and  C1_6 
REMARK    3  A    between atoms: C1_6  and  C2_7 
REMARK    4  A    between atoms: C4_9  and  O5_10 
REMARK    5  A    between atoms: O5_10  and  C5_11 
REMARK    6  A    between atoms: C7_14  and  O7_15 
REMARK    7  A    between atoms: C8_17  and  O8_18 
REMARK    8  A    between atoms: C9_20  and  O9_21 
REMARK    9  A    between atoms: C10_23  and  O10_24 
REMARK   10  A    between atoms: C11_26  and  O11_27 
ROOT
HETATM    1  C2  UNL     1       9.884  -4.066   7.437  1.00  0.00     0.045 C 
HETATM    2  C3  UNL     1      11.067  -4.652   8.132  1.00  0.00     0.044 C 
HETATM    3  C4  UNL     1      12.280  -3.781   7.867  1.00  0.00     0.156 C 
HETATM    4  C9  UNL     1      12.633  -3.743   6.397  1.00  0.00     0.178 C 
HETATM    5  C10 UNL     1      11.474  -4.053   5.503  1.00  0.00     0.178 C 
HETATM    6  C11 UNL     1      10.163  -3.556   6.060  1.00  0.00     0.155 C 
ENDROOT
BRANCH   3   7
HETATM    7  O5  UNL     1      13.353  -4.280   8.598  1.00  0.00    -0.351 OA
BRANCH   7   8
HETATM    8  C5  UNL     1      14.017  -5.202   7.840  1.00  0.00     0.291 C 
HETATM    9  O6  UNL     1      15.391  -5.087   7.862  1.00  0.00    -0.356 OA
HETATM   10  C6  UNL     1      15.864  -6.223   7.243  1.00  0.00     0.205 C 
HETATM   11  C7  UNL     1      14.890  -7.337   7.515  1.00  0.00     0.175 C 
HETATM   12  C8  UNL     1      13.843  -6.627   8.383  1.00  0.00     0.204 C 
BRANCH  11  13
HETATM   13  O7  UNL     1      14.261  -7.658   6.313  1.00  0.00    -0.391 OA
ATOM     14  H7  UNL     1      13.350  -7.849   6.503  1.00  0.00     0.210 HD
ENDBRANCH  11  13
BRANCH  12  15
HETATM   15  O8  UNL     1      14.253  -6.688   9.714  1.00  0.00    -0.388 OA
ATOM     16  H8  UNL     1      13.605  -7.147  10.236  1.00  0.00     0.210 HD
ENDBRANCH  12  15
ENDBRANCH   7   8
ENDBRANCH   3   7
BRANCH   4  17
HETATM   17  O9  UNL     1      13.219  -2.514   6.114  1.00  0.00    -0.390 OA
ATOM     18  H9  UNL     1      13.970  -2.659   5.551  1.00  0.00     0.210 HD
ENDBRANCH   4  17
BRANCH   1  19
HETATM   19  C1  UNL     1       8.818  -5.154   7.324  1.00  0.00     0.200 C 
BRANCH  19  20
HETATM   20  O4  UNL     1       7.550  -4.603   7.209  1.00  0.00    -0.257 OA
BRANCH  20  21
HETATM   21  S1  UNL     1       7.028  -4.229   8.763  1.00  0.00     0.251 S 
HETATM   22  O1  UNL     1       7.221  -2.746   9.008  1.00  0.00    -0.572 OA
HETATM   23  O2  UNL     1       5.535  -4.470   8.888  1.00  0.00    -0.572 OA
HETATM   24  O3  UNL     1       7.868  -5.119   9.926  1.00  0.00    -0.572 OA
ENDBRANCH  20  21
ENDBRANCH  19  20
ENDBRANCH   1  19
BRANCH   5  25
HETATM   25  O10 UNL     1      11.402  -5.422   5.304  1.00  0.00    -0.390 OA
ATOM     26  H10 UNL     1      10.503  -5.666   5.115  1.00  0.00     0.210 HD
ENDBRANCH   5  25
BRANCH   6  27
HETATM   27  O11 UNL     1      10.123  -2.168   6.086  1.00  0.00    -0.392 OA
ATOM     28  H11 UNL     1      10.962  -1.835   5.794  1.00  0.00     0.210 HD
ENDBRANCH   6  27
TORSDOF 10
ENDMDL
MODEL 2
REMARK VINA RESULT: -7.602210285      2.852      4.606
REMARK  10 active torsions:
REMARK  status: ('A' for Active; 'I' for Inactive)
REMARK    1  A    between atoms: S1_2  and  O4_5 
REMARK    2  A    between atoms: O4_5  and  C1_6 
REMARK    3  A    between atoms: C1_6  and  C2_7 
REMARK    4  A    between atoms: C4_9  and  O5_10 
REMARK    5  A    between atoms: O5_10  and  C5_11 
REMARK    6  A    between atoms: C7_14  and  O7_15 
REMARK    7  A    between atoms: C8_17  and  O8_18 
REMARK    8  A    between atoms: C9_20  and  O9_21 
REMARK    9  A    between atoms: C10_23  and  O10_24 
REMARK   10  A    between atoms: C11_26  and  O11_27 
ROOT
HETATM    1  C2  UNL     1      11.908  -2.023   5.414  1.00  0.00     0.045 C 
HETATM    2  C3  UNL     1      12.588  -2.603   6.609  1.00  0.00     0.044 C 
HETATM    3  C4  UNL     1      11.960  -3.945   6.935  1.00  0.00     0.156 C 
HETATM    4  C9  UNL     1      10.501  -3.806   7.308  1.00  0.00     0.178 C 
HETATM    5  C10 UNL     1       9.865  -2.570   6.754  1.00  0.00     0.178 C 
HETATM    6  C11 UNL     1      10.423  -2.186   5.406  1.00  0.00     0.155 C 
ENDROOT
BRANCH   3   7
HETATM    7  O5  UNL     1      12.665  -4.520   7.987  1.00  0.00    -0.351 OA
BRANCH   7   8
HETATM    8  C5  UNL     1      13.640  -5.330   7.479  1.00  0.00     0.291 C 
HETATM    9  O6  UNL     1      14.928  -4.871   7.666  1.00  0.00    -0.356 OA
HETATM   10  C6  UNL     1      15.745  -5.919   7.302  1.00  0.00     0.205 C 
HETATM   11  C7  UNL     1      15.022  -7.201   7.614  1.00  0.00     0.175 C 
HETATM   12  C8  UNL     1      13.709  -6.677   8.211  1.00  0.00     0.204 C 
BRANCH  11  13
HETATM   13  O7  UNL     1      14.693  -7.812   6.404  1.00  0.00    -0.391 OA
ATOM     14  H7  UNL     1      14.997  -7.249   5.702  1.00  0.00     0.210 HD
ENDBRANCH  11  13
BRANCH  12  15
HETATM   15  O8  UNL     1      13.894  -6.473   9.579  1.00  0.00    -0.388 OA
ATOM     16  H8  UNL     1      14.189  -5.584   9.739  1.00  0.00     0.210 HD
ENDBRANCH  12  15
ENDBRANCH   7   8
ENDBRANCH   3   7
BRANCH   4  17
HETATM   17  O9  UNL     1       9.836  -4.969   6.936  1.00  0.00    -0.390 OA
ATOM     18  H9  UNL     1       9.133  -5.127   7.554  1.00  0.00     0.210 HD
ENDBRANCH   4  17
BRANCH   1  19
HETATM   19  C1  UNL     1      12.213  -0.527   5.377  1.00  0.00     0.200 C 
BRANCH  19  20
HETATM   20  O4  UNL     1      11.048   0.223   5.419  1.00  0.00    -0.257 OA
BRANCH  20  21
HETATM   21  S1  UNL     1      11.486   1.834   5.222  1.00  0.00     0.251 S 
HETATM   22  O1  UNL     1      12.615   2.163   6.177  1.00  0.00    -0.572 OA
HETATM   23  O2  UNL     1      12.052   2.059   3.832  1.00  0.00    -0.572 OA
HETATM   24  O3  UNL     1      10.179   2.866   5.500  1.00  0.00    -0.572 OA
ENDBRANCH  20  21
ENDBRANCH  19  20
ENDBRANCH   1  19
BRANCH   5  25
HETATM   25  O10 UNL     1      10.045  -1.524   7.644  1.00  0.00    -0.390 OA
ATOM     26  H10 UNL     1      10.857  -1.074   7.440  1.00  0.00     0.210 HD
ENDBRANCH   5  25
BRANCH   6  27
HETATM   27  O11 UNL     1      10.085  -3.123   4.438  1.00  0.00    -0.392 OA
ATOM     28  H11 UNL     1       9.379  -3.663   4.772  1.00  0.00     0.210 HD
ENDBRANCH   6  27
TORSDOF 10
ENDMDL
MODEL 3
REMARK VINA RESULT: -7.471036729      3.000      6.370
REMARK  10 active torsions:
REMARK  status: ('A' for Active; 'I' for Inactive)
REMARK    1  A    between atoms: S1_2  and  O4_5 
REMARK    2  A    between atoms: O4_5  and  C1_6 
REMARK    3  A    between atoms: C1_6  and  C2_7 
REMARK    4  A    between atoms: C4_9  and  O5_10 
REMARK    5  A    between atoms: O5_10  and  C5_11 
REMARK    6  A    between atoms: C7_14  and  O7_15 
REMARK    7  A    between atoms: C8_17  and  O8_18 
REMARK    8  A    between atoms: C9_20  and  O9_21 
REMARK    9  A    between atoms: C10_23  and  O10_24 
REMARK   10  A    between atoms: C11_26  and  O11_27 
ROOT
HETATM    1  C2  UNL     1      11.656  -2.096   6.170  1.00  0.00     0.045 C 
HETATM    2  C3  UNL     1      10.247  -2.581   6.077  1.00  0.00     0.044 C 
HETATM    3  C4  UNL     1      10.094  -3.828   6.927  1.00  0.00     0.156 C 
HETATM    4  C9  UNL     1      10.962  -4.960   6.423  1.00  0.00     0.178 C 
HETATM    5  C10 UNL     1      12.140  -4.492   5.628  1.00  0.00     0.178 C 
HETATM    6  C11 UNL     1      12.687  -3.177   6.122  1.00  0.00     0.155 C 
ENDROOT
BRANCH   3   7
HETATM    7  O5  UNL     1       8.757  -4.213   6.911  1.00  0.00    -0.351 OA
BRANCH   7   8
HETATM    8  C5  UNL     1       8.128  -3.678   7.998  1.00  0.00     0.291 C 
HETATM    9  O6  UNL     1       6.878  -4.200   8.257  1.00  0.00    -0.356 OA
HETATM   10  C6  UNL     1       6.525  -3.709   9.495  1.00  0.00     0.205 C 
HETATM   11  C7  UNL     1       7.786  -3.530  10.297  1.00  0.00     0.175 C 
HETATM   12  C8  UNL     1       8.853  -4.014   9.308  1.00  0.00     0.204 C 
BRANCH  11  13
HETATM   13  O7  UNL     1       7.993  -2.162  10.469  1.00  0.00    -0.391 OA
ATOM     14  H7  UNL     1       7.626  -1.715   9.716  1.00  0.00     0.210 HD
ENDBRANCH  11  13
BRANCH  12  15
HETATM   15  O8  UNL     1       8.989  -5.396   9.441  1.00  0.00    -0.388 OA
ATOM     16  H8  UNL     1       9.018  -5.635  10.360  1.00  0.00     0.210 HD
ENDBRANCH  12  15
ENDBRANCH   7   8
ENDBRANCH   3   7
BRANCH   4  17
HETATM   17  O9  UNL     1      11.322  -5.756   7.505  1.00  0.00    -0.390 OA
ATOM     18  H9  UNL     1      11.450  -5.197   8.262  1.00  0.00     0.210 HD
ENDBRANCH   4  17
BRANCH   1  19
HETATM   19  C1  UNL     1      11.910  -1.157   4.993  1.00  0.00     0.200 C 
BRANCH  19  20
HETATM   20  O4  UNL     1      12.859  -0.198   5.313  1.00  0.00    -0.257 OA
BRANCH  20  21
HETATM   21  S1  UNL     1      12.177   1.305   4.991  1.00  0.00     0.251 S 
HETATM   22  O1  UNL     1      10.668   1.174   4.983  1.00  0.00    -0.572 OA
HETATM   23  O2  UNL     1      12.495   2.278   6.111  1.00  0.00    -0.572 OA
HETATM   24  O3  UNL     1      12.710   1.917   3.510  1.00  0.00    -0.572 OA
ENDBRANCH  20  21
ENDBRANCH  19  20
ENDBRANCH   1  19
BRANCH   5  25
HETATM   25  O10 UNL     1      11.774  -4.370   4.297  1.00  0.00    -0.390 OA
ATOM     26  H10 UNL     1      11.854  -3.462   4.031  1.00  0.00     0.210 HD
ENDBRANCH   5  25
BRANCH   6  27
HETATM   27  O11 UNL     1      13.248  -3.309   7.386  1.00  0.00    -0.392 OA
ATOM     28  H11 UNL     1      12.937  -4.119   7.772  1.00  0.00     0.210 HD
ENDBRANCH   6  27
TORSDOF 10
ENDMDL
MODEL 4
REMARK VINA RESULT: -7.388451725      2.444      6.363
REMARK  10 active torsions:
REMARK  status: ('A' for Active; 'I' for Inactive)
REMARK    1  A    between atoms: S1_2  and  O4_5 
REMARK    2  A    between atoms: O4_5  and  C1_6 
REMARK    3  A    between atoms: C1_6  and  C2_7 
REMARK    4  A    between atoms: C4_9  and  O5_10 
REMARK    5  A    between atoms: O5_10  and  C5_11 
REMARK    6  A    between atoms: C7_14  and  O7_15 
REMARK    7  A    between atoms: C8_17  and  O8_18 
REMARK    8  A    between atoms: C9_20  and  O9_21 
REMARK    9  A    between atoms: C10_23  and  O10_24 
REMARK   10  A    between atoms: C11_26  and  O11_27 
ROOT
HETATM    1  C2  UNL     1      12.559  -4.809   7.086  1.00  0.00     0.045 C 
HETATM    2  C3  UNL     1      11.963  -3.882   8.092  1.00  0.00     0.044 C 
HETATM    3  C4  UNL     1      10.610  -3.412   7.594  1.00  0.00     0.156 C 
HETATM    4  C9  UNL     1      10.728  -2.619   6.312  1.00  0.00     0.178 C 
HETATM    5  C10 UNL     1      11.969  -2.934   5.536  1.00  0.00     0.178 C 
HETATM    6  C11 UNL     1      12.382  -4.379   5.666  1.00  0.00     0.155 C 
ENDROOT
BRANCH   3   7
HETATM    7  O5  UNL     1      10.021  -2.628   8.582  1.00  0.00    -0.351 OA
BRANCH   7   8
HETATM    8  C5  UNL     1       8.699  -2.955   8.679  1.00  0.00     0.291 C 
HETATM    9  O6  UNL     1       8.348  -4.135   8.058  1.00  0.00    -0.356 OA
HETATM   10  C6  UNL     1       7.057  -4.393   8.465  1.00  0.00     0.205 C 
HETATM   11  C7  UNL     1       6.890  -3.836   9.853  1.00  0.00     0.175 C 
HETATM   12  C8  UNL     1       8.286  -3.261  10.125  1.00  0.00     0.204 C 
BRANCH  11  13
HETATM   13  O7  UNL     1       6.019  -2.749   9.775  1.00  0.00    -0.391 OA
ATOM     14  H7  UNL     1       5.655  -2.730   8.898  1.00  0.00     0.210 HD
ENDBRANCH  11  13
BRANCH  12  15
HETATM   15  O8  UNL     1       9.089  -4.273  10.650  1.00  0.00    -0.388 OA
ATOM     16  H8  UNL     1       8.608  -4.764  11.306  1.00  0.00     0.210 HD
ENDBRANCH  12  15
ENDBRANCH   7   8
ENDBRANCH   3   7
BRANCH   4  17
HETATM   17  O9  UNL     1       9.566  -2.801   5.569  1.00  0.00    -0.390 OA
ATOM     18  H9  UNL     1       8.950  -2.117   5.800  1.00  0.00     0.210 HD
ENDBRANCH   4  17
BRANCH   1  19
HETATM   19  C1  UNL     1      14.058  -4.904   7.363  1.00  0.00     0.200 C 
BRANCH  19  20
HETATM   20  O4  UNL     1      14.321  -5.786   8.400  1.00  0.00    -0.257 OA
BRANCH  20  21
HETATM   21  S1  UNL     1      15.058  -7.139   7.727  1.00  0.00     0.251 S 
HETATM   22  O1  UNL     1      14.336  -7.514   6.449  1.00  0.00    -0.572 OA
HETATM   23  O2  UNL     1      16.479  -6.811   7.311  1.00  0.00    -0.572 OA
HETATM   24  O3  UNL     1      15.044  -8.444   8.799  1.00  0.00    -0.572 OA
ENDBRANCH  20  21
ENDBRANCH  19  20
ENDBRANCH   1  19
BRANCH   5  25
HETATM   25  O10 UNL     1      13.000  -2.116   5.969  1.00  0.00    -0.390 OA
ATOM     26  H10 UNL     1      13.813  -2.607   5.962  1.00  0.00     0.210 HD
ENDBRANCH   5  25
BRANCH   6  27
HETATM   27  O11 UNL     1      11.461  -5.222   5.059  1.00  0.00    -0.392 OA
ATOM     28  H11 UNL     1      11.845  -5.568   4.262  1.00  0.00     0.210 HD
ENDBRANCH   6  27
TORSDOF 10
ENDMDL
MODEL 5
REMARK VINA RESULT: -7.338761251      3.028      6.366
REMARK  10 active torsions:
REMARK  status: ('A' for Active; 'I' for Inactive)
REMARK    1  A    between atoms: S1_2  and  O4_5 
REMARK    2  A    between atoms: O4_5  and  C1_6 
REMARK    3  A    between atoms: C1_6  and  C2_7 
REMARK    4  A    between atoms: C4_9  and  O5_10 
REMARK    5  A    between atoms: O5_10  and  C5_11 
REMARK    6  A    between atoms: C7_14  and  O7_15 
REMARK    7  A    between atoms: C8_17  and  O8_18 
REMARK    8  A    between atoms: C9_20  and  O9_21 
REMARK    9  A    between atoms: C10_23  and  O10_24 
REMARK   10  A    between atoms: C11_26  and  O11_27 
ROOT
HETATM    1  C2  UNL     1      11.759  -2.041   6.166  1.00  0.00     0.045 C 
HETATM    2  C3  UNL     1      10.326  -2.454   6.113  1.00  0.00     0.044 C 
HETATM    3  C4  UNL     1      10.133  -3.690   6.971  1.00  0.00     0.156 C 
HETATM    4  C9  UNL     1      10.928  -4.866   6.448  1.00  0.00     0.178 C 
HETATM    5  C10 UNL     1      12.106  -4.459   5.619  1.00  0.00     0.178 C 
HETATM    6  C11 UNL     1      12.733  -3.172   6.095  1.00  0.00     0.155 C 
ENDROOT
BRANCH   3   7
HETATM    7  O5  UNL     1       8.778  -4.008   6.993  1.00  0.00    -0.351 OA
BRANCH   7   8
HETATM    8  C5  UNL     1       8.404  -4.271   8.279  1.00  0.00     0.291 C 
HETATM    9  O6  UNL     1       9.332  -3.914   9.235  1.00  0.00    -0.356 OA
HETATM   10  C6  UNL     1       8.680  -4.041  10.443  1.00  0.00     0.205 C 
HETATM   11  C7  UNL     1       7.223  -3.742  10.216  1.00  0.00     0.175 C 
HETATM   12  C8  UNL     1       7.203  -3.421   8.716  1.00  0.00     0.204 C 
BRANCH  11  13
HETATM   13  O7  UNL     1       6.512  -4.930  10.379  1.00  0.00    -0.391 OA
ATOM     14  H7  UNL     1       5.661  -4.819   9.971  1.00  0.00     0.210 HD
ENDBRANCH  11  13
BRANCH  12  15
HETATM   15  O8  UNL     1       7.487  -2.066   8.547  1.00  0.00    -0.388 OA
ATOM     16  H8  UNL     1       6.989  -1.716   7.818  1.00  0.00     0.210 HD
ENDBRANCH  12  15
ENDBRANCH   7   8
ENDBRANCH   3   7
BRANCH   4  17
HETATM   17  O9  UNL     1      11.277  -5.677   7.522  1.00  0.00    -0.390 OA
ATOM     18  H9  UNL     1      10.945  -5.282   8.319  1.00  0.00     0.210 HD
ENDBRANCH   4  17
BRANCH   1  19
HETATM   19  C1  UNL     1      12.027  -1.118   4.980  1.00  0.00     0.200 C 
BRANCH  19  20
HETATM   20  O4  UNL     1      12.930  -0.120   5.317  1.00  0.00    -0.257 OA
BRANCH  20  21
HETATM   21  S1  UNL     1      12.183   1.353   5.003  1.00  0.00     0.251 S 
HETATM   22  O1  UNL     1      10.681   1.161   5.012  1.00  0.00    -0.572 OA
HETATM   23  O2  UNL     1      12.474   2.339   6.120  1.00  0.00    -0.572 OA
HETATM   24  O3  UNL     1      12.673   1.987   3.516  1.00  0.00    -0.572 OA
ENDBRANCH  20  21
ENDBRANCH  19  20
ENDBRANCH   1  19
BRANCH   5  25
HETATM   25  O10 UNL     1      11.711  -4.322   4.298  1.00  0.00    -0.390 OA
ATOM     26  H10 UNL     1      12.300  -4.819   3.742  1.00  0.00     0.210 HD
ENDBRANCH   5  25
BRANCH   6  27
HETATM   27  O11 UNL     1      13.320  -3.331   7.343  1.00  0.00    -0.392 OA
ATOM     28  H11 UNL     1      13.815  -4.141   7.345  1.00  0.00     0.210 HD
ENDBRANCH   6  27
TORSDOF 10
ENDMDL
