MODEL 1
REMARK VINA RESULT: -6.932859141      0.000      0.000
REMARK  8 active torsions:
REMARK  status: ('A' for Active; 'I' for Inactive)
REMARK    1  A    between atoms: O1_2  and  C2_3 
REMARK    2  A    between atoms: C2_3  and  C3_5 
REMARK    3  A    between atoms: C3_5  and  S1_6 
REMARK    4  A    between atoms: N2_12  and  C7_14 
REMARK    5  A    between atoms: C7_14  and  C8_18 
REMARK    6  A    between atoms: C8_18  and  N4_19 
REMARK    7  A    between atoms: C9_23  and  C10_24 
REMARK       I    between atoms: C10_24  and  N5_26 
REMARK    8  A    between atoms: N5_26  and  N6_28 
ROOT
HETATM    1  C3  UNL     1      -2.006   9.261  40.406  1.00  0.00     0.197 C 
HETATM    2  C5  UNL     1      -2.992  10.379  40.294  1.00  0.00     0.171 C 
HETATM    3  N1  UNL     1      -4.183  10.079  41.114  1.00  0.00    -0.374 N 
ATOM      4  H1  UNL     1      -5.052  10.391  40.681  1.00  0.00     0.160 HD
HETATM    5  C6  UNL     1      -4.389   9.448  42.379  1.00  0.00     0.109 C 
HETATM    6  N2  UNL     1      -5.503   8.954  42.666  1.00  0.00    -0.333 N 
ATOM      7  H2  UNL     1      -5.517   8.544  43.600  1.00  0.00     0.168 HD
HETATM    8  C9  UNL     1      -3.337   9.154  43.357  1.00  0.00     0.255 C 
HETATM    9  N7  UNL     1      -2.523   8.203  42.453  1.00  0.00    -0.124 NA
HETATM   10  N8  UNL     1      -1.698   9.063  41.837  1.00  0.00    -0.113 NA
ENDROOT
BRANCH   6  11
HETATM   11  C7  UNL     1      -6.712   8.833  42.025  1.00  0.00     0.102 C 
HETATM   12  N3  UNL     1      -7.403   9.794  41.579  1.00  0.00    -0.387 N 
ATOM     13  H32 UNL     1      -7.032  10.734  41.715  1.00  0.00     0.157 HD
ATOM     14  H31 UNL     1      -8.300   9.704  41.103  1.00  0.00     0.157 HD
BRANCH  11  15
HETATM   15  C8  UNL     1      -7.271   7.416  41.821  1.00  0.00     0.305 C 
BRANCH  15  16
HETATM   16  N4  UNL     1      -6.969   6.577  42.946  1.00  0.00    -0.073 N 
ATOM     17  H43 UNL     1      -6.010   6.233  42.912  1.00  0.00     0.274 HD
ATOM     18  H42 UNL     1      -6.910   7.115  43.812  1.00  0.00     0.274 HD
ATOM     19  H41 UNL     1      -7.640   5.813  43.023  1.00  0.00     0.274 HD
ENDBRANCH  15  16
ENDBRANCH  11  15
ENDBRANCH   6  11
BRANCH   8  20
HETATM   20  C10 UNL     1      -3.629   8.392  44.536  1.00  0.00     0.269 C 
HETATM   21  O3  UNL     1      -4.169   8.808  45.533  1.00  0.00    -0.269 OA
HETATM   22  N5  UNL     1      -3.242   7.001  44.450  1.00  0.00    -0.208 N 
ATOM     23  H5  UNL     1      -2.778   6.658  43.609  1.00  0.00     0.196 HD
BRANCH  22  24
HETATM   24  N6  UNL     1      -3.495   6.131  45.497  1.00  0.00    -0.036 N 
HETATM   25  O4  UNL     1      -2.539   5.545  46.033  1.00  0.00    -0.516 OA
HETATM   26  O5  UNL     1      -4.790   5.951  45.944  1.00  0.00    -0.516 OA
ENDBRANCH  22  24
ENDBRANCH   8  20
BRANCH   1  27
HETATM   27  C2  UNL     1      -0.630   9.569  39.931  1.00  0.00     0.296 C 
HETATM   28  O2  UNL     1      -0.396  10.624  39.250  1.00  0.00    -0.262 OA
BRANCH  27  29
HETATM   29  O1  UNL     1       0.400   8.719  40.275  1.00  0.00    -0.324 OA
HETATM   30  C1  UNL     1       1.649   9.194  40.742  1.00  0.00     0.213 C 
ENDBRANCH  27  29
ENDBRANCH   1  27
BRANCH   1  31
HETATM   31  S1  UNL     1      -2.637   7.841  39.569  1.00  0.00    -0.133 SA
HETATM   32  C4  UNL     1      -2.907   8.298  37.815  1.00  0.00     0.092 C 
ENDBRANCH   1  31
TORSDOF 8
ENDMDL
MODEL 2
REMARK VINA RESULT: -6.905327826      1.991      2.736
REMARK  8 active torsions:
REMARK  status: ('A' for Active; 'I' for Inactive)
REMARK    1  A    between atoms: O1_2  and  C2_3 
REMARK    2  A    between atoms: C2_3  and  C3_5 
REMARK    3  A    between atoms: C3_5  and  S1_6 
REMARK    4  A    between atoms: N2_12  and  C7_14 
REMARK    5  A    between atoms: C7_14  and  C8_18 
REMARK    6  A    between atoms: C8_18  and  N4_19 
REMARK    7  A    between atoms: C9_23  and  C10_24 
REMARK       I    between atoms: C10_24  and  N5_26 
REMARK    8  A    between atoms: N5_26  and  N6_28 
ROOT
HETATM    1  C3  UNL     1      -2.533   8.308  42.670  1.00  0.00     0.197 C 
HETATM    2  C5  UNL     1      -3.719   9.216  42.615  1.00  0.00     0.171 C 
HETATM    3  N1  UNL     1      -4.925   8.489  43.060  1.00  0.00    -0.374 N 
ATOM      4  H1  UNL     1      -5.760   8.748  42.535  1.00  0.00     0.160 HD
HETATM    5  C6  UNL     1      -5.183   7.505  44.062  1.00  0.00     0.109 C 
HETATM    6  N2  UNL     1      -6.184   6.758  43.974  1.00  0.00    -0.333 N 
ATOM      7  H2  UNL     1      -6.255   6.108  44.757  1.00  0.00     0.168 HD
HETATM    8  C9  UNL     1      -4.265   7.145  45.148  1.00  0.00     0.255 C 
HETATM    9  N7  UNL     1      -3.117   6.646  44.243  1.00  0.00    -0.124 NA
HETATM   10  N8  UNL     1      -2.424   7.777  44.045  1.00  0.00    -0.113 NA
ENDROOT
BRANCH   6  11
HETATM   11  C7  UNL     1      -7.211   6.604  43.074  1.00  0.00     0.102 C 
HETATM   12  N3  UNL     1      -7.111   6.739  41.820  1.00  0.00    -0.387 N 
ATOM     13  H32 UNL     1      -6.193   6.987  41.452  1.00  0.00     0.157 HD
ATOM     14  H31 UNL     1      -7.873   6.624  41.152  1.00  0.00     0.157 HD
BRANCH  11  15
HETATM   15  C8  UNL     1      -8.594   6.231  43.629  1.00  0.00     0.305 C 
BRANCH  15  16
HETATM   16  N4  UNL     1      -8.533   5.987  45.043  1.00  0.00    -0.073 N 
ATOM     17  H43 UNL     1      -9.457   5.802  45.433  1.00  0.00     0.274 HD
ATOM     18  H42 UNL     1      -8.094   5.090  45.251  1.00  0.00     0.274 HD
ATOM     19  H41 UNL     1      -8.068   6.756  45.527  1.00  0.00     0.274 HD
ENDBRANCH  15  16
ENDBRANCH  11  15
ENDBRANCH   6  11
BRANCH   8  20
HETATM   20  C10 UNL     1      -4.562   6.046  46.019  1.00  0.00     0.269 C 
HETATM   21  O3  UNL     1      -5.648   5.769  46.466  1.00  0.00    -0.269 OA
HETATM   22  N5  UNL     1      -3.418   5.217  46.332  1.00  0.00    -0.208 N 
ATOM     23  H5  UNL     1      -2.500   5.461  45.959  1.00  0.00     0.196 HD
BRANCH  22  24
HETATM   24  N6  UNL     1      -3.556   4.095  47.132  1.00  0.00    -0.036 N 
HETATM   25  O4  UNL     1      -3.074   4.113  48.277  1.00  0.00    -0.516 OA
HETATM   26  O5  UNL     1      -4.245   2.994  46.660  1.00  0.00    -0.516 OA
ENDBRANCH  22  24
ENDBRANCH   8  20
BRANCH   1  27
HETATM   27  C2  UNL     1      -1.207   8.978  42.594  1.00  0.00     0.296 C 
HETATM   28  O2  UNL     1      -0.446   9.038  43.618  1.00  0.00    -0.262 OA
BRANCH  27  29
HETATM   29  O1  UNL     1      -0.791   9.499  41.386  1.00  0.00    -0.324 OA
HETATM   30  C1  UNL     1       0.436   9.129  40.784  1.00  0.00     0.213 C 
ENDBRANCH  27  29
ENDBRANCH   1  27
BRANCH   1  31
HETATM   31  S1  UNL     1      -2.673   7.088  41.402  1.00  0.00    -0.133 SA
HETATM   32  C4  UNL     1      -3.442   7.882  39.941  1.00  0.00     0.092 C 
ENDBRANCH   1  31
TORSDOF 8
ENDMDL
MODEL 3
REMARK VINA RESULT: -6.885233213      2.368      5.930
REMARK  8 active torsions:
REMARK  status: ('A' for Active; 'I' for Inactive)
REMARK    1  A    between atoms: O1_2  and  C2_3 
REMARK    2  A    between atoms: C2_3  and  C3_5 
REMARK    3  A    between atoms: C3_5  and  S1_6 
REMARK    4  A    between atoms: N2_12  and  C7_14 
REMARK    5  A    between atoms: C7_14  and  C8_18 
REMARK    6  A    between atoms: C8_18  and  N4_19 
REMARK    7  A    between atoms: C9_23  and  C10_24 
REMARK       I    between atoms: C10_24  and  N5_26 
REMARK    8  A    between atoms: N5_26  and  N6_28 
ROOT
HETATM    1  C3  UNL     1      -4.786   8.315  42.927  1.00  0.00     0.197 C 
HETATM    2  C5  UNL     1      -5.357   7.208  42.101  1.00  0.00     0.171 C 
HETATM    3  N1  UNL     1      -4.784   7.254  40.740  1.00  0.00    -0.374 N 
ATOM      4  H1  UNL     1      -5.461   7.011  40.016  1.00  0.00     0.160 HD
HETATM    5  C6  UNL     1      -3.495   7.565  40.211  1.00  0.00     0.109 C 
HETATM    6  N2  UNL     1      -3.369   7.927  39.018  1.00  0.00    -0.333 N 
ATOM      7  H2  UNL     1      -2.397   8.109  38.768  1.00  0.00     0.168 HD
HETATM    8  C9  UNL     1      -2.262   7.674  40.999  1.00  0.00     0.255 C 
HETATM    9  N7  UNL     1      -2.732   8.845  41.889  1.00  0.00    -0.124 NA
HETATM   10  N8  UNL     1      -3.313   8.191  42.905  1.00  0.00    -0.113 NA
ENDROOT
BRANCH   6  11
HETATM   11  C7  UNL     1      -4.227   8.137  37.967  1.00  0.00     0.102 C 
HETATM   12  N3  UNL     1      -5.483   8.260  38.060  1.00  0.00    -0.387 N 
ATOM     13  H32 UNL     1      -5.887   8.192  38.994  1.00  0.00     0.157 HD
ATOM     14  H31 UNL     1      -6.120   8.416  37.280  1.00  0.00     0.157 HD
BRANCH  11  15
HETATM   15  C8  UNL     1      -3.618   8.239  36.560  1.00  0.00     0.305 C 
BRANCH  15  16
HETATM   16  N4  UNL     1      -2.203   8.475  36.627  1.00  0.00    -0.073 N 
ATOM     17  H43 UNL     1      -1.995   9.429  36.924  1.00  0.00     0.274 HD
ATOM     18  H42 UNL     1      -1.775   7.974  37.406  1.00  0.00     0.274 HD
ATOM     19  H41 UNL     1      -1.752   8.250  35.740  1.00  0.00     0.274 HD
ENDBRANCH  15  16
ENDBRANCH  11  15
ENDBRANCH   6  11
BRANCH   8  20
HETATM   20  C10 UNL     1      -1.046   8.127  40.392  1.00  0.00     0.269 C 
HETATM   21  O3  UNL     1      -0.599   7.752  39.335  1.00  0.00    -0.269 OA
HETATM   22  N5  UNL     1      -0.352   9.144  41.151  1.00  0.00    -0.208 N 
ATOM     23  H5  UNL     1      -0.729   9.450  42.048  1.00  0.00     0.196 HD
BRANCH  22  24
HETATM   24  N6  UNL     1       0.820   9.706  40.673  1.00  0.00    -0.036 N 
HETATM   25  O4  UNL     1       0.775  10.838  40.161  1.00  0.00    -0.516 OA
HETATM   26  O5  UNL     1       2.013   9.020  40.796  1.00  0.00    -0.516 OA
ENDBRANCH  22  24
ENDBRANCH   8  20
BRANCH   1  27
HETATM   27  C2  UNL     1      -4.990   8.190  44.395  1.00  0.00     0.296 C 
HETATM   28  O2  UNL     1      -4.294   8.883  45.212  1.00  0.00    -0.262 OA
BRANCH  27  29
HETATM   29  O1  UNL     1      -5.973   7.344  44.863  1.00  0.00    -0.324 OA
HETATM   30  C1  UNL     1      -5.678   6.191  45.631  1.00  0.00     0.213 C 
ENDBRANCH  27  29
ENDBRANCH   1  27
BRANCH   1  31
HETATM   31  S1  UNL     1      -5.418   9.859  42.353  1.00  0.00    -0.133 SA
HETATM   32  C4  UNL     1      -7.139   9.584  41.785  1.00  0.00     0.092 C 
ENDBRANCH   1  31
TORSDOF 8
ENDMDL
MODEL 4
REMARK VINA RESULT: -6.731943146      2.089      2.922
REMARK  8 active torsions:
REMARK  status: ('A' for Active; 'I' for Inactive)
REMARK    1  A    between atoms: O1_2  and  C2_3 
REMARK    2  A    between atoms: C2_3  and  C3_5 
REMARK    3  A    between atoms: C3_5  and  S1_6 
REMARK    4  A    between atoms: N2_12  and  C7_14 
REMARK    5  A    between atoms: C7_14  and  C8_18 
REMARK    6  A    between atoms: C8_18  and  N4_19 
REMARK    7  A    between atoms: C9_23  and  C10_24 
REMARK       I    between atoms: C10_24  and  N5_26 
REMARK    8  A    between atoms: N5_26  and  N6_28 
ROOT
HETATM    1  C3  UNL     1      -3.229   8.570  42.762  1.00  0.00     0.197 C 
HETATM    2  C5  UNL     1      -4.531   9.303  42.726  1.00  0.00     0.171 C 
HETATM    3  N1  UNL     1      -5.623   8.404  43.154  1.00  0.00    -0.374 N 
ATOM      4  H1  UNL     1      -6.487   8.553  42.633  1.00  0.00     0.160 HD
HETATM    5  C6  UNL     1      -5.737   7.372  44.134  1.00  0.00     0.109 C 
HETATM    6  N2  UNL     1      -6.623   6.493  44.027  1.00  0.00    -0.333 N 
ATOM      7  H2  UNL     1      -6.600   5.822  44.796  1.00  0.00     0.168 HD
HETATM    8  C9  UNL     1      -4.776   7.120  45.212  1.00  0.00     0.255 C 
HETATM    9  N7  UNL     1      -3.571   6.809  44.298  1.00  0.00    -0.124 NA
HETATM   10  N8  UNL     1      -3.045   8.030  44.126  1.00  0.00    -0.113 NA
ENDROOT
BRANCH   6  11
HETATM   11  C7  UNL     1      -7.620   6.215  43.123  1.00  0.00     0.102 C 
HETATM   12  N3  UNL     1      -8.855   6.413  43.312  1.00  0.00    -0.387 N 
ATOM     13  H32 UNL     1      -9.129   6.807  44.212  1.00  0.00     0.157 HD
ATOM     14  H31 UNL     1      -9.594   6.208  42.641  1.00  0.00     0.157 HD
BRANCH  11  15
HETATM   15  C8  UNL     1      -7.206   5.623  41.767  1.00  0.00     0.305 C 
BRANCH  15  16
HETATM   16  N4  UNL     1      -7.382   6.581  40.712  1.00  0.00    -0.073 N 
ATOM     17  H43 UNL     1      -7.923   6.193  39.939  1.00  0.00     0.274 HD
ATOM     18  H42 UNL     1      -8.019   7.329  40.986  1.00  0.00     0.274 HD
ATOM     19  H41 UNL     1      -6.484   6.947  40.396  1.00  0.00     0.274 HD
ENDBRANCH  15  16
ENDBRANCH  11  15
ENDBRANCH   6  11
BRANCH   8  20
HETATM   20  C10 UNL     1      -4.913   5.972  46.058  1.00  0.00     0.269 C 
HETATM   21  O3  UNL     1      -5.943   5.561  46.535  1.00  0.00    -0.269 OA
HETATM   22  N5  UNL     1      -3.672   5.270  46.305  1.00  0.00    -0.208 N 
ATOM     23  H5  UNL     1      -2.802   5.627  45.908  1.00  0.00     0.196 HD
BRANCH  22  24
HETATM   24  N6  UNL     1      -3.652   4.119  47.074  1.00  0.00    -0.036 N 
HETATM   25  O4  UNL     1      -3.144   4.165  48.208  1.00  0.00    -0.516 OA
HETATM   26  O5  UNL     1      -4.215   2.956  46.586  1.00  0.00    -0.516 OA
ENDBRANCH  22  24
ENDBRANCH   8  20
BRANCH   1  27
HETATM   27  C2  UNL     1      -2.012   9.422  42.703  1.00  0.00     0.296 C 
HETATM   28  O2  UNL     1      -1.962  10.534  43.331  1.00  0.00    -0.262 OA
BRANCH  27  29
HETATM   29  O1  UNL     1      -0.918   8.975  41.993  1.00  0.00    -0.324 OA
HETATM   30  C1  UNL     1      -0.507   9.574  40.777  1.00  0.00     0.213 C 
ENDBRANCH  27  29
ENDBRANCH   1  27
BRANCH   1  31
HETATM   31  S1  UNL     1      -3.198   7.371  41.468  1.00  0.00    -0.133 SA
HETATM   32  C4  UNL     1      -3.916   8.143  39.970  1.00  0.00     0.092 C 
ENDBRANCH   1  31
TORSDOF 8
ENDMDL
MODEL 5
REMARK VINA RESULT: -6.666074861      2.997      6.715
REMARK  8 active torsions:
REMARK  status: ('A' for Active; 'I' for Inactive)
REMARK    1  A    between atoms: O1_2  and  C2_3 
REMARK    2  A    between atoms: C2_3  and  C3_5 
REMARK    3  A    between atoms: C3_5  and  S1_6 
REMARK    4  A    between atoms: N2_12  and  C7_14 
REMARK    5  A    between atoms: C7_14  and  C8_18 
REMARK    6  A    between atoms: C8_18  and  N4_19 
REMARK    7  A    between atoms: C9_23  and  C10_24 
REMARK       I    between atoms: C10_24  and  N5_26 
REMARK    8  A    between atoms: N5_26  and  N6_28 
ROOT
HETATM    1  C3  UNL     1      -3.971   8.526  43.027  1.00  0.00     0.197 C 
HETATM    2  C5  UNL     1      -3.344   9.882  43.008  1.00  0.00     0.171 C 
HETATM    3  N1  UNL     1      -2.411   9.986  41.868  1.00  0.00    -0.374 N 
ATOM      4  H1  UNL     1      -1.575  10.527  42.087  1.00  0.00     0.160 HD
HETATM    5  C6  UNL     1      -2.419   9.496  40.526  1.00  0.00     0.109 C 
HETATM    6  N2  UNL     1      -1.346   9.371  39.891  1.00  0.00    -0.333 N 
ATOM      7  H2  UNL     1      -1.494   9.021  38.945  1.00  0.00     0.168 HD
HETATM    8  C9  UNL     1      -3.588   8.939  39.837  1.00  0.00     0.255 C 
HETATM    9  N7  UNL     1      -3.805   7.753  40.802  1.00  0.00    -0.124 NA
HETATM   10  N8  UNL     1      -4.618   8.300  41.718  1.00  0.00    -0.113 NA
ENDROOT
BRANCH   6  11
HETATM   11  C7  UNL     1      -0.019   9.592  40.165  1.00  0.00     0.102 C 
HETATM   12  N3  UNL     1       0.595  10.683  39.978  1.00  0.00    -0.387 N 
ATOM     13  H32 UNL     1       0.057  11.457  39.588  1.00  0.00     0.157 HD
ATOM     14  H31 UNL     1       1.580  10.847  40.181  1.00  0.00     0.157 HD
BRANCH  11  15
HETATM   15  C8  UNL     1       0.791   8.427  40.753  1.00  0.00     0.305 C 
BRANCH  15  16
HETATM   16  N4  UNL     1       0.633   8.357  42.178  1.00  0.00    -0.073 N 
ATOM     17  H43 UNL     1       1.519   8.170  42.647  1.00  0.00     0.274 HD
ATOM     18  H42 UNL     1       0.435   9.273  42.580  1.00  0.00     0.274 HD
ATOM     19  H41 UNL     1      -0.080   7.672  42.434  1.00  0.00     0.274 HD
ENDBRANCH  15  16
ENDBRANCH  11  15
ENDBRANCH   6  11
BRANCH   8  20
HETATM   20  C10 UNL     1      -3.455   8.348  38.538  1.00  0.00     0.269 C 
HETATM   21  O3  UNL     1      -2.425   7.973  38.032  1.00  0.00    -0.269 OA
HETATM   22  N5  UNL     1      -4.708   8.190  37.832  1.00  0.00    -0.208 N 
ATOM     23  H5  UNL     1      -5.574   8.517  38.261  1.00  0.00     0.196 HD
BRANCH  22  24
HETATM   24  N6  UNL     1      -4.743   7.598  36.580  1.00  0.00    -0.036 N 
HETATM   25  O4  UNL     1      -5.156   6.430  36.482  1.00  0.00    -0.516 OA
HETATM   26  O5  UNL     1      -4.351   8.318  35.469  1.00  0.00    -0.516 OA
ENDBRANCH  22  24
ENDBRANCH   8  20
BRANCH   1  27
HETATM   27  C2  UNL     1      -5.176   8.388  43.888  1.00  0.00     0.296 C 
HETATM   28  O2  UNL     1      -5.378   9.190  44.862  1.00  0.00    -0.262 OA
BRANCH  27  29
HETATM   29  O1  UNL     1      -6.098   7.406  43.593  1.00  0.00    -0.324 OA
HETATM   30  C1  UNL     1      -6.705   6.611  44.596  1.00  0.00     0.213 C 
ENDBRANCH  27  29
ENDBRANCH   1  27
BRANCH   1  31
HETATM   31  S1  UNL     1      -2.756   7.328  43.482  1.00  0.00    -0.133 SA
HETATM   32  C4  UNL     1      -3.094   6.814  45.208  1.00  0.00     0.092 C 
ENDBRANCH   1  31
TORSDOF 8
ENDMDL
