MODEL 1
REMARK VINA RESULT: -8.014122168      0.000      0.000
REMARK  9 active torsions:
REMARK  status: ('A' for Active; 'I' for Inactive)
REMARK    1  A    between atoms: N1_1  and  C1_5 
REMARK    2  A    between atoms: C3_10  and  N3_11 
REMARK    3  A    between atoms: N3_11  and  C4_13 
REMARK    4  A    between atoms: C5_16  and  N5_17 
REMARK    5  A    between atoms: N5_17  and  C6_19 
REMARK    6  A    between atoms: C6_19  and  C7_20 
REMARK    7  A    between atoms: C7_20  and  S1_21 
REMARK    8  A    between atoms: C9_28  and  N7_29 
REMARK    9  A    between atoms: C11_33  and  N8_34 
ROOT
HETATM    1  C4  UNL     1      -3.359   7.910  43.710  1.00  0.00     0.153 A 
HETATM    2  N4  UNL     1      -4.179   7.102  44.375  1.00  0.00    -0.174 N 
ATOM      3  H4  UNL     1      -3.782   6.276  44.823  1.00  0.00     0.186 HD
HETATM    4  C5  UNL     1      -5.521   7.316  44.494  1.00  0.00     0.679 A 
HETATM    5  N6  UNL     1      -5.985   8.415  43.888  1.00  0.00    -0.199 N 
ATOM      6  H6  UNL     1      -6.983   8.614  43.952  1.00  0.00     0.183 HD
HETATM    7  C8  UNL     1      -5.213   9.269  43.202  1.00  0.00     0.146 A 
HETATM    8  C9  UNL     1      -3.867   9.035  43.096  1.00  0.00     0.162 A 
ENDROOT
BRANCH   1   9
HETATM    9  N3  UNL     1      -2.128   7.648  43.639  1.00  0.00    -0.346 N 
ATOM     10  H3  UNL     1      -1.646   7.700  44.537  1.00  0.00     0.163 HD
BRANCH   9  11
HETATM   11  C3  UNL     1      -1.286   7.299  42.564  1.00  0.00     0.287 C 
HETATM   12  N2  UNL     1      -2.124   6.887  41.437  1.00  0.00    -0.052 N 
HETATM   13  C2  UNL     1      -1.203   6.280  40.462  1.00  0.00     0.269 C 
ATOM     14  H22 UNL     1      -2.691   7.642  41.051  1.00  0.00     0.279 HD
ATOM     15  H21 UNL     1      -2.898   6.279  41.703  1.00  0.00     0.279 HD
HETATM   16  C1  UNL     1      -0.497   7.430  39.801  1.00  0.00     0.239 C 
HETATM   17  C11 UNL     1       0.016   8.456  40.741  1.00  0.00     0.219 C 
HETATM   18  C10 UNL     1      -0.212   8.242  42.185  1.00  0.00     0.089 C 
BRANCH  16  19
HETATM   19  N1  UNL     1      -1.486   8.036  38.898  1.00  0.00    -0.071 N 
ATOM     20  H13 UNL     1      -2.220   8.552  39.383  1.00  0.00     0.274 HD
ATOM     21  H12 UNL     1      -1.122   8.821  38.359  1.00  0.00     0.274 HD
ATOM     22  H11 UNL     1      -1.837   7.272  38.321  1.00  0.00     0.274 HD
ENDBRANCH  16  19
BRANCH  17  23
HETATM   23  N8  UNL     1       1.462   8.589  40.485  1.00  0.00    -0.073 N 
ATOM     24  H83 UNL     1       1.977   8.971  41.278  1.00  0.00     0.274 HD
ATOM     25  H82 UNL     1       1.945   7.693  40.437  1.00  0.00     0.274 HD
ATOM     26  H81 UNL     1       1.564   9.145  39.636  1.00  0.00     0.274 HD
ENDBRANCH  17  23
ENDBRANCH   9  11
ENDBRANCH   1   9
BRANCH   8  27
HETATM   27  N7  UNL     1      -3.013   9.928  42.369  1.00  0.00    -0.110 N 
HETATM   28  O4  UNL     1      -2.258  10.660  43.004  1.00  0.00    -0.532 OA
HETATM   29  O5  UNL     1      -3.062   9.940  41.018  1.00  0.00    -0.532 OA
ENDBRANCH   8  27
BRANCH   4  30
HETATM   30  N5  UNL     1      -6.265   6.502  45.151  1.00  0.00    -0.225 N 
ATOM     31  H5  UNL     1      -7.212   6.801  45.383  1.00  0.00     0.177 HD
BRANCH  30  32
HETATM   32  C6  UNL     1      -5.852   5.209  45.576  1.00  0.00     0.155 C 
BRANCH  32  33
HETATM   33  C7  UNL     1      -5.250   5.186  46.972  1.00  0.00     0.185 C 
BRANCH  33  34
HETATM   34  S1  UNL     1      -3.660   4.403  46.974  1.00  0.00     0.103 S 
HETATM   35  O1  UNL     1      -3.165   4.383  48.388  1.00  0.00    -0.595 OA
HETATM   36  O2  UNL     1      -3.810   2.988  46.511  1.00  0.00    -0.595 OA
HETATM   37  O3  UNL     1      -2.628   5.287  46.011  1.00  0.00    -0.595 OA
ENDBRANCH  33  34
ENDBRANCH  32  33
ENDBRANCH  30  32
ENDBRANCH   4  30
TORSDOF 9
ENDMDL
MODEL 2
REMARK VINA RESULT: -7.670267622      2.949      5.012
REMARK  9 active torsions:
REMARK  status: ('A' for Active; 'I' for Inactive)
REMARK    1  A    between atoms: N1_1  and  C1_5 
REMARK    2  A    between atoms: C3_10  and  N3_11 
REMARK    3  A    between atoms: N3_11  and  C4_13 
REMARK    4  A    between atoms: C5_16  and  N5_17 
REMARK    5  A    between atoms: N5_17  and  C6_19 
REMARK    6  A    between atoms: C6_19  and  C7_20 
REMARK    7  A    between atoms: C7_20  and  S1_21 
REMARK    8  A    between atoms: C9_28  and  N7_29 
REMARK    9  A    between atoms: C11_33  and  N8_34 
ROOT
HETATM    1  C4  UNL     1      -4.043   8.648  42.749  1.00  0.00     0.153 A 
HETATM    2  N4  UNL     1      -4.771   8.845  41.654  1.00  0.00    -0.174 N 
ATOM      3  H4  UNL     1      -4.308   9.232  40.831  1.00  0.00     0.186 HD
HETATM    4  C5  UNL     1      -6.102   8.559  41.568  1.00  0.00     0.679 A 
HETATM    5  N6  UNL     1      -6.656   8.054  42.677  1.00  0.00    -0.199 N 
ATOM      6  H6  UNL     1      -7.649   7.825  42.657  1.00  0.00     0.183 HD
HETATM    7  C8  UNL     1      -5.978   7.831  43.811  1.00  0.00     0.146 A 
HETATM    8  C9  UNL     1      -4.641   8.125  43.875  1.00  0.00     0.162 A 
ENDROOT
BRANCH   1   9
HETATM    9  N3  UNL     1      -2.816   8.938  42.757  1.00  0.00    -0.346 N 
ATOM     10  H3  UNL     1      -2.601   9.797  43.264  1.00  0.00     0.163 HD
BRANCH   9  11
HETATM   11  C3  UNL     1      -1.683   8.308  42.203  1.00  0.00     0.287 C 
HETATM   12  N2  UNL     1      -2.135   7.340  41.204  1.00  0.00    -0.052 N 
HETATM   13  C2  UNL     1      -0.949   6.534  40.871  1.00  0.00     0.269 C 
ATOM     14  H22 UNL     1      -2.581   7.767  40.392  1.00  0.00     0.279 HD
ATOM     15  H21 UNL     1      -2.936   6.786  41.504  1.00  0.00     0.279 HD
HETATM   16  C1  UNL     1      -0.110   7.399  39.973  1.00  0.00     0.239 C 
HETATM   17  C11 UNL     1       0.071   8.789  40.457  1.00  0.00     0.219 C 
HETATM   18  C10 UNL     1      -0.571   9.163  41.733  1.00  0.00     0.089 C 
BRANCH  16  19
HETATM   19  N1  UNL     1      -0.801   7.411  38.676  1.00  0.00    -0.071 N 
ATOM     20  H13 UNL     1      -0.282   6.946  37.931  1.00  0.00     0.274 HD
ATOM     21  H12 UNL     1      -1.623   6.809  38.644  1.00  0.00     0.274 HD
ATOM     22  H11 UNL     1      -1.005   8.391  38.482  1.00  0.00     0.274 HD
ENDBRANCH  16  19
BRANCH  17  23
HETATM   23  N8  UNL     1       1.524   9.027  40.547  1.00  0.00    -0.073 N 
ATOM     24  H83 UNL     1       1.837   9.241  41.494  1.00  0.00     0.274 HD
ATOM     25  H82 UNL     1       2.078   8.182  40.415  1.00  0.00     0.274 HD
ATOM     26  H81 UNL     1       1.747   9.761  39.875  1.00  0.00     0.274 HD
ENDBRANCH  17  23
ENDBRANCH   9  11
ENDBRANCH   1   9
BRANCH   8  27
HETATM   27  N7  UNL     1      -3.888   7.899  45.074  1.00  0.00    -0.110 N 
HETATM   28  O4  UNL     1      -3.280   8.846  45.568  1.00  0.00    -0.532 OA
HETATM   29  O5  UNL     1      -3.868   6.664  45.622  1.00  0.00    -0.532 OA
ENDBRANCH   8  27
BRANCH   4  30
HETATM   30  N5  UNL     1      -6.755   8.770  40.483  1.00  0.00    -0.225 N 
ATOM     31  H5  UNL     1      -7.712   8.421  40.426  1.00  0.00     0.177 HD
BRANCH  30  32
HETATM   32  C6  UNL     1      -6.230   9.460  39.356  1.00  0.00     0.155 C 
BRANCH  32  33
HETATM   33  C7  UNL     1      -5.819   8.545  38.214  1.00  0.00     0.185 C 
BRANCH  33  34
HETATM   34  S1  UNL     1      -4.104   8.112  38.321  1.00  0.00     0.103 S 
HETATM   35  O1  UNL     1      -4.011   6.794  39.027  1.00  0.00    -0.595 OA
HETATM   36  O2  UNL     1      -3.555   7.942  36.939  1.00  0.00    -0.595 OA
HETATM   37  O3  UNL     1      -3.308   9.292  39.186  1.00  0.00    -0.595 OA
ENDBRANCH  33  34
ENDBRANCH  32  33
ENDBRANCH  30  32
ENDBRANCH   4  30
TORSDOF 9
ENDMDL
MODEL 3
REMARK VINA RESULT: -7.635863863      0.641      1.112
REMARK  9 active torsions:
REMARK  status: ('A' for Active; 'I' for Inactive)
REMARK    1  A    between atoms: N1_1  and  C1_5 
REMARK    2  A    between atoms: C3_10  and  N3_11 
REMARK    3  A    between atoms: N3_11  and  C4_13 
REMARK    4  A    between atoms: C5_16  and  N5_17 
REMARK    5  A    between atoms: N5_17  and  C6_19 
REMARK    6  A    between atoms: C6_19  and  C7_20 
REMARK    7  A    between atoms: C7_20  and  S1_21 
REMARK    8  A    between atoms: C9_28  and  N7_29 
REMARK    9  A    between atoms: C11_33  and  N8_34 
ROOT
HETATM    1  C4  UNL     1      -3.688   8.203  43.381  1.00  0.00     0.153 A 
HETATM    2  N4  UNL     1      -4.350   7.457  44.260  1.00  0.00    -0.174 N 
ATOM      3  H4  UNL     1      -3.810   6.937  44.953  1.00  0.00     0.186 HD
HETATM    4  C5  UNL     1      -5.709   7.347  44.290  1.00  0.00     0.679 A 
HETATM    5  N6  UNL     1      -6.364   8.051  43.359  1.00  0.00    -0.199 N 
ATOM      6  H6  UNL     1      -7.383   7.999  43.345  1.00  0.00     0.183 HD
HETATM    7  C8  UNL     1      -5.758   8.821  42.445  1.00  0.00     0.146 A 
HETATM    8  C9  UNL     1      -4.391   8.917  42.434  1.00  0.00     0.162 A 
ENDROOT
BRANCH   1   9
HETATM    9  N3  UNL     1      -2.429   8.256  43.411  1.00  0.00    -0.346 N 
ATOM     10  H3  UNL     1      -2.060   8.776  44.208  1.00  0.00     0.163 HD
BRANCH   9  11
HETATM   11  C3  UNL     1      -1.431   7.738  42.561  1.00  0.00     0.287 C 
HETATM   12  N2  UNL     1      -2.083   6.972  41.498  1.00  0.00    -0.052 N 
HETATM   13  C2  UNL     1      -1.000   6.239  40.820  1.00  0.00     0.269 C 
ATOM     14  H22 UNL     1      -2.648   7.543  40.869  1.00  0.00     0.279 HD
ATOM     15  H21 UNL     1      -2.839   6.373  41.829  1.00  0.00     0.279 HD
HETATM   16  C1  UNL     1      -0.300   7.254  39.961  1.00  0.00     0.239 C 
HETATM   17  C11 UNL     1       0.010   8.530  40.650  1.00  0.00     0.219 C 
HETATM   18  C10 UNL     1      -0.388   8.663  42.067  1.00  0.00     0.089 C 
BRANCH  16  19
HETATM   19  N1  UNL     1      -1.204   7.508  38.830  1.00  0.00    -0.071 N 
ATOM     20  H13 UNL     1      -1.054   6.884  38.038  1.00  0.00     0.274 HD
ATOM     21  H12 UNL     1      -2.172   7.242  39.012  1.00  0.00     0.274 HD
ATOM     22  H11 UNL     1      -1.088   8.495  38.601  1.00  0.00     0.274 HD
ENDBRANCH  16  19
BRANCH  17  23
HETATM   23  N8  UNL     1       1.464   8.745  40.525  1.00  0.00    -0.073 N 
ATOM     24  H83 UNL     1       2.017   7.984  40.919  1.00  0.00     0.274 HD
ATOM     25  H82 UNL     1       1.800   8.665  39.566  1.00  0.00     0.274 HD
ATOM     26  H81 UNL     1       1.668   9.650  40.948  1.00  0.00     0.274 HD
ENDBRANCH  17  23
ENDBRANCH   9  11
ENDBRANCH   1   9
BRANCH   8  27
HETATM   27  N7  UNL     1      -3.712   9.732  41.469  1.00  0.00    -0.110 N 
HETATM   28  O4  UNL     1      -3.387  10.872  41.793  1.00  0.00    -0.532 OA
HETATM   29  O5  UNL     1      -3.450   9.229  40.243  1.00  0.00    -0.532 OA
ENDBRANCH   8  27
BRANCH   4  30
HETATM   30  N5  UNL     1      -6.294   6.611  45.164  1.00  0.00    -0.225 N 
ATOM     31  H5  UNL     1      -7.149   6.967  45.592  1.00  0.00     0.177 HD
BRANCH  30  32
HETATM   32  C6  UNL     1      -5.826   5.333  45.573  1.00  0.00     0.155 C 
BRANCH  32  33
HETATM   33  C7  UNL     1      -5.214   5.321  46.965  1.00  0.00     0.185 C 
BRANCH  33  34
HETATM   34  S1  UNL     1      -3.593   4.605  46.949  1.00  0.00     0.103 S 
HETATM   35  O1  UNL     1      -2.776   5.354  45.941  1.00  0.00    -0.595 OA
HETATM   36  O2  UNL     1      -2.962   4.791  48.293  1.00  0.00    -0.595 OA
HETATM   37  O3  UNL     1      -3.721   3.002  46.517  1.00  0.00    -0.595 OA
ENDBRANCH  33  34
ENDBRANCH  32  33
ENDBRANCH  30  32
ENDBRANCH   4  30
TORSDOF 9
ENDMDL
MODEL 4
REMARK VINA RESULT: -7.597288089      1.289      2.122
REMARK  9 active torsions:
REMARK  status: ('A' for Active; 'I' for Inactive)
REMARK    1  A    between atoms: N1_1  and  C1_5 
REMARK    2  A    between atoms: C3_10  and  N3_11 
REMARK    3  A    between atoms: N3_11  and  C4_13 
REMARK    4  A    between atoms: C5_16  and  N5_17 
REMARK    5  A    between atoms: N5_17  and  C6_19 
REMARK    6  A    between atoms: C6_19  and  C7_20 
REMARK    7  A    between atoms: C7_20  and  S1_21 
REMARK    8  A    between atoms: C9_28  and  N7_29 
REMARK    9  A    between atoms: C11_33  and  N8_34 
ROOT
HETATM    1  C4  UNL     1      -4.085   8.185  42.974  1.00  0.00     0.153 A 
HETATM    2  N4  UNL     1      -5.100   7.484  43.469  1.00  0.00    -0.174 N 
ATOM      3  H4  UNL     1      -5.784   7.101  42.815  1.00  0.00     0.186 HD
HETATM    4  C5  UNL     1      -5.280   7.247  44.800  1.00  0.00     0.679 A 
HETATM    5  N6  UNL     1      -4.352   7.772  45.609  1.00  0.00    -0.199 N 
ATOM      6  H6  UNL     1      -4.447   7.619  46.613  1.00  0.00     0.183 HD
HETATM    7  C8  UNL     1      -3.306   8.488  45.175  1.00  0.00     0.146 A 
HETATM    8  C9  UNL     1      -3.145   8.713  43.833  1.00  0.00     0.162 A 
ENDROOT
BRANCH   1   9
HETATM    9  N3  UNL     1      -3.983   8.366  41.730  1.00  0.00    -0.346 N 
ATOM     10  H3  UNL     1      -4.675   9.014  41.353  1.00  0.00     0.163 HD
BRANCH   9  11
HETATM   11  C3  UNL     1      -3.102   7.850  40.760  1.00  0.00     0.287 C 
HETATM   12  N2  UNL     1      -2.222   8.931  40.314  1.00  0.00    -0.052 N 
HETATM   13  C2  UNL     1      -1.528   8.410  39.124  1.00  0.00     0.269 C 
ATOM     14  H22 UNL     1      -1.592   9.273  41.039  1.00  0.00     0.279 HD
ATOM     15  H21 UNL     1      -2.707   9.813  40.151  1.00  0.00     0.279 HD
HETATM   16  C1  UNL     1      -0.475   7.473  39.648  1.00  0.00     0.239 C 
HETATM   17  C11 UNL     1      -0.958   6.524  40.680  1.00  0.00     0.219 C 
HETATM   18  C10 UNL     1      -2.381   6.596  41.069  1.00  0.00     0.089 C 
BRANCH  16  19
HETATM   19  N1  UNL     1       0.572   8.334  40.217  1.00  0.00    -0.071 N 
ATOM     20  H13 UNL     1       1.458   7.852  40.371  1.00  0.00     0.274 HD
ATOM     21  H12 UNL     1       0.927   9.033  39.565  1.00  0.00     0.274 HD
ATOM     22  H11 UNL     1       0.170   8.732  41.065  1.00  0.00     0.274 HD
ENDBRANCH  16  19
BRANCH  17  23
HETATM   23  N8  UNL     1      -0.648   5.166  40.194  1.00  0.00    -0.073 N 
ATOM     24  H83 UNL     1       0.037   5.158  39.439  1.00  0.00     0.274 HD
ATOM     25  H82 UNL     1      -0.110   4.615  40.863  1.00  0.00     0.274 HD
ATOM     26  H81 UNL     1      -1.534   4.732  39.937  1.00  0.00     0.274 HD
ENDBRANCH  17  23
ENDBRANCH   9  11
ENDBRANCH   1   9
BRANCH   8  27
HETATM   27  N7  UNL     1      -2.037   9.476  43.336  1.00  0.00    -0.110 N 
HETATM   28  O4  UNL     1      -0.943   8.923  43.243  1.00  0.00    -0.532 OA
HETATM   29  O5  UNL     1      -2.223  10.768  42.987  1.00  0.00    -0.532 OA
ENDBRANCH   8  27
BRANCH   4  30
HETATM   30  N5  UNL     1      -6.280   6.561  45.220  1.00  0.00    -0.225 N 
ATOM     31  H5  UNL     1      -7.199   7.003  45.214  1.00  0.00     0.177 HD
BRANCH  30  32
HETATM   32  C6  UNL     1      -6.189   5.223  45.694  1.00  0.00     0.155 C 
BRANCH  32  33
HETATM   33  C7  UNL     1      -5.581   5.105  47.083  1.00  0.00     0.185 C 
BRANCH  33  34
HETATM   34  S1  UNL     1      -3.995   4.315  47.026  1.00  0.00     0.103 S 
HETATM   35  O1  UNL     1      -4.202   2.917  46.531  1.00  0.00    -0.595 OA
HETATM   36  O2  UNL     1      -3.124   5.035  46.044  1.00  0.00    -0.595 OA
HETATM   37  O3  UNL     1      -3.351   4.299  48.562  1.00  0.00    -0.595 OA
ENDBRANCH  33  34
ENDBRANCH  32  33
ENDBRANCH  30  32
ENDBRANCH   4  30
TORSDOF 9
ENDMDL
MODEL 5
REMARK VINA RESULT: -7.510143380      1.873      2.267
REMARK  9 active torsions:
REMARK  status: ('A' for Active; 'I' for Inactive)
REMARK    1  A    between atoms: N1_1  and  C1_5 
REMARK    2  A    between atoms: C3_10  and  N3_11 
REMARK    3  A    between atoms: N3_11  and  C4_13 
REMARK    4  A    between atoms: C5_16  and  N5_17 
REMARK    5  A    between atoms: N5_17  and  C6_19 
REMARK    6  A    between atoms: C6_19  and  C7_20 
REMARK    7  A    between atoms: C7_20  and  S1_21 
REMARK    8  A    between atoms: C9_28  and  N7_29 
REMARK    9  A    between atoms: C11_33  and  N8_34 
ROOT
HETATM    1  C4  UNL     1      -3.595   8.086  43.611  1.00  0.00     0.153 A 
HETATM    2  N4  UNL     1      -3.205   7.341  44.642  1.00  0.00    -0.174 N 
ATOM      3  H4  UNL     1      -2.205   7.193  44.777  1.00  0.00     0.186 HD
HETATM    4  C5  UNL     1      -4.066   6.765  45.529  1.00  0.00     0.679 A 
HETATM    5  N6  UNL     1      -5.365   6.994  45.303  1.00  0.00    -0.199 N 
ATOM      6  H6  UNL     1      -6.044   6.583  45.943  1.00  0.00     0.183 HD
HETATM    7  C8  UNL     1      -5.823   7.734  44.284  1.00  0.00     0.146 A 
HETATM    8  C9  UNL     1      -4.940   8.304  43.405  1.00  0.00     0.162 A 
ENDROOT
BRANCH   1   9
HETATM    9  N3  UNL     1      -2.742   8.586  42.830  1.00  0.00    -0.346 N 
ATOM     10  H3  UNL     1      -2.845   9.593  42.701  1.00  0.00     0.163 HD
BRANCH   9  11
HETATM   11  C3  UNL     1      -1.675   8.028  42.098  1.00  0.00     0.287 C 
HETATM   12  N2  UNL     1      -2.228   7.323  40.940  1.00  0.00    -0.052 N 
HETATM   13  C2  UNL     1      -1.110   6.542  40.384  1.00  0.00     0.269 C 
ATOM     14  H22 UNL     1      -2.675   7.939  40.262  1.00  0.00     0.279 HD
ATOM     15  H21 UNL     1      -3.051   6.763  41.157  1.00  0.00     0.279 HD
HETATM   16  C1  UNL     1      -0.251   7.531  39.648  1.00  0.00     0.239 C 
HETATM   17  C11 UNL     1       0.039   8.773  40.405  1.00  0.00     0.219 C 
HETATM   18  C10 UNL     1      -0.528   8.900  41.764  1.00  0.00     0.089 C 
BRANCH  16  19
HETATM   19  N1  UNL     1      -0.989   7.861  38.420  1.00  0.00    -0.071 N 
ATOM     20  H13 UNL     1      -0.526   7.546  37.567  1.00  0.00     0.274 HD
ATOM     21  H12 UNL     1      -1.845   7.320  38.299  1.00  0.00     0.274 HD
ATOM     22  H11 UNL     1      -1.143   8.868  38.454  1.00  0.00     0.274 HD
ENDBRANCH  16  19
BRANCH  17  23
HETATM   23  N8  UNL     1       1.507   8.904  40.470  1.00  0.00    -0.073 N 
ATOM     24  H83 UNL     1       1.916   8.440  41.280  1.00  0.00     0.274 HD
ATOM     25  H82 UNL     1       1.990   8.363  39.753  1.00  0.00     0.274 HD
ATOM     26  H81 UNL     1       1.718   9.901  40.429  1.00  0.00     0.274 HD
ENDBRANCH  17  23
ENDBRANCH   9  11
ENDBRANCH   1   9
BRANCH   8  27
HETATM   27  N7  UNL     1      -5.398   9.101  42.304  1.00  0.00    -0.110 N 
HETATM   28  O4  UNL     1      -5.049   8.784  41.169  1.00  0.00    -0.532 OA
HETATM   29  O5  UNL     1      -6.193  10.168  42.543  1.00  0.00    -0.532 OA
ENDBRANCH   8  27
BRANCH   4  30
HETATM   30  N5  UNL     1      -3.631   6.056  46.507  1.00  0.00    -0.225 N 
ATOM     31  H5  UNL     1      -3.289   6.544  47.335  1.00  0.00     0.177 HD
BRANCH  30  32
HETATM   32  C6  UNL     1      -3.597   4.635  46.509  1.00  0.00     0.155 C 
BRANCH  32  33
HETATM   33  C7  UNL     1      -4.505   4.002  47.552  1.00  0.00     0.185 C 
BRANCH  33  34
HETATM   34  S1  UNL     1      -6.212   4.171  47.107  1.00  0.00     0.103 S 
HETATM   35  O1  UNL     1      -6.672   5.517  47.578  1.00  0.00    -0.595 OA
HETATM   36  O2  UNL     1      -6.336   4.130  45.616  1.00  0.00    -0.595 OA
HETATM   37  O3  UNL     1      -7.082   2.965  47.857  1.00  0.00    -0.595 OA
ENDBRANCH  33  34
ENDBRANCH  32  33
ENDBRANCH  30  32
ENDBRANCH   4  30
TORSDOF 9
ENDMDL
