MODEL 1
REMARK VINA RESULT: -6.397694748      0.000      0.000
REMARK  4 active torsions:
REMARK  status: ('A' for Active; 'I' for Inactive)
REMARK    1  A    between atoms: C2_2  and  C3_3 
REMARK    2  A    between atoms: C3_3  and  C4_4 
REMARK    3  A    between atoms: C8_9  and  N1_10 
REMARK    4  A    between atoms: C11_13  and  N2_14 
ROOT
HETATM    1  C4  UNL     1      -3.815   2.832  14.586  1.00  0.00     0.046 C 
HETATM    2  C5  UNL     1      -3.188   4.180  14.901  1.00  0.00     0.174 C 
HETATM    3  O1  UNL     1      -1.936   4.283  14.282  1.00  0.00    -0.391 OA
HETATM    4  C6  UNL     1      -2.204   4.422  12.922  1.00  0.00     0.169 C 
HETATM    5  C7  UNL     1      -2.909   3.192  12.406  1.00  0.00     0.062 C 
HETATM    6  C8  UNL     1      -4.226   2.954  13.169  1.00  0.00     0.231 C 
ENDROOT
BRANCH   6   7
HETATM    7  N1  UNL     1      -4.905   1.930  12.507  1.00  0.00     0.095 N 
HETATM    8  C9  UNL     1      -5.056   1.959  11.105  1.00  0.00     0.275 C 
HETATM    9  C10 UNL     1      -4.975   0.526  10.573  1.00  0.00     0.065 C 
HETATM   10  C11 UNL     1      -4.339  -0.231  11.678  1.00  0.00     0.215 C 
HETATM   11  C13 UNL     1      -4.224   0.672  12.850  1.00  0.00     0.305 C 
BRANCH  10  12
HETATM   12  N2  UNL     1      -3.056  -0.735  11.238  1.00  0.00    -0.073 N 
HETATM   13  C12 UNL     1      -2.916  -2.151  11.381  1.00  0.00     0.267 C 
ATOM     14  H22 UNL     1      -2.867  -0.450  10.277  1.00  0.00     0.277 HD
ATOM     15  H21 UNL     1      -2.296  -0.248  11.713  1.00  0.00     0.277 HD
ENDBRANCH  10  12
ENDBRANCH   6   7
BRANCH   1  16
HETATM   16  C3  UNL     1      -4.784   2.530  15.627  1.00  0.00     0.035 C 
BRANCH  16  17
HETATM   17  C2  UNL     1      -5.946   3.456  15.556  1.00  0.00    -0.036 C 
HETATM   18  C1  UNL     1      -6.841   3.573  16.560  1.00  0.00     0.007 C 
ENDBRANCH  16  17
ENDBRANCH   1  16
TORSDOF 4
ENDMDL
MODEL 2
REMARK VINA RESULT: -5.992514796      2.594      4.263
REMARK  4 active torsions:
REMARK  status: ('A' for Active; 'I' for Inactive)
REMARK    1  A    between atoms: C2_2  and  C3_3 
REMARK    2  A    between atoms: C3_3  and  C4_4 
REMARK    3  A    between atoms: C8_9  and  N1_10 
REMARK    4  A    between atoms: C11_13  and  N2_14 
ROOT
HETATM    1  C4  UNL     1      -4.989   1.787  15.215  1.00  0.00     0.046 C 
HETATM    2  C5  UNL     1      -4.361   0.406  15.125  1.00  0.00     0.174 C 
HETATM    3  O1  UNL     1      -4.746  -0.218  13.932  1.00  0.00    -0.391 OA
HETATM    4  C6  UNL     1      -4.060   0.455  12.923  1.00  0.00     0.169 C 
HETATM    5  C7  UNL     1      -4.489   1.901  12.883  1.00  0.00     0.062 C 
HETATM    6  C8  UNL     1      -4.223   2.589  14.234  1.00  0.00     0.231 C 
ENDROOT
BRANCH   6   7
HETATM    7  N1  UNL     1      -4.457   3.954  14.054  1.00  0.00     0.095 N 
HETATM    8  C9  UNL     1      -3.645   4.912  14.696  1.00  0.00     0.275 C 
HETATM    9  C10 UNL     1      -3.471   6.112  13.761  1.00  0.00     0.065 C 
HETATM   10  C11 UNL     1      -3.850   5.586  12.427  1.00  0.00     0.215 C 
HETATM   11  C13 UNL     1      -4.385   4.213  12.607  1.00  0.00     0.305 C 
BRANCH  10  12
HETATM   12  N2  UNL     1      -2.698   5.621  11.553  1.00  0.00    -0.073 N 
HETATM   13  C12 UNL     1      -2.235   4.326  11.162  1.00  0.00     0.267 C 
ATOM     14  H22 UNL     1      -2.885   6.199  10.733  1.00  0.00     0.277 HD
ATOM     15  H21 UNL     1      -1.942   6.162  11.974  1.00  0.00     0.277 HD
ENDBRANCH  10  12
ENDBRANCH   6   7
BRANCH   1  16
HETATM   16  C3  UNL     1      -5.045   2.167  16.617  1.00  0.00     0.035 C 
BRANCH  16  17
HETATM   17  C2  UNL     1      -6.020   1.324  17.358  1.00  0.00    -0.036 C 
HETATM   18  C1  UNL     1      -7.321   1.242  17.006  1.00  0.00     0.007 C 
ENDBRANCH  16  17
ENDBRANCH   1  16
TORSDOF 4
ENDMDL
MODEL 3
REMARK VINA RESULT: -5.963267730      1.214      1.439
REMARK  4 active torsions:
REMARK  status: ('A' for Active; 'I' for Inactive)
REMARK    1  A    between atoms: C2_2  and  C3_3 
REMARK    2  A    between atoms: C3_3  and  C4_4 
REMARK    3  A    between atoms: C8_9  and  N1_10 
REMARK    4  A    between atoms: C11_13  and  N2_14 
ROOT
HETATM    1  C4  UNL     1      -5.022   3.660  14.538  1.00  0.00     0.046 C 
HETATM    2  C5  UNL     1      -4.593   5.112  14.678  1.00  0.00     0.174 C 
HETATM    3  O1  UNL     1      -3.195   5.200  14.676  1.00  0.00    -0.391 OA
HETATM    4  C6  UNL     1      -2.808   4.931  13.365  1.00  0.00     0.169 C 
HETATM    5  C7  UNL     1      -3.214   3.528  12.984  1.00  0.00     0.062 C 
HETATM    6  C8  UNL     1      -4.736   3.342  13.121  1.00  0.00     0.231 C 
ENDROOT
BRANCH   6   7
HETATM    7  N1  UNL     1      -5.049   2.099  12.566  1.00  0.00     0.095 N 
HETATM    8  C9  UNL     1      -5.269   1.967  11.179  1.00  0.00     0.275 C 
HETATM    9  C10 UNL     1      -4.721   0.612  10.723  1.00  0.00     0.065 C 
HETATM   10  C11 UNL     1      -3.809   0.206  11.819  1.00  0.00     0.215 C 
HETATM   11  C13 UNL     1      -3.957   1.181  12.929  1.00  0.00     0.305 C 
BRANCH  10  12
HETATM   12  N2  UNL     1      -2.454   0.141  11.316  1.00  0.00    -0.073 N 
HETATM   13  C12 UNL     1      -2.069   1.289  10.556  1.00  0.00     0.267 C 
ATOM     14  H22 UNL     1      -1.795  -0.024  12.077  1.00  0.00     0.277 HD
ATOM     15  H21 UNL     1      -2.310  -0.713  10.777  1.00  0.00     0.277 HD
ENDBRANCH  10  12
ENDBRANCH   6   7
BRANCH   1  16
HETATM   16  C3  UNL     1      -6.364   3.531  15.082  1.00  0.00     0.035 C 
BRANCH  16  17
HETATM   17  C2  UNL     1      -6.338   2.859  16.408  1.00  0.00    -0.036 C 
HETATM   18  C1  UNL     1      -7.100   1.779  16.687  1.00  0.00     0.007 C 
ENDBRANCH  16  17
ENDBRANCH   1  16
TORSDOF 4
ENDMDL
MODEL 4
REMARK VINA RESULT: -5.885307377      2.187      4.599
REMARK  4 active torsions:
REMARK  status: ('A' for Active; 'I' for Inactive)
REMARK    1  A    between atoms: C2_2  and  C3_3 
REMARK    2  A    between atoms: C3_3  and  C4_4 
REMARK    3  A    between atoms: C8_9  and  N1_10 
REMARK    4  A    between atoms: C11_13  and  N2_14 
ROOT
HETATM    1  C4  UNL     1      -4.535   2.329  12.151  1.00  0.00     0.046 C 
HETATM    2  C5  UNL     1      -3.711   2.474  10.881  1.00  0.00     0.174 C 
HETATM    3  O1  UNL     1      -4.177   3.560  10.130  1.00  0.00    -0.391 OA
HETATM    4  C6  UNL     1      -3.785   4.696  10.836  1.00  0.00     0.169 C 
HETATM    5  C7  UNL     1      -4.448   4.715  12.192  1.00  0.00     0.062 C 
HETATM    6  C8  UNL     1      -4.082   3.455  12.998  1.00  0.00     0.231 C 
ENDROOT
BRANCH   6   7
HETATM    7  N1  UNL     1      -4.565   3.643  14.295  1.00  0.00     0.095 N 
HETATM    8  C9  UNL     1      -5.940   3.505  14.575  1.00  0.00     0.275 C 
HETATM    9  C10 UNL     1      -6.097   2.888  15.968  1.00  0.00     0.065 C 
HETATM   10  C11 UNL     1      -4.767   2.295  16.249  1.00  0.00     0.215 C 
HETATM   11  C13 UNL     1      -3.841   2.701  15.162  1.00  0.00     0.305 C 
BRANCH  10  12
HETATM   12  N2  UNL     1      -4.897   0.859  16.360  1.00  0.00    -0.073 N 
HETATM   13  C12 UNL     1      -5.947   0.443  17.237  1.00  0.00     0.267 C 
ATOM     14  H22 UNL     1      -5.008   0.435  15.439  1.00  0.00     0.277 HD
ATOM     15  H21 UNL     1      -4.010   0.437  16.636  1.00  0.00     0.277 HD
ENDBRANCH  10  12
ENDBRANCH   6   7
BRANCH   1  16
HETATM   16  C3  UNL     1      -4.424   0.953  12.606  1.00  0.00     0.035 C 
BRANCH  16  17
HETATM   17  C2  UNL     1      -4.375   0.014  11.454  1.00  0.00    -0.036 C 
HETATM   18  C1  UNL     1      -3.698  -1.154  11.500  1.00  0.00     0.007 C 
ENDBRANCH  16  17
ENDBRANCH   1  16
TORSDOF 4
ENDMDL
MODEL 5
REMARK VINA RESULT: -5.840696702      2.332      5.212
REMARK  4 active torsions:
REMARK  status: ('A' for Active; 'I' for Inactive)
REMARK    1  A    between atoms: C2_2  and  C3_3 
REMARK    2  A    between atoms: C3_3  and  C4_4 
REMARK    3  A    between atoms: C8_9  and  N1_10 
REMARK    4  A    between atoms: C11_13  and  N2_14 
ROOT
HETATM    1  C4  UNL     1      -2.918   1.944  12.025  1.00  0.00     0.046 C 
HETATM    2  C5  UNL     1      -3.153   1.069  10.804  1.00  0.00     0.174 C 
HETATM    3  O1  UNL     1      -3.079  -0.283  11.163  1.00  0.00    -0.391 OA
HETATM    4  C6  UNL     1      -4.233  -0.535  11.900  1.00  0.00     0.169 C 
HETATM    5  C7  UNL     1      -4.240   0.307  13.153  1.00  0.00     0.062 C 
HETATM    6  C8  UNL     1      -4.168   1.805  12.806  1.00  0.00     0.231 C 
ENDROOT
BRANCH   6   7
HETATM    7  N1  UNL     1      -4.379   2.511  13.992  1.00  0.00     0.095 N 
HETATM    8  C9  UNL     1      -5.607   3.164  14.230  1.00  0.00     0.275 C 
HETATM    9  C10 UNL     1      -5.936   3.060  15.721  1.00  0.00     0.065 C 
HETATM   10  C11 UNL     1      -5.070   1.958  16.205  1.00  0.00     0.215 C 
HETATM   11  C13 UNL     1      -4.161   1.566  15.098  1.00  0.00     0.305 C 
BRANCH  10  12
HETATM   12  N2  UNL     1      -5.898   0.861  16.656  1.00  0.00    -0.073 N 
HETATM   13  C12 UNL     1      -7.241   1.244  16.962  1.00  0.00     0.267 C 
ATOM     14  H22 UNL     1      -5.886   0.098  15.979  1.00  0.00     0.277 HD
ATOM     15  H21 UNL     1      -5.468   0.389  17.452  1.00  0.00     0.277 HD
ENDBRANCH  10  12
ENDBRANCH   6   7
BRANCH   1  16
HETATM   16  C3  UNL     1      -2.458   3.245  11.567  1.00  0.00     0.035 C 
BRANCH  16  17
HETATM   17  C2  UNL     1      -1.282   3.107  10.668  1.00  0.00    -0.036 C 
HETATM   18  C1  UNL     1      -0.046   3.519  11.024  1.00  0.00     0.007 C 
ENDBRANCH  16  17
ENDBRANCH   1  16
TORSDOF 4
ENDMDL
