MODEL 1
REMARK VINA RESULT: -7.501097809      0.000      0.000
REMARK  9 active torsions:
REMARK  status: ('A' for Active; 'I' for Inactive)
REMARK    1  A    between atoms: C2_2  and  C3_3 
REMARK    2  A    between atoms: C3_3  and  C5_5 
REMARK    3  A    between atoms: C5_5  and  O1_6 
REMARK    4  A    between atoms: C5_5  and  N1_8 
REMARK    5  A    between atoms: C8_11  and  C9_12 
REMARK    6  A    between atoms: N4_17  and  C10_18 
REMARK    7  A    between atoms: C10_18  and  C11_19 
REMARK    8  A    between atoms: C11_19  and  C12_20 
REMARK    9  A    between atoms: C17_25  and  C18_26 
ROOT
HETATM    1  C9  UNL     1      70.183  40.178  -0.494  1.00  0.00     0.117 A 
HETATM    2  N2  UNL     1      71.213  40.900  -0.903  1.00  0.00    -0.272 N 
ATOM      3  H2  UNL     1      71.259  41.475  -1.744  1.00  0.00     0.190 HD
HETATM    4  N3  UNL     1      72.193  40.729   0.012  1.00  0.00    -0.225 N 
ATOM      5  H3  UNL     1      73.115  41.166  -0.033  1.00  0.00     0.210 HD
HETATM    6  N4  UNL     1      71.805  39.944   0.945  1.00  0.00    -0.218 N 
HETATM    7  N5  UNL     1      70.548  39.579   0.663  1.00  0.00    -0.270 N 
ATOM      8  H5  UNL     1      69.966  38.957   1.225  1.00  0.00     0.190 HD
ENDROOT
BRANCH   1   9
HETATM    9  C8  UNL     1      68.853  40.014  -1.174  1.00  0.00     0.059 C 
HETATM   10  C7  UNL     1      68.627  38.607  -1.556  1.00  0.00     0.032 C 
HETATM   11  C6  UNL     1      67.481  37.927  -0.959  1.00  0.00     0.125 C 
HETATM   12  N1  UNL     1      66.279  38.764  -0.712  1.00  0.00    -0.362 N 
HETATM   13  C21 UNL     1      66.406  40.183  -0.910  1.00  0.00     0.125 C 
HETATM   14  C20 UNL     1      67.780  40.549  -0.290  1.00  0.00     0.032 C 
BRANCH  12  15
HETATM   15  C5  UNL     1      65.180  38.107  -0.195  1.00  0.00     0.143 C 
BRANCH  15  16
HETATM   16  C3  UNL     1      65.029  36.893   0.494  1.00  0.00    -0.015 C 
HETATM   17  C4  UNL     1      63.637  36.533   1.073  1.00  0.00     0.052 C 
BRANCH  16  18
HETATM   18  C2  UNL     1      65.929  35.951   0.680  1.00  0.00    -0.020 C 
HETATM   19  C1  UNL     1      65.915  35.140   1.944  1.00  0.00     0.036 C 
ENDBRANCH  16  18
ENDBRANCH  15  16
BRANCH  15  20
HETATM   20  O1  UNL     1      64.048  38.760  -0.407  1.00  0.00    -0.346 OA
ATOM     21  H1  UNL     1      64.085  39.389  -1.118  1.00  0.00     0.219 HD
ENDBRANCH  15  20
ENDBRANCH  12  15
ENDBRANCH   1   9
BRANCH   6  22
HETATM   22  C10 UNL     1      72.526  39.431   2.121  1.00  0.00     0.171 C 
BRANCH  22  23
HETATM   23  C11 UNL     1      73.544  38.438   1.590  1.00  0.00     0.028 C 
BRANCH  23  24
HETATM   24  C12 UNL     1      73.347  37.032   2.031  1.00  0.00    -0.009 C 
HETATM   25  C13 UNL     1      74.580  36.206   1.949  1.00  0.00     0.005 C 
HETATM   26  C14 UNL     1      74.372  34.750   2.164  1.00  0.00     0.000 C 
HETATM   27  C15 UNL     1      72.976  34.269   2.222  1.00  0.00     0.000 C 
HETATM   28  C16 UNL     1      71.914  35.105   1.626  1.00  0.00     0.005 C 
HETATM   29  C17 UNL     1      72.340  36.424   1.046  1.00  0.00    -0.011 C 
BRANCH  29  30
HETATM   30  C18 UNL     1      72.923  36.223  -0.319  1.00  0.00     0.000 C 
HETATM   31  C19 UNL     1      72.032  36.963  -1.321  1.00  0.00     0.005 C 
ENDBRANCH  29  30
ENDBRANCH  23  24
ENDBRANCH  22  23
ENDBRANCH   6  22
TORSDOF 9
ENDMDL
MODEL 2
REMARK VINA RESULT: -7.476612062      0.963      1.970
REMARK  9 active torsions:
REMARK  status: ('A' for Active; 'I' for Inactive)
REMARK    1  A    between atoms: C2_2  and  C3_3 
REMARK    2  A    between atoms: C3_3  and  C5_5 
REMARK    3  A    between atoms: C5_5  and  O1_6 
REMARK    4  A    between atoms: C5_5  and  N1_8 
REMARK    5  A    between atoms: C8_11  and  C9_12 
REMARK    6  A    between atoms: N4_17  and  C10_18 
REMARK    7  A    between atoms: C10_18  and  C11_19 
REMARK    8  A    between atoms: C11_19  and  C12_20 
REMARK    9  A    between atoms: C17_25  and  C18_26 
ROOT
HETATM    1  C9  UNL     1      70.154  40.020  -0.430  1.00  0.00     0.117 A 
HETATM    2  N2  UNL     1      71.116  40.874  -0.740  1.00  0.00    -0.272 N 
ATOM      3  H2  UNL     1      71.108  41.551  -1.503  1.00  0.00     0.190 HD
HETATM    4  N3  UNL     1      72.111  40.676   0.153  1.00  0.00    -0.225 N 
ATOM      5  H3  UNL     1      72.991  41.192   0.168  1.00  0.00     0.210 HD
HETATM    6  N4  UNL     1      71.796  39.750   0.979  1.00  0.00    -0.218 N 
HETATM    7  N5  UNL     1      70.574  39.316   0.646  1.00  0.00    -0.270 N 
ATOM      8  H5  UNL     1      70.050  38.582   1.123  1.00  0.00     0.190 HD
ENDROOT
BRANCH   1   9
HETATM    9  C8  UNL     1      68.839  39.828  -1.134  1.00  0.00     0.059 C 
HETATM   10  C7  UNL     1      68.611  38.403  -1.441  1.00  0.00     0.032 C 
HETATM   11  C6  UNL     1      67.444  37.767  -0.837  1.00  0.00     0.125 C 
HETATM   12  N1  UNL     1      66.243  38.626  -0.668  1.00  0.00    -0.362 N 
HETATM   13  C21 UNL     1      66.388  40.030  -0.942  1.00  0.00     0.125 C 
HETATM   14  C20 UNL     1      67.750  40.420  -0.309  1.00  0.00     0.032 C 
BRANCH  12  15
HETATM   15  C5  UNL     1      65.127  38.007  -0.142  1.00  0.00     0.143 C 
BRANCH  15  16
HETATM   16  C3  UNL     1      64.938  36.799   0.548  1.00  0.00    -0.015 C 
HETATM   17  C4  UNL     1      63.544  36.495   1.151  1.00  0.00     0.052 C 
BRANCH  16  18
HETATM   18  C2  UNL     1      65.802  35.821   0.717  1.00  0.00    -0.020 C 
HETATM   19  C1  UNL     1      66.172  35.380   2.104  1.00  0.00     0.036 C 
ENDBRANCH  16  18
ENDBRANCH  15  16
BRANCH  15  20
HETATM   20  O1  UNL     1      64.016  38.699  -0.347  1.00  0.00    -0.346 OA
ATOM     21  H1  UNL     1      64.023  39.227  -1.136  1.00  0.00     0.219 HD
ENDBRANCH  15  20
ENDBRANCH  12  15
ENDBRANCH   1   9
BRANCH   6  22
HETATM   22  C10 UNL     1      72.564  39.160   2.087  1.00  0.00     0.171 C 
BRANCH  22  23
HETATM   23  C11 UNL     1      71.875  37.849   2.423  1.00  0.00     0.028 C 
BRANCH  23  24
HETATM   24  C12 UNL     1      72.625  36.623   2.041  1.00  0.00    -0.009 C 
HETATM   25  C13 UNL     1      71.879  35.365   2.304  1.00  0.00     0.005 C 
HETATM   26  C14 UNL     1      72.677  34.121   2.148  1.00  0.00     0.000 C 
HETATM   27  C15 UNL     1      74.135  34.274   1.964  1.00  0.00     0.000 C 
HETATM   28  C16 UNL     1      74.775  35.535   2.392  1.00  0.00     0.005 C 
HETATM   29  C17 UNL     1      73.867  36.598   2.941  1.00  0.00    -0.011 C 
BRANCH  29  30
HETATM   30  C18 UNL     1      73.533  36.303   4.371  1.00  0.00     0.000 C 
HETATM   31  C19 UNL     1      74.527  37.066   5.250  1.00  0.00     0.005 C 
ENDBRANCH  29  30
ENDBRANCH  23  24
ENDBRANCH  22  23
ENDBRANCH   6  22
TORSDOF 9
ENDMDL
MODEL 3
REMARK VINA RESULT: -7.359692714      1.317      1.845
REMARK  9 active torsions:
REMARK  status: ('A' for Active; 'I' for Inactive)
REMARK    1  A    between atoms: C2_2  and  C3_3 
REMARK    2  A    between atoms: C3_3  and  C5_5 
REMARK    3  A    between atoms: C5_5  and  O1_6 
REMARK    4  A    between atoms: C5_5  and  N1_8 
REMARK    5  A    between atoms: C8_11  and  C9_12 
REMARK    6  A    between atoms: N4_17  and  C10_18 
REMARK    7  A    between atoms: C10_18  and  C11_19 
REMARK    8  A    between atoms: C11_19  and  C12_20 
REMARK    9  A    between atoms: C17_25  and  C18_26 
ROOT
HETATM    1  C9  UNL     1      68.938  40.239  -0.896  1.00  0.00     0.117 A 
HETATM    2  N2  UNL     1      69.412  41.451  -1.136  1.00  0.00    -0.272 N 
ATOM      3  H2  UNL     1      68.969  42.179  -1.696  1.00  0.00     0.190 HD
HETATM    4  N3  UNL     1      70.598  41.536  -0.494  1.00  0.00    -0.225 N 
ATOM      5  H3  UNL     1      71.202  42.358  -0.495  1.00  0.00     0.210 HD
HETATM    6  N4  UNL     1      70.859  40.441   0.116  1.00  0.00    -0.218 N 
HETATM    7  N5  UNL     1      69.839  39.604  -0.111  1.00  0.00    -0.270 N 
ATOM      8  H5  UNL     1      69.756  38.653   0.247  1.00  0.00     0.190 HD
ENDROOT
BRANCH   1   9
HETATM    9  C8  UNL     1      67.654  39.642  -1.403  1.00  0.00     0.059 C 
HETATM   10  C7  UNL     1      67.786  38.182  -1.573  1.00  0.00     0.032 C 
HETATM   11  C6  UNL     1      66.906  37.333  -0.774  1.00  0.00     0.125 C 
HETATM   12  N1  UNL     1      65.545  37.866  -0.509  1.00  0.00    -0.362 N 
HETATM   13  C21 UNL     1      65.275  39.224  -0.901  1.00  0.00     0.125 C 
HETATM   14  C20 UNL     1      66.543  40.016  -0.485  1.00  0.00     0.032 C 
BRANCH  12  15
HETATM   15  C5  UNL     1      64.700  37.039   0.204  1.00  0.00     0.143 C 
BRANCH  15  16
HETATM   16  C3  UNL     1      64.829  36.367   1.430  1.00  0.00    -0.015 C 
HETATM   17  C4  UNL     1      64.223  37.012   2.701  1.00  0.00     0.052 C 
BRANCH  16  18
HETATM   18  C2  UNL     1      65.369  35.187   1.652  1.00  0.00    -0.020 C 
HETATM   19  C1  UNL     1      66.752  35.094   2.230  1.00  0.00     0.036 C 
ENDBRANCH  16  18
ENDBRANCH  15  16
BRANCH  15  20
HETATM   20  O1  UNL     1      63.543  36.842  -0.409  1.00  0.00    -0.346 OA
ATOM     21  H1  UNL     1      63.357  37.460  -1.105  1.00  0.00     0.219 HD
ENDBRANCH  15  20
ENDBRANCH  12  15
ENDBRANCH   1   9
BRANCH   6  22
HETATM   22  C10 UNL     1      72.038  40.046   0.903  1.00  0.00     0.171 C 
BRANCH  22  23
HETATM   23  C11 UNL     1      71.578  38.917   1.808  1.00  0.00     0.028 C 
BRANCH  23  24
HETATM   24  C12 UNL     1      72.661  38.226   2.558  1.00  0.00    -0.009 C 
HETATM   25  C13 UNL     1      73.932  38.115   1.795  1.00  0.00     0.005 C 
HETATM   26  C14 UNL     1      74.959  37.239   2.417  1.00  0.00     0.000 C 
HETATM   27  C15 UNL     1      74.541  36.429   3.580  1.00  0.00     0.000 C 
HETATM   28  C16 UNL     1      73.100  36.165   3.777  1.00  0.00     0.005 C 
HETATM   29  C17 UNL     1      72.158  36.795   2.792  1.00  0.00    -0.011 C 
BRANCH  29  30
HETATM   30  C18 UNL     1      72.115  35.990   1.530  1.00  0.00     0.000 C 
HETATM   31  C19 UNL     1      71.873  34.529   1.917  1.00  0.00     0.005 C 
ENDBRANCH  29  30
ENDBRANCH  23  24
ENDBRANCH  22  23
ENDBRANCH   6  22
TORSDOF 9
ENDMDL
MODEL 4
REMARK VINA RESULT: -7.283605254      0.672      1.716
REMARK  9 active torsions:
REMARK  status: ('A' for Active; 'I' for Inactive)
REMARK    1  A    between atoms: C2_2  and  C3_3 
REMARK    2  A    between atoms: C3_3  and  C5_5 
REMARK    3  A    between atoms: C5_5  and  O1_6 
REMARK    4  A    between atoms: C5_5  and  N1_8 
REMARK    5  A    between atoms: C8_11  and  C9_12 
REMARK    6  A    between atoms: N4_17  and  C10_18 
REMARK    7  A    between atoms: C10_18  and  C11_19 
REMARK    8  A    between atoms: C11_19  and  C12_20 
REMARK    9  A    between atoms: C17_25  and  C18_26 
ROOT
HETATM    1  C9  UNL     1      70.147  40.289  -0.467  1.00  0.00     0.117 A 
HETATM    2  N2  UNL     1      71.149  41.077  -0.823  1.00  0.00    -0.272 N 
ATOM      3  H2  UNL     1      71.164  41.724  -1.611  1.00  0.00     0.190 HD
HETATM    4  N3  UNL     1      72.147  40.857   0.062  1.00  0.00    -0.225 N 
ATOM      5  H3  UNL     1      73.054  41.324   0.043  1.00  0.00     0.210 HD
HETATM    6  N4  UNL     1      71.797  39.981   0.926  1.00  0.00    -0.218 N 
HETATM    7  N5  UNL     1      70.547  39.603   0.629  1.00  0.00    -0.270 N 
ATOM      8  H5  UNL     1      69.993  38.916   1.141  1.00  0.00     0.190 HD
ENDROOT
BRANCH   1   9
HETATM    9  C8  UNL     1      68.812  40.144  -1.142  1.00  0.00     0.059 C 
HETATM   10  C7  UNL     1      68.592  38.751  -1.577  1.00  0.00     0.032 C 
HETATM   11  C6  UNL     1      67.455  38.041  -0.999  1.00  0.00     0.125 C 
HETATM   12  N1  UNL     1      66.249  38.860  -0.709  1.00  0.00    -0.362 N 
HETATM   13  C21 UNL     1      66.366  40.287  -0.852  1.00  0.00     0.125 C 
HETATM   14  C20 UNL     1      67.744  40.637  -0.229  1.00  0.00     0.032 C 
BRANCH  12  15
HETATM   15  C5  UNL     1      65.159  38.177  -0.210  1.00  0.00     0.143 C 
BRANCH  15  16
HETATM   16  C3  UNL     1      65.024  36.950   0.459  1.00  0.00    -0.015 C 
HETATM   17  C4  UNL     1      63.632  36.550   1.011  1.00  0.00     0.052 C 
BRANCH  16  18
HETATM   18  C2  UNL     1      65.942  36.024   0.644  1.00  0.00    -0.020 C 
HETATM   19  C1  UNL     1      65.915  35.181   1.886  1.00  0.00     0.036 C 
ENDBRANCH  16  18
ENDBRANCH  15  16
BRANCH  15  20
HETATM   20  O1  UNL     1      64.018  38.814  -0.418  1.00  0.00    -0.346 OA
ATOM     21  H1  UNL     1      64.086  39.761  -0.389  1.00  0.00     0.219 HD
ENDBRANCH  15  20
ENDBRANCH  12  15
ENDBRANCH   1   9
BRANCH   6  22
HETATM   22  C10 UNL     1      72.550  39.390   2.044  1.00  0.00     0.171 C 
BRANCH  22  23
HETATM   23  C11 UNL     1      72.321  37.891   1.959  1.00  0.00     0.028 C 
BRANCH  23  24
HETATM   24  C12 UNL     1      73.189  37.172   0.990  1.00  0.00    -0.009 C 
HETATM   25  C13 UNL     1      72.494  36.807  -0.272  1.00  0.00     0.005 C 
HETATM   26  C14 UNL     1      73.257  35.896  -1.165  1.00  0.00     0.000 C 
HETATM   27  C15 UNL     1      74.495  35.299  -0.622  1.00  0.00     0.000 C 
HETATM   28  C16 UNL     1      74.670  35.244   0.845  1.00  0.00     0.005 C 
HETATM   29  C17 UNL     1      73.580  35.857   1.677  1.00  0.00    -0.011 C 
BRANCH  29  30
HETATM   30  C18 UNL     1      72.427  34.909   1.797  1.00  0.00     0.000 C 
HETATM   31  C19 UNL     1      72.994  33.521   2.109  1.00  0.00     0.005 C 
ENDBRANCH  29  30
ENDBRANCH  23  24
ENDBRANCH  22  23
ENDBRANCH   6  22
TORSDOF 9
ENDMDL
MODEL 5
REMARK VINA RESULT: -7.259908501      1.087      1.997
REMARK  9 active torsions:
REMARK  status: ('A' for Active; 'I' for Inactive)
REMARK    1  A    between atoms: C2_2  and  C3_3 
REMARK    2  A    between atoms: C3_3  and  C5_5 
REMARK    3  A    between atoms: C5_5  and  O1_6 
REMARK    4  A    between atoms: C5_5  and  N1_8 
REMARK    5  A    between atoms: C8_11  and  C9_12 
REMARK    6  A    between atoms: N4_17  and  C10_18 
REMARK    7  A    between atoms: C10_18  and  C11_19 
REMARK    8  A    between atoms: C11_19  and  C12_20 
REMARK    9  A    between atoms: C17_25  and  C18_26 
ROOT
HETATM    1  C9  UNL     1      69.009  40.139  -0.811  1.00  0.00     0.117 A 
HETATM    2  N2  UNL     1      69.623  41.253  -1.172  1.00  0.00    -0.272 N 
ATOM      3  H2  UNL     1      69.301  41.931  -1.864  1.00  0.00     0.190 HD
HETATM    4  N3  UNL     1      70.762  41.320  -0.446  1.00  0.00    -0.225 N 
ATOM      5  H3  UNL     1      71.447  42.073  -0.507  1.00  0.00     0.210 HD
HETATM    6  N4  UNL     1      70.860  40.307   0.328  1.00  0.00    -0.218 N 
HETATM    7  N5  UNL     1      69.778  39.544   0.130  1.00  0.00    -0.270 N 
ATOM      8  H5  UNL     1      69.569  38.667   0.607  1.00  0.00     0.190 HD
ENDROOT
BRANCH   1   9
HETATM    9  C8  UNL     1      67.711  39.597  -1.341  1.00  0.00     0.059 C 
HETATM   10  C7  UNL     1      67.798  38.139  -1.554  1.00  0.00     0.032 C 
HETATM   11  C6  UNL     1      66.888  37.295  -0.785  1.00  0.00     0.125 C 
HETATM   12  N1  UNL     1      65.542  37.861  -0.511  1.00  0.00    -0.362 N 
HETATM   13  C21 UNL     1      65.317  39.238  -0.864  1.00  0.00     0.125 C 
HETATM   14  C20 UNL     1      66.606  39.978  -0.418  1.00  0.00     0.032 C 
BRANCH  12  15
HETATM   15  C5  UNL     1      64.668  37.040   0.173  1.00  0.00     0.143 C 
BRANCH  15  16
HETATM   16  C3  UNL     1      64.759  36.353   1.393  1.00  0.00    -0.015 C 
HETATM   17  C4  UNL     1      64.099  36.975   2.650  1.00  0.00     0.052 C 
BRANCH  16  18
HETATM   18  C2  UNL     1      65.302  35.175   1.620  1.00  0.00    -0.020 C 
HETATM   19  C1  UNL     1      66.672  35.087   2.228  1.00  0.00     0.036 C 
ENDBRANCH  16  18
ENDBRANCH  15  16
BRANCH  15  20
HETATM   20  O1  UNL     1      63.522  36.869  -0.468  1.00  0.00    -0.346 OA
ATOM     21  H1  UNL     1      63.136  36.008  -0.358  1.00  0.00     0.219 HD
ENDBRANCH  15  20
ENDBRANCH  12  15
ENDBRANCH   1   9
BRANCH   6  22
HETATM   22  C10 UNL     1      71.930  39.922   1.263  1.00  0.00     0.171 C 
BRANCH  22  23
HETATM   23  C11 UNL     1      71.802  38.420   1.452  1.00  0.00     0.028 C 
BRANCH  23  24
HETATM   24  C12 UNL     1      72.785  37.601   0.695  1.00  0.00    -0.009 C 
HETATM   25  C13 UNL     1      72.249  37.064  -0.583  1.00  0.00     0.005 C 
HETATM   26  C14 UNL     1      73.119  36.062  -1.253  1.00  0.00     0.000 C 
HETATM   27  C15 UNL     1      74.285  35.565  -0.493  1.00  0.00     0.000 C 
HETATM   28  C16 UNL     1      74.283  35.702   0.978  1.00  0.00     0.005 C 
HETATM   29  C17 UNL     1      73.097  36.394   1.588  1.00  0.00    -0.011 C 
BRANCH  29  30
HETATM   30  C18 UNL     1      71.942  35.445   1.692  1.00  0.00     0.000 C 
HETATM   31  C19 UNL     1      72.498  34.074   2.088  1.00  0.00     0.005 C 
ENDBRANCH  29  30
ENDBRANCH  23  24
ENDBRANCH  22  23
ENDBRANCH   6  22
TORSDOF 9
ENDMDL
