MODEL 1
REMARK VINA RESULT: -8.227920054      0.000      0.000
REMARK  10 active torsions:
REMARK  status: ('A' for Active; 'I' for Inactive)
REMARK    1  A    between atoms: C2_2  and  C5_5 
REMARK    2  A    between atoms: C5_5  and  N1_6 
REMARK    3  A    between atoms: C5_5  and  C12_16 
REMARK       I    between atoms: N1_6  and  C6_8 
REMARK    4  A    between atoms: C6_8  and  O2_10 
REMARK    5  A    between atoms: O2_10  and  C7_11 
REMARK       I    between atoms: C12_16  and  N2_18 
REMARK       I    between atoms: N2_18  and  C13_20 
REMARK    6  A    between atoms: C13_20  and  C14_22 
REMARK    7  A    between atoms: C14_22  and  C15_23 
REMARK    8  A    between atoms: C14_22  and  N3_28 
REMARK    9  A    between atoms: C15_23  and  C16_24 
REMARK   10  A    between atoms: C16_24  and  C17_25 
ROOT
HETATM    1  C12 UNL     1     -25.242  -7.454  14.981  1.00  0.00     0.247 C 
HETATM    2  O3  UNL     1     -24.728  -7.201  16.145  1.00  0.00    -0.271 OA
HETATM    3  N2  UNL     1     -26.450  -6.795  14.697  1.00  0.00    -0.294 N 
ATOM      4  H2  UNL     1     -26.905  -6.940  13.795  1.00  0.00     0.171 HD
HETATM    5  C13 UNL     1     -27.047  -5.928  15.654  1.00  0.00     0.258 C 
HETATM    6  O4  UNL     1     -26.395  -5.658  16.713  1.00  0.00    -0.271 OA
ENDROOT
BRANCH   1   7
HETATM    7  C5  UNL     1     -24.489  -8.393  14.147  1.00  0.00     0.186 C 
BRANCH   7   8
HETATM    8  C2  UNL     1     -25.024  -9.759  13.951  1.00  0.00    -0.022 C 
HETATM    9  C1  UNL     1     -26.426  -9.981  14.386  1.00  0.00     0.017 C 
HETATM   10  C3  UNL     1     -24.165 -10.645  14.918  1.00  0.00     0.017 C 
HETATM   11  C4  UNL     1     -24.730 -10.240  12.573  1.00  0.00     0.017 C 
ENDBRANCH   7   8
BRANCH   7  12
HETATM   12  N1  UNL     1     -23.074  -8.374  14.535  1.00  0.00    -0.323 N 
HETATM   13  C6  UNL     1     -22.021  -7.872  13.732  1.00  0.00     0.361 C 
HETATM   14  O1  UNL     1     -22.275  -7.416  12.606  1.00  0.00    -0.238 OA
ATOM     15  H1  UNL     1     -22.831  -8.751  15.450  1.00  0.00     0.165 HD
BRANCH  13  16
HETATM   16  O2  UNL     1     -20.720  -7.897  14.213  1.00  0.00    -0.299 OA
BRANCH  16  17
HETATM   17  C7  UNL     1     -19.647  -7.268  13.560  1.00  0.00     0.133 C 
HETATM   18  C8  UNL     1     -18.519  -8.233  13.318  1.00  0.00     0.032 C 
HETATM   19  C9  UNL     1     -17.301  -7.360  13.214  1.00  0.00     0.002 C 
HETATM   20  C10 UNL     1     -17.681  -6.015  13.765  1.00  0.00     0.002 C 
HETATM   21  C11 UNL     1     -19.018  -6.204  14.437  1.00  0.00     0.032 C 
ENDBRANCH  16  17
ENDBRANCH  13  16
ENDBRANCH   7  12
ENDBRANCH   1   7
BRANCH   5  22
HETATM   22  C14 UNL     1     -28.389  -5.386  15.386  1.00  0.00     0.315 C 
BRANCH  22  23
HETATM   23  C15 UNL     1     -28.703  -4.276  16.351  1.00  0.00     0.056 C 
BRANCH  23  24
HETATM   24  C16 UNL     1     -28.144  -2.955  15.873  1.00  0.00     0.116 C 
BRANCH  24  25
HETATM   25  C17 UNL     1     -29.171  -2.244  15.071  1.00  0.00     0.172 C 
HETATM   26  O5  UNL     1     -30.131  -1.618  15.622  1.00  0.00    -0.648 OA
HETATM   27  O6  UNL     1     -29.090  -2.261  13.690  1.00  0.00    -0.648 OA
ENDBRANCH  24  25
ENDBRANCH  23  24
ENDBRANCH  22  23
BRANCH  22  28
HETATM   28  N3  UNL     1     -29.456  -6.331  15.340  1.00  0.00     0.103 N 
HETATM   29  C18 UNL     1     -30.732  -5.622  15.046  1.00  0.00     0.284 C 
HETATM   30  C19 UNL     1     -31.158  -6.740  14.152  1.00  0.00     0.013 C 
HETATM   31  C20 UNL     1     -31.755  -6.316  12.825  1.00  0.00     0.013 C 
HETATM   32  C23 UNL     1     -31.975  -7.848  14.689  1.00  0.00     0.013 C 
HETATM   33  C24 UNL     1     -29.655  -6.961  14.032  1.00  0.00     0.284 C 
HETATM   34  C21 UNL     1     -32.232  -7.654  12.281  1.00  0.00     0.001 C 
HETATM   35  C22 UNL     1     -32.904  -8.226  13.525  1.00  0.00     0.001 C 
ENDBRANCH  22  28
ENDBRANCH   5  22
TORSDOF 10
ENDMDL
MODEL 2
REMARK VINA RESULT: -8.101631720      1.293      1.829
REMARK  10 active torsions:
REMARK  status: ('A' for Active; 'I' for Inactive)
REMARK    1  A    between atoms: C2_2  and  C5_5 
REMARK    2  A    between atoms: C5_5  and  N1_6 
REMARK    3  A    between atoms: C5_5  and  C12_16 
REMARK       I    between atoms: N1_6  and  C6_8 
REMARK    4  A    between atoms: C6_8  and  O2_10 
REMARK    5  A    between atoms: O2_10  and  C7_11 
REMARK       I    between atoms: C12_16  and  N2_18 
REMARK       I    between atoms: N2_18  and  C13_20 
REMARK    6  A    between atoms: C13_20  and  C14_22 
REMARK    7  A    between atoms: C14_22  and  C15_23 
REMARK    8  A    between atoms: C14_22  and  N3_28 
REMARK    9  A    between atoms: C15_23  and  C16_24 
REMARK   10  A    between atoms: C16_24  and  C17_25 
ROOT
HETATM    1  C12 UNL     1     -24.969  -6.658  15.624  1.00  0.00     0.247 C 
HETATM    2  O3  UNL     1     -24.580  -5.888  16.593  1.00  0.00    -0.271 OA
HETATM    3  N2  UNL     1     -26.258  -6.401  15.128  1.00  0.00    -0.294 N 
ATOM      4  H2  UNL     1     -26.624  -6.962  14.358  1.00  0.00     0.171 HD
HETATM    5  C13 UNL     1     -27.059  -5.366  15.686  1.00  0.00     0.258 C 
HETATM    6  O4  UNL     1     -26.532  -4.595  16.550  1.00  0.00    -0.271 OA
ENDROOT
BRANCH   1   7
HETATM    7  C5  UNL     1     -24.009  -7.680  15.204  1.00  0.00     0.186 C 
BRANCH   7   8
HETATM    8  C2  UNL     1     -23.903  -8.926  15.997  1.00  0.00    -0.022 C 
HETATM    9  C1  UNL     1     -22.625  -9.134  16.722  1.00  0.00     0.017 C 
HETATM   10  C3  UNL     1     -23.935 -10.064  14.918  1.00  0.00     0.017 C 
HETATM   11  C4  UNL     1     -25.117  -9.114  16.837  1.00  0.00     0.017 C 
ENDBRANCH   7   8
BRANCH   7  12
HETATM   12  N1  UNL     1     -22.711  -7.056  14.927  1.00  0.00    -0.323 N 
HETATM   13  C6  UNL     1     -22.046  -7.090  13.677  1.00  0.00     0.361 C 
HETATM   14  O1  UNL     1     -22.566  -7.692  12.724  1.00  0.00    -0.238 OA
ATOM     15  H1  UNL     1     -22.253  -6.562  15.692  1.00  0.00     0.165 HD
BRANCH  13  16
HETATM   16  O2  UNL     1     -20.824  -6.450  13.533  1.00  0.00    -0.299 OA
BRANCH  16  17
HETATM   17  C7  UNL     1     -19.617  -6.982  14.017  1.00  0.00     0.133 C 
HETATM   18  C8  UNL     1     -18.530  -5.941  14.025  1.00  0.00     0.032 C 
HETATM   19  C9  UNL     1     -17.257  -6.735  13.954  1.00  0.00     0.002 C 
HETATM   20  C10 UNL     1     -17.634  -8.126  13.528  1.00  0.00     0.002 C 
HETATM   21  C11 UNL     1     -19.074  -8.049  13.087  1.00  0.00     0.032 C 
ENDBRANCH  16  17
ENDBRANCH  13  16
ENDBRANCH   7  12
ENDBRANCH   1   7
BRANCH   5  22
HETATM   22  C14 UNL     1     -28.459  -5.234  15.252  1.00  0.00     0.315 C 
BRANCH  22  23
HETATM   23  C15 UNL     1     -29.367  -5.143  16.447  1.00  0.00     0.056 C 
BRANCH  23  24
HETATM   24  C16 UNL     1     -29.616  -3.705  16.842  1.00  0.00     0.116 C 
BRANCH  24  25
HETATM   25  C17 UNL     1     -30.478  -3.053  15.824  1.00  0.00     0.172 C 
HETATM   26  O5  UNL     1     -31.622  -3.519  15.523  1.00  0.00    -0.648 OA
HETATM   27  O6  UNL     1     -30.030  -1.913  15.181  1.00  0.00    -0.648 OA
ENDBRANCH  24  25
ENDBRANCH  23  24
ENDBRANCH  22  23
BRANCH  22  28
HETATM   28  N3  UNL     1     -28.932  -6.217  14.332  1.00  0.00     0.103 N 
HETATM   29  C18 UNL     1     -30.210  -6.792  14.838  1.00  0.00     0.284 C 
HETATM   30  C19 UNL     1     -30.761  -6.808  13.451  1.00  0.00     0.013 C 
HETATM   31  C20 UNL     1     -32.183  -6.299  13.314  1.00  0.00     0.013 C 
HETATM   32  C23 UNL     1     -30.625  -8.018  12.612  1.00  0.00     0.013 C 
HETATM   33  C24 UNL     1     -29.753  -5.684  13.242  1.00  0.00     0.284 C 
HETATM   34  C21 UNL     1     -32.470  -6.628  11.856  1.00  0.00     0.001 C 
HETATM   35  C22 UNL     1     -31.923  -8.050  11.789  1.00  0.00     0.001 C 
ENDBRANCH  22  28
ENDBRANCH   5  22
TORSDOF 10
ENDMDL
MODEL 3
REMARK VINA RESULT: -8.094234124      1.819      2.474
REMARK  10 active torsions:
REMARK  status: ('A' for Active; 'I' for Inactive)
REMARK    1  A    between atoms: C2_2  and  C5_5 
REMARK    2  A    between atoms: C5_5  and  N1_6 
REMARK    3  A    between atoms: C5_5  and  C12_16 
REMARK       I    between atoms: N1_6  and  C6_8 
REMARK    4  A    between atoms: C6_8  and  O2_10 
REMARK    5  A    between atoms: O2_10  and  C7_11 
REMARK       I    between atoms: C12_16  and  N2_18 
REMARK       I    between atoms: N2_18  and  C13_20 
REMARK    6  A    between atoms: C13_20  and  C14_22 
REMARK    7  A    between atoms: C14_22  and  C15_23 
REMARK    8  A    between atoms: C14_22  and  N3_28 
REMARK    9  A    between atoms: C15_23  and  C16_24 
REMARK   10  A    between atoms: C16_24  and  C17_25 
ROOT
HETATM    1  C12 UNL     1     -25.406  -7.036  15.136  1.00  0.00     0.247 C 
HETATM    2  O3  UNL     1     -25.074  -5.921  15.710  1.00  0.00    -0.271 OA
HETATM    3  N2  UNL     1     -26.765  -7.159  14.796  1.00  0.00    -0.294 N 
ATOM      4  H2  UNL     1     -27.094  -8.005  14.332  1.00  0.00     0.171 HD
HETATM    5  C13 UNL     1     -27.686  -6.115  15.091  1.00  0.00     0.258 C 
HETATM    6  O4  UNL     1     -27.228  -5.018  15.545  1.00  0.00    -0.271 OA
ENDROOT
BRANCH   1   7
HETATM    7  C5  UNL     1     -24.319  -7.995  14.939  1.00  0.00     0.186 C 
BRANCH   7   8
HETATM    8  C2  UNL     1     -24.168  -9.108  15.903  1.00  0.00    -0.022 C 
HETATM    9  C1  UNL     1     -25.081  -9.090  17.073  1.00  0.00     0.017 C 
HETATM   10  C3  UNL     1     -22.740  -8.889  16.512  1.00  0.00     0.017 C 
HETATM   11  C4  UNL     1     -24.120 -10.413  15.188  1.00  0.00     0.017 C 
ENDBRANCH   7   8
BRANCH   7  12
HETATM   12  N1  UNL     1     -23.066  -7.278  14.680  1.00  0.00    -0.323 N 
HETATM   13  C6  UNL     1     -22.297  -7.391  13.496  1.00  0.00     0.361 C 
HETATM   14  O1  UNL     1     -22.675  -8.155  12.593  1.00  0.00    -0.238 OA
ATOM     15  H1  UNL     1     -22.724  -6.650  15.407  1.00  0.00     0.165 HD
BRANCH  13  16
HETATM   16  O2  UNL     1     -21.132  -6.651  13.361  1.00  0.00    -0.299 OA
BRANCH  16  17
HETATM   17  C7  UNL     1     -19.902  -7.045  13.914  1.00  0.00     0.133 C 
HETATM   18  C8  UNL     1     -18.929  -5.898  13.944  1.00  0.00     0.032 C 
HETATM   19  C9  UNL     1     -17.579  -6.559  13.952  1.00  0.00     0.002 C 
HETATM   20  C10 UNL     1     -17.793  -7.990  13.547  1.00  0.00     0.002 C 
HETATM   21  C11 UNL     1     -19.210  -8.071  13.038  1.00  0.00     0.032 C 
ENDBRANCH  16  17
ENDBRANCH  13  16
ENDBRANCH   7  12
ENDBRANCH   1   7
BRANCH   5  22
HETATM   22  C14 UNL     1     -29.121  -6.347  14.869  1.00  0.00     0.315 C 
BRANCH  22  23
HETATM   23  C15 UNL     1     -29.747  -6.947  16.098  1.00  0.00     0.056 C 
BRANCH  23  24
HETATM   24  C16 UNL     1     -30.556  -5.922  16.861  1.00  0.00     0.116 C 
BRANCH  24  25
HETATM   25  C17 UNL     1     -31.900  -5.793  16.244  1.00  0.00     0.172 C 
HETATM   26  O5  UNL     1     -32.242  -4.750  15.602  1.00  0.00    -0.648 OA
HETATM   27  O6  UNL     1     -32.809  -6.829  16.368  1.00  0.00    -0.648 OA
ENDBRANCH  24  25
ENDBRANCH  23  24
ENDBRANCH  22  23
BRANCH  22  28
HETATM   28  N3  UNL     1     -29.470  -7.098  13.708  1.00  0.00     0.103 N 
HETATM   29  C18 UNL     1     -30.328  -8.250  14.103  1.00  0.00     0.284 C 
HETATM   30  C19 UNL     1     -31.173  -8.047  12.889  1.00  0.00     0.013 C 
HETATM   31  C20 UNL     1     -32.670  -8.114  13.124  1.00  0.00     0.013 C 
HETATM   32  C23 UNL     1     -30.872  -8.783  11.644  1.00  0.00     0.013 C 
HETATM   33  C24 UNL     1     -30.662  -6.616  13.007  1.00  0.00     0.284 C 
HETATM   34  C21 UNL     1     -33.190  -8.059  11.696  1.00  0.00     0.001 C 
HETATM   35  C22 UNL     1     -32.253  -9.060  11.030  1.00  0.00     0.001 C 
ENDBRANCH  22  28
ENDBRANCH   5  22
TORSDOF 10
ENDMDL
MODEL 4
REMARK VINA RESULT: -8.003641986      1.688      2.235
REMARK  10 active torsions:
REMARK  status: ('A' for Active; 'I' for Inactive)
REMARK    1  A    between atoms: C2_2  and  C5_5 
REMARK    2  A    between atoms: C5_5  and  N1_6 
REMARK    3  A    between atoms: C5_5  and  C12_16 
REMARK       I    between atoms: N1_6  and  C6_8 
REMARK    4  A    between atoms: C6_8  and  O2_10 
REMARK    5  A    between atoms: O2_10  and  C7_11 
REMARK       I    between atoms: C12_16  and  N2_18 
REMARK       I    between atoms: N2_18  and  C13_20 
REMARK    6  A    between atoms: C13_20  and  C14_22 
REMARK    7  A    between atoms: C14_22  and  C15_23 
REMARK    8  A    between atoms: C14_22  and  N3_28 
REMARK    9  A    between atoms: C15_23  and  C16_24 
REMARK   10  A    between atoms: C16_24  and  C17_25 
ROOT
HETATM    1  C12 UNL     1     -25.056  -6.750  15.520  1.00  0.00     0.247 C 
HETATM    2  O3  UNL     1     -24.906  -5.627  16.151  1.00  0.00    -0.271 OA
HETATM    3  N2  UNL     1     -26.281  -6.906  14.848  1.00  0.00    -0.294 N 
ATOM      4  H2  UNL     1     -26.463  -7.761  14.322  1.00  0.00     0.171 HD
HETATM    5  C13 UNL     1     -27.271  -5.885  14.894  1.00  0.00     0.258 C 
HETATM    6  O4  UNL     1     -26.969  -4.777  15.441  1.00  0.00    -0.271 OA
ENDROOT
BRANCH   1   7
HETATM    7  C5  UNL     1     -23.933  -7.683  15.610  1.00  0.00     0.186 C 
BRANCH   7   8
HETATM    8  C2  UNL     1     -23.762  -8.474  16.850  1.00  0.00    -0.022 C 
HETATM    9  C1  UNL     1     -24.955  -8.584  17.726  1.00  0.00     0.017 C 
HETATM   10  C3  UNL     1     -22.730  -7.645  17.689  1.00  0.00     0.017 C 
HETATM   11  C4  UNL     1     -23.105  -9.776  16.550  1.00  0.00     0.017 C 
ENDBRANCH   7   8
BRANCH   7  12
HETATM   12  N1  UNL     1     -22.700  -7.018  15.173  1.00  0.00    -0.323 N 
HETATM   13  C6  UNL     1     -22.022  -7.286  13.959  1.00  0.00     0.361 C 
HETATM   14  O1  UNL     1     -22.468  -8.151  13.188  1.00  0.00    -0.238 OA
ATOM     15  H1  UNL     1     -22.303  -6.309  15.789  1.00  0.00     0.165 HD
BRANCH  13  16
HETATM   16  O2  UNL     1     -20.868  -6.582  13.647  1.00  0.00    -0.299 OA
BRANCH  16  17
HETATM   17  C7  UNL     1     -19.591  -6.967  14.087  1.00  0.00     0.133 C 
HETATM   18  C8  UNL     1     -18.625  -5.815  14.019  1.00  0.00     0.032 C 
HETATM   19  C9  UNL     1     -17.277  -6.469  13.907  1.00  0.00     0.002 C 
HETATM   20  C10 UNL     1     -17.519  -7.905  13.534  1.00  0.00     0.002 C 
HETATM   21  C11 UNL     1     -18.977  -7.996  13.158  1.00  0.00     0.032 C 
ENDBRANCH  16  17
ENDBRANCH  13  16
ENDBRANCH   7  12
ENDBRANCH   1   7
BRANCH   5  22
HETATM   22  C14 UNL     1     -28.598  -6.152  14.318  1.00  0.00     0.315 C 
BRANCH  22  23
HETATM   23  C15 UNL     1     -29.547  -5.038  14.662  1.00  0.00     0.056 C 
BRANCH  23  24
HETATM   24  C16 UNL     1     -29.599  -3.999  13.564  1.00  0.00     0.116 C 
BRANCH  24  25
HETATM   25  C17 UNL     1     -29.627  -2.642  14.166  1.00  0.00     0.172 C 
HETATM   26  O5  UNL     1     -28.729  -1.780  13.908  1.00  0.00    -0.648 OA
HETATM   27  O6  UNL     1     -30.651  -2.303  15.033  1.00  0.00    -0.648 OA
ENDBRANCH  24  25
ENDBRANCH  23  24
ENDBRANCH  22  23
BRANCH  22  28
HETATM   28  N3  UNL     1     -29.177  -7.419  14.621  1.00  0.00     0.103 N 
HETATM   29  C18 UNL     1     -29.951  -7.319  15.891  1.00  0.00     0.284 C 
HETATM   30  C19 UNL     1     -31.018  -8.192  15.319  1.00  0.00     0.013 C 
HETATM   31  C20 UNL     1     -32.439  -7.720  15.562  1.00  0.00     0.013 C 
HETATM   32  C23 UNL     1     -30.977  -9.653  15.537  1.00  0.00     0.013 C 
HETATM   33  C24 UNL     1     -30.481  -7.658  13.997  1.00  0.00     0.284 C 
HETATM   34  C21 UNL     1     -33.233  -8.904  15.030  1.00  0.00     0.001 C 
HETATM   35  C22 UNL     1     -32.456 -10.054  15.662  1.00  0.00     0.001 C 
ENDBRANCH  22  28
ENDBRANCH   5  22
TORSDOF 10
ENDMDL
MODEL 5
REMARK VINA RESULT: -8.000405529      1.407      2.086
REMARK  10 active torsions:
REMARK  status: ('A' for Active; 'I' for Inactive)
REMARK    1  A    between atoms: C2_2  and  C5_5 
REMARK    2  A    between atoms: C5_5  and  N1_6 
REMARK    3  A    between atoms: C5_5  and  C12_16 
REMARK       I    between atoms: N1_6  and  C6_8 
REMARK    4  A    between atoms: C6_8  and  O2_10 
REMARK    5  A    between atoms: O2_10  and  C7_11 
REMARK       I    between atoms: C12_16  and  N2_18 
REMARK       I    between atoms: N2_18  and  C13_20 
REMARK    6  A    between atoms: C13_20  and  C14_22 
REMARK    7  A    between atoms: C14_22  and  C15_23 
REMARK    8  A    between atoms: C14_22  and  N3_28 
REMARK    9  A    between atoms: C15_23  and  C16_24 
REMARK   10  A    between atoms: C16_24  and  C17_25 
ROOT
HETATM    1  C12 UNL     1     -25.163  -6.771  15.190  1.00  0.00     0.247 C 
HETATM    2  O3  UNL     1     -25.076  -5.990  16.223  1.00  0.00    -0.271 OA
HETATM    3  N2  UNL     1     -26.292  -6.573  14.377  1.00  0.00    -0.294 N 
ATOM      4  H2  UNL     1     -26.420  -7.145  13.542  1.00  0.00     0.171 HD
HETATM    5  C13 UNL     1     -27.260  -5.583  14.705  1.00  0.00     0.258 C 
HETATM    6  O4  UNL     1     -27.011  -4.793  15.671  1.00  0.00    -0.271 OA
ENDROOT
BRANCH   1   7
HETATM    7  C5  UNL     1     -24.079  -7.742  15.037  1.00  0.00     0.186 C 
BRANCH   7   8
HETATM    8  C2  UNL     1     -23.996  -8.873  15.988  1.00  0.00    -0.022 C 
HETATM    9  C1  UNL     1     -22.794  -8.910  16.859  1.00  0.00     0.017 C 
HETATM   10  C3  UNL     1     -23.855 -10.134  15.066  1.00  0.00     0.017 C 
HETATM   11  C4  UNL     1     -25.282  -9.034  16.719  1.00  0.00     0.017 C 
ENDBRANCH   7   8
BRANCH   7  12
HETATM   12  N1  UNL     1     -22.804  -7.037  14.861  1.00  0.00    -0.323 N 
HETATM   13  C6  UNL     1     -22.005  -7.088  13.692  1.00  0.00     0.361 C 
HETATM   14  O1  UNL     1     -22.374  -7.779  12.730  1.00  0.00    -0.238 OA
ATOM     15  H1  UNL     1     -22.469  -6.469  15.638  1.00  0.00     0.165 HD
BRANCH  13  16
HETATM   16  O2  UNL     1     -20.822  -6.367  13.639  1.00  0.00    -0.299 OA
BRANCH  16  17
HETATM   17  C7  UNL     1     -19.590  -6.877  14.082  1.00  0.00     0.133 C 
HETATM   18  C8  UNL     1     -18.514  -5.828  14.017  1.00  0.00     0.032 C 
HETATM   19  C9  UNL     1     -17.238  -6.613  13.909  1.00  0.00     0.002 C 
HETATM   20  C10 UNL     1     -17.621  -8.017  13.534  1.00  0.00     0.002 C 
HETATM   21  C11 UNL     1     -19.080  -7.962  13.154  1.00  0.00     0.032 C 
ENDBRANCH  16  17
ENDBRANCH  13  16
ENDBRANCH   7  12
ENDBRANCH   1   7
BRANCH   5  22
HETATM   22  C14 UNL     1     -28.504  -5.516  13.924  1.00  0.00     0.315 C 
BRANCH  22  23
HETATM   23  C15 UNL     1     -28.690  -4.135  13.359  1.00  0.00     0.056 C 
BRANCH  23  24
HETATM   24  C16 UNL     1     -29.860  -3.427  14.004  1.00  0.00     0.116 C 
BRANCH  24  25
HETATM   25  C17 UNL     1     -29.359  -2.453  15.006  1.00  0.00     0.172 C 
HETATM   26  O5  UNL     1     -28.729  -1.404  14.658  1.00  0.00    -0.648 OA
HETATM   27  O6  UNL     1     -29.575  -2.687  16.352  1.00  0.00    -0.648 OA
ENDBRANCH  24  25
ENDBRANCH  23  24
ENDBRANCH  22  23
BRANCH  22  28
HETATM   28  N3  UNL     1     -29.691  -5.954  14.584  1.00  0.00     0.103 N 
HETATM   29  C18 UNL     1     -30.536  -6.720  13.625  1.00  0.00     0.284 C 
HETATM   30  C19 UNL     1     -30.886  -7.695  14.700  1.00  0.00     0.013 C 
HETATM   31  C20 UNL     1     -30.824  -9.155  14.296  1.00  0.00     0.013 C 
HETATM   32  C23 UNL     1     -32.104  -7.496  15.514  1.00  0.00     0.013 C 
HETATM   33  C24 UNL     1     -29.559  -7.231  15.289  1.00  0.00     0.284 C 
HETATM   34  C21 UNL     1     -31.406  -9.823  15.532  1.00  0.00     0.001 C 
HETATM   35  C22 UNL     1     -32.610  -8.922  15.783  1.00  0.00     0.001 C 
ENDBRANCH  22  28
ENDBRANCH   5  22
TORSDOF 10
ENDMDL
