MODEL 1
REMARK VINA RESULT: -5.366159594      0.000      0.000
REMARK  5 active torsions:
REMARK  status: ('A' for Active; 'I' for Inactive)
REMARK    1  A    between atoms: C4_9  and  C5_10 
REMARK    2  A    between atoms: C5_10  and  N4_11 
REMARK    3  A    between atoms: N4_11  and  C6_14 
REMARK    4  A    between atoms: C6_14  and  C7_15 
REMARK    5  A    between atoms: C7_15  and  N5_16 
ROOT
HETATM    1  C1  UNL     1      49.200  18.772 -15.956  1.00  0.00     0.055 C 
HETATM    2  C2  UNL     1      47.926  18.298 -15.274  1.00  0.00     0.174 C 
HETATM    3  N1  UNL     1      47.076  17.717 -16.249  1.00  0.00    -0.365 N 
ATOM      4  H1  UNL     1      47.061  18.242 -17.123  1.00  0.00     0.162 HD
HETATM    5  C3  UNL     1      46.320  16.677 -16.281  1.00  0.00     0.191 C 
HETATM    6  N2  UNL     1      46.112  15.732 -15.241  1.00  0.00    -0.298 N 
ATOM      7  H2  UNL     1      45.252  15.184 -15.287  1.00  0.00     0.183 HD
HETATM    8  N3  UNL     1      46.963  15.472 -14.162  1.00  0.00    -0.113 NA
HETATM    9  C4  UNL     1      47.322  16.727 -13.526  1.00  0.00     0.219 C 
HETATM   10  N6  UNL     1      48.345  17.440 -14.217  1.00  0.00    -0.382 N 
ATOM     11  H6  UNL     1      49.329  17.341 -13.966  1.00  0.00     0.157 HD
ENDROOT
BRANCH   9  12
HETATM   12  C5  UNL     1      47.877  16.372 -12.156  1.00  0.00     0.276 C 
BRANCH  12  13
HETATM   13  N4  UNL     1      47.372  15.093 -11.691  1.00  0.00    -0.070 N 
ATOM     14  H42 UNL     1      46.354  15.030 -11.709  1.00  0.00     0.277 HD
ATOM     15  H41 UNL     1      47.557  14.326 -12.338  1.00  0.00     0.277 HD
BRANCH  13  16
HETATM   16  C6  UNL     1      47.940  14.880 -10.367  1.00  0.00     0.259 C 
BRANCH  16  17
HETATM   17  C7  UNL     1      47.210  13.784  -9.652  1.00  0.00     0.257 C 
BRANCH  17  18
HETATM   18  N5  UNL     1      45.794  13.946  -9.777  1.00  0.00    -0.078 N 
ATOM     19  H53 UNL     1      45.545  14.905 -10.021  1.00  0.00     0.274 HD
ATOM     20  H52 UNL     1      45.433  13.476 -10.606  1.00  0.00     0.274 HD
ATOM     21  H51 UNL     1      45.317  13.637  -8.930  1.00  0.00     0.274 HD
ENDBRANCH  17  18
ENDBRANCH  16  17
ENDBRANCH  13  16
ENDBRANCH  12  13
ENDBRANCH   9  12
TORSDOF 5
ENDMDL
MODEL 2
REMARK VINA RESULT: -5.026586683      1.593      5.221
REMARK  5 active torsions:
REMARK  status: ('A' for Active; 'I' for Inactive)
REMARK    1  A    between atoms: C4_9  and  C5_10 
REMARK    2  A    between atoms: C5_10  and  N4_11 
REMARK    3  A    between atoms: N4_11  and  C6_14 
REMARK    4  A    between atoms: C6_14  and  C7_15 
REMARK    5  A    between atoms: C7_15  and  N5_16 
ROOT
HETATM    1  C1  UNL     1      47.459  16.143 -10.662  1.00  0.00     0.055 C 
HETATM    2  C2  UNL     1      47.814  15.871 -12.116  1.00  0.00     0.174 C 
HETATM    3  N1  UNL     1      47.153  14.689 -12.534  1.00  0.00    -0.365 N 
ATOM      4  H1  UNL     1      47.169  13.956 -11.825  1.00  0.00     0.162 HD
HETATM    5  C3  UNL     1      46.537  14.331 -13.604  1.00  0.00     0.191 C 
HETATM    6  N2  UNL     1      46.329  15.105 -14.778  1.00  0.00    -0.298 N 
ATOM      7  H2  UNL     1      46.143  14.589 -15.638  1.00  0.00     0.183 HD
HETATM    8  N3  UNL     1      46.354  16.500 -14.877  1.00  0.00    -0.113 NA
HETATM    9  C4  UNL     1      47.564  17.000 -14.249  1.00  0.00     0.219 C 
HETATM   10  N6  UNL     1      47.481  17.060 -12.827  1.00  0.00    -0.382 N 
ATOM     11  H6  UNL     1      47.198  17.912 -12.343  1.00  0.00     0.157 HD
ENDROOT
BRANCH   9  12
HETATM   12  C5  UNL     1      47.747  18.427 -14.742  1.00  0.00     0.276 C 
BRANCH  12  13
HETATM   13  N4  UNL     1      47.469  18.539 -16.164  1.00  0.00    -0.070 N 
ATOM     14  H42 UNL     1      46.710  17.934 -16.476  1.00  0.00     0.277 HD
ATOM     15  H41 UNL     1      47.039  19.427 -16.423  1.00  0.00     0.277 HD
BRANCH  13  16
HETATM   16  C6  UNL     1      48.728  18.286 -16.851  1.00  0.00     0.259 C 
BRANCH  16  17
HETATM   17  C7  UNL     1      48.503  17.428 -18.059  1.00  0.00     0.257 C 
BRANCH  17  18
HETATM   18  N5  UNL     1      47.302  16.662 -17.925  1.00  0.00    -0.078 N 
ATOM     19  H53 UNL     1      47.070  16.172 -18.788  1.00  0.00     0.274 HD
ATOM     20  H52 UNL     1      47.436  15.854 -17.318  1.00  0.00     0.274 HD
ATOM     21  H51 UNL     1      46.531  17.249 -17.606  1.00  0.00     0.274 HD
ENDBRANCH  17  18
ENDBRANCH  16  17
ENDBRANCH  13  16
ENDBRANCH  12  13
ENDBRANCH   9  12
TORSDOF 5
ENDMDL
MODEL 3
REMARK VINA RESULT: -4.946509956      1.091      1.160
REMARK  5 active torsions:
REMARK  status: ('A' for Active; 'I' for Inactive)
REMARK    1  A    between atoms: C4_9  and  C5_10 
REMARK    2  A    between atoms: C5_10  and  N4_11 
REMARK    3  A    between atoms: N4_11  and  C6_14 
REMARK    4  A    between atoms: C6_14  and  C7_15 
REMARK    5  A    between atoms: C7_15  and  N5_16 
ROOT
HETATM    1  C1  UNL     1      49.979  18.859 -16.681  1.00  0.00     0.055 C 
HETATM    2  C2  UNL     1      48.558  18.638 -16.184  1.00  0.00     0.174 C 
HETATM    3  N1  UNL     1      47.799  18.045 -17.224  1.00  0.00    -0.365 N 
ATOM      4  H1  UNL     1      47.997  18.450 -18.138  1.00  0.00     0.162 HD
HETATM    5  C3  UNL     1      46.916  17.111 -17.275  1.00  0.00     0.191 C 
HETATM    6  N2  UNL     1      46.413  16.341 -16.193  1.00  0.00    -0.298 N 
ATOM      7  H2  UNL     1      45.501  15.903 -16.329  1.00  0.00     0.183 HD
HETATM    8  N3  UNL     1      47.036  16.120 -14.961  1.00  0.00    -0.113 NA
HETATM    9  C4  UNL     1      47.467  17.393 -14.410  1.00  0.00     0.219 C 
HETATM   10  N6  UNL     1      48.678  17.878 -14.984  1.00  0.00    -0.382 N 
ATOM     11  H6  UNL     1      49.586  17.691 -14.557  1.00  0.00     0.157 HD
ENDROOT
BRANCH   9  12
HETATM   12  C5  UNL     1      47.742  17.152 -12.934  1.00  0.00     0.276 C 
BRANCH  12  13
HETATM   13  N4  UNL     1      47.504  15.768 -12.566  1.00  0.00    -0.070 N 
ATOM     14  H42 UNL     1      46.518  15.510 -12.579  1.00  0.00     0.277 HD
ATOM     15  H41 UNL     1      47.818  15.102 -13.273  1.00  0.00     0.277 HD
BRANCH  13  16
HETATM   16  C6  UNL     1      48.135  15.571 -11.269  1.00  0.00     0.259 C 
BRANCH  16  17
HETATM   17  C7  UNL     1      47.112  15.206 -10.237  1.00  0.00     0.257 C 
BRANCH  17  18
HETATM   18  N5  UNL     1      46.628  13.875 -10.446  1.00  0.00    -0.078 N 
ATOM     19  H53 UNL     1      45.736  13.873 -10.942  1.00  0.00     0.274 HD
ATOM     20  H52 UNL     1      47.189  13.374 -11.134  1.00  0.00     0.274 HD
ATOM     21  H51 UNL     1      46.570  13.366  -9.564  1.00  0.00     0.274 HD
ENDBRANCH  17  18
ENDBRANCH  16  17
ENDBRANCH  13  16
ENDBRANCH  12  13
ENDBRANCH   9  12
TORSDOF 5
ENDMDL
MODEL 4
REMARK VINA RESULT: -4.895150579      1.782      2.606
REMARK  5 active torsions:
REMARK  status: ('A' for Active; 'I' for Inactive)
REMARK    1  A    between atoms: C4_9  and  C5_10 
REMARK    2  A    between atoms: C5_10  and  N4_11 
REMARK    3  A    between atoms: N4_11  and  C6_14 
REMARK    4  A    between atoms: C6_14  and  C7_15 
REMARK    5  A    between atoms: C7_15  and  N5_16 
ROOT
HETATM    1  C1  UNL     1      47.137  17.105 -15.769  1.00  0.00     0.055 C 
HETATM    2  C2  UNL     1      47.882  17.729 -14.599  1.00  0.00     0.174 C 
HETATM    3  N1  UNL     1      47.816  19.140 -14.716  1.00  0.00    -0.365 N 
ATOM      4  H1  UNL     1      47.943  19.463 -15.676  1.00  0.00     0.162 HD
HETATM    5  C3  UNL     1      47.631  20.106 -13.888  1.00  0.00     0.191 C 
HETATM    6  N2  UNL     1      47.420  20.010 -12.486  1.00  0.00    -0.298 N 
ATOM      7  H2  UNL     1      47.634  20.841 -11.934  1.00  0.00     0.183 HD
HETATM    8  N3  UNL     1      46.949  18.896 -11.784  1.00  0.00    -0.113 NA
HETATM    9  C4  UNL     1      47.715  17.727 -12.178  1.00  0.00     0.219 C 
HETATM   10  N6  UNL     1      47.301  17.170 -13.424  1.00  0.00    -0.382 N 
ATOM     11  H6  UNL     1      46.623  16.410 -13.471  1.00  0.00     0.157 HD
ENDROOT
BRANCH   9  12
HETATM   12  C5  UNL     1      47.463  16.668 -11.115  1.00  0.00     0.276 C 
BRANCH  12  13
HETATM   13  N4  UNL     1      47.765  15.336 -11.608  1.00  0.00    -0.070 N 
ATOM     14  H42 UNL     1      47.591  15.226 -12.607  1.00  0.00     0.277 HD
ATOM     15  H41 UNL     1      48.764  15.130 -11.631  1.00  0.00     0.277 HD
BRANCH  13  16
HETATM   16  C6  UNL     1      47.003  14.408 -10.784  1.00  0.00     0.259 C 
BRANCH  16  17
HETATM   17  C7  UNL     1      47.787  14.021  -9.567  1.00  0.00     0.257 C 
BRANCH  17  18
HETATM   18  N5  UNL     1      47.057  13.089  -8.764  1.00  0.00    -0.078 N 
ATOM     19  H53 UNL     1      46.242  13.523  -8.331  1.00  0.00     0.274 HD
ATOM     20  H52 UNL     1      46.578  12.394  -9.336  1.00  0.00     0.274 HD
ATOM     21  H51 UNL     1      47.664  12.652  -8.071  1.00  0.00     0.274 HD
ENDBRANCH  17  18
ENDBRANCH  16  17
ENDBRANCH  13  16
ENDBRANCH  12  13
ENDBRANCH   9  12
TORSDOF 5
ENDMDL
MODEL 5
REMARK VINA RESULT: -4.798667124      1.662      2.487
REMARK  5 active torsions:
REMARK  status: ('A' for Active; 'I' for Inactive)
REMARK    1  A    between atoms: C4_9  and  C5_10 
REMARK    2  A    between atoms: C5_10  and  N4_11 
REMARK    3  A    between atoms: N4_11  and  C6_14 
REMARK    4  A    between atoms: C6_14  and  C7_15 
REMARK    5  A    between atoms: C7_15  and  N5_16 
ROOT
HETATM    1  C1  UNL     1      47.011  17.214 -15.875  1.00  0.00     0.055 C 
HETATM    2  C2  UNL     1      47.840  17.572 -14.651  1.00  0.00     0.174 C 
HETATM    3  N1  UNL     1      47.728  18.966 -14.416  1.00  0.00    -0.365 N 
ATOM      4  H1  UNL     1      47.762  19.515 -15.276  1.00  0.00     0.162 HD
HETATM    5  C3  UNL     1      47.592  19.696 -13.366  1.00  0.00     0.191 C 
HETATM    6  N2  UNL     1      47.508  19.257 -12.018  1.00  0.00    -0.298 N 
ATOM      7  H2  UNL     1      47.748  19.939 -11.299  1.00  0.00     0.183 HD
HETATM    8  N3  UNL     1      47.128  17.986 -11.573  1.00  0.00    -0.113 NA
HETATM    9  C4  UNL     1      47.886  16.982 -12.298  1.00  0.00     0.219 C 
HETATM   10  N6  UNL     1      47.379  16.722 -13.605  1.00  0.00    -0.382 N 
ATOM     11  H6  UNL     1      46.718  15.966 -13.782  1.00  0.00     0.157 HD
ENDROOT
BRANCH   9  12
HETATM   12  C5  UNL     1      47.755  15.689 -11.507  1.00  0.00     0.276 C 
BRANCH  12  13
HETATM   13  N4  UNL     1      46.931  15.869 -10.325  1.00  0.00    -0.070 N 
ATOM     14  H42 UNL     1      46.896  16.835 -10.000  1.00  0.00     0.277 HD
ATOM     15  H41 UNL     1      45.933  15.761 -10.507  1.00  0.00     0.277 HD
BRANCH  13  16
HETATM   16  C6  UNL     1      47.438  14.942  -9.323  1.00  0.00     0.259 C 
BRANCH  16  17
HETATM   17  C7  UNL     1      46.516  13.770  -9.177  1.00  0.00     0.257 C 
BRANCH  17  18
HETATM   18  N5  UNL     1      45.169  14.138  -9.491  1.00  0.00    -0.078 N 
ATOM     19  H53 UNL     1      44.637  14.369  -8.652  1.00  0.00     0.274 HD
ATOM     20  H52 UNL     1      45.125  15.044  -9.957  1.00  0.00     0.274 HD
ATOM     21  H51 UNL     1      44.711  13.410 -10.039  1.00  0.00     0.274 HD
ENDBRANCH  17  18
ENDBRANCH  16  17
ENDBRANCH  13  16
ENDBRANCH  12  13
ENDBRANCH   9  12
TORSDOF 5
ENDMDL
