MODEL 1
REMARK VINA RESULT: -5.833280488      0.000      0.000
REMARK  5 active torsions:
REMARK  status: ('A' for Active; 'I' for Inactive)
REMARK    1  A    between atoms: N1_2  and  N2_3 
REMARK    2  A    between atoms: N1_2  and  C2_6 
REMARK    3  A    between atoms: C2_6  and  C3_7 
REMARK    4  A    between atoms: C3_7  and  N3_8 
REMARK    5  A    between atoms: N3_8  and  C4_10 
ROOT
HETATM    1  N3  UNL     1      48.383  15.571 -11.269  1.00  0.00    -0.200 N 
ATOM      2  H3  UNL     1      49.384  15.396 -11.363  1.00  0.00     0.183 HD
ENDROOT
BRANCH   1   3
HETATM    3  C3  UNL     1      47.792  16.707 -11.854  1.00  0.00     0.119 C 
BRANCH   3   4
HETATM    4  C2  UNL     1      47.727  16.855 -13.315  1.00  0.00     0.099 C 
BRANCH   4   5
HETATM    5  N1  UNL     1      46.686  16.293 -14.074  1.00  0.00    -0.217 NA
HETATM    6  C1  UNL     1      46.644  16.573 -15.473  1.00  0.00     0.141 C 
BRANCH   5   7
HETATM    7  N2  UNL     1      46.821  14.879 -13.958  1.00  0.00    -0.360 NA
ATOM      8  H22 UNL     1      46.193  14.471 -14.652  1.00  0.00     0.171 HD
ATOM      9  H21 UNL     1      46.659  14.659 -12.975  1.00  0.00     0.171 HD
ENDBRANCH   5   7
ENDBRANCH   4   5
ENDBRANCH   3   4
ENDBRANCH   1   3
BRANCH   1  10
HETATM   10  C4  UNL     1      47.551  14.669 -10.541  1.00  0.00     0.689 C 
HETATM   11  N4  UNL     1      48.057  14.015  -9.511  1.00  0.00    -0.224 N 
HETATM   12  C5  UNL     1      47.102  13.125  -8.852  1.00  0.00     0.155 C 
ATOM     13  H4  UNL     1      49.023  14.121  -9.204  1.00  0.00     0.177 HD
HETATM   14  C6  UNL     1      45.894  14.025  -8.541  1.00  0.00     0.155 C 
HETATM   15  N5  UNL     1      45.267  14.357  -9.781  1.00  0.00    -0.125 NA
HETATM   16  N6  UNL     1      46.190  14.416 -10.839  1.00  0.00    -0.137 N 
ATOM     17  H6  UNL     1      45.885  14.280 -11.803  1.00  0.00     0.201 HD
ENDBRANCH   1  10
TORSDOF 5
ENDMDL
MODEL 2
REMARK VINA RESULT: -5.343376354      0.862      1.406
REMARK  5 active torsions:
REMARK  status: ('A' for Active; 'I' for Inactive)
REMARK    1  A    between atoms: N1_2  and  N2_3 
REMARK    2  A    between atoms: N1_2  and  C2_6 
REMARK    3  A    between atoms: C2_6  and  C3_7 
REMARK    4  A    between atoms: C3_7  and  N3_8 
REMARK    5  A    between atoms: N3_8  and  C4_10 
ROOT
HETATM    1  N3  UNL     1      48.358  15.768 -11.448  1.00  0.00    -0.200 N 
ATOM      2  H3  UNL     1      49.228  15.348 -11.777  1.00  0.00     0.183 HD
ENDROOT
BRANCH   1   3
HETATM    3  C3  UNL     1      47.816  16.898 -12.090  1.00  0.00     0.119 C 
BRANCH   3   4
HETATM    4  C2  UNL     1      47.687  16.945 -13.553  1.00  0.00     0.099 C 
BRANCH   4   5
HETATM    5  N1  UNL     1      46.621  16.322 -14.226  1.00  0.00    -0.217 NA
HETATM    6  C1  UNL     1      46.522  16.498 -15.640  1.00  0.00     0.141 C 
BRANCH   5   7
HETATM    7  N2  UNL     1      46.772  14.922 -14.012  1.00  0.00    -0.360 NA
ATOM      8  H22 UNL     1      47.130  14.812 -13.063  1.00  0.00     0.171 HD
ATOM      9  H21 UNL     1      47.343  14.578 -14.784  1.00  0.00     0.171 HD
ENDBRANCH   5   7
ENDBRANCH   4   5
ENDBRANCH   3   4
ENDBRANCH   1   3
BRANCH   1  10
HETATM   10  C4  UNL     1      47.663  15.223 -10.327  1.00  0.00     0.689 C 
HETATM   11  N4  UNL     1      46.482  15.716 -10.001  1.00  0.00    -0.224 N 
HETATM   12  C5  UNL     1      45.877  15.072  -8.836  1.00  0.00     0.155 C 
ATOM     13  H4  UNL     1      46.034  16.475 -10.513  1.00  0.00     0.177 HD
HETATM   14  C6  UNL     1      45.902  13.571  -9.174  1.00  0.00     0.155 C 
HETATM   15  N5  UNL     1      47.265  13.141  -9.145  1.00  0.00    -0.125 NA
HETATM   16  N6  UNL     1      48.149  14.167  -9.519  1.00  0.00    -0.137 N 
ATOM     17  H6  UNL     1      49.122  14.150  -9.214  1.00  0.00     0.201 HD
ENDBRANCH   1  10
TORSDOF 5
ENDMDL
MODEL 3
REMARK VINA RESULT: -5.105460248      1.369      1.576
REMARK  5 active torsions:
REMARK  status: ('A' for Active; 'I' for Inactive)
REMARK    1  A    between atoms: N1_2  and  N2_3 
REMARK    2  A    between atoms: N1_2  and  C2_6 
REMARK    3  A    between atoms: C2_6  and  C3_7 
REMARK    4  A    between atoms: C3_7  and  N3_8 
REMARK    5  A    between atoms: N3_8  and  C4_10 
ROOT
HETATM    1  N3  UNL     1      47.464  15.477 -12.842  1.00  0.00    -0.200 N 
ATOM      2  H3  UNL     1      47.597  14.768 -13.563  1.00  0.00     0.183 HD
ENDROOT
BRANCH   1   3
HETATM    3  C3  UNL     1      47.465  16.846 -13.169  1.00  0.00     0.119 C 
BRANCH   3   4
HETATM    4  C2  UNL     1      47.625  17.289 -14.562  1.00  0.00     0.099 C 
BRANCH   4   5
HETATM    5  N1  UNL     1      46.546  17.316 -15.461  1.00  0.00    -0.217 NA
HETATM    6  C1  UNL     1      46.834  17.328 -16.860  1.00  0.00     0.141 C 
BRANCH   5   7
HETATM    7  N2  UNL     1      45.794  16.128 -15.224  1.00  0.00    -0.360 NA
ATOM      8  H22 UNL     1      46.460  15.422 -14.914  1.00  0.00     0.171 HD
ATOM      9  H21 UNL     1      45.269  15.952 -16.081  1.00  0.00     0.171 HD
ENDBRANCH   5   7
ENDBRANCH   4   5
ENDBRANCH   3   4
ENDBRANCH   1   3
BRANCH   1  10
HETATM   10  C4  UNL     1      47.272  15.103 -11.478  1.00  0.00     0.689 C 
HETATM   11  N4  UNL     1      47.821  15.836 -10.527  1.00  0.00    -0.224 N 
HETATM   12  C5  UNL     1      47.550  15.347  -9.176  1.00  0.00     0.155 C 
ATOM     13  H4  UNL     1      48.383  16.666 -10.716  1.00  0.00     0.177 HD
HETATM   14  C6  UNL     1      46.017  15.220  -9.118  1.00  0.00     0.155 C 
HETATM   15  N5  UNL     1      45.638  14.135  -9.967  1.00  0.00    -0.125 NA
HETATM   16  N6  UNL     1      46.517  13.983 -11.053  1.00  0.00    -0.137 N 
ATOM     17  H6  UNL     1      46.609  13.084 -11.525  1.00  0.00     0.201 HD
ENDBRANCH   1  10
TORSDOF 5
ENDMDL
MODEL 4
REMARK VINA RESULT: -4.937429885      1.837      5.909
REMARK  5 active torsions:
REMARK  status: ('A' for Active; 'I' for Inactive)
REMARK    1  A    between atoms: N1_2  and  N2_3 
REMARK    2  A    between atoms: N1_2  and  C2_6 
REMARK    3  A    between atoms: C2_6  and  C3_7 
REMARK    4  A    between atoms: C3_7  and  N3_8 
REMARK    5  A    between atoms: N3_8  and  C4_10 
ROOT
HETATM    1  N3  UNL     1      47.256  16.180 -13.639  1.00  0.00    -0.200 N 
ATOM      2  H3  UNL     1      46.977  15.199 -13.686  1.00  0.00     0.183 HD
ENDROOT
BRANCH   1   3
HETATM    3  C3  UNL     1      47.677  16.751 -12.424  1.00  0.00     0.119 C 
BRANCH   3   4
HETATM    4  C2  UNL     1      47.485  16.042 -11.150  1.00  0.00     0.099 C 
BRANCH   4   5
HETATM    5  N1  UNL     1      47.738  14.666 -11.021  1.00  0.00    -0.217 NA
HETATM    6  C1  UNL     1      47.757  14.105  -9.708  1.00  0.00     0.141 C 
BRANCH   5   7
HETATM    7  N2  UNL     1      46.693  13.996 -11.721  1.00  0.00    -0.360 NA
ATOM      8  H22 UNL     1      47.128  13.210 -12.205  1.00  0.00     0.171 HD
ATOM      9  H21 UNL     1      46.228  14.709 -12.282  1.00  0.00     0.171 HD
ENDBRANCH   5   7
ENDBRANCH   4   5
ENDBRANCH   3   4
ENDBRANCH   1   3
BRANCH   1  10
HETATM   10  C4  UNL     1      47.229  17.002 -14.805  1.00  0.00     0.689 C 
HETATM   11  N4  UNL     1      47.818  18.184 -14.773  1.00  0.00    -0.224 N 
HETATM   12  C5  UNL     1      47.720  18.926 -16.028  1.00  0.00     0.155 C 
ATOM     13  H4  UNL     1      48.298  18.545 -13.948  1.00  0.00     0.177 HD
HETATM   14  C6  UNL     1      48.248  17.947 -17.092  1.00  0.00     0.155 C 
HETATM   15  N5  UNL     1      47.291  16.895 -17.229  1.00  0.00    -0.125 NA
HETATM   16  N6  UNL     1      46.610  16.641 -16.027  1.00  0.00    -0.137 N 
ATOM     17  H6  UNL     1      45.688  16.206 -16.034  1.00  0.00     0.201 HD
ENDBRANCH   1  10
TORSDOF 5
ENDMDL
MODEL 5
REMARK VINA RESULT: -4.935950760      1.920      6.134
REMARK  5 active torsions:
REMARK  status: ('A' for Active; 'I' for Inactive)
REMARK    1  A    between atoms: N1_2  and  N2_3 
REMARK    2  A    between atoms: N1_2  and  C2_6 
REMARK    3  A    between atoms: C2_6  and  C3_7 
REMARK    4  A    between atoms: C3_7  and  N3_8 
REMARK    5  A    between atoms: N3_8  and  C4_10 
ROOT
HETATM    1  N3  UNL     1      47.008  16.393 -13.994  1.00  0.00    -0.200 N 
ATOM      2  H3  UNL     1      46.291  15.672 -13.916  1.00  0.00     0.183 HD
ENDROOT
BRANCH   1   3
HETATM    3  C3  UNL     1      47.758  16.788 -12.869  1.00  0.00     0.119 C 
BRANCH   3   4
HETATM    4  C2  UNL     1      47.523  16.177 -11.553  1.00  0.00     0.099 C 
BRANCH   4   5
HETATM    5  N1  UNL     1      47.791  14.820 -11.305  1.00  0.00    -0.217 NA
HETATM    6  C1  UNL     1      47.801  14.372  -9.949  1.00  0.00     0.141 C 
BRANCH   5   7
HETATM    7  N2  UNL     1      46.763  14.080 -11.958  1.00  0.00    -0.360 NA
ATOM      8  H22 UNL     1      47.203  13.614 -12.752  1.00  0.00     0.171 HD
ATOM      9  H21 UNL     1      46.012  14.744 -12.145  1.00  0.00     0.171 HD
ENDBRANCH   5   7
ENDBRANCH   4   5
ENDBRANCH   3   4
ENDBRANCH   1   3
BRANCH   1  10
HETATM   10  C4  UNL     1      47.276  17.023 -15.246  1.00  0.00     0.689 C 
HETATM   11  N4  UNL     1      46.617  16.626 -16.320  1.00  0.00    -0.224 N 
HETATM   12  C5  UNL     1      46.982  17.350 -17.536  1.00  0.00     0.155 C 
ATOM     13  H4  UNL     1      45.919  15.883 -16.302  1.00  0.00     0.177 HD
HETATM   14  C6  UNL     1      46.813  18.833 -17.162  1.00  0.00     0.155 C 
HETATM   15  N5  UNL     1      47.844  19.167 -16.231  1.00  0.00    -0.125 NA
HETATM   16  N6  UNL     1      48.210  18.070 -15.433  1.00  0.00    -0.137 N 
ATOM     17  H6  UNL     1      49.131  18.029 -14.997  1.00  0.00     0.201 HD
ENDBRANCH   1  10
TORSDOF 5
ENDMDL
