MODEL 1
REMARK VINA RESULT: -5.853715125      0.000      0.000
REMARK  11 active torsions:
REMARK  status: ('A' for Active; 'I' for Inactive)
REMARK    1  A    between atoms: C2_2  and  C3_3 
REMARK    2  A    between atoms: C3_3  and  C4_4 
REMARK    3  A    between atoms: C4_4  and  C5_5 
REMARK    4  A    between atoms: C5_5  and  N1_6 
REMARK    5  A    between atoms: N1_6  and  C6_8 
REMARK    6  A    between atoms: C6_8  and  C7_9 
REMARK    7  A    between atoms: C7_9  and  C8_10 
REMARK    8  A    between atoms: C10_12  and  C11_13 
REMARK    9  A    between atoms: C11_13  and  C12_14 
REMARK   10  A    between atoms: C12_14  and  C13_15 
REMARK   11  A    between atoms: C13_15  and  C14_16 
ROOT
HETATM    1  C8  UNL     1      -6.884 -23.381   0.090  1.00  0.00    -0.078 A 
HETATM    2  C9  UNL     1      -7.757 -23.977   0.813  1.00  0.00    -0.019 A 
HETATM    3  C10 UNL     1      -7.105 -23.595   2.059  1.00  0.00     0.012 A 
HETATM    4  C16 UNL     1      -6.111 -22.916   1.208  1.00  0.00     0.042 A 
ENDROOT
BRANCH   1   5
HETATM    5  C7  UNL     1      -6.758 -23.244  -1.420  1.00  0.00     0.078 C 
BRANCH   5   6
HETATM    6  C6  UNL     1      -7.106 -21.862  -1.850  1.00  0.00     0.064 C 
BRANCH   6   7
HETATM    7  N1  UNL     1      -8.480 -21.619  -1.899  1.00  0.00    -0.379 N 
ATOM      8  H1  UNL     1      -9.043 -22.243  -2.476  1.00  0.00     0.164 HD
BRANCH   7   9
HETATM    9  C5  UNL     1      -9.142 -20.604  -1.232  1.00  0.00     0.083 C 
BRANCH   9  10
HETATM   10  C4  UNL     1      -9.217 -20.526   0.227  1.00  0.00    -0.010 C 
BRANCH  10  11
HETATM   11  C3  UNL     1      -8.231 -19.789   1.024  1.00  0.00     0.028 C 
BRANCH  11  12
HETATM   12  C2  UNL     1      -8.139 -20.043   2.480  1.00  0.00    -0.001 C 
HETATM   13  C1  UNL     1      -6.894 -19.578   3.138  1.00  0.00     0.005 C 
ENDBRANCH  11  12
ENDBRANCH  10  11
ENDBRANCH   9  10
ENDBRANCH   7   9
ENDBRANCH   6   7
ENDBRANCH   5   6
ENDBRANCH   1   5
BRANCH   3  14
HETATM   14  C11 UNL     1      -6.577 -24.752   2.897  1.00  0.00     0.009 C 
BRANCH  14  15
HETATM   15  C12 UNL     1      -6.757 -24.361   4.335  1.00  0.00     0.001 C 
BRANCH  15  16
HETATM   16  C13 UNL     1      -7.723 -23.219   4.512  1.00  0.00    -0.000 C 
BRANCH  16  17
HETATM   17  C14 UNL     1      -7.342 -22.296   5.621  1.00  0.00    -0.005 C 
HETATM   18  C15 UNL     1      -5.837 -22.155   5.641  1.00  0.00     0.005 C 
ENDBRANCH  16  17
ENDBRANCH  15  16
ENDBRANCH  14  15
ENDBRANCH   3  14
TORSDOF 11
ENDMDL
MODEL 2
REMARK VINA RESULT: -5.845965116      1.103      1.624
REMARK  11 active torsions:
REMARK  status: ('A' for Active; 'I' for Inactive)
REMARK    1  A    between atoms: C2_2  and  C3_3 
REMARK    2  A    between atoms: C3_3  and  C4_4 
REMARK    3  A    between atoms: C4_4  and  C5_5 
REMARK    4  A    between atoms: C5_5  and  N1_6 
REMARK    5  A    between atoms: N1_6  and  C6_8 
REMARK    6  A    between atoms: C6_8  and  C7_9 
REMARK    7  A    between atoms: C7_9  and  C8_10 
REMARK    8  A    between atoms: C10_12  and  C11_13 
REMARK    9  A    between atoms: C11_13  and  C12_14 
REMARK   10  A    between atoms: C12_14  and  C13_15 
REMARK   11  A    between atoms: C13_15  and  C14_16 
ROOT
HETATM    1  C8  UNL     1      -6.905 -23.379   0.094  1.00  0.00    -0.078 A 
HETATM    2  C9  UNL     1      -6.089 -22.706   0.815  1.00  0.00    -0.019 A 
HETATM    3  C10 UNL     1      -6.465 -23.406   2.037  1.00  0.00     0.012 A 
HETATM    4  C16 UNL     1      -7.397 -24.169   1.189  1.00  0.00     0.042 A 
ENDROOT
BRANCH   1   5
HETATM    5  C7  UNL     1      -7.207 -23.324  -1.397  1.00  0.00     0.078 C 
BRANCH   5   6
HETATM    6  C6  UNL     1      -7.331 -21.913  -1.853  1.00  0.00     0.064 C 
BRANCH   6   7
HETATM    7  N1  UNL     1      -8.647 -21.450  -1.894  1.00  0.00    -0.379 N 
ATOM      8  H1  UNL     1      -9.270 -21.880  -2.577  1.00  0.00     0.164 HD
BRANCH   7   9
HETATM    9  C5  UNL     1      -9.178 -20.459  -1.088  1.00  0.00     0.083 C 
BRANCH   9  10
HETATM   10  C4  UNL     1      -9.166 -20.529   0.373  1.00  0.00    -0.010 C 
BRANCH  10  11
HETATM   11  C3  UNL     1      -8.292 -19.681   1.191  1.00  0.00     0.028 C 
BRANCH  11  12
HETATM   12  C2  UNL     1      -7.057 -19.122   0.593  1.00  0.00    -0.001 C 
HETATM   13  C1  UNL     1      -6.019 -18.680   1.555  1.00  0.00     0.005 C 
ENDBRANCH  11  12
ENDBRANCH  10  11
ENDBRANCH   9  10
ENDBRANCH   7   9
ENDBRANCH   6   7
ENDBRANCH   5   6
ENDBRANCH   1   5
BRANCH   3  14
HETATM   14  C11 UNL     1      -7.107 -22.537   3.111  1.00  0.00     0.009 C 
BRANCH  14  15
HETATM   15  C12 UNL     1      -6.396 -22.845   4.397  1.00  0.00     0.001 C 
BRANCH  15  16
HETATM   16  C13 UNL     1      -6.198 -21.628   5.260  1.00  0.00    -0.000 C 
BRANCH  16  17
HETATM   17  C14 UNL     1      -6.882 -20.414   4.726  1.00  0.00    -0.005 C 
HETATM   18  C15 UNL     1      -6.213 -19.186   5.301  1.00  0.00     0.005 C 
ENDBRANCH  16  17
ENDBRANCH  15  16
ENDBRANCH  14  15
ENDBRANCH   3  14
TORSDOF 11
ENDMDL
MODEL 3
REMARK VINA RESULT: -5.685483045      0.843      1.235
REMARK  11 active torsions:
REMARK  status: ('A' for Active; 'I' for Inactive)
REMARK    1  A    between atoms: C2_2  and  C3_3 
REMARK    2  A    between atoms: C3_3  and  C4_4 
REMARK    3  A    between atoms: C4_4  and  C5_5 
REMARK    4  A    between atoms: C5_5  and  N1_6 
REMARK    5  A    between atoms: N1_6  and  C6_8 
REMARK    6  A    between atoms: C6_8  and  C7_9 
REMARK    7  A    between atoms: C7_9  and  C8_10 
REMARK    8  A    between atoms: C10_12  and  C11_13 
REMARK    9  A    between atoms: C11_13  and  C12_14 
REMARK   10  A    between atoms: C12_14  and  C13_15 
REMARK   11  A    between atoms: C13_15  and  C14_16 
ROOT
HETATM    1  C8  UNL     1      -6.678 -23.340   0.525  1.00  0.00    -0.078 A 
HETATM    2  C9  UNL     1      -5.982 -23.255   1.597  1.00  0.00    -0.019 A 
HETATM    3  C10 UNL     1      -6.832 -24.192   2.320  1.00  0.00     0.012 A 
HETATM    4  C16 UNL     1      -7.619 -24.275   1.077  1.00  0.00     0.042 A 
ENDROOT
BRANCH   1   5
HETATM    5  C7  UNL     1      -6.519 -22.667  -0.830  1.00  0.00     0.078 C 
BRANCH   5   6
HETATM    6  C6  UNL     1      -7.685 -22.970  -1.704  1.00  0.00     0.064 C 
BRANCH   6   7
HETATM    7  N1  UNL     1      -8.418 -21.841  -2.073  1.00  0.00    -0.379 N 
ATOM      8  H1  UNL     1      -8.843 -21.844  -3.000  1.00  0.00     0.164 HD
BRANCH   7   9
HETATM    9  C5  UNL     1      -8.618 -20.718  -1.290  1.00  0.00     0.083 C 
BRANCH   9  10
HETATM   10  C4  UNL     1      -9.444 -20.726  -0.083  1.00  0.00    -0.010 C 
BRANCH  10  11
HETATM   11  C3  UNL     1      -9.180 -19.839   1.054  1.00  0.00     0.028 C 
BRANCH  11  12
HETATM   12  C2  UNL     1      -8.151 -20.222   2.049  1.00  0.00    -0.001 C 
HETATM   13  C1  UNL     1      -6.802 -19.644   1.837  1.00  0.00     0.005 C 
ENDBRANCH  11  12
ENDBRANCH  10  11
ENDBRANCH   9  10
ENDBRANCH   7   9
ENDBRANCH   6   7
ENDBRANCH   5   6
ENDBRANCH   1   5
BRANCH   3  14
HETATM   14  C11 UNL     1      -7.559 -23.610   3.526  1.00  0.00     0.009 C 
BRANCH  14  15
HETATM   15  C12 UNL     1      -6.891 -24.175   4.746  1.00  0.00     0.001 C 
BRANCH  15  16
HETATM   16  C13 UNL     1      -6.248 -23.116   5.601  1.00  0.00    -0.000 C 
BRANCH  16  17
HETATM   17  C14 UNL     1      -6.395 -21.740   5.039  1.00  0.00    -0.005 C 
HETATM   18  C15 UNL     1      -7.003 -20.846   6.094  1.00  0.00     0.005 C 
ENDBRANCH  16  17
ENDBRANCH  15  16
ENDBRANCH  14  15
ENDBRANCH   3  14
TORSDOF 11
ENDMDL
MODEL 4
REMARK VINA RESULT: -5.685452169      2.188      4.931
REMARK  11 active torsions:
REMARK  status: ('A' for Active; 'I' for Inactive)
REMARK    1  A    between atoms: C2_2  and  C3_3 
REMARK    2  A    between atoms: C3_3  and  C4_4 
REMARK    3  A    between atoms: C4_4  and  C5_5 
REMARK    4  A    between atoms: C5_5  and  N1_6 
REMARK    5  A    between atoms: N1_6  and  C6_8 
REMARK    6  A    between atoms: C6_8  and  C7_9 
REMARK    7  A    between atoms: C7_9  and  C8_10 
REMARK    8  A    between atoms: C10_12  and  C11_13 
REMARK    9  A    between atoms: C11_13  and  C12_14 
REMARK   10  A    between atoms: C12_14  and  C13_15 
REMARK   11  A    between atoms: C13_15  and  C14_16 
ROOT
HETATM    1  C8  UNL     1      -6.943 -24.423   2.739  1.00  0.00    -0.078 A 
HETATM    2  C9  UNL     1      -7.743 -24.808   1.817  1.00  0.00    -0.019 A 
HETATM    3  C10 UNL     1      -7.073 -24.018   0.792  1.00  0.00     0.012 A 
HETATM    4  C16 UNL     1      -6.163 -23.587   1.867  1.00  0.00     0.042 A 
ENDROOT
BRANCH   1   5
HETATM    5  C7  UNL     1      -6.881 -24.762   4.221  1.00  0.00     0.078 C 
BRANCH   5   6
HETATM    6  C6  UNL     1      -6.688 -23.530   5.032  1.00  0.00     0.064 C 
BRANCH   6   7
HETATM    7  N1  UNL     1      -7.859 -22.795   5.223  1.00  0.00    -0.379 N 
ATOM      8  H1  UNL     1      -8.657 -23.286   5.626  1.00  0.00     0.164 HD
BRANCH   7   9
HETATM    9  C5  UNL     1      -8.030 -21.457   4.914  1.00  0.00     0.083 C 
BRANCH   9  10
HETATM   10  C4  UNL     1      -7.163 -20.739   3.981  1.00  0.00    -0.010 C 
BRANCH  10  11
HETATM   11  C3  UNL     1      -7.641 -20.257   2.680  1.00  0.00     0.028 C 
BRANCH  11  12
HETATM   12  C2  UNL     1      -6.660 -19.781   1.678  1.00  0.00    -0.001 C 
HETATM   13  C1  UNL     1      -7.233 -19.196   0.442  1.00  0.00     0.005 C 
ENDBRANCH  11  12
ENDBRANCH  10  11
ENDBRANCH   9  10
ENDBRANCH   7   9
ENDBRANCH   6   7
ENDBRANCH   5   6
ENDBRANCH   1   5
BRANCH   3  14
HETATM   14  C11 UNL     1      -7.921 -22.920   0.162  1.00  0.00     0.009 C 
BRANCH  14  15
HETATM   15  C12 UNL     1      -7.786 -23.071  -1.326  1.00  0.00     0.001 C 
BRANCH  15  16
HETATM   16  C13 UNL     1      -6.355 -23.020  -1.790  1.00  0.00    -0.000 C 
BRANCH  16  17
HETATM   17  C14 UNL     1      -5.778 -21.643  -1.756  1.00  0.00    -0.005 C 
HETATM   18  C15 UNL     1      -4.488 -21.676  -0.968  1.00  0.00     0.005 C 
ENDBRANCH  16  17
ENDBRANCH  15  16
ENDBRANCH  14  15
ENDBRANCH   3  14
TORSDOF 11
ENDMDL
MODEL 5
REMARK VINA RESULT: -5.684174072      1.529      4.221
REMARK  11 active torsions:
REMARK  status: ('A' for Active; 'I' for Inactive)
REMARK    1  A    between atoms: C2_2  and  C3_3 
REMARK    2  A    between atoms: C3_3  and  C4_4 
REMARK    3  A    between atoms: C4_4  and  C5_5 
REMARK    4  A    between atoms: C5_5  and  N1_6 
REMARK    5  A    between atoms: N1_6  and  C6_8 
REMARK    6  A    between atoms: C6_8  and  C7_9 
REMARK    7  A    between atoms: C7_9  and  C8_10 
REMARK    8  A    between atoms: C10_12  and  C11_13 
REMARK    9  A    between atoms: C11_13  and  C12_14 
REMARK   10  A    between atoms: C12_14  and  C13_15 
REMARK   11  A    between atoms: C13_15  and  C14_16 
ROOT
HETATM    1  C8  UNL     1      -8.025 -19.939   0.591  1.00  0.00    -0.078 A 
HETATM    2  C9  UNL     1      -6.770 -19.712   0.473  1.00  0.00    -0.019 A 
HETATM    3  C10 UNL     1      -6.634 -19.281   1.858  1.00  0.00     0.012 A 
HETATM    4  C16 UNL     1      -8.079 -19.549   1.973  1.00  0.00     0.042 A 
ENDROOT
BRANCH   1   5
HETATM    5  C7  UNL     1      -9.051 -20.445  -0.412  1.00  0.00     0.078 C 
BRANCH   5   6
HETATM    6  C6  UNL     1      -8.403 -20.744  -1.717  1.00  0.00     0.064 C 
BRANCH   6   7
HETATM    7  N1  UNL     1      -8.399 -22.100  -2.045  1.00  0.00    -0.379 N 
ATOM      8  H1  UNL     1      -9.287 -22.512  -2.334  1.00  0.00     0.164 HD
BRANCH   7   9
HETATM    9  C5  UNL     1      -7.297 -22.935  -2.012  1.00  0.00     0.083 C 
BRANCH   9  10
HETATM   10  C4  UNL     1      -6.486 -23.135  -0.811  1.00  0.00    -0.010 C 
BRANCH  10  11
HETATM   11  C3  UNL     1      -7.071 -23.542   0.471  1.00  0.00     0.028 C 
BRANCH  11  12
HETATM   12  C2  UNL     1      -6.327 -23.279   1.724  1.00  0.00    -0.001 C 
HETATM   13  C1  UNL     1      -7.158 -22.983   2.917  1.00  0.00     0.005 C 
ENDBRANCH  11  12
ENDBRANCH  10  11
ENDBRANCH   9  10
ENDBRANCH   7   9
ENDBRANCH   6   7
ENDBRANCH   5   6
ENDBRANCH   1   5
BRANCH   3  14
HETATM   14  C11 UNL     1      -6.213 -17.830   2.049  1.00  0.00     0.009 C 
BRANCH  14  15
HETATM   15  C12 UNL     1      -5.558 -17.745   3.397  1.00  0.00     0.001 C 
BRANCH  15  16
HETATM   16  C13 UNL     1      -6.545 -17.528   4.512  1.00  0.00    -0.000 C 
BRANCH  16  17
HETATM   17  C14 UNL     1      -6.241 -18.336   5.730  1.00  0.00    -0.005 C 
HETATM   18  C15 UNL     1      -6.535 -19.789   5.435  1.00  0.00     0.005 C 
ENDBRANCH  16  17
ENDBRANCH  15  16
ENDBRANCH  14  15
ENDBRANCH   3  14
TORSDOF 11
ENDMDL
