MODEL 1
REMARK VINA RESULT: -6.587152904      0.000      0.000
REMARK  10 active torsions:
REMARK  status: ('A' for Active; 'I' for Inactive)
REMARK    1  A    between atoms: C3_3  and  C4_4 
REMARK    2  A    between atoms: N1_10  and  C6_11 
REMARK    3  A    between atoms: C9_14  and  O2_15 
REMARK    4  A    between atoms: C10_17  and  C11_18 
REMARK    5  A    between atoms: N2_19  and  C12_21 
REMARK    6  A    between atoms: C12_21  and  C13_22 
REMARK    7  A    between atoms: C13_22  and  C14_23 
REMARK    8  A    between atoms: C14_23  and  S1_24 
REMARK    9  A    between atoms: S1_24  and  C15_25 
REMARK   10  A    between atoms: N3_33  and  O3_34 
ROOT
HETATM    1  C6  UNL     1      -3.944   1.535   4.268  1.00  0.00     0.063 A 
HETATM    2  C7  UNL     1      -4.791   0.628   4.831  1.00  0.00     0.034 A 
HETATM    3  C8  UNL     1      -6.072   0.411   4.391  1.00  0.00     0.040 A 
HETATM    4  C9  UNL     1      -6.537   1.162   3.302  1.00  0.00     0.077 A 
HETATM    5  C10 UNL     1      -5.719   2.089   2.700  1.00  0.00     0.014 A 
HETATM    6  C22 UNL     1      -4.449   2.263   3.182  1.00  0.00     0.047 A 
ENDROOT
BRANCH   5   7
HETATM    7  C11 UNL     1      -6.201   2.886   1.550  1.00  0.00     0.097 C 
HETATM    8  N2  UNL     1      -6.477   2.289   0.438  1.00  0.00    -0.398 N 
ATOM      9  H2  UNL     1      -6.342   1.278   0.422  1.00  0.00     0.158 HD
BRANCH   8  10
HETATM   10  C12 UNL     1      -6.946   2.880  -0.761  1.00  0.00     0.119 C 
BRANCH  10  11
HETATM   11  C13 UNL     1      -6.810   2.119  -2.023  1.00  0.00     0.030 C 
BRANCH  11  12
HETATM   12  C14 UNL     1      -5.444   1.918  -2.560  1.00  0.00     0.081 C 
BRANCH  12  13
HETATM   13  S1  UNL     1      -4.472   3.388  -2.833  1.00  0.00    -0.135 SA
BRANCH  13  14
HETATM   14  C15 UNL     1      -3.051   3.349  -1.752  1.00  0.00    -0.026 C 
HETATM   15  C16 UNL     1      -3.119   2.707  -0.594  1.00  0.00    -0.013 C 
HETATM   16  C17 UNL     1      -2.103   2.549   0.430  1.00  0.00     0.028 C 
HETATM   17  C18 UNL     1      -0.767   2.068   0.002  1.00  0.00     0.004 C 
HETATM   18  C19 UNL     1      -0.190   2.684  -1.218  1.00  0.00     0.001 C 
HETATM   19  C20 UNL     1      -0.712   4.100  -1.333  1.00  0.00     0.005 C 
HETATM   20  C21 UNL     1      -1.879   4.075  -2.282  1.00  0.00     0.045 C 
ENDBRANCH  13  14
ENDBRANCH  12  13
ENDBRANCH  11  12
ENDBRANCH  10  11
ENDBRANCH   8  10
ENDBRANCH   5   7
BRANCH   4  21
HETATM   21  O2  UNL     1      -7.816   0.962   2.842  1.00  0.00    -0.360 OA
ATOM     22  H2  UNL     1      -7.978   0.946   1.906  1.00  0.00     0.217 HD
ENDBRANCH   4  21
BRANCH   1  23
HETATM   23  N1  UNL     1      -2.619   1.754   4.735  1.00  0.00    -0.193 N 
HETATM   24  C5  UNL     1      -1.467   1.297   4.220  1.00  0.00     0.286 A 
HETATM   25  C3  UNL     1      -0.425   1.753   4.998  1.00  0.00     0.143 A 
HETATM   26  O1  UNL     1      -1.367   0.583   3.210  1.00  0.00    -0.265 OA
HETATM   27  C2  UNL     1      -1.001   2.500   5.999  1.00  0.00     0.076 A 
HETATM   28  C1  UNL     1      -0.320   3.202   7.086  1.00  0.00     0.074 C 
HETATM   29  N3  UNL     1      -2.333   2.480   5.809  1.00  0.00    -0.157 N 
BRANCH  25  30
HETATM   30  C4  UNL     1       1.015   1.524   4.839  1.00  0.00     0.424 C 
HETATM   31  F1  UNL     1       1.402   2.089   3.634  1.00  0.00    -0.166 F 
HETATM   32  F2  UNL     1       1.759   2.172   5.821  1.00  0.00    -0.166 F 
HETATM   33  F3  UNL     1       1.326   0.183   4.759  1.00  0.00    -0.166 F 
ENDBRANCH  25  30
BRANCH  29  34
HETATM   34  O3  UNL     1      -3.266   3.110   6.601  1.00  0.00    -0.267 OA
ATOM     35  H3  UNL     1      -3.923   3.728   6.300  1.00  0.00     0.247 HD
ENDBRANCH  29  34
ENDBRANCH   1  23
TORSDOF 10
ENDMDL
MODEL 2
REMARK VINA RESULT: -6.407255672      2.799      5.213
REMARK  10 active torsions:
REMARK  status: ('A' for Active; 'I' for Inactive)
REMARK    1  A    between atoms: C3_3  and  C4_4 
REMARK    2  A    between atoms: N1_10  and  C6_11 
REMARK    3  A    between atoms: C9_14  and  O2_15 
REMARK    4  A    between atoms: C10_17  and  C11_18 
REMARK    5  A    between atoms: N2_19  and  C12_21 
REMARK    6  A    between atoms: C12_21  and  C13_22 
REMARK    7  A    between atoms: C13_22  and  C14_23 
REMARK    8  A    between atoms: C14_23  and  S1_24 
REMARK    9  A    between atoms: S1_24  and  C15_25 
REMARK   10  A    between atoms: N3_33  and  O3_34 
ROOT
HETATM    1  C6  UNL     1      -1.498   2.585   1.190  1.00  0.00     0.063 A 
HETATM    2  C7  UNL     1      -1.240   2.313  -0.120  1.00  0.00     0.034 A 
HETATM    3  C8  UNL     1      -2.203   2.309  -1.097  1.00  0.00     0.040 A 
HETATM    4  C9  UNL     1      -3.525   2.603  -0.730  1.00  0.00     0.077 A 
HETATM    5  C10 UNL     1      -3.833   2.886   0.580  1.00  0.00     0.014 A 
HETATM    6  C22 UNL     1      -2.831   2.875   1.513  1.00  0.00     0.047 A 
ENDROOT
BRANCH   5   7
HETATM    7  C11 UNL     1      -5.224   3.198   0.976  1.00  0.00     0.097 C 
HETATM    8  N2  UNL     1      -6.082   2.238   1.082  1.00  0.00    -0.398 N 
ATOM      9  H2  UNL     1      -5.738   1.299   0.881  1.00  0.00     0.158 HD
BRANCH   8  10
HETATM   10  C12 UNL     1      -7.447   2.343   1.447  1.00  0.00     0.119 C 
BRANCH  10  11
HETATM   11  C13 UNL     1      -8.197   1.101   1.738  1.00  0.00     0.030 C 
BRANCH  11  12
HETATM   12  C14 UNL     1      -9.317   1.185   2.705  1.00  0.00     0.081 C 
BRANCH  12  13
HETATM   13  S1  UNL     1      -9.062   0.409   4.289  1.00  0.00    -0.135 SA
BRANCH  13  14
HETATM   14  C15 UNL     1      -7.377   0.694   4.807  1.00  0.00    -0.026 C 
HETATM   15  C16 UNL     1      -6.501  -0.301   4.788  1.00  0.00    -0.013 C 
HETATM   16  C17 UNL     1      -5.100  -0.300   5.161  1.00  0.00     0.028 C 
HETATM   17  C18 UNL     1      -4.234   0.752   4.574  1.00  0.00     0.004 C 
HETATM   18  C19 UNL     1      -4.774   2.134   4.557  1.00  0.00     0.001 C 
HETATM   19  C20 UNL     1      -5.710   2.298   5.734  1.00  0.00     0.005 C 
HETATM   20  C21 UNL     1      -7.111   2.084   5.230  1.00  0.00     0.045 C 
ENDBRANCH  13  14
ENDBRANCH  12  13
ENDBRANCH  11  12
ENDBRANCH  10  11
ENDBRANCH   8  10
ENDBRANCH   5   7
BRANCH   4  21
HETATM   21  O2  UNL     1      -4.506   2.607  -1.691  1.00  0.00    -0.360 OA
ATOM     22  H2  UNL     1      -5.385   2.885  -1.459  1.00  0.00     0.217 HD
ENDBRANCH   4  21
BRANCH   1  23
HETATM   23  N1  UNL     1      -0.492   2.583   2.195  1.00  0.00    -0.193 N 
HETATM   24  C5  UNL     1      -0.242   1.646   3.123  1.00  0.00     0.286 A 
HETATM   25  C3  UNL     1       0.825   2.060   3.891  1.00  0.00     0.143 A 
HETATM   26  O1  UNL     1      -0.874   0.587   3.259  1.00  0.00    -0.265 OA
HETATM   27  C2  UNL     1       1.203   3.281   3.383  1.00  0.00     0.076 A 
HETATM   28  C1  UNL     1       2.292   4.137   3.852  1.00  0.00     0.074 C 
HETATM   29  N3  UNL     1       0.384   3.568   2.355  1.00  0.00    -0.157 N 
BRANCH  25  30
HETATM   30  C4  UNL     1       1.466   1.381   5.021  1.00  0.00     0.424 C 
HETATM   31  F1  UNL     1       0.693   0.276   5.344  1.00  0.00    -0.166 F 
HETATM   32  F2  UNL     1       2.722   0.882   4.687  1.00  0.00    -0.166 F 
HETATM   33  F3  UNL     1       1.510   2.170   6.151  1.00  0.00    -0.166 F 
ENDBRANCH  25  30
BRANCH  29  34
HETATM   34  O3  UNL     1       0.434   4.706   1.582  1.00  0.00    -0.267 OA
ATOM     35  H3  UNL     1       0.775   4.760   0.697  1.00  0.00     0.247 HD
ENDBRANCH  29  34
ENDBRANCH   1  23
TORSDOF 10
ENDMDL
MODEL 3
REMARK VINA RESULT: -6.379875816      0.703      1.440
REMARK  10 active torsions:
REMARK  status: ('A' for Active; 'I' for Inactive)
REMARK    1  A    between atoms: C3_3  and  C4_4 
REMARK    2  A    between atoms: N1_10  and  C6_11 
REMARK    3  A    between atoms: C9_14  and  O2_15 
REMARK    4  A    between atoms: C10_17  and  C11_18 
REMARK    5  A    between atoms: N2_19  and  C12_21 
REMARK    6  A    between atoms: C12_21  and  C13_22 
REMARK    7  A    between atoms: C13_22  and  C14_23 
REMARK    8  A    between atoms: C14_23  and  S1_24 
REMARK    9  A    between atoms: S1_24  and  C15_25 
REMARK   10  A    between atoms: N3_33  and  O3_34 
ROOT
HETATM    1  C6  UNL     1      -3.915   1.454   4.403  1.00  0.00     0.063 A 
HETATM    2  C7  UNL     1      -4.727   0.554   5.027  1.00  0.00     0.034 A 
HETATM    3  C8  UNL     1      -6.012   0.287   4.626  1.00  0.00     0.040 A 
HETATM    4  C9  UNL     1      -6.518   0.976   3.514  1.00  0.00     0.077 A 
HETATM    5  C10 UNL     1      -5.736   1.893   2.852  1.00  0.00     0.014 A 
HETATM    6  C22 UNL     1      -4.460   2.119   3.297  1.00  0.00     0.047 A 
ENDROOT
BRANCH   5   7
HETATM    7  C11 UNL     1      -6.261   2.623   1.678  1.00  0.00     0.097 C 
HETATM    8  N2  UNL     1      -5.557   2.673   0.596  1.00  0.00    -0.398 N 
ATOM      9  H2  UNL     1      -4.658   2.191   0.619  1.00  0.00     0.158 HD
BRANCH   8  10
HETATM   10  C12 UNL     1      -5.893   3.320  -0.619  1.00  0.00     0.119 C 
BRANCH  10  11
HETATM   11  C13 UNL     1      -5.790   2.551  -1.880  1.00  0.00     0.030 C 
BRANCH  11  12
HETATM   12  C14 UNL     1      -4.508   2.620  -2.622  1.00  0.00     0.081 C 
BRANCH  12  13
HETATM   13  S1  UNL     1      -3.437   3.991  -2.235  1.00  0.00    -0.135 SA
BRANCH  13  14
HETATM   14  C15 UNL     1      -1.947   3.364  -1.477  1.00  0.00    -0.026 C 
HETATM   15  C16 UNL     1      -0.763   3.682  -1.983  1.00  0.00    -0.013 C 
HETATM   16  C17 UNL     1       0.561   3.291  -1.539  1.00  0.00     0.028 C 
HETATM   17  C18 UNL     1       0.889   3.483  -0.105  1.00  0.00     0.004 C 
HETATM   18  C19 UNL     1      -0.139   3.066   0.880  1.00  0.00     0.001 C 
HETATM   19  C20 UNL     1      -0.935   1.924   0.288  1.00  0.00     0.005 C 
HETATM   20  C21 UNL     1      -2.192   2.507  -0.299  1.00  0.00     0.045 C 
ENDBRANCH  13  14
ENDBRANCH  12  13
ENDBRANCH  11  12
ENDBRANCH  10  11
ENDBRANCH   8  10
ENDBRANCH   5   7
BRANCH   4  21
HETATM   21  O2  UNL     1      -7.801   0.725   3.093  1.00  0.00    -0.360 OA
ATOM     22  H2  UNL     1      -8.477   1.375   3.244  1.00  0.00     0.217 HD
ENDBRANCH   4  21
BRANCH   1  23
HETATM   23  N1  UNL     1      -2.586   1.724   4.831  1.00  0.00    -0.193 N 
HETATM   24  C5  UNL     1      -1.434   1.282   4.303  1.00  0.00     0.286 A 
HETATM   25  C3  UNL     1      -0.387   1.793   5.039  1.00  0.00     0.143 A 
HETATM   26  O1  UNL     1      -1.338   0.537   3.315  1.00  0.00    -0.265 OA
HETATM   27  C2  UNL     1      -0.960   2.559   6.028  1.00  0.00     0.076 A 
HETATM   28  C1  UNL     1      -0.274   3.316   7.073  1.00  0.00     0.074 C 
HETATM   29  N3  UNL     1      -2.295   2.495   5.872  1.00  0.00    -0.157 N 
BRANCH  25  30
HETATM   30  C4  UNL     1       1.055   1.598   4.852  1.00  0.00     0.424 C 
HETATM   31  F1  UNL     1       1.288   0.234   4.766  1.00  0.00    -0.166 F 
HETATM   32  F2  UNL     1       1.504   2.138   3.650  1.00  0.00    -0.166 F 
HETATM   33  F3  UNL     1       1.789   2.052   5.927  1.00  0.00    -0.166 F 
ENDBRANCH  25  30
BRANCH  29  34
HETATM   34  O3  UNL     1      -3.227   3.126   6.664  1.00  0.00    -0.267 OA
ATOM     35  H3  UNL     1      -4.157   3.192   6.481  1.00  0.00     0.247 HD
ENDBRANCH  29  34
ENDBRANCH   1  23
TORSDOF 10
ENDMDL
MODEL 4
REMARK VINA RESULT: -6.210346526      5.328      8.927
REMARK  10 active torsions:
REMARK  status: ('A' for Active; 'I' for Inactive)
REMARK    1  A    between atoms: C3_3  and  C4_4 
REMARK    2  A    between atoms: N1_10  and  C6_11 
REMARK    3  A    between atoms: C9_14  and  O2_15 
REMARK    4  A    between atoms: C10_17  and  C11_18 
REMARK    5  A    between atoms: N2_19  and  C12_21 
REMARK    6  A    between atoms: C12_21  and  C13_22 
REMARK    7  A    between atoms: C13_22  and  C14_23 
REMARK    8  A    between atoms: C14_23  and  S1_24 
REMARK    9  A    between atoms: S1_24  and  C15_25 
REMARK   10  A    between atoms: N3_33  and  O3_34 
ROOT
HETATM    1  C6  UNL     1      -5.333   2.556  -1.899  1.00  0.00     0.063 A 
HETATM    2  C7  UNL     1      -5.732   2.633  -0.598  1.00  0.00     0.034 A 
HETATM    3  C8  UNL     1      -4.882   2.924   0.439  1.00  0.00     0.040 A 
HETATM    4  C9  UNL     1      -3.530   3.157   0.146  1.00  0.00     0.077 A 
HETATM    5  C10 UNL     1      -3.081   3.091  -1.152  1.00  0.00     0.014 A 
HETATM    6  C22 UNL     1      -3.975   2.796  -2.147  1.00  0.00     0.047 A 
ENDROOT
BRANCH   5   7
HETATM    7  C11 UNL     1      -1.658   3.335  -1.471  1.00  0.00     0.097 C 
HETATM    8  N2  UNL     1      -0.764   2.500  -1.058  1.00  0.00    -0.398 N 
ATOM      9  H2  UNL     1      -1.105   1.700  -0.523  1.00  0.00     0.158 HD
BRANCH   8  10
HETATM   10  C12 UNL     1       0.636   2.567  -1.264  1.00  0.00     0.119 C 
BRANCH  10  11
HETATM   11  C13 UNL     1       1.332   3.840  -0.972  1.00  0.00     0.030 C 
BRANCH  11  12
HETATM   12  C14 UNL     1       1.879   4.025   0.393  1.00  0.00     0.081 C 
BRANCH  12  13
HETATM   13  S1  UNL     1       0.751   4.648   1.625  1.00  0.00    -0.135 SA
BRANCH  13  14
HETATM   14  C15 UNL     1       0.760   3.543   3.028  1.00  0.00    -0.026 C 
HETATM   15  C16 UNL     1       0.155   2.365   2.946  1.00  0.00    -0.013 C 
HETATM   16  C17 UNL     1       0.035   1.322   3.947  1.00  0.00     0.028 C 
HETATM   17  C18 UNL     1       1.277   0.872   4.621  1.00  0.00     0.004 C 
HETATM   18  C19 UNL     1       2.215   1.928   5.075  1.00  0.00     0.001 C 
HETATM   19  C20 UNL     1       1.416   3.171   5.403  1.00  0.00     0.005 C 
HETATM   20  C21 UNL     1       1.477   4.077   4.203  1.00  0.00     0.045 C 
ENDBRANCH  13  14
ENDBRANCH  12  13
ENDBRANCH  11  12
ENDBRANCH  10  11
ENDBRANCH   8  10
ENDBRANCH   5   7
BRANCH   4  21
HETATM   21  O2  UNL     1      -2.660   3.452   1.167  1.00  0.00    -0.360 OA
ATOM     22  H2  UNL     1      -2.716   2.967   1.982  1.00  0.00     0.217 HD
ENDBRANCH   4  21
BRANCH   1  23
HETATM   23  N1  UNL     1      -6.224   2.250  -2.965  1.00  0.00    -0.193 N 
HETATM   24  C5  UNL     1      -6.354   1.096  -3.638  1.00  0.00     0.286 A 
HETATM   25  C3  UNL     1      -7.337   1.250  -4.591  1.00  0.00     0.143 A 
HETATM   26  O1  UNL     1      -5.694   0.066  -3.428  1.00  0.00    -0.265 OA
HETATM   27  C2  UNL     1      -7.789   2.542  -4.460  1.00  0.00     0.076 A 
HETATM   28  C1  UNL     1      -8.833   3.200  -5.244  1.00  0.00     0.074 C 
HETATM   29  N3  UNL     1      -7.092   3.121  -3.465  1.00  0.00    -0.157 N 
BRANCH  25  30
HETATM   30  C4  UNL     1      -7.839   0.274  -5.564  1.00  0.00     0.424 C 
HETATM   31  F1  UNL     1      -7.243  -0.945  -5.286  1.00  0.00    -0.166 F 
HETATM   32  F2  UNL     1      -9.210   0.066  -5.436  1.00  0.00    -0.166 F 
HETATM   33  F3  UNL     1      -7.486   0.595  -6.858  1.00  0.00    -0.166 F 
ENDBRANCH  25  30
BRANCH  29  34
HETATM   34  O3  UNL     1      -7.246   4.416  -3.025  1.00  0.00    -0.267 OA
ATOM     35  H3  UNL     1      -7.905   4.718  -2.411  1.00  0.00     0.247 HD
ENDBRANCH  29  34
ENDBRANCH   1  23
TORSDOF 10
ENDMDL
MODEL 5
REMARK VINA RESULT: -6.200502151      3.795      6.626
REMARK  10 active torsions:
REMARK  status: ('A' for Active; 'I' for Inactive)
REMARK    1  A    between atoms: C3_3  and  C4_4 
REMARK    2  A    between atoms: N1_10  and  C6_11 
REMARK    3  A    between atoms: C9_14  and  O2_15 
REMARK    4  A    between atoms: C10_17  and  C11_18 
REMARK    5  A    between atoms: N2_19  and  C12_21 
REMARK    6  A    between atoms: C12_21  and  C13_22 
REMARK    7  A    between atoms: C13_22  and  C14_23 
REMARK    8  A    between atoms: C14_23  and  S1_24 
REMARK    9  A    between atoms: S1_24  and  C15_25 
REMARK   10  A    between atoms: N3_33  and  O3_34 
ROOT
HETATM    1  C6  UNL     1      -3.555   3.111   5.913  1.00  0.00     0.063 A 
HETATM    2  C7  UNL     1      -3.717   3.835   7.056  1.00  0.00     0.034 A 
HETATM    3  C8  UNL     1      -2.673   4.249   7.844  1.00  0.00     0.040 A 
HETATM    4  C9  UNL     1      -1.369   3.911   7.454  1.00  0.00     0.077 A 
HETATM    5  C10 UNL     1      -1.156   3.181   6.308  1.00  0.00     0.014 A 
HETATM    6  C22 UNL     1      -2.236   2.795   5.559  1.00  0.00     0.047 A 
ENDROOT
BRANCH   5   7
HETATM    7  C11 UNL     1       0.216   2.820   5.889  1.00  0.00     0.097 C 
HETATM    8  N2  UNL     1       0.985   3.730   5.390  1.00  0.00    -0.398 N 
ATOM      9  H2  UNL     1       0.588   4.667   5.314  1.00  0.00     0.158 HD
BRANCH   8  10
HETATM   10  C12 UNL     1       2.318   3.573   4.936  1.00  0.00     0.119 C 
BRANCH  10  11
HETATM   11  C13 UNL     1       2.741   4.310   3.724  1.00  0.00     0.030 C 
BRANCH  11  12
HETATM   12  C14 UNL     1       1.679   4.859   2.848  1.00  0.00     0.081 C 
BRANCH  12  13
HETATM   13  S1  UNL     1       1.568   4.173   1.206  1.00  0.00    -0.135 SA
BRANCH  13  14
HETATM   14  C15 UNL     1       0.164   3.072   1.134  1.00  0.00    -0.026 C 
HETATM   15  C16 UNL     1      -0.131   2.309   2.178  1.00  0.00    -0.013 C 
HETATM   16  C17 UNL     1      -1.209   1.351   2.340  1.00  0.00     0.028 C 
HETATM   17  C18 UNL     1      -2.584   1.803   2.017  1.00  0.00     0.004 C 
HETATM   18  C19 UNL     1      -2.757   2.581   0.765  1.00  0.00     0.001 C 
HETATM   19  C20 UNL     1      -1.704   2.137  -0.225  1.00  0.00     0.005 C 
HETATM   20  C21 UNL     1      -0.568   3.121  -0.147  1.00  0.00     0.045 C 
ENDBRANCH  13  14
ENDBRANCH  12  13
ENDBRANCH  11  12
ENDBRANCH  10  11
ENDBRANCH   8  10
ENDBRANCH   5   7
BRANCH   4  21
HETATM   21  O2  UNL     1      -0.308   4.316   8.227  1.00  0.00    -0.360 OA
ATOM     22  H2  UNL     1      -0.302   5.195   8.588  1.00  0.00     0.217 HD
ENDBRANCH   4  21
BRANCH   1  23
HETATM   23  N1  UNL     1      -4.645   2.684   5.105  1.00  0.00    -0.193 N 
HETATM   24  C5  UNL     1      -5.363   1.554   5.202  1.00  0.00     0.286 A 
HETATM   25  C3  UNL     1      -6.321   1.554   4.211  1.00  0.00     0.143 A 
HETATM   26  O1  UNL     1      -5.187   0.664   6.049  1.00  0.00    -0.265 OA
HETATM   27  C2  UNL     1      -6.145   2.729   3.518  1.00  0.00     0.076 A 
HETATM   28  C1  UNL     1      -6.913   3.203   2.368  1.00  0.00     0.074 C 
HETATM   29  N3  UNL     1      -5.121   3.390   4.087  1.00  0.00    -0.157 N 
BRANCH  25  30
HETATM   30  C4  UNL     1      -7.339   0.542   3.912  1.00  0.00     0.424 C 
HETATM   31  F1  UNL     1      -8.524   0.946   4.507  1.00  0.00    -0.166 F 
HETATM   32  F2  UNL     1      -7.607   0.457   2.548  1.00  0.00    -0.166 F 
HETATM   33  F3  UNL     1      -7.030  -0.688   4.453  1.00  0.00    -0.166 F 
ENDBRANCH  25  30
BRANCH  29  34
HETATM   34  O3  UNL     1      -4.631   4.612   3.683  1.00  0.00    -0.267 OA
ATOM     35  H3  UNL     1      -5.068   5.448   3.794  1.00  0.00     0.247 HD
ENDBRANCH  29  34
ENDBRANCH   1  23
TORSDOF 10
ENDMDL
