MODEL 1
REMARK VINA RESULT: -6.974209336      0.000      0.000
REMARK  7 active torsions:
REMARK  status: ('A' for Active; 'I' for Inactive)
REMARK    1  A    between atoms: C5_6  and  S1_7 
REMARK    2  A    between atoms: S1_7  and  C6_8 
REMARK    3  A    between atoms: C6_8  and  C7_9 
REMARK    4  A    between atoms: C7_9  and  C10_12 
REMARK    5  A    between atoms: C10_12  and  N2_13 
REMARK    6  A    between atoms: N4_20  and  C12_22 
REMARK    7  A    between atoms: C12_22  and  C14_24 
ROOT
HETATM    1  C1  UNL     1     -17.263  -4.250  -3.380  1.00  0.00     0.050 C 
HETATM    2  C2  UNL     1     -16.737  -2.853  -3.431  1.00  0.00    -0.029 A 
HETATM    3  C3  UNL     1     -17.529  -1.892  -4.048  1.00  0.00     0.084 A 
HETATM    4  C4  UNL     1     -18.807  -2.230  -4.612  1.00  0.00     0.103 C 
HETATM    5  N1  UNL     1     -19.838  -2.515  -5.068  1.00  0.00    -0.191 NA
HETATM    6  C5  UNL     1     -17.016  -0.609  -4.082  1.00  0.00     0.092 A 
HETATM    7  N3  UNL     1     -15.835  -0.335  -3.553  1.00  0.00    -0.336 N 
ATOM      8  H3  UNL     1     -15.506   0.628  -3.606  1.00  0.00     0.168 HD
HETATM    9  C11 UNL     1     -15.014  -1.259  -2.931  1.00  0.00     0.108 A 
HETATM   10  N4  UNL     1     -13.935  -0.909  -2.471  1.00  0.00    -0.371 N 
ATOM     11  H4  UNL     1     -13.856   0.090  -2.660  1.00  0.00     0.161 HD
HETATM   12  C17 UNL     1     -15.499  -2.543  -2.882  1.00  0.00    -0.011 A 
HETATM   13  C18 UNL     1     -14.776  -3.673  -2.259  1.00  0.00     0.052 C 
ENDROOT
BRANCH   6  14
HETATM   14  S1  UNL     1     -18.027   0.635  -4.872  1.00  0.00    -0.110 SA
BRANCH  14  15
HETATM   15  C6  UNL     1     -18.794   1.725  -3.643  1.00  0.00     0.091 C 
BRANCH  15  16
HETATM   16  C7  UNL     1     -20.277   1.499  -3.541  1.00  0.00    -0.015 C 
HETATM   17  C8  UNL     1     -20.893   0.987  -4.799  1.00  0.00     0.017 C 
HETATM   18  C9  UNL     1     -20.471   0.412  -2.475  1.00  0.00     0.017 C 
BRANCH  16  19
HETATM   19  C10 UNL     1     -21.026   2.702  -3.073  1.00  0.00     0.239 C 
BRANCH  19  20
HETATM   20  N2  UNL     1     -20.344   3.945  -3.378  1.00  0.00    -0.079 N 
ATOM     21  H23 UNL     1     -19.481   3.771  -3.891  1.00  0.00     0.274 HD
ATOM     22  H22 UNL     1     -20.853   4.477  -4.084  1.00  0.00     0.274 HD
ATOM     23  H21 UNL     1     -20.168   4.514  -2.549  1.00  0.00     0.274 HD
ENDBRANCH  19  20
ENDBRANCH  16  19
ENDBRANCH  15  16
ENDBRANCH  14  15
ENDBRANCH   6  14
BRANCH  10  24
HETATM   24  C12 UNL     1     -12.814  -1.258  -1.831  1.00  0.00     0.082 C 
HETATM   25  C13 UNL     1     -11.645  -0.347  -2.312  1.00  0.00     0.032 C 
BRANCH  24  26
HETATM   26  C14 UNL     1     -12.806  -1.030  -0.312  1.00  0.00    -0.000 C 
HETATM   27  C15 UNL     1     -11.637  -0.232   0.157  1.00  0.00     0.011 C 
HETATM   28  C16 UNL     1     -12.838  -2.334   0.434  1.00  0.00     0.011 C 
ENDBRANCH  24  26
ENDBRANCH  10  24
TORSDOF 7
ENDMDL
MODEL 2
REMARK VINA RESULT: -6.303288255      1.174      1.428
REMARK  7 active torsions:
REMARK  status: ('A' for Active; 'I' for Inactive)
REMARK    1  A    between atoms: C5_6  and  S1_7 
REMARK    2  A    between atoms: S1_7  and  C6_8 
REMARK    3  A    between atoms: C6_8  and  C7_9 
REMARK    4  A    between atoms: C7_9  and  C10_12 
REMARK    5  A    between atoms: C10_12  and  N2_13 
REMARK    6  A    between atoms: N4_20  and  C12_22 
REMARK    7  A    between atoms: C12_22  and  C14_24 
ROOT
HETATM    1  C1  UNL     1     -16.995  -4.859  -4.670  1.00  0.00     0.050 C 
HETATM    2  C2  UNL     1     -16.598  -3.498  -4.199  1.00  0.00    -0.029 A 
HETATM    3  C3  UNL     1     -17.222  -2.407  -4.792  1.00  0.00     0.084 A 
HETATM    4  C4  UNL     1     -18.214  -2.583  -5.817  1.00  0.00     0.103 C 
HETATM    5  N1  UNL     1     -19.014  -2.736  -6.647  1.00  0.00    -0.191 NA
HETATM    6  C5  UNL     1     -16.833  -1.161  -4.338  1.00  0.00     0.092 A 
HETATM    7  N3  UNL     1     -15.916  -1.038  -3.392  1.00  0.00    -0.336 N 
ATOM      8  H3  UNL     1     -15.667  -0.095  -3.095  1.00  0.00     0.168 HD
HETATM    9  C11 UNL     1     -15.269  -2.095  -2.777  1.00  0.00     0.108 A 
HETATM   10  N4  UNL     1     -14.431  -1.881  -1.910  1.00  0.00    -0.371 N 
ATOM     11  H4  UNL     1     -14.377  -0.867  -1.811  1.00  0.00     0.161 HD
HETATM   12  C17 UNL     1     -15.637  -3.346  -3.208  1.00  0.00    -0.011 A 
HETATM   13  C18 UNL     1     -15.066  -4.602  -2.675  1.00  0.00     0.052 C 
ENDROOT
BRANCH   6  14
HETATM   14  S1  UNL     1     -17.630   0.250  -5.092  1.00  0.00    -0.110 SA
BRANCH  14  15
HETATM   15  C6  UNL     1     -18.234   1.406  -3.832  1.00  0.00     0.091 C 
BRANCH  15  16
HETATM   16  C7  UNL     1     -19.720   1.298  -3.638  1.00  0.00    -0.015 C 
HETATM   17  C8  UNL     1     -20.306   0.040  -4.186  1.00  0.00     0.017 C 
HETATM   18  C9  UNL     1     -19.954   1.274  -2.122  1.00  0.00     0.017 C 
BRANCH  16  19
HETATM   19  C10 UNL     1     -20.471   2.471  -4.173  1.00  0.00     0.239 C 
BRANCH  19  20
HETATM   20  N2  UNL     1     -20.174   3.702  -3.467  1.00  0.00    -0.079 N 
ATOM     21  H23 UNL     1     -20.957   4.352  -3.522  1.00  0.00     0.274 HD
ATOM     22  H22 UNL     1     -20.156   3.548  -2.458  1.00  0.00     0.274 HD
ATOM     23  H21 UNL     1     -19.310   4.142  -3.784  1.00  0.00     0.274 HD
ENDBRANCH  19  20
ENDBRANCH  16  19
ENDBRANCH  15  16
ENDBRANCH  14  15
ENDBRANCH   6  14
BRANCH  10  24
HETATM   24  C12 UNL     1     -13.555  -2.388  -1.037  1.00  0.00     0.082 C 
HETATM   25  C13 UNL     1     -12.342  -1.417  -0.905  1.00  0.00     0.032 C 
BRANCH  24  26
HETATM   26  C14 UNL     1     -14.042  -2.504   0.416  1.00  0.00    -0.000 C 
HETATM   27  C15 UNL     1     -12.951  -2.834   1.377  1.00  0.00     0.011 C 
HETATM   28  C16 UNL     1     -15.133  -3.530   0.543  1.00  0.00     0.011 C 
ENDBRANCH  24  26
ENDBRANCH  10  24
TORSDOF 7
ENDMDL
MODEL 3
REMARK VINA RESULT: -6.262710618      2.561      4.644
REMARK  7 active torsions:
REMARK  status: ('A' for Active; 'I' for Inactive)
REMARK    1  A    between atoms: C5_6  and  S1_7 
REMARK    2  A    between atoms: S1_7  and  C6_8 
REMARK    3  A    between atoms: C6_8  and  C7_9 
REMARK    4  A    between atoms: C7_9  and  C10_12 
REMARK    5  A    between atoms: C10_12  and  N2_13 
REMARK    6  A    between atoms: N4_20  and  C12_22 
REMARK    7  A    between atoms: C12_22  and  C14_24 
ROOT
HETATM    1  C1  UNL     1     -12.875  -2.654   0.996  1.00  0.00     0.050 C 
HETATM    2  C2  UNL     1     -13.118  -1.996  -0.322  1.00  0.00    -0.029 A 
HETATM    3  C3  UNL     1     -14.220  -2.417  -1.055  1.00  0.00     0.084 A 
HETATM    4  C4  UNL     1     -15.095  -3.446  -0.562  1.00  0.00     0.103 C 
HETATM    5  N1  UNL     1     -15.794  -4.281  -0.155  1.00  0.00    -0.191 NA
HETATM    6  C5  UNL     1     -14.419  -1.792  -2.272  1.00  0.00     0.092 A 
HETATM    7  N3  UNL     1     -13.593  -0.849  -2.694  1.00  0.00    -0.336 N 
ATOM      8  H3  UNL     1     -13.787  -0.421  -3.599  1.00  0.00     0.168 HD
HETATM    9  C11 UNL     1     -12.484  -0.400  -1.998  1.00  0.00     0.108 A 
HETATM   10  N4  UNL     1     -11.776   0.479  -2.473  1.00  0.00    -0.371 N 
ATOM     11  H4  UNL     1     -12.190   0.723  -3.373  1.00  0.00     0.161 HD
HETATM   12  C17 UNL     1     -12.263  -1.004  -0.785  1.00  0.00    -0.011 A 
HETATM   13  C18 UNL     1     -11.135  -0.665   0.110  1.00  0.00     0.052 C 
ENDROOT
BRANCH   6  14
HETATM   14  S1  UNL     1     -15.835  -2.325  -3.224  1.00  0.00    -0.110 SA
BRANCH  14  15
HETATM   15  C6  UNL     1     -16.875  -0.913  -3.687  1.00  0.00     0.091 C 
BRANCH  15  16
HETATM   16  C7  UNL     1     -17.813  -1.254  -4.811  1.00  0.00    -0.015 C 
HETATM   17  C8  UNL     1     -17.596  -2.615  -5.381  1.00  0.00     0.017 C 
HETATM   18  C9  UNL     1     -19.224  -1.242  -4.209  1.00  0.00     0.017 C 
BRANCH  16  19
HETATM   19  C10 UNL     1     -17.804  -0.246  -5.912  1.00  0.00     0.239 C 
BRANCH  19  20
HETATM   20  N2  UNL     1     -16.629   0.603  -5.891  1.00  0.00    -0.079 N 
ATOM     21  H23 UNL     1     -16.839   1.525  -6.272  1.00  0.00     0.274 HD
ATOM     22  H22 UNL     1     -16.388   0.869  -4.936  1.00  0.00     0.274 HD
ATOM     23  H21 UNL     1     -15.829   0.185  -6.367  1.00  0.00     0.274 HD
ENDBRANCH  19  20
ENDBRANCH  16  19
ENDBRANCH  15  16
ENDBRANCH  14  15
ENDBRANCH   6  14
BRANCH  10  24
HETATM   24  C12 UNL     1     -10.700   1.260  -2.334  1.00  0.00     0.082 C 
HETATM   25  C13 UNL     1      -9.450   0.513  -2.890  1.00  0.00     0.032 C 
BRANCH  24  26
HETATM   26  C14 UNL     1     -10.699   2.560  -3.153  1.00  0.00    -0.000 C 
HETATM   27  C15 UNL     1     -11.462   2.451  -4.429  1.00  0.00     0.011 C 
HETATM   28  C16 UNL     1      -9.298   3.009  -3.458  1.00  0.00     0.011 C 
ENDBRANCH  24  26
ENDBRANCH  10  24
TORSDOF 7
ENDMDL
MODEL 4
REMARK VINA RESULT: -6.252142474      2.845      4.883
REMARK  7 active torsions:
REMARK  status: ('A' for Active; 'I' for Inactive)
REMARK    1  A    between atoms: C5_6  and  S1_7 
REMARK    2  A    between atoms: S1_7  and  C6_8 
REMARK    3  A    between atoms: C6_8  and  C7_9 
REMARK    4  A    between atoms: C7_9  and  C10_12 
REMARK    5  A    between atoms: C10_12  and  N2_13 
REMARK    6  A    between atoms: N4_20  and  C12_22 
REMARK    7  A    between atoms: C12_22  and  C14_24 
ROOT
HETATM    1  C1  UNL     1     -12.927  -2.394   1.215  1.00  0.00     0.050 C 
HETATM    2  C2  UNL     1     -13.194  -1.971  -0.193  1.00  0.00    -0.029 A 
HETATM    3  C3  UNL     1     -14.221  -2.615  -0.871  1.00  0.00     0.084 A 
HETATM    4  C4  UNL     1     -15.000  -3.646  -0.241  1.00  0.00     0.103 C 
HETATM    5  N1  UNL     1     -15.621  -4.481   0.278  1.00  0.00    -0.191 NA
HETATM    6  C5  UNL     1     -14.444  -2.205  -2.173  1.00  0.00     0.092 A 
HETATM    7  N3  UNL     1     -13.707  -1.252  -2.720  1.00  0.00    -0.336 N 
ATOM      8  H3  UNL     1     -13.915  -0.989  -3.683  1.00  0.00     0.168 HD
HETATM    9  C11 UNL     1     -12.675  -0.587  -2.083  1.00  0.00     0.108 A 
HETATM   10  N4  UNL     1     -12.048   0.282  -2.674  1.00  0.00    -0.371 N 
ATOM     11  H4  UNL     1     -12.455   0.342  -3.608  1.00  0.00     0.161 HD
HETATM   12  C17 UNL     1     -12.432  -0.974  -0.788  1.00  0.00    -0.011 A 
HETATM   13  C18 UNL     1     -11.377  -0.384   0.064  1.00  0.00     0.052 C 
ENDROOT
BRANCH   6  14
HETATM   14  S1  UNL     1     -15.764  -3.025  -3.055  1.00  0.00    -0.110 SA
BRANCH  14  15
HETATM   15  C6  UNL     1     -16.822  -1.823  -3.906  1.00  0.00     0.091 C 
BRANCH  15  16
HETATM   16  C7  UNL     1     -17.802  -2.492  -4.828  1.00  0.00    -0.015 C 
HETATM   17  C8  UNL     1     -17.245  -3.684  -5.531  1.00  0.00     0.017 C 
HETATM   18  C9  UNL     1     -18.950  -2.994  -3.942  1.00  0.00     0.017 C 
BRANCH  16  19
HETATM   19  C10 UNL     1     -18.403  -1.561  -5.827  1.00  0.00     0.239 C 
BRANCH  19  20
HETATM   20  N2  UNL     1     -17.594  -0.379  -6.055  1.00  0.00    -0.079 N 
ATOM     21  H23 UNL     1     -18.176   0.418  -6.310  1.00  0.00     0.274 HD
ATOM     22  H22 UNL     1     -17.207  -0.027  -5.178  1.00  0.00     0.274 HD
ATOM     23  H21 UNL     1     -16.857  -0.529  -6.745  1.00  0.00     0.274 HD
ENDBRANCH  19  20
ENDBRANCH  16  19
ENDBRANCH  15  16
ENDBRANCH  14  15
ENDBRANCH   6  14
BRANCH  10  24
HETATM   24  C12 UNL     1     -11.064   1.187  -2.638  1.00  0.00     0.082 C 
HETATM   25  C13 UNL     1      -9.698   0.453  -2.477  1.00  0.00     0.032 C 
BRANCH  24  26
HETATM   26  C14 UNL     1     -10.850   2.002  -3.923  1.00  0.00    -0.000 C 
HETATM   27  C15 UNL     1      -9.645   2.879  -3.869  1.00  0.00     0.011 C 
HETATM   28  C16 UNL     1     -12.054   2.844  -4.239  1.00  0.00     0.011 C 
ENDBRANCH  24  26
ENDBRANCH  10  24
TORSDOF 7
ENDMDL
MODEL 5
REMARK VINA RESULT: -6.111590078      3.774      7.385
REMARK  7 active torsions:
REMARK  status: ('A' for Active; 'I' for Inactive)
REMARK    1  A    between atoms: C5_6  and  S1_7 
REMARK    2  A    between atoms: S1_7  and  C6_8 
REMARK    3  A    between atoms: C6_8  and  C7_9 
REMARK    4  A    between atoms: C7_9  and  C10_12 
REMARK    5  A    between atoms: C10_12  and  N2_13 
REMARK    6  A    between atoms: N4_20  and  C12_22 
REMARK    7  A    between atoms: C12_22  and  C14_24 
ROOT
HETATM    1  C1  UNL     1     -12.749  -2.016   1.420  1.00  0.00     0.050 C 
HETATM    2  C2  UNL     1     -12.896  -1.720  -0.037  1.00  0.00    -0.029 A 
HETATM    3  C3  UNL     1     -11.981  -0.845  -0.609  1.00  0.00     0.084 A 
HETATM    4  C4  UNL     1     -10.931  -0.250   0.171  1.00  0.00     0.103 C 
HETATM    5  N1  UNL     1     -10.087   0.229   0.812  1.00  0.00    -0.191 NA
HETATM    6  C5  UNL     1     -12.143  -0.589  -1.958  1.00  0.00     0.092 A 
HETATM    7  N3  UNL     1     -13.122  -1.156  -2.644  1.00  0.00    -0.336 N 
ATOM      8  H3  UNL     1     -13.195  -0.932  -3.636  1.00  0.00     0.168 HD
HETATM    9  C11 UNL     1     -14.054  -2.030  -2.116  1.00  0.00     0.108 A 
HETATM   10  N4  UNL     1     -14.927  -2.504  -2.832  1.00  0.00    -0.371 N 
ATOM     11  H4  UNL     1     -14.771  -2.118  -3.763  1.00  0.00     0.161 HD
HETATM   12  C17 UNL     1     -13.917  -2.304  -0.777  1.00  0.00    -0.011 A 
HETATM   13  C18 UNL     1     -14.809  -3.214  -0.026  1.00  0.00     0.052 C 
ENDROOT
BRANCH   6  14
HETATM   14  S1  UNL     1     -10.971   0.534  -2.706  1.00  0.00    -0.110 SA
BRANCH  14  15
HETATM   15  C6  UNL     1     -11.823   1.854  -3.612  1.00  0.00     0.091 C 
BRANCH  15  16
HETATM   16  C7  UNL     1     -10.883   2.957  -4.011  1.00  0.00    -0.015 C 
HETATM   17  C8  UNL     1     -10.855   3.217  -5.480  1.00  0.00     0.017 C 
HETATM   18  C9  UNL     1     -11.412   4.233  -3.343  1.00  0.00     0.017 C 
BRANCH  16  19
HETATM   19  C10 UNL     1      -9.491   2.753  -3.514  1.00  0.00     0.239 C 
BRANCH  19  20
HETATM   20  N2  UNL     1      -8.733   3.988  -3.437  1.00  0.00    -0.079 N 
ATOM     21  H23 UNL     1      -8.578   4.379  -4.366  1.00  0.00     0.274 HD
ATOM     22  H22 UNL     1      -9.297   4.737  -3.034  1.00  0.00     0.274 HD
ATOM     23  H21 UNL     1      -7.852   3.881  -2.934  1.00  0.00     0.274 HD
ENDBRANCH  19  20
ENDBRANCH  16  19
ENDBRANCH  15  16
ENDBRANCH  14  15
ENDBRANCH   6  14
BRANCH  10  24
HETATM   24  C12 UNL     1     -15.994  -3.304  -2.934  1.00  0.00     0.082 C 
HETATM   25  C13 UNL     1     -17.049  -2.634  -3.866  1.00  0.00     0.032 C 
BRANCH  24  26
HETATM   26  C14 UNL     1     -15.759  -4.657  -3.621  1.00  0.00    -0.000 C 
HETATM   27  C15 UNL     1     -16.482  -4.792  -4.918  1.00  0.00     0.011 C 
HETATM   28  C16 UNL     1     -16.150  -5.797  -2.724  1.00  0.00     0.011 C 
ENDBRANCH  24  26
ENDBRANCH  10  24
TORSDOF 7
ENDMDL
