MODEL 1
REMARK VINA RESULT: -5.210826361      0.000      0.000
REMARK  2 active torsions:
REMARK  status: ('A' for Active; 'I' for Inactive)
REMARK    1  A    between atoms: N2_6  and  O1_7 
REMARK    2  A    between atoms: N3_9  and  O2_10 
ROOT
HETATM    1  C1  UNL     1      40.722  32.136 -13.364  1.00  0.00     0.064 C 
HETATM    2  C2  UNL     1      39.635  31.761 -14.308  1.00  0.00     0.339 C 
HETATM    3  N1  UNL     1      38.773  32.886 -14.615  1.00  0.00     0.121 N 
HETATM    4  C3  UNL     1      37.823  33.178 -13.591  1.00  0.00     0.314 C 
HETATM    5  C4  UNL     1      38.194  32.511 -15.867  1.00  0.00     0.415 C 
HETATM    6  N2  UNL     1      38.922  31.331 -16.339  1.00  0.00    -0.073 NA
HETATM    7  N3  UNL     1      40.138  31.470 -15.661  1.00  0.00    -0.068 NA
ENDROOT
BRANCH   6   8
HETATM    8  O1  UNL     1      38.240  30.261 -15.820  1.00  0.00    -0.294 OA
ATOM      9  H1  UNL     1      38.909  29.620 -15.612  1.00  0.00     0.238 HD
ENDBRANCH   6   8
BRANCH   7  10
HETATM   10  O2  UNL     1      40.913  30.398 -15.703  1.00  0.00    -0.294 OA
ATOM     11  H2  UNL     1      40.989  30.032 -16.576  1.00  0.00     0.238 HD
ENDBRANCH   7  10
TORSDOF 2
ENDMDL
MODEL 2
REMARK VINA RESULT: -5.101896254      8.747      9.494
REMARK  2 active torsions:
REMARK  status: ('A' for Active; 'I' for Inactive)
REMARK    1  A    between atoms: N2_6  and  O1_7 
REMARK    2  A    between atoms: N3_9  and  O2_10 
ROOT
HETATM    1  C1  UNL     1      41.024  33.733  -7.043  1.00  0.00     0.064 C 
HETATM    2  C2  UNL     1      39.683  34.248  -6.656  1.00  0.00     0.339 C 
HETATM    3  N1  UNL     1      38.613  33.479  -7.262  1.00  0.00     0.121 N 
HETATM    4  C3  UNL     1      38.374  33.807  -8.631  1.00  0.00     0.314 C 
HETATM    5  C4  UNL     1      37.506  33.735  -6.393  1.00  0.00     0.415 C 
HETATM    6  N2  UNL     1      38.038  34.419  -5.212  1.00  0.00    -0.073 NA
HETATM    7  N3  UNL     1      39.375  34.006  -5.236  1.00  0.00    -0.068 NA
ENDROOT
BRANCH   6   8
HETATM    8  O1  UNL     1      37.976  35.753  -5.515  1.00  0.00    -0.294 OA
ATOM      9  H1  UNL     1      37.339  35.817  -6.217  1.00  0.00     0.238 HD
ENDBRANCH   6   8
BRANCH   7  10
HETATM   10  O2  UNL     1      40.169  34.676  -4.416  1.00  0.00    -0.294 OA
ATOM     11  H2  UNL     1      39.863  34.667  -3.517  1.00  0.00     0.238 HD
ENDBRANCH   7  10
TORSDOF 2
ENDMDL
MODEL 3
REMARK VINA RESULT: -5.097552820      7.994      8.950
REMARK  2 active torsions:
REMARK  status: ('A' for Active; 'I' for Inactive)
REMARK    1  A    between atoms: N2_6  and  O1_7 
REMARK    2  A    between atoms: N3_9  and  O2_10 
ROOT
HETATM    1  C1  UNL     1      36.643  32.311  -8.983  1.00  0.00     0.064 C 
HETATM    2  C2  UNL     1      37.258  32.400  -7.631  1.00  0.00     0.339 C 
HETATM    3  N1  UNL     1      37.674  33.753  -7.314  1.00  0.00     0.121 N 
HETATM    4  C3  UNL     1      38.904  34.135  -7.930  1.00  0.00     0.314 C 
HETATM    5  C4  UNL     1      37.707  33.749  -5.884  1.00  0.00     0.415 C 
HETATM    6  N2  UNL     1      37.079  32.500  -5.445  1.00  0.00    -0.073 NA
HETATM    7  N3  UNL     1      36.279  32.193  -6.551  1.00  0.00    -0.068 NA
ENDROOT
BRANCH   6   8
HETATM    8  O1  UNL     1      38.104  31.595  -5.369  1.00  0.00    -0.294 OA
ATOM      9  H1  UNL     1      37.784  30.909  -4.795  1.00  0.00     0.238 HD
ENDBRANCH   6   8
BRANCH   7  10
HETATM   10  O2  UNL     1      35.777  30.969  -6.539  1.00  0.00    -0.294 OA
ATOM     11  H2  UNL     1      35.527  30.680  -5.669  1.00  0.00     0.238 HD
ENDBRANCH   7  10
TORSDOF 2
ENDMDL
MODEL 4
REMARK VINA RESULT: -5.029075252      7.234      8.251
REMARK  2 active torsions:
REMARK  status: ('A' for Active; 'I' for Inactive)
REMARK    1  A    between atoms: N2_6  and  O1_7 
REMARK    2  A    between atoms: N3_9  and  O2_10 
ROOT
HETATM    1  C1  UNL     1      37.700  32.678  -9.783  1.00  0.00     0.064 C 
HETATM    2  C2  UNL     1      37.301  32.071  -8.485  1.00  0.00     0.339 C 
HETATM    3  N1  UNL     1      38.422  31.959  -7.573  1.00  0.00     0.121 N 
HETATM    4  C3  UNL     1      39.284  30.856  -7.855  1.00  0.00     0.314 C 
HETATM    5  C4  UNL     1      37.788  31.898  -6.292  1.00  0.00     0.415 C 
HETATM    6  N2  UNL     1      36.375  32.227  -6.500  1.00  0.00    -0.073 NA
HETATM    7  N3  UNL     1      36.436  32.960  -7.690  1.00  0.00    -0.068 NA
ENDROOT
BRANCH   6   8
HETATM    8  O1  UNL     1      35.764  31.025  -6.746  1.00  0.00    -0.294 OA
ATOM      9  H1  UNL     1      35.745  30.582  -5.906  1.00  0.00     0.238 HD
ENDBRANCH   6   8
BRANCH   7  10
HETATM   10  O2  UNL     1      35.261  33.178  -8.258  1.00  0.00    -0.294 OA
ATOM     11  H2  UNL     1      34.954  34.070  -8.141  1.00  0.00     0.238 HD
ENDBRANCH   7  10
TORSDOF 2
ENDMDL
MODEL 5
REMARK VINA RESULT: -4.878594975      6.731      7.796
REMARK  2 active torsions:
REMARK  status: ('A' for Active; 'I' for Inactive)
REMARK    1  A    between atoms: N2_6  and  O1_7 
REMARK    2  A    between atoms: N3_9  and  O2_10 
ROOT
HETATM    1  C1  UNL     1      36.920  32.763 -10.610  1.00  0.00     0.064 C 
HETATM    2  C2  UNL     1      36.895  32.433  -9.160  1.00  0.00     0.339 C 
HETATM    3  N1  UNL     1      38.189  32.632  -8.537  1.00  0.00     0.121 N 
HETATM    4  C3  UNL     1      39.117  31.577  -8.790  1.00  0.00     0.314 C 
HETATM    5  C4  UNL     1      37.856  32.805  -7.157  1.00  0.00     0.415 C 
HETATM    6  N2  UNL     1      36.399  32.948  -7.084  1.00  0.00    -0.073 NA
HETATM    7  N3  UNL     1      36.103  33.396  -8.376  1.00  0.00    -0.068 NA
ENDROOT
BRANCH   6   8
HETATM    8  O1  UNL     1      35.924  31.672  -6.933  1.00  0.00    -0.294 OA
ATOM      9  H1  UNL     1      35.567  31.440  -7.781  1.00  0.00     0.238 HD
ENDBRANCH   6   8
BRANCH   7  10
HETATM   10  O2  UNL     1      34.816  33.373  -8.681  1.00  0.00    -0.294 OA
ATOM     11  H2  UNL     1      34.267  33.127  -7.946  1.00  0.00     0.238 HD
ENDBRANCH   7  10
TORSDOF 2
ENDMDL
