MODEL 1
REMARK VINA RESULT: -4.277099169      0.000      0.000
REMARK  2 active torsions:
REMARK  status: ('A' for Active; 'I' for Inactive)
REMARK    1  A    between atoms: N1_5  and  O1_6 
REMARK    2  A    between atoms: C4_8  and  O2_9 
ROOT
HETATM    1  C1  UNL     1      37.869  33.039 -13.034  1.00  0.00     0.026 C 
HETATM    2  C2  UNL     1      39.249  32.770 -13.549  1.00  0.00     0.100 C 
HETATM    3  S1  UNL     1      39.792  31.115 -12.958  1.00  0.00    -0.113 SA
HETATM    4  C3  UNL     1      39.695  30.255 -14.587  1.00  0.00     0.165 C 
HETATM    5  N1  UNL     1      38.924  31.187 -15.304  1.00  0.00    -0.235 N 
HETATM    6  C4  UNL     1      39.257  32.504 -15.054  1.00  0.00     0.260 C 
ENDROOT
BRANCH   5   7
HETATM    7  O1  UNL     1      38.133  30.827 -16.240  1.00  0.00    -0.285 OA
ATOM      8  H1  UNL     1      37.469  30.161 -16.106  1.00  0.00     0.245 HD
ENDBRANCH   5   7
BRANCH   6   9
HETATM    9  O2  UNL     1      38.465  33.375 -15.745  1.00  0.00    -0.373 OA
ATOM     10  H2  UNL     1      38.702  33.436 -16.663  1.00  0.00     0.212 HD
ENDBRANCH   6   9
TORSDOF 2
ENDMDL
MODEL 2
REMARK VINA RESULT: -4.263679470      7.559      7.949
REMARK  2 active torsions:
REMARK  status: ('A' for Active; 'I' for Inactive)
REMARK    1  A    between atoms: N1_5  and  O1_6 
REMARK    2  A    between atoms: C4_8  and  O2_9 
ROOT
HETATM    1  C1  UNL     1      37.807  33.961  -5.893  1.00  0.00     0.026 C 
HETATM    2  C2  UNL     1      38.215  33.104  -7.051  1.00  0.00     0.100 C 
HETATM    3  S1  UNL     1      39.139  31.646  -6.415  1.00  0.00    -0.113 SA
HETATM    4  C3  UNL     1      37.833  30.389  -6.752  1.00  0.00     0.165 C 
HETATM    5  N1  UNL     1      36.730  31.238  -6.952  1.00  0.00    -0.235 N 
HETATM    6  C4  UNL     1      37.022  32.379  -7.674  1.00  0.00     0.260 C 
ENDROOT
BRANCH   5   7
HETATM    7  O1  UNL     1      35.540  30.877  -6.660  1.00  0.00    -0.285 OA
ATOM      8  H1  UNL     1      34.786  31.202  -7.139  1.00  0.00     0.245 HD
ENDBRANCH   5   7
BRANCH   6   9
HETATM    9  O2  UNL     1      35.933  33.190  -7.818  1.00  0.00    -0.373 OA
ATOM     10  H2  UNL     1      35.351  33.158  -7.068  1.00  0.00     0.212 HD
ENDBRANCH   6   9
TORSDOF 2
ENDMDL
MODEL 3
REMARK VINA RESULT: -4.209140040      7.694      8.232
REMARK  2 active torsions:
REMARK  status: ('A' for Active; 'I' for Inactive)
REMARK    1  A    between atoms: N1_5  and  O1_6 
REMARK    2  A    between atoms: C4_8  and  O2_9 
ROOT
HETATM    1  C1  UNL     1      39.346  30.471  -7.029  1.00  0.00     0.026 C 
HETATM    2  C2  UNL     1      38.774  31.855  -7.044  1.00  0.00     0.100 C 
HETATM    3  S1  UNL     1      38.100  32.200  -8.722  1.00  0.00    -0.113 SA
HETATM    4  C3  UNL     1      36.316  32.144  -8.260  1.00  0.00     0.165 C 
HETATM    5  N1  UNL     1      36.413  31.515  -7.005  1.00  0.00    -0.235 N 
HETATM    6  C4  UNL     1      37.478  31.948  -6.240  1.00  0.00     0.260 C 
ENDROOT
BRANCH   5   7
HETATM    7  O1  UNL     1      35.483  30.765  -6.555  1.00  0.00    -0.285 OA
ATOM      8  H1  UNL     1      35.087  30.914  -5.704  1.00  0.00     0.245 HD
ENDBRANCH   5   7
BRANCH   6   9
HETATM    9  O2  UNL     1      37.554  31.290  -5.046  1.00  0.00    -0.373 OA
ATOM     10  H2  UNL     1      37.451  31.872  -4.301  1.00  0.00     0.212 HD
ENDBRANCH   6   9
TORSDOF 2
ENDMDL
MODEL 4
REMARK VINA RESULT: -4.149488393      1.211      2.658
REMARK  2 active torsions:
REMARK  status: ('A' for Active; 'I' for Inactive)
REMARK    1  A    between atoms: N1_5  and  O1_6 
REMARK    2  A    between atoms: C4_8  and  O2_9 
ROOT
HETATM    1  C1  UNL     1      41.431  30.742 -15.051  1.00  0.00     0.026 C 
HETATM    2  C2  UNL     1      40.021  30.504 -14.606  1.00  0.00     0.100 C 
HETATM    3  S1  UNL     1      39.877  30.953 -12.827  1.00  0.00    -0.113 SA
HETATM    4  C3  UNL     1      38.880  32.486 -13.064  1.00  0.00     0.165 C 
HETATM    5  N1  UNL     1      39.081  32.692 -14.441  1.00  0.00    -0.235 N 
HETATM    6  C4  UNL     1      39.054  31.533 -15.193  1.00  0.00     0.260 C 
ENDROOT
BRANCH   5   7
HETATM    7  O1  UNL     1      39.086  33.862 -14.953  1.00  0.00    -0.285 OA
ATOM      8  H1  UNL     1      38.913  34.005 -15.876  1.00  0.00     0.245 HD
ENDBRANCH   5   7
BRANCH   6   9
HETATM    9  O2  UNL     1      39.284  31.773 -16.516  1.00  0.00    -0.373 OA
ATOM     10  H2  UNL     1      39.325  30.976 -17.031  1.00  0.00     0.212 HD
ENDBRANCH   6   9
TORSDOF 2
ENDMDL
MODEL 5
REMARK VINA RESULT: -4.145533716      7.443      8.026
REMARK  2 active torsions:
REMARK  status: ('A' for Active; 'I' for Inactive)
REMARK    1  A    between atoms: N1_5  and  O1_6 
REMARK    2  A    between atoms: C4_8  and  O2_9 
ROOT
HETATM    1  C1  UNL     1      35.891  32.952  -8.673  1.00  0.00     0.026 C 
HETATM    2  C2  UNL     1      36.862  31.814  -8.609  1.00  0.00     0.100 C 
HETATM    3  S1  UNL     1      38.565  32.494  -8.447  1.00  0.00    -0.113 SA
HETATM    4  C3  UNL     1      38.835  32.001  -6.691  1.00  0.00     0.165 C 
HETATM    5  N1  UNL     1      37.509  31.721  -6.314  1.00  0.00    -0.235 N 
HETATM    6  C4  UNL     1      36.776  31.062  -7.282  1.00  0.00     0.260 C 
ENDROOT
BRANCH   5   7
HETATM    7  O1  UNL     1      37.100  31.891  -5.116  1.00  0.00    -0.285 OA
ATOM      8  H1  UNL     1      36.924  31.157  -4.539  1.00  0.00     0.245 HD
ENDBRANCH   5   7
BRANCH   6   9
HETATM    9  O2  UNL     1      35.488  30.838  -6.888  1.00  0.00    -0.373 OA
ATOM     10  H2  UNL     1      34.855  31.071  -7.558  1.00  0.00     0.212 HD
ENDBRANCH   6   9
TORSDOF 2
ENDMDL
