MODEL 1
REMARK VINA RESULT: -6.426893256      0.000      0.000
REMARK  3 active torsions:
REMARK  status: ('A' for Active; 'I' for Inactive)
REMARK    1  A    between atoms: N1_2  and  C1_4 
REMARK    2  A    between atoms: C3_8  and  N3_9 
REMARK    3  A    between atoms: N3_9  and  N4_11 
ROOT
HETATM    1  N3  UNL     1     -14.832  23.548   8.558  1.00  0.00    -0.280 N 
ATOM      2  H3  UNL     1     -14.425  24.406   8.186  1.00  0.00     0.189 HD
ENDROOT
BRANCH   1   3
HETATM    3  C3  UNL     1     -14.061  22.625   9.092  1.00  0.00     0.165 A 
HETATM    4  N2  UNL     1     -13.210  22.767  10.103  1.00  0.00    -0.343 N 
HETATM    5  C2  UNL     1     -12.528  21.737  10.501  1.00  0.00     0.134 A 
ATOM      6  H2  UNL     1     -13.096  23.672  10.560  1.00  0.00     0.167 HD
HETATM    7  C1  UNL     1     -12.722  20.549   9.851  1.00  0.00     0.162 A 
HETATM    8  S1  UNL     1     -13.900  20.979   8.679  1.00  0.00    -0.027 SA
BRANCH   7   9
HETATM    9  N1  UNL     1     -12.098  19.270  10.091  1.00  0.00    -0.107 N 
HETATM   10  O1  UNL     1     -10.865  19.218  10.004  1.00  0.00    -0.531 OA
HETATM   11  O2  UNL     1     -12.816  18.165  10.399  1.00  0.00    -0.531 OA
ENDBRANCH   7   9
ENDBRANCH   1   3
BRANCH   1  12
HETATM   12  N4  UNL     1     -16.215  23.341   8.503  1.00  0.00    -0.307 N 
HETATM   13  C4  UNL     1     -17.050  24.046   9.182  1.00  0.00     0.004 C 
HETATM   14  C5  UNL     1     -18.495  23.745   9.052  1.00  0.00     0.054 C 
HETATM   15  C9  UNL     1     -16.648  25.148  10.090  1.00  0.00     0.054 C 
HETATM   16  C6  UNL     1     -19.271  25.038   8.917  1.00  0.00     0.006 C 
HETATM   17  C7  UNL     1     -18.998  26.002  10.026  1.00  0.00     0.001 C 
HETATM   18  C8  UNL     1     -17.826  25.602  10.894  1.00  0.00     0.006 C 
ATOM     19  H4  UNL     1     -16.576  22.601   7.901  1.00  0.00     0.186 HD
ENDBRANCH   1  12
TORSDOF 3
ENDMDL
MODEL 2
REMARK VINA RESULT: -6.325453757      4.228      6.187
REMARK  3 active torsions:
REMARK  status: ('A' for Active; 'I' for Inactive)
REMARK    1  A    between atoms: N1_2  and  C1_4 
REMARK    2  A    between atoms: C3_8  and  N3_9 
REMARK    3  A    between atoms: N3_9  and  N4_11 
ROOT
HETATM    1  N3  UNL     1     -16.054  24.311   8.469  1.00  0.00    -0.280 N 
ATOM      2  H3  UNL     1     -16.086  25.266   8.112  1.00  0.00     0.189 HD
ENDROOT
BRANCH   1   3
HETATM    3  C3  UNL     1     -17.165  23.688   8.798  1.00  0.00     0.165 A 
HETATM    4  N2  UNL     1     -17.773  22.710   8.133  1.00  0.00    -0.343 N 
HETATM    5  C2  UNL     1     -18.870  22.211   8.613  1.00  0.00     0.134 A 
ATOM      6  H2  UNL     1     -17.381  22.358   7.259  1.00  0.00     0.167 HD
HETATM    7  C1  UNL     1     -19.348  22.722   9.788  1.00  0.00     0.162 A 
HETATM    8  S1  UNL     1     -18.173  23.919  10.153  1.00  0.00    -0.027 SA
BRANCH   7   9
HETATM    9  N1  UNL     1     -20.532  22.351  10.526  1.00  0.00    -0.107 N 
HETATM   10  O1  UNL     1     -21.029  23.210  11.265  1.00  0.00    -0.531 OA
HETATM   11  O2  UNL     1     -21.087  21.121  10.424  1.00  0.00    -0.531 OA
ENDBRANCH   7   9
ENDBRANCH   1   3
BRANCH   1  12
HETATM   12  N4  UNL     1     -14.828  23.650   8.612  1.00  0.00    -0.307 N 
HETATM   13  C4  UNL     1     -14.215  23.563   9.740  1.00  0.00     0.004 C 
HETATM   14  C5  UNL     1     -12.921  22.841   9.782  1.00  0.00     0.054 C 
HETATM   15  C9  UNL     1     -14.731  24.143  11.004  1.00  0.00     0.054 C 
HETATM   16  C6  UNL     1     -12.887  21.935  10.995  1.00  0.00     0.006 C 
HETATM   17  C7  UNL     1     -13.168  22.658  12.273  1.00  0.00     0.001 C 
HETATM   18  C8  UNL     1     -13.678  24.066  12.066  1.00  0.00     0.006 C 
ATOM     19  H4  UNL     1     -14.404  23.222   7.789  1.00  0.00     0.186 HD
ENDBRANCH   1  12
TORSDOF 3
ENDMDL
MODEL 3
REMARK VINA RESULT: -6.320870515      4.111      6.539
REMARK  3 active torsions:
REMARK  status: ('A' for Active; 'I' for Inactive)
REMARK    1  A    between atoms: N1_2  and  C1_4 
REMARK    2  A    between atoms: C3_8  and  N3_9 
REMARK    3  A    between atoms: N3_9  and  N4_11 
ROOT
HETATM    1  N3  UNL     1     -13.431  22.697   8.939  1.00  0.00    -0.280 N 
ATOM      2  H3  UNL     1     -12.572  22.654   9.487  1.00  0.00     0.189 HD
ENDROOT
BRANCH   1   3
HETATM    3  C3  UNL     1     -14.451  23.416   9.358  1.00  0.00     0.165 A 
HETATM    4  N2  UNL     1     -15.522  23.784   8.662  1.00  0.00    -0.343 N 
HETATM    5  C2  UNL     1     -16.436  24.497   9.245  1.00  0.00     0.134 A 
ATOM      6  H2  UNL     1     -15.624  23.509   7.685  1.00  0.00     0.167 HD
HETATM    7  C1  UNL     1     -16.246  24.836  10.556  1.00  0.00     0.162 A 
HETATM    8  S1  UNL     1     -14.734  24.097  10.894  1.00  0.00    -0.027 SA
BRANCH   7   9
HETATM    9  N1  UNL     1     -17.097  25.613  11.426  1.00  0.00    -0.107 N 
HETATM   10  O1  UNL     1     -16.611  25.990  12.500  1.00  0.00    -0.531 OA
HETATM   11  O2  UNL     1     -18.372  25.924  11.096  1.00  0.00    -0.531 OA
ENDBRANCH   7   9
ENDBRANCH   1   3
BRANCH   1  12
HETATM   12  N4  UNL     1     -13.537  21.992   7.734  1.00  0.00    -0.307 N 
HETATM   13  C4  UNL     1     -13.537  20.706   7.681  1.00  0.00     0.004 C 
HETATM   14  C5  UNL     1     -13.654  20.058   6.353  1.00  0.00     0.054 C 
HETATM   15  C9  UNL     1     -13.427  19.833   8.875  1.00  0.00     0.054 C 
HETATM   16  C6  UNL     1     -14.641  18.912   6.435  1.00  0.00     0.006 C 
HETATM   17  C7  UNL     1     -14.307  17.929   7.511  1.00  0.00     0.001 C 
HETATM   18  C8  UNL     1     -13.224  18.412   8.450  1.00  0.00     0.006 C 
ATOM     19  H4  UNL     1     -13.618  22.518   6.864  1.00  0.00     0.186 HD
ENDBRANCH   1  12
TORSDOF 3
ENDMDL
MODEL 4
REMARK VINA RESULT: -6.318131285      3.907      6.809
REMARK  3 active torsions:
REMARK  status: ('A' for Active; 'I' for Inactive)
REMARK    1  A    between atoms: N1_2  and  C1_4 
REMARK    2  A    between atoms: C3_8  and  N3_9 
REMARK    3  A    between atoms: N3_9  and  N4_11 
ROOT
HETATM    1  N3  UNL     1     -13.640  22.678   8.738  1.00  0.00    -0.280 N 
ATOM      2  H3  UNL     1     -13.217  22.907   7.839  1.00  0.00     0.189 HD
ENDROOT
BRANCH   1   3
HETATM    3  C3  UNL     1     -14.638  23.396   9.205  1.00  0.00     0.165 A 
HETATM    4  N2  UNL     1     -15.751  23.745   8.567  1.00  0.00    -0.343 N 
HETATM    5  C2  UNL     1     -16.635  24.463   9.191  1.00  0.00     0.134 A 
ATOM      6  H2  UNL     1     -15.909  23.453   7.602  1.00  0.00     0.167 HD
HETATM    7  C1  UNL     1     -16.371  24.826  10.483  1.00  0.00     0.162 A 
HETATM    8  S1  UNL     1     -14.836  24.103  10.743  1.00  0.00    -0.027 SA
BRANCH   7   9
HETATM    9  N1  UNL     1     -17.175  25.612  11.389  1.00  0.00    -0.107 N 
HETATM   10  O1  UNL     1     -16.647  25.963  12.451  1.00  0.00    -0.531 OA
HETATM   11  O2  UNL     1     -18.451  25.958  11.102  1.00  0.00    -0.531 OA
ENDBRANCH   7   9
ENDBRANCH   1   3
BRANCH   1  12
HETATM   12  N4  UNL     1     -13.164  21.595   9.488  1.00  0.00    -0.307 N 
HETATM   13  C4  UNL     1     -13.337  20.372   9.127  1.00  0.00     0.004 C 
HETATM   14  C5  UNL     1     -12.792  19.300   9.993  1.00  0.00     0.054 C 
HETATM   15  C9  UNL     1     -14.051  19.972   7.890  1.00  0.00     0.054 C 
HETATM   16  C6  UNL     1     -12.109  18.255   9.135  1.00  0.00     0.006 C 
HETATM   17  C7  UNL     1     -12.994  17.712   8.061  1.00  0.00     0.001 C 
HETATM   18  C8  UNL     1     -14.277  18.493   7.888  1.00  0.00     0.006 C 
ATOM     19  H4  UNL     1     -12.660  21.783  10.354  1.00  0.00     0.186 HD
ENDBRANCH   1  12
TORSDOF 3
ENDMDL
MODEL 5
REMARK VINA RESULT: -6.239678148      4.158      6.580
REMARK  3 active torsions:
REMARK  status: ('A' for Active; 'I' for Inactive)
REMARK    1  A    between atoms: N1_2  and  C1_4 
REMARK    2  A    between atoms: C3_8  and  N3_9 
REMARK    3  A    between atoms: N3_9  and  N4_11 
ROOT
HETATM    1  N3  UNL     1     -13.732  23.230   9.402  1.00  0.00    -0.280 N 
ATOM      2  H3  UNL     1     -12.904  23.281   9.997  1.00  0.00     0.189 HD
ENDROOT
BRANCH   1   3
HETATM    3  C3  UNL     1     -14.845  23.832   9.762  1.00  0.00     0.165 A 
HETATM    4  N2  UNL     1     -15.112  24.409  10.930  1.00  0.00    -0.343 N 
HETATM    5  C2  UNL     1     -16.274  24.959  11.108  1.00  0.00     0.134 A 
ATOM      6  H2  UNL     1     -14.414  24.419  11.674  1.00  0.00     0.167 HD
HETATM    7  C1  UNL     1     -17.170  24.916  10.075  1.00  0.00     0.162 A 
HETATM    8  S1  UNL     1     -16.281  24.070   8.875  1.00  0.00    -0.027 SA
BRANCH   7   9
HETATM    9  N1  UNL     1     -18.512  25.444  10.014  1.00  0.00    -0.107 N 
HETATM   10  O1  UNL     1     -18.906  26.098  10.987  1.00  0.00    -0.531 OA
HETATM   11  O2  UNL     1     -19.317  25.242   8.945  1.00  0.00    -0.531 OA
ENDBRANCH   7   9
ENDBRANCH   1   3
BRANCH   1  12
HETATM   12  N4  UNL     1     -13.694  22.518   8.197  1.00  0.00    -0.307 N 
HETATM   13  C4  UNL     1     -13.589  21.237   8.151  1.00  0.00     0.004 C 
HETATM   14  C5  UNL     1     -13.557  20.581   6.823  1.00  0.00     0.054 C 
HETATM   15  C9  UNL     1     -13.499  20.374   9.355  1.00  0.00     0.054 C 
HETATM   16  C6  UNL     1     -14.455  19.362   6.839  1.00  0.00     0.006 C 
HETATM   17  C7  UNL     1     -14.125  18.408   7.942  1.00  0.00     0.001 C 
HETATM   18  C8  UNL     1     -13.156  18.974   8.954  1.00  0.00     0.006 C 
ATOM     19  H4  UNL     1     -13.751  23.036   7.321  1.00  0.00     0.186 HD
ENDBRANCH   1  12
TORSDOF 3
ENDMDL
