MODEL 1
REMARK VINA RESULT: -5.756301571      0.000      0.000
REMARK  5 active torsions:
REMARK  status: ('A' for Active; 'I' for Inactive)
REMARK    1  A    between atoms: C3_9  and  C4_10 
REMARK    2  A    between atoms: C4_10  and  C5_11 
REMARK    3  A    between atoms: C5_11  and  C6_12 
REMARK    4  A    between atoms: C6_12  and  C7_13 
REMARK    5  A    between atoms: C7_13  and  N4_14 
ROOT
HETATM    1  N1  UNL     1      -8.018  15.603   6.509  1.00  0.00    -0.063 NA
HETATM    2  C1  UNL     1      -7.162  15.713   5.366  1.00  0.00     0.193 C 
HETATM    3  N2  UNL     1      -7.609  15.480   4.171  1.00  0.00    -0.283 N 
ATOM      4  H2  UNL     1      -8.583  15.213   4.024  1.00  0.00     0.173 HD
HETATM    5  C2  UNL     1      -6.719  15.602   3.068  1.00  0.00     0.324 C 
HETATM    6  O1  UNL     1      -7.165  15.374   1.909  1.00  0.00    -0.247 OA
HETATM    7  N3  UNL     1      -5.372  15.973   3.304  1.00  0.00    -0.322 N 
ATOM      8  H3  UNL     1      -4.808  16.390   2.564  1.00  0.00     0.166 HD
HETATM    9  C3  UNL     1      -4.822  15.750   4.601  1.00  0.00     0.188 C 
HETATM   10  N5  UNL     1      -5.824  16.085   5.593  1.00  0.00    -0.343 N 
ATOM     11  H5  UNL     1      -5.563  16.583   6.444  1.00  0.00     0.164 HD
ENDROOT
BRANCH   9  12
HETATM   12  C4  UNL     1      -3.609  16.601   4.894  1.00  0.00     0.047 C 
BRANCH  12  13
HETATM   13  C5  UNL     1      -2.572  15.906   5.696  1.00  0.00     0.006 C 
BRANCH  13  14
HETATM   14  C6  UNL     1      -2.647  16.388   7.118  1.00  0.00     0.026 C 
BRANCH  14  15
HETATM   15  C7  UNL     1      -3.066  15.321   8.092  1.00  0.00     0.201 C 
BRANCH  15  16
HETATM   16  N4  UNL     1      -4.491  15.550   8.353  1.00  0.00    -0.156 N 
HETATM   17  O2  UNL     1      -5.228  14.549   8.303  1.00  0.00    -0.537 OA
HETATM   18  O3  UNL     1      -5.003  16.769   8.633  1.00  0.00    -0.537 OA
ENDBRANCH  15  16
ENDBRANCH  14  15
ENDBRANCH  13  14
ENDBRANCH  12  13
ENDBRANCH   9  12
TORSDOF 5
ENDMDL
MODEL 2
REMARK VINA RESULT: -5.635921316      3.114      4.236
REMARK  5 active torsions:
REMARK  status: ('A' for Active; 'I' for Inactive)
REMARK    1  A    between atoms: C3_9  and  C4_10 
REMARK    2  A    between atoms: C4_10  and  C5_11 
REMARK    3  A    between atoms: C5_11  and  C6_12 
REMARK    4  A    between atoms: C6_12  and  C7_13 
REMARK    5  A    between atoms: C7_13  and  N4_14 
ROOT
HETATM    1  N1  UNL     1      -9.179  16.174  -0.234  1.00  0.00    -0.063 NA
HETATM    2  C1  UNL     1      -8.363  15.182   0.399  1.00  0.00     0.193 C 
HETATM    3  N2  UNL     1      -8.366  13.952  -0.013  1.00  0.00    -0.283 N 
ATOM      4  H2  UNL     1      -8.952  13.669  -0.798  1.00  0.00     0.173 HD
HETATM    5  C2  UNL     1      -7.538  13.004   0.650  1.00  0.00     0.324 C 
HETATM    6  O1  UNL     1      -7.547  11.809   0.241  1.00  0.00    -0.247 OA
HETATM    7  N3  UNL     1      -6.735  13.428   1.738  1.00  0.00    -0.322 N 
ATOM      8  H3  UNL     1      -5.909  12.898   2.014  1.00  0.00     0.166 HD
HETATM    9  C3  UNL     1      -7.110  14.611   2.440  1.00  0.00     0.188 C 
HETATM   10  N5  UNL     1      -7.561  15.596   1.478  1.00  0.00    -0.343 N 
ATOM     11  H5  UNL     1      -7.300  16.577   1.582  1.00  0.00     0.164 HD
ENDROOT
BRANCH   9  12
HETATM   12  C4  UNL     1      -5.973  15.237   3.214  1.00  0.00     0.047 C 
BRANCH  12  13
HETATM   13  C5  UNL     1      -6.404  15.927   4.455  1.00  0.00     0.006 C 
BRANCH  13  14
HETATM   14  C6  UNL     1      -5.274  15.904   5.446  1.00  0.00     0.026 C 
BRANCH  14  15
HETATM   15  C7  UNL     1      -3.915  15.997   4.807  1.00  0.00     0.201 C 
BRANCH  15  16
HETATM   16  N4  UNL     1      -3.361  17.290   5.223  1.00  0.00    -0.156 N 
HETATM   17  O2  UNL     1      -3.884  17.817   6.221  1.00  0.00    -0.537 OA
HETATM   18  O3  UNL     1      -2.342  17.897   4.576  1.00  0.00    -0.537 OA
ENDBRANCH  15  16
ENDBRANCH  14  15
ENDBRANCH  13  14
ENDBRANCH  12  13
ENDBRANCH   9  12
TORSDOF 5
ENDMDL
MODEL 3
REMARK VINA RESULT: -5.500325244      2.585      5.656
REMARK  5 active torsions:
REMARK  status: ('A' for Active; 'I' for Inactive)
REMARK    1  A    between atoms: C3_9  and  C4_10 
REMARK    2  A    between atoms: C4_10  and  C5_11 
REMARK    3  A    between atoms: C5_11  and  C6_12 
REMARK    4  A    between atoms: C6_12  and  C7_13 
REMARK    5  A    between atoms: C7_13  and  N4_14 
ROOT
HETATM    1  N1  UNL     1      -3.120  15.544   8.660  1.00  0.00    -0.063 NA
HETATM    2  C1  UNL     1      -3.465  15.886   7.312  1.00  0.00     0.193 C 
HETATM    3  N2  UNL     1      -2.748  16.726   6.632  1.00  0.00    -0.283 N 
ATOM      4  H2  UNL     1      -1.924  17.160   7.047  1.00  0.00     0.173 HD
HETATM    5  C2  UNL     1      -3.132  17.033   5.297  1.00  0.00     0.324 C 
HETATM    6  O1  UNL     1      -2.428  17.852   4.643  1.00  0.00    -0.247 OA
HETATM    7  N3  UNL     1      -4.284  16.415   4.749  1.00  0.00    -0.322 N 
ATOM      8  H3  UNL     1      -4.402  16.337   3.739  1.00  0.00     0.166 HD
HETATM    9  C3  UNL     1      -5.272  15.906   5.641  1.00  0.00     0.188 C 
HETATM   10  N5  UNL     1      -4.605  15.273   6.760  1.00  0.00    -0.343 N 
ATOM     11  H5  UNL     1      -4.956  14.395   7.143  1.00  0.00     0.164 HD
ENDROOT
BRANCH   9  12
HETATM   12  C4  UNL     1      -6.169  14.863   5.014  1.00  0.00     0.047 C 
BRANCH  12  13
HETATM   13  C5  UNL     1      -7.226  15.431   4.143  1.00  0.00     0.006 C 
BRANCH  13  14
HETATM   14  C6  UNL     1      -6.900  15.118   2.709  1.00  0.00     0.026 C 
BRANCH  14  15
HETATM   15  C7  UNL     1      -6.629  13.660   2.460  1.00  0.00     0.201 C 
BRANCH  15  16
HETATM   16  N4  UNL     1      -7.439  13.293   1.293  1.00  0.00    -0.156 N 
HETATM   17  O2  UNL     1      -8.385  14.053   1.019  1.00  0.00    -0.537 OA
HETATM   18  O3  UNL     1      -7.194  12.197   0.542  1.00  0.00    -0.537 OA
ENDBRANCH  15  16
ENDBRANCH  14  15
ENDBRANCH  13  14
ENDBRANCH  12  13
ENDBRANCH   9  12
TORSDOF 5
ENDMDL
MODEL 4
REMARK VINA RESULT: -5.484381443      2.944      3.906
REMARK  5 active torsions:
REMARK  status: ('A' for Active; 'I' for Inactive)
REMARK    1  A    between atoms: C3_9  and  C4_10 
REMARK    2  A    between atoms: C4_10  and  C5_11 
REMARK    3  A    between atoms: C5_11  and  C6_12 
REMARK    4  A    between atoms: C6_12  and  C7_13 
REMARK    5  A    between atoms: C7_13  and  N4_14 
ROOT
HETATM    1  N1  UNL     1      -7.174  12.266   0.587  1.00  0.00    -0.063 NA
HETATM    2  C1  UNL     1      -7.536  13.223   1.590  1.00  0.00     0.193 C 
HETATM    3  N2  UNL     1      -8.773  13.381   1.948  1.00  0.00    -0.283 N 
ATOM      4  H2  UNL     1      -9.512  12.824   1.519  1.00  0.00     0.173 HD
HETATM    5  C2  UNL     1      -9.081  14.344   2.948  1.00  0.00     0.324 C 
HETATM    6  O1  UNL     1     -10.288  14.489   3.290  1.00  0.00    -0.247 OA
HETATM    7  N3  UNL     1      -8.032  15.103   3.524  1.00  0.00    -0.322 N 
ATOM      8  H3  UNL     1      -8.145  15.538   4.439  1.00  0.00     0.166 HD
HETATM    9  C3  UNL     1      -6.816  15.246   2.794  1.00  0.00     0.188 C 
HETATM   10  N5  UNL     1      -6.499  13.978   2.169  1.00  0.00    -0.343 N 
ATOM     11  H5  UNL     1      -5.538  13.637   2.148  1.00  0.00     0.164 HD
ENDROOT
BRANCH   9  12
HETATM   12  C4  UNL     1      -5.635  15.618   3.660  1.00  0.00     0.047 C 
BRANCH  12  13
HETATM   13  C5  UNL     1      -6.013  16.100   5.011  1.00  0.00     0.006 C 
BRANCH  13  14
HETATM   14  C6  UNL     1      -4.846  15.916   5.941  1.00  0.00     0.026 C 
BRANCH  14  15
HETATM   15  C7  UNL     1      -4.024  17.161   6.126  1.00  0.00     0.201 C 
BRANCH  15  16
HETATM   16  N4  UNL     1      -2.774  16.933   5.392  1.00  0.00    -0.156 N 
HETATM   17  O2  UNL     1      -2.392  17.857   4.654  1.00  0.00    -0.537 OA
HETATM   18  O3  UNL     1      -2.059  15.791   5.495  1.00  0.00    -0.537 OA
ENDBRANCH  15  16
ENDBRANCH  14  15
ENDBRANCH  13  14
ENDBRANCH  12  13
ENDBRANCH   9  12
TORSDOF 5
ENDMDL
MODEL 5
REMARK VINA RESULT: -5.461187482      2.419      5.141
REMARK  5 active torsions:
REMARK  status: ('A' for Active; 'I' for Inactive)
REMARK    1  A    between atoms: C3_9  and  C4_10 
REMARK    2  A    between atoms: C4_10  and  C5_11 
REMARK    3  A    between atoms: C5_11  and  C6_12 
REMARK    4  A    between atoms: C6_12  and  C7_13 
REMARK    5  A    between atoms: C7_13  and  N4_14 
ROOT
HETATM    1  N1  UNL     1      -2.656  15.355   8.896  1.00  0.00    -0.063 NA
HETATM    2  C1  UNL     1      -3.290  15.690   7.655  1.00  0.00     0.193 C 
HETATM    3  N2  UNL     1      -2.690  16.435   6.778  1.00  0.00    -0.283 N 
ATOM      4  H2  UNL     1      -1.754  16.797   6.958  1.00  0.00     0.173 HD
HETATM    5  C2  UNL     1      -3.362  16.740   5.562  1.00  0.00     0.324 C 
HETATM    6  O1  UNL     1      -2.770  17.465   4.715  1.00  0.00    -0.247 OA
HETATM    7  N3  UNL     1      -4.663  16.224   5.342  1.00  0.00    -0.322 N 
ATOM      8  H3  UNL     1      -5.034  16.128   4.397  1.00  0.00     0.166 HD
HETATM    9  C3  UNL     1      -5.444  15.842   6.473  1.00  0.00     0.188 C 
HETATM   10  N5  UNL     1      -4.581  15.178   7.428  1.00  0.00    -0.343 N 
ATOM     11  H5  UNL     1      -4.904  14.351   7.930  1.00  0.00     0.164 HD
ENDROOT
BRANCH   9  12
HETATM   12  C4  UNL     1      -6.556  14.876   6.137  1.00  0.00     0.047 C 
BRANCH  12  13
HETATM   13  C5  UNL     1      -7.687  15.498   5.406  1.00  0.00     0.006 C 
BRANCH  13  14
HETATM   14  C6  UNL     1      -7.928  14.732   4.134  1.00  0.00     0.026 C 
BRANCH  14  15
HETATM   15  C7  UNL     1      -7.053  15.175   2.993  1.00  0.00     0.201 C 
BRANCH  15  16
HETATM   16  N4  UNL     1      -6.153  14.050   2.716  1.00  0.00    -0.156 N 
HETATM   17  O2  UNL     1      -4.999  14.143   3.173  1.00  0.00    -0.537 OA
HETATM   18  O3  UNL     1      -6.528  12.963   2.008  1.00  0.00    -0.537 OA
ENDBRANCH  15  16
ENDBRANCH  14  15
ENDBRANCH  13  14
ENDBRANCH  12  13
ENDBRANCH   9  12
TORSDOF 5
ENDMDL
