MODEL 1
REMARK VINA RESULT: -7.434751149      0.000      0.000
REMARK  8 active torsions:
REMARK  status: ('A' for Active; 'I' for Inactive)
REMARK    1  A    between atoms: C2_2  and  O2_4 
REMARK    2  A    between atoms: O2_4  and  C3_5 
REMARK    3  A    between atoms: C3_5  and  C4_6 
REMARK    4  A    between atoms: C4_6  and  O3_7 
REMARK    5  A    between atoms: C4_6  and  C5_9 
REMARK    6  A    between atoms: C12_16  and  O4_17 
REMARK    7  A    between atoms: C13_19  and  C14_20 
REMARK    8  A    between atoms: C14_20  and  C15_21 
ROOT
HETATM    1  C5  UNL     1      63.194  17.218  48.834  1.00  0.00    -0.021 A 
HETATM    2  C6  UNL     1      63.915  18.096  49.631  1.00  0.00     0.018 A 
HETATM    3  C7  UNL     1      63.945  19.487  49.416  1.00  0.00    -0.044 A 
HETATM    4  C8  UNL     1      63.232  19.985  48.389  1.00  0.00    -0.022 A 
HETATM    5  C9  UNL     1      62.493  19.111  47.566  1.00  0.00     0.017 A 
HETATM    6  C10 UNL     1      62.469  17.781  47.773  1.00  0.00    -0.052 A 
HETATM    7  C11 UNL     1      61.587  16.931  46.927  1.00  0.00     0.049 C 
HETATM    8  C12 UNL     1      63.050  21.406  48.129  1.00  0.00     0.156 C 
HETATM    9  C13 UNL     1      63.711  22.329  49.107  1.00  0.00     0.028 C 
HETATM   10  C20 UNL     1      64.875  21.779  49.799  1.00  0.00    -0.034 C 
HETATM   11  C21 UNL     1      66.166  21.945  48.974  1.00  0.00     0.016 C 
HETATM   12  C22 UNL     1      65.148  22.621  51.043  1.00  0.00     0.016 C 
HETATM   13  C23 UNL     1      64.762  20.345  50.253  1.00  0.00     0.023 C 
HETATM   14  C24 UNL     1      66.163  19.750  50.373  1.00  0.00     0.016 C 
ENDROOT
BRANCH   1  15
HETATM   15  C4  UNL     1      63.146  15.773  48.919  1.00  0.00     0.176 C 
BRANCH  15  16
HETATM   16  C3  UNL     1      62.252  15.234  50.035  1.00  0.00     0.215 C 
BRANCH  16  17
HETATM   17  O2  UNL     1      60.942  14.969  49.534  1.00  0.00    -0.319 OA
BRANCH  17  18
HETATM   18  C2  UNL     1      59.849  15.634  50.098  1.00  0.00     0.254 C 
HETATM   19  C1  UNL     1      58.822  14.974  50.942  1.00  0.00     0.126 C 
HETATM   20  O1  UNL     1      59.674  16.903  49.894  1.00  0.00    -0.266 OA
ENDBRANCH  17  18
ENDBRANCH  16  17
ENDBRANCH  15  16
BRANCH  15  21
HETATM   21  O3  UNL     1      64.437  15.217  49.147  1.00  0.00    -0.389 OA
ATOM     22  H3  UNL     1      64.696  14.812  48.327  1.00  0.00     0.210 HD
ENDBRANCH  15  21
ENDBRANCH   1  15
BRANCH   8  23
HETATM   23  O4  UNL     1      61.629  21.590  48.207  1.00  0.00    -0.390 OA
ATOM     24  H4  UNL     1      61.533  22.438  48.624  1.00  0.00     0.210 HD
ENDBRANCH   8  23
BRANCH   9  25
HETATM   25  C14 UNL     1      64.103  23.581  48.290  1.00  0.00     0.012 C 
BRANCH  25  26
HETATM   26  C15 UNL     1      63.049  23.917  47.300  1.00  0.00    -0.014 C 
HETATM   27  C16 UNL     1      62.109  25.022  47.699  1.00  0.00     0.005 C 
HETATM   28  C17 UNL     1      61.285  25.151  46.436  1.00  0.00     0.000 C 
HETATM   29  C18 UNL     1      62.246  24.806  45.303  1.00  0.00     0.000 C 
HETATM   30  C19 UNL     1      63.557  24.393  45.959  1.00  0.00     0.005 C 
ENDBRANCH  25  26
ENDBRANCH   9  25
TORSDOF 8
ENDMDL
MODEL 2
REMARK VINA RESULT: -7.395168613      1.523      2.029
REMARK  8 active torsions:
REMARK  status: ('A' for Active; 'I' for Inactive)
REMARK    1  A    between atoms: C2_2  and  O2_4 
REMARK    2  A    between atoms: O2_4  and  C3_5 
REMARK    3  A    between atoms: C3_5  and  C4_6 
REMARK    4  A    between atoms: C4_6  and  O3_7 
REMARK    5  A    between atoms: C4_6  and  C5_9 
REMARK    6  A    between atoms: C12_16  and  O4_17 
REMARK    7  A    between atoms: C13_19  and  C14_20 
REMARK    8  A    between atoms: C14_20  and  C15_21 
ROOT
HETATM    1  C5  UNL     1      62.314  16.911  48.987  1.00  0.00    -0.021 A 
HETATM    2  C6  UNL     1      63.069  17.533  49.971  1.00  0.00     0.018 A 
HETATM    3  C7  UNL     1      63.593  18.832  49.837  1.00  0.00    -0.044 A 
HETATM    4  C8  UNL     1      63.340  19.503  48.697  1.00  0.00    -0.022 A 
HETATM    5  C9  UNL     1      62.576  18.889  47.684  1.00  0.00     0.017 A 
HETATM    6  C10 UNL     1      62.079  17.645  47.815  1.00  0.00    -0.052 A 
HETATM    7  C11 UNL     1      61.197  17.100  46.747  1.00  0.00     0.049 C 
HETATM    8  C12 UNL     1      63.690  20.897  48.471  1.00  0.00     0.156 C 
HETATM    9  C13 UNL     1      64.362  21.587  49.620  1.00  0.00     0.028 C 
HETATM   10  C20 UNL     1      65.091  20.712  50.536  1.00  0.00    -0.034 C 
HETATM   11  C21 UNL     1      66.523  20.427  50.043  1.00  0.00     0.016 C 
HETATM   12  C22 UNL     1      65.318  21.458  51.849  1.00  0.00     0.016 C 
HETATM   13  C23 UNL     1      64.421  19.406  50.881  1.00  0.00     0.023 C 
HETATM   14  C24 UNL     1      65.487  18.394  51.295  1.00  0.00     0.016 C 
ENDROOT
BRANCH   1  15
HETATM   15  C4  UNL     1      61.786  15.562  48.988  1.00  0.00     0.176 C 
BRANCH  15  16
HETATM   16  C3  UNL     1      60.681  15.315  50.014  1.00  0.00     0.215 C 
BRANCH  16  17
HETATM   17  O2  UNL     1      59.447  15.865  49.551  1.00  0.00    -0.319 OA
BRANCH  17  18
HETATM   18  C2  UNL     1      58.507  15.021  48.951  1.00  0.00     0.254 C 
HETATM   19  C1  UNL     1      58.336  14.881  47.483  1.00  0.00     0.126 C 
HETATM   20  O1  UNL     1      57.710  14.301  49.678  1.00  0.00    -0.266 OA
ENDBRANCH  17  18
ENDBRANCH  16  17
ENDBRANCH  15  16
BRANCH  15  21
HETATM   21  O3  UNL     1      62.801  14.601  49.267  1.00  0.00    -0.389 OA
ATOM     22  H3  UNL     1      63.600  14.947  48.887  1.00  0.00     0.210 HD
ENDBRANCH  15  21
ENDBRANCH   1  15
BRANCH   8  23
HETATM   23  O4  UNL     1      62.427  21.532  48.225  1.00  0.00    -0.390 OA
ATOM     24  H4  UNL     1      62.570  22.432  48.493  1.00  0.00     0.210 HD
ENDBRANCH   8  23
BRANCH   9  25
HETATM   25  C14 UNL     1      65.315  22.620  48.977  1.00  0.00     0.012 C 
BRANCH  25  26
HETATM   26  C15 UNL     1      65.132  22.665  47.505  1.00  0.00    -0.014 C 
HETATM   27  C16 UNL     1      64.564  23.946  46.958  1.00  0.00     0.005 C 
HETATM   28  C17 UNL     1      64.633  23.664  45.472  1.00  0.00     0.000 C 
HETATM   29  C18 UNL     1      65.863  22.779  45.297  1.00  0.00     0.000 C 
HETATM   30  C19 UNL     1      66.396  22.500  46.696  1.00  0.00     0.005 C 
ENDBRANCH  25  26
ENDBRANCH   9  25
TORSDOF 8
ENDMDL
MODEL 3
REMARK VINA RESULT: -7.339556722      1.450      2.019
REMARK  8 active torsions:
REMARK  status: ('A' for Active; 'I' for Inactive)
REMARK    1  A    between atoms: C2_2  and  O2_4 
REMARK    2  A    between atoms: O2_4  and  C3_5 
REMARK    3  A    between atoms: C3_5  and  C4_6 
REMARK    4  A    between atoms: C4_6  and  O3_7 
REMARK    5  A    between atoms: C4_6  and  C5_9 
REMARK    6  A    between atoms: C12_16  and  O4_17 
REMARK    7  A    between atoms: C13_19  and  C14_20 
REMARK    8  A    between atoms: C14_20  and  C15_21 
ROOT
HETATM    1  C5  UNL     1      62.302  16.901  49.005  1.00  0.00    -0.021 A 
HETATM    2  C6  UNL     1      63.060  17.540  49.975  1.00  0.00     0.018 A 
HETATM    3  C7  UNL     1      63.582  18.838  49.817  1.00  0.00    -0.044 A 
HETATM    4  C8  UNL     1      63.323  19.489  48.667  1.00  0.00    -0.022 A 
HETATM    5  C9  UNL     1      62.555  18.857  47.668  1.00  0.00     0.017 A 
HETATM    6  C10 UNL     1      62.061  17.615  47.822  1.00  0.00    -0.052 A 
HETATM    7  C11 UNL     1      61.174  17.052  46.767  1.00  0.00     0.049 C 
HETATM    8  C12 UNL     1      63.670  20.880  48.417  1.00  0.00     0.156 C 
HETATM    9  C13 UNL     1      64.346  21.589  49.551  1.00  0.00     0.028 C 
HETATM   10  C20 UNL     1      65.080  20.731  50.478  1.00  0.00    -0.034 C 
HETATM   11  C21 UNL     1      66.510  20.440  49.983  1.00  0.00     0.016 C 
HETATM   12  C22 UNL     1      65.312  21.499  51.777  1.00  0.00     0.016 C 
HETATM   13  C23 UNL     1      64.413  19.430  50.848  1.00  0.00     0.023 C 
HETATM   14  C24 UNL     1      65.483  18.427  51.274  1.00  0.00     0.016 C 
ENDROOT
BRANCH   1  15
HETATM   15  C4  UNL     1      61.776  15.551  49.031  1.00  0.00     0.176 C 
BRANCH  15  16
HETATM   16  C3  UNL     1      60.659  15.326  50.049  1.00  0.00     0.215 C 
BRANCH  16  17
HETATM   17  O2  UNL     1      59.431  15.867  49.560  1.00  0.00    -0.319 OA
BRANCH  17  18
HETATM   18  C2  UNL     1      58.512  15.016  48.938  1.00  0.00     0.254 C 
HETATM   19  C1  UNL     1      58.408  14.842  47.467  1.00  0.00     0.126 C 
HETATM   20  O1  UNL     1      57.674  14.323  49.644  1.00  0.00    -0.266 OA
ENDBRANCH  17  18
ENDBRANCH  16  17
ENDBRANCH  15  16
BRANCH  15  21
HETATM   21  O3  UNL     1      62.789  14.599  49.343  1.00  0.00    -0.389 OA
ATOM     22  H3  UNL     1      63.522  14.800  48.773  1.00  0.00     0.210 HD
ENDBRANCH  15  21
ENDBRANCH   1  15
BRANCH   8  23
HETATM   23  O4  UNL     1      62.404  21.509  48.166  1.00  0.00    -0.390 OA
ATOM     24  H4  UNL     1      62.639  22.339  47.768  1.00  0.00     0.210 HD
ENDBRANCH   8  23
BRANCH   9  25
HETATM   25  C14 UNL     1      65.294  22.613  48.887  1.00  0.00     0.012 C 
BRANCH  25  26
HETATM   26  C15 UNL     1      64.746  23.988  48.993  1.00  0.00    -0.014 C 
HETATM   27  C16 UNL     1      64.087  24.525  47.752  1.00  0.00     0.005 C 
HETATM   28  C17 UNL     1      63.570  25.851  48.268  1.00  0.00     0.000 C 
HETATM   29  C18 UNL     1      63.238  25.600  49.736  1.00  0.00     0.000 C 
HETATM   30  C19 UNL     1      63.670  24.171  50.037  1.00  0.00     0.005 C 
ENDBRANCH  25  26
ENDBRANCH   9  25
TORSDOF 8
ENDMDL
MODEL 4
REMARK VINA RESULT: -7.336206263      1.010      1.317
REMARK  8 active torsions:
REMARK  status: ('A' for Active; 'I' for Inactive)
REMARK    1  A    between atoms: C2_2  and  O2_4 
REMARK    2  A    between atoms: O2_4  and  C3_5 
REMARK    3  A    between atoms: C3_5  and  C4_6 
REMARK    4  A    between atoms: C4_6  and  O3_7 
REMARK    5  A    between atoms: C4_6  and  C5_9 
REMARK    6  A    between atoms: C12_16  and  O4_17 
REMARK    7  A    between atoms: C13_19  and  C14_20 
REMARK    8  A    between atoms: C14_20  and  C15_21 
ROOT
HETATM    1  C5  UNL     1      62.759  17.061  48.842  1.00  0.00    -0.021 A 
HETATM    2  C6  UNL     1      63.489  17.786  49.773  1.00  0.00     0.018 A 
HETATM    3  C7  UNL     1      63.785  19.154  49.627  1.00  0.00    -0.044 A 
HETATM    4  C8  UNL     1      63.330  19.787  48.530  1.00  0.00    -0.022 A 
HETATM    5  C9  UNL     1      62.588  19.070  47.570  1.00  0.00     0.017 A 
HETATM    6  C10 UNL     1      62.309  17.760  47.712  1.00  0.00    -0.052 A 
HETATM    7  C11 UNL     1      61.434  17.093  46.709  1.00  0.00     0.049 C 
HETATM    8  C12 UNL     1      63.432  21.223  48.309  1.00  0.00     0.156 C 
HETATM    9  C13 UNL     1      64.084  21.998  49.414  1.00  0.00     0.028 C 
HETATM   10  C20 UNL     1      65.020  21.242  50.243  1.00  0.00    -0.034 C 
HETATM   11  C21 UNL     1      66.431  21.197  49.624  1.00  0.00     0.016 C 
HETATM   12  C22 UNL     1      65.239  22.001  51.550  1.00  0.00     0.016 C 
HETATM   13  C23 UNL     1      64.599  19.842  50.611  1.00  0.00     0.023 C 
HETATM   14  C24 UNL     1      65.845  19.010  50.909  1.00  0.00     0.016 C 
ENDROOT
BRANCH   1  15
HETATM   15  C4  UNL     1      62.456  15.645  48.854  1.00  0.00     0.176 C 
BRANCH  15  16
HETATM   16  C3  UNL     1      61.488  15.214  49.956  1.00  0.00     0.215 C 
BRANCH  16  17
HETATM   17  O2  UNL     1      60.312  16.023  49.924  1.00  0.00    -0.319 OA
BRANCH  17  18
HETATM   18  C2  UNL     1      59.063  15.417  50.091  1.00  0.00     0.254 C 
HETATM   19  C1  UNL     1      58.709  14.552  51.244  1.00  0.00     0.126 C 
HETATM   20  O1  UNL     1      58.127  15.584  49.209  1.00  0.00    -0.266 OA
ENDBRANCH  17  18
ENDBRANCH  16  17
ENDBRANCH  15  16
BRANCH  15  21
HETATM   21  O3  UNL     1      63.630  14.857  49.033  1.00  0.00    -0.389 OA
ATOM     22  H3  UNL     1      63.908  14.601  48.161  1.00  0.00     0.210 HD
ENDBRANCH  15  21
ENDBRANCH   1  15
BRANCH   8  23
HETATM   23  O4  UNL     1      62.068  21.649  48.187  1.00  0.00    -0.390 OA
ATOM     24  H4  UNL     1      62.085  22.261  47.461  1.00  0.00     0.210 HD
ENDBRANCH   8  23
BRANCH   9  25
HETATM   25  C14 UNL     1      64.800  23.178  48.719  1.00  0.00     0.012 C 
BRANCH  25  26
HETATM   26  C15 UNL     1      64.512  23.188  47.263  1.00  0.00    -0.014 C 
HETATM   27  C16 UNL     1      63.893  24.451  46.729  1.00  0.00     0.005 C 
HETATM   28  C17 UNL     1      63.861  24.136  45.249  1.00  0.00     0.000 C 
HETATM   29  C18 UNL     1      65.084  23.258  45.006  1.00  0.00     0.000 C 
HETATM   30  C19 UNL     1      65.718  23.016  46.369  1.00  0.00     0.005 C 
ENDBRANCH  25  26
ENDBRANCH   9  25
TORSDOF 8
ENDMDL
MODEL 5
REMARK VINA RESULT: -7.139805197      1.681      2.316
REMARK  8 active torsions:
REMARK  status: ('A' for Active; 'I' for Inactive)
REMARK    1  A    between atoms: C2_2  and  O2_4 
REMARK    2  A    between atoms: O2_4  and  C3_5 
REMARK    3  A    between atoms: C3_5  and  C4_6 
REMARK    4  A    between atoms: C4_6  and  O3_7 
REMARK    5  A    between atoms: C4_6  and  C5_9 
REMARK    6  A    between atoms: C12_16  and  O4_17 
REMARK    7  A    between atoms: C13_19  and  C14_20 
REMARK    8  A    between atoms: C14_20  and  C15_21 
ROOT
HETATM    1  C5  UNL     1      62.055  16.989  49.147  1.00  0.00    -0.021 A 
HETATM    2  C6  UNL     1      62.860  17.524  50.143  1.00  0.00     0.018 A 
HETATM    3  C7  UNL     1      63.539  18.750  50.011  1.00  0.00    -0.044 A 
HETATM    4  C8  UNL     1      63.392  19.436  48.862  1.00  0.00    -0.022 A 
HETATM    5  C9  UNL     1      62.579  18.910  47.837  1.00  0.00     0.017 A 
HETATM    6  C10 UNL     1      61.934  17.736  47.966  1.00  0.00    -0.052 A 
HETATM    7  C11 UNL     1      61.013  17.292  46.883  1.00  0.00     0.049 C 
HETATM    8  C12 UNL     1      63.911  20.776  48.635  1.00  0.00     0.156 C 
HETATM    9  C13 UNL     1      64.639  21.390  49.793  1.00  0.00     0.028 C 
HETATM   10  C20 UNL     1      65.238  20.442  50.729  1.00  0.00    -0.034 C 
HETATM   11  C21 UNL     1      66.636  19.983  50.267  1.00  0.00     0.016 C 
HETATM   12  C22 UNL     1      65.528  21.166  52.042  1.00  0.00     0.016 C 
HETATM   13  C23 UNL     1      64.409  19.228  51.068  1.00  0.00     0.023 C 
HETATM   14  C24 UNL     1      65.338  18.100  51.511  1.00  0.00     0.016 C 
ENDROOT
BRANCH   1  15
HETATM   15  C4  UNL     1      61.369  15.713  49.145  1.00  0.00     0.176 C 
BRANCH  15  16
HETATM   16  C3  UNL     1      59.972  15.745  49.764  1.00  0.00     0.215 C 
BRANCH  16  17
HETATM   17  O2  UNL     1      59.844  14.717  50.747  1.00  0.00    -0.319 OA
BRANCH  17  18
HETATM   18  C2  UNL     1      58.609  14.084  50.914  1.00  0.00     0.254 C 
HETATM   19  C1  UNL     1      58.147  13.489  52.193  1.00  0.00     0.126 C 
HETATM   20  O1  UNL     1      57.784  13.977  49.918  1.00  0.00    -0.266 OA
ENDBRANCH  17  18
ENDBRANCH  16  17
ENDBRANCH  15  16
BRANCH  15  21
HETATM   21  O3  UNL     1      62.096  14.725  49.870  1.00  0.00    -0.389 OA
ATOM     22  H3  UNL     1      62.964  15.087  50.008  1.00  0.00     0.210 HD
ENDBRANCH  15  21
ENDBRANCH   1  15
BRANCH   8  23
HETATM   23  O4  UNL     1      62.739  21.557  48.359  1.00  0.00    -0.390 OA
ATOM     24  H4  UNL     1      62.477  21.881  49.212  1.00  0.00     0.210 HD
ENDBRANCH   8  23
BRANCH   9  25
HETATM   25  C14 UNL     1      65.722  22.295  49.163  1.00  0.00     0.012 C 
BRANCH  25  26
HETATM   26  C15 UNL     1      65.350  23.727  49.285  1.00  0.00    -0.014 C 
HETATM   27  C16 UNL     1      64.803  24.367  48.038  1.00  0.00     0.005 C 
HETATM   28  C17 UNL     1      64.443  25.738  48.568  1.00  0.00     0.000 C 
HETATM   29  C18 UNL     1      64.037  25.504  50.020  1.00  0.00     0.000 C 
HETATM   30  C19 UNL     1      64.274  24.026  50.301  1.00  0.00     0.005 C 
ENDBRANCH  25  26
ENDBRANCH   9  25
TORSDOF 8
ENDMDL
