MODEL 1
REMARK VINA RESULT: -7.810289868      0.000      0.000
REMARK  7 active torsions:
REMARK  status: ('A' for Active; 'I' for Inactive)
REMARK    1  A    between atoms: C1_2  and  C2_3 
REMARK    2  A    between atoms: C1_2  and  O2_13 
REMARK    3  A    between atoms: C2_3  and  C3_4 
REMARK    4  A    between atoms: C3_4  and  C4_5 
REMARK    5  A    between atoms: C4_5  and  C5_6 
REMARK    6  A    between atoms: C5_6  and  C6_7 
REMARK    7  A    between atoms: O2_13  and  C12_14 
ROOT
HETATM    1  C12 UNL     1      38.210  22.510  20.940  1.00  0.00     0.195 C 
HETATM    2  C13 UNL     1      36.939  22.012  20.280  1.00  0.00     0.218 C 
HETATM    3  C14 UNL     1      35.687  22.438  20.967  1.00  0.00     0.044 C 
HETATM    4  C15 UNL     1      35.465  23.925  20.828  1.00  0.00     0.046 C 
HETATM    5  C16 UNL     1      35.256  24.550  22.193  1.00  0.00     0.239 C 
HETATM    6  N1  UNL     1      36.700  24.536  22.351  1.00  0.00    -0.068 N 
ATOM      7  H11 UNL     1      37.159  23.795  22.882  1.00  0.00     0.277 HD
ATOM      8  H12 UNL     1      37.167  25.226  22.941  1.00  0.00     0.277 HD
HETATM    9  C17 UNL     1      36.817  24.595  20.911  1.00  0.00     0.224 C 
HETATM   10  C18 UNL     1      37.878  23.784  20.256  1.00  0.00     0.248 C 
HETATM   11  N2  UNL     1      37.257  22.961  19.199  1.00  0.00    -0.059 N 
ATOM     12  H21 UNL     1      36.538  23.334  18.579  1.00  0.00     0.278 HD
ATOM     13  H22 UNL     1      37.772  22.677  18.365  1.00  0.00     0.278 HD
ENDROOT
BRANCH   1  14
HETATM   14  O2  UNL     1      38.248  22.455  22.321  1.00  0.00    -0.312 OA
BRANCH  14  15
HETATM   15  C1  UNL     1      38.499  21.219  22.932  1.00  0.00     0.259 C 
HETATM   16  O1  UNL     1      38.651  20.176  22.254  1.00  0.00    -0.265 OA
BRANCH  15  17
HETATM   17  C2  UNL     1      38.596  21.074  24.423  1.00  0.00     0.111 C 
BRANCH  17  18
HETATM   18  C3  UNL     1      38.549  22.497  24.938  1.00  0.00     0.010 C 
BRANCH  18  19
HETATM   19  C4  UNL     1      39.566  22.770  26.018  1.00  0.00     0.001 C 
BRANCH  19  20
HETATM   20  C5  UNL     1      38.860  23.713  26.992  1.00  0.00     0.004 C 
BRANCH  20  21
HETATM   21  C6  UNL     1      39.448  25.092  26.992  1.00  0.00    -0.014 C 
HETATM   22  C7  UNL     1      39.803  25.525  28.388  1.00  0.00     0.004 C 
HETATM   23  C8  UNL     1      39.946  27.049  28.326  1.00  0.00     0.000 C 
HETATM   24  C9  UNL     1      40.573  27.471  27.001  1.00  0.00     0.000 C 
HETATM   25  C10 UNL     1      41.502  26.378  26.569  1.00  0.00     0.000 C 
HETATM   26  C11 UNL     1      40.675  25.194  26.113  1.00  0.00     0.004 C 
ENDBRANCH  20  21
ENDBRANCH  19  20
ENDBRANCH  18  19
ENDBRANCH  17  18
ENDBRANCH  15  17
ENDBRANCH  14  15
ENDBRANCH   1  14
TORSDOF 7
ENDMDL
MODEL 2
REMARK VINA RESULT: -7.771722581      1.729      2.320
REMARK  7 active torsions:
REMARK  status: ('A' for Active; 'I' for Inactive)
REMARK    1  A    between atoms: C1_2  and  C2_3 
REMARK    2  A    between atoms: C1_2  and  O2_13 
REMARK    3  A    between atoms: C2_3  and  C3_4 
REMARK    4  A    between atoms: C3_4  and  C4_5 
REMARK    5  A    between atoms: C4_5  and  C5_6 
REMARK    6  A    between atoms: C5_6  and  C6_7 
REMARK    7  A    between atoms: O2_13  and  C12_14 
ROOT
HETATM    1  C12 UNL     1      35.724  23.773  21.715  1.00  0.00     0.195 C 
HETATM    2  C13 UNL     1      34.625  22.968  21.048  1.00  0.00     0.218 C 
HETATM    3  C14 UNL     1      33.674  22.328  22.001  1.00  0.00     0.044 C 
HETATM    4  C15 UNL     1      32.827  23.360  22.704  1.00  0.00     0.046 C 
HETATM    5  C16 UNL     1      32.916  23.172  24.205  1.00  0.00     0.239 C 
HETATM    6  N1  UNL     1      34.178  23.890  24.158  1.00  0.00    -0.068 N 
ATOM      7  H11 UNL     1      35.065  23.385  24.151  1.00  0.00     0.277 HD
ATOM      8  H12 UNL     1      34.505  24.424  24.964  1.00  0.00     0.277 HD
HETATM    9  C17 UNL     1      33.702  24.563  22.970  1.00  0.00     0.224 C 
HETATM   10  C18 UNL     1      34.665  24.801  21.861  1.00  0.00     0.248 C 
HETATM   11  N2  UNL     1      34.087  24.268  20.611  1.00  0.00    -0.059 N 
ATOM     12  H21 UNL     1      33.102  24.393  20.377  1.00  0.00     0.278 HD
ATOM     13  H22 UNL     1      34.313  24.667  19.700  1.00  0.00     0.278 HD
ENDROOT
BRANCH   1  14
HETATM   14  O2  UNL     1      36.304  23.211  22.837  1.00  0.00    -0.312 OA
BRANCH  14  15
HETATM   15  C1  UNL     1      37.701  23.108  22.886  1.00  0.00     0.259 C 
HETATM   16  O1  UNL     1      38.429  23.770  22.109  1.00  0.00    -0.265 OA
BRANCH  15  17
HETATM   17  C2  UNL     1      38.398  22.204  23.859  1.00  0.00     0.111 C 
BRANCH  17  18
HETATM   18  C3  UNL     1      38.108  22.820  25.211  1.00  0.00     0.010 C 
BRANCH  18  19
HETATM   19  C4  UNL     1      39.318  22.877  26.108  1.00  0.00     0.001 C 
BRANCH  19  20
HETATM   20  C5  UNL     1      38.903  23.776  27.272  1.00  0.00     0.004 C 
BRANCH  20  21
HETATM   21  C6  UNL     1      39.462  25.163  27.161  1.00  0.00    -0.014 C 
HETATM   22  C7  UNL     1      39.904  25.673  28.504  1.00  0.00     0.004 C 
HETATM   23  C8  UNL     1      40.013  27.195  28.355  1.00  0.00     0.000 C 
HETATM   24  C9  UNL     1      40.536  27.557  26.969  1.00  0.00     0.000 C 
HETATM   25  C10 UNL     1      41.455  26.459  26.529  1.00  0.00     0.000 C 
HETATM   26  C11 UNL     1      40.622  25.239  26.193  1.00  0.00     0.004 C 
ENDBRANCH  20  21
ENDBRANCH  19  20
ENDBRANCH  18  19
ENDBRANCH  17  18
ENDBRANCH  15  17
ENDBRANCH  14  15
ENDBRANCH   1  14
TORSDOF 7
ENDMDL
MODEL 3
REMARK VINA RESULT: -7.759525035      0.409      1.088
REMARK  7 active torsions:
REMARK  status: ('A' for Active; 'I' for Inactive)
REMARK    1  A    between atoms: C1_2  and  C2_3 
REMARK    2  A    between atoms: C1_2  and  O2_13 
REMARK    3  A    between atoms: C2_3  and  C3_4 
REMARK    4  A    between atoms: C3_4  and  C4_5 
REMARK    5  A    between atoms: C4_5  and  C5_6 
REMARK    6  A    between atoms: C5_6  and  C6_7 
REMARK    7  A    between atoms: O2_13  and  C12_14 
ROOT
HETATM    1  C12 UNL     1      38.211  22.472  20.911  1.00  0.00     0.195 C 
HETATM    2  C13 UNL     1      36.939  22.014  20.223  1.00  0.00     0.218 C 
HETATM    3  C14 UNL     1      35.687  22.467  20.894  1.00  0.00     0.044 C 
HETATM    4  C15 UNL     1      35.507  23.960  20.767  1.00  0.00     0.046 C 
HETATM    5  C16 UNL     1      35.291  24.576  22.134  1.00  0.00     0.239 C 
HETATM    6  N1  UNL     1      36.731  24.522  22.317  1.00  0.00    -0.068 N 
ATOM      7  H11 UNL     1      37.161  23.764  22.847  1.00  0.00     0.277 HD
ATOM      8  H12 UNL     1      37.205  25.194  22.922  1.00  0.00     0.277 HD
HETATM    9  C17 UNL     1      36.875  24.593  20.881  1.00  0.00     0.224 C 
HETATM   10  C18 UNL     1      37.925  23.761  20.234  1.00  0.00     0.248 C 
HETATM   11  N2  UNL     1      37.301  22.966  19.158  1.00  0.00    -0.059 N 
ATOM     12  H21 UNL     1      36.603  23.364  18.530  1.00  0.00     0.278 HD
ATOM     13  H22 UNL     1      37.823  22.677  18.330  1.00  0.00     0.278 HD
ENDROOT
BRANCH   1  14
HETATM   14  O2  UNL     1      38.223  22.401  22.292  1.00  0.00    -0.312 OA
BRANCH  14  15
HETATM   15  C1  UNL     1      38.486  21.163  22.893  1.00  0.00     0.259 C 
HETATM   16  O1  UNL     1      38.631  20.124  22.208  1.00  0.00    -0.265 OA
BRANCH  15  17
HETATM   17  C2  UNL     1      38.605  21.012  24.382  1.00  0.00     0.111 C 
BRANCH  17  18
HETATM   18  C3  UNL     1      38.614  22.434  24.899  1.00  0.00     0.010 C 
BRANCH  18  19
HETATM   19  C4  UNL     1      39.470  22.612  26.128  1.00  0.00     0.001 C 
BRANCH  19  20
HETATM   20  C5  UNL     1      38.833  23.777  26.886  1.00  0.00     0.004 C 
BRANCH  20  21
HETATM   21  C6  UNL     1      39.798  24.895  27.145  1.00  0.00    -0.014 C 
HETATM   22  C7  UNL     1      39.763  25.904  26.032  1.00  0.00     0.004 C 
HETATM   23  C8  UNL     1      41.058  26.712  26.162  1.00  0.00     0.000 C 
HETATM   24  C9  UNL     1      41.412  26.915  27.632  1.00  0.00     0.000 C 
HETATM   25  C10 UNL     1      40.130  26.984  28.403  1.00  0.00     0.000 C 
HETATM   26  C11 UNL     1      39.527  25.595  28.459  1.00  0.00     0.004 C 
ENDBRANCH  20  21
ENDBRANCH  19  20
ENDBRANCH  18  19
ENDBRANCH  17  18
ENDBRANCH  15  17
ENDBRANCH  14  15
ENDBRANCH   1  14
TORSDOF 7
ENDMDL
MODEL 4
REMARK VINA RESULT: -7.666368872      1.733      2.525
REMARK  7 active torsions:
REMARK  status: ('A' for Active; 'I' for Inactive)
REMARK    1  A    between atoms: C1_2  and  C2_3 
REMARK    2  A    between atoms: C1_2  and  O2_13 
REMARK    3  A    between atoms: C2_3  and  C3_4 
REMARK    4  A    between atoms: C3_4  and  C4_5 
REMARK    5  A    between atoms: C4_5  and  C5_6 
REMARK    6  A    between atoms: C5_6  and  C6_7 
REMARK    7  A    between atoms: O2_13  and  C12_14 
ROOT
HETATM    1  C12 UNL     1      35.840  23.926  21.744  1.00  0.00     0.195 C 
HETATM    2  C13 UNL     1      34.766  23.127  21.031  1.00  0.00     0.218 C 
HETATM    3  C14 UNL     1      33.836  22.404  21.945  1.00  0.00     0.044 C 
HETATM    4  C15 UNL     1      32.957  23.368  22.705  1.00  0.00     0.046 C 
HETATM    5  C16 UNL     1      33.052  23.097  24.193  1.00  0.00     0.239 C 
HETATM    6  N1  UNL     1      34.292  23.856  24.187  1.00  0.00    -0.068 N 
ATOM      7  H11 UNL     1      35.194  23.380  24.153  1.00  0.00     0.277 HD
ATOM      8  H12 UNL     1      34.602  24.353  25.023  1.00  0.00     0.277 HD
HETATM    9  C17 UNL     1      33.795  24.580  23.039  1.00  0.00     0.224 C 
HETATM   10  C18 UNL     1      34.749  24.911  21.946  1.00  0.00     0.248 C 
HETATM   11  N2  UNL     1      34.187  24.432  20.668  1.00  0.00    -0.059 N 
ATOM     12  H21 UNL     1      33.198  24.539  20.440  1.00  0.00     0.278 HD
ATOM     13  H22 UNL     1      34.400  24.889  19.781  1.00  0.00     0.278 HD
ENDROOT
BRANCH   1  14
HETATM   14  O2  UNL     1      36.437  23.319  22.833  1.00  0.00    -0.312 OA
BRANCH  14  15
HETATM   15  C1  UNL     1      37.822  23.109  22.802  1.00  0.00     0.259 C 
HETATM   16  O1  UNL     1      38.562  23.756  22.024  1.00  0.00    -0.265 OA
BRANCH  15  17
HETATM   17  C2  UNL     1      38.493  22.100  23.689  1.00  0.00     0.111 C 
BRANCH  17  18
HETATM   18  C3  UNL     1      38.165  22.564  25.092  1.00  0.00     0.010 C 
BRANCH  18  19
HETATM   19  C4  UNL     1      39.390  22.832  25.929  1.00  0.00     0.001 C 
BRANCH  19  20
HETATM   20  C5  UNL     1      38.918  23.794  27.020  1.00  0.00     0.004 C 
BRANCH  20  21
HETATM   21  C6  UNL     1      39.861  24.941  27.227  1.00  0.00    -0.014 C 
HETATM   22  C7  UNL     1      39.803  25.900  26.071  1.00  0.00     0.004 C 
HETATM   23  C8  UNL     1      41.082  26.738  26.162  1.00  0.00     0.000 C 
HETATM   24  C9  UNL     1      41.436  27.011  27.620  1.00  0.00     0.000 C 
HETATM   25  C10 UNL     1      40.155  27.088  28.393  1.00  0.00     0.000 C 
HETATM   26  C11 UNL     1      39.580  25.691  28.510  1.00  0.00     0.004 C 
ENDBRANCH  20  21
ENDBRANCH  19  20
ENDBRANCH  18  19
ENDBRANCH  17  18
ENDBRANCH  15  17
ENDBRANCH  14  15
ENDBRANCH   1  14
TORSDOF 7
ENDMDL
MODEL 5
REMARK VINA RESULT: -7.646016840      1.634      2.191
REMARK  7 active torsions:
REMARK  status: ('A' for Active; 'I' for Inactive)
REMARK    1  A    between atoms: C1_2  and  C2_3 
REMARK    2  A    between atoms: C1_2  and  O2_13 
REMARK    3  A    between atoms: C2_3  and  C3_4 
REMARK    4  A    between atoms: C3_4  and  C4_5 
REMARK    5  A    between atoms: C4_5  and  C5_6 
REMARK    6  A    between atoms: C5_6  and  C6_7 
REMARK    7  A    between atoms: O2_13  and  C12_14 
ROOT
HETATM    1  C12 UNL     1      38.351  21.122  20.929  1.00  0.00     0.195 C 
HETATM    2  C13 UNL     1      36.879  21.131  20.564  1.00  0.00     0.218 C 
HETATM    3  C14 UNL     1      36.427  22.378  19.882  1.00  0.00     0.044 C 
HETATM    4  C15 UNL     1      37.021  22.491  18.499  1.00  0.00     0.046 C 
HETATM    5  C16 UNL     1      37.713  23.829  18.337  1.00  0.00     0.239 C 
HETATM    6  N1  UNL     1      38.848  23.257  19.039  1.00  0.00    -0.068 N 
ATOM      7  H11 UNL     1      38.986  23.429  20.035  1.00  0.00     0.277 HD
ATOM      8  H12 UNL     1      39.795  23.597  18.865  1.00  0.00     0.277 HD
HETATM    9  C17 UNL     1      38.433  21.956  18.565  1.00  0.00     0.224 C 
HETATM   10  C18 UNL     1      38.542  20.798  19.493  1.00  0.00     0.248 C 
HETATM   11  N2  UNL     1      37.234  20.117  19.555  1.00  0.00    -0.059 N 
ATOM     12  H21 UNL     1      36.666  19.964  18.721  1.00  0.00     0.278 HD
ATOM     13  H22 UNL     1      37.154  19.118  19.744  1.00  0.00     0.278 HD
ENDROOT
BRANCH   1  14
HETATM   14  O2  UNL     1      38.863  22.297  21.448  1.00  0.00    -0.312 OA
BRANCH  14  15
HETATM   15  C1  UNL     1      38.403  22.728  22.699  1.00  0.00     0.259 C 
HETATM   16  O1  UNL     1      37.850  23.844  22.840  1.00  0.00    -0.265 OA
BRANCH  15  17
HETATM   17  C2  UNL     1      38.549  21.887  23.934  1.00  0.00     0.111 C 
BRANCH  17  18
HETATM   18  C3  UNL     1      38.304  22.855  25.072  1.00  0.00     0.010 C 
BRANCH  18  19
HETATM   19  C4  UNL     1      39.422  22.874  26.084  1.00  0.00     0.001 C 
BRANCH  19  20
HETATM   20  C5  UNL     1      38.912  23.765  27.216  1.00  0.00     0.004 C 
BRANCH  20  21
HETATM   21  C6  UNL     1      39.474  25.154  27.158  1.00  0.00    -0.014 C 
HETATM   22  C7  UNL     1      39.883  25.625  28.526  1.00  0.00     0.004 C 
HETATM   23  C8  UNL     1      39.995  27.150  28.423  1.00  0.00     0.000 C 
HETATM   24  C9  UNL     1      40.553  27.551  27.062  1.00  0.00     0.000 C 
HETATM   25  C10 UNL     1      41.483  26.465  26.613  1.00  0.00     0.000 C 
HETATM   26  C11 UNL     1      40.658  25.256  26.223  1.00  0.00     0.004 C 
ENDBRANCH  20  21
ENDBRANCH  19  20
ENDBRANCH  18  19
ENDBRANCH  17  18
ENDBRANCH  15  17
ENDBRANCH  14  15
ENDBRANCH   1  14
TORSDOF 7
ENDMDL
