MODEL 1
REMARK VINA RESULT: -6.757794051      0.000      0.000
REMARK  3 active torsions:
REMARK  status: ('A' for Active; 'I' for Inactive)
REMARK    1  A    between atoms: O1_2  and  C2_3 
REMARK    2  A    between atoms: C2_3  and  C3_5 
REMARK    3  A    between atoms: C3_5  and  C4_6 
ROOT
HETATM    1  C4  UNL     1      25.063 -44.615  10.369  1.00  0.00    -0.029 C 
HETATM    2  C5  UNL     1      25.101 -46.010   9.876  1.00  0.00     0.014 C 
HETATM    3  C6  UNL     1      25.828 -46.993  10.753  1.00  0.00    -0.012 C 
HETATM    4  C7  UNL     1      27.209 -47.306  10.350  1.00  0.00     0.024 C 
HETATM    5  C8  UNL     1      28.010 -46.260   9.661  1.00  0.00     0.114 C 
HETATM    6  N1  UNL     1      28.463 -45.169  10.436  1.00  0.00    -0.417 N 
ATOM      7  H1  UNL     1      29.458 -45.042  10.623  1.00  0.00     0.153 HD
HETATM    8  C9  UNL     1      27.505 -44.250  10.951  1.00  0.00     0.077 C 
HETATM    9  C10 UNL     1      27.189 -44.641  12.367  1.00  0.00     0.029 C 
HETATM   10  C11 UNL     1      25.845 -45.241  12.564  1.00  0.00    -0.012 C 
HETATM   11  C12 UNL     1      25.747 -46.691  12.219  1.00  0.00     0.009 C 
HETATM   12  C13 UNL     1      24.756 -44.507  11.850  1.00  0.00     0.014 C 
HETATM   13  C14 UNL     1      26.358 -43.931  10.089  1.00  0.00     0.034 C 
ENDROOT
BRANCH   1  14
HETATM   14  C3  UNL     1      23.939 -43.847   9.708  1.00  0.00     0.120 C 
BRANCH  14  15
HETATM   15  C2  UNL     1      22.645 -43.934  10.352  1.00  0.00     0.259 C 
HETATM   16  O2  UNL     1      22.218 -43.022  11.090  1.00  0.00    -0.265 OA
BRANCH  15  17
HETATM   17  O1  UNL     1      21.849 -45.051  10.155  1.00  0.00    -0.326 OA
HETATM   18  C1  UNL     1      21.497 -45.458   8.832  1.00  0.00     0.213 C 
ENDBRANCH  15  17
ENDBRANCH  14  15
ENDBRANCH   1  14
TORSDOF 3
ENDMDL
MODEL 2
REMARK VINA RESULT: -6.501023447      1.028      1.166
REMARK  3 active torsions:
REMARK  status: ('A' for Active; 'I' for Inactive)
REMARK    1  A    between atoms: O1_2  and  C2_3 
REMARK    2  A    between atoms: C2_3  and  C3_5 
REMARK    3  A    between atoms: C3_5  and  C4_6 
ROOT
HETATM    1  C4  UNL     1      25.263 -45.028  10.432  1.00  0.00    -0.029 C 
HETATM    2  C5  UNL     1      25.437 -46.341   9.768  1.00  0.00     0.014 C 
HETATM    3  C6  UNL     1      26.251 -47.353  10.528  1.00  0.00    -0.012 C 
HETATM    4  C7  UNL     1      27.657 -47.480  10.112  1.00  0.00     0.024 C 
HETATM    5  C8  UNL     1      28.357 -46.285   9.572  1.00  0.00     0.114 C 
HETATM    6  N1  UNL     1      28.700 -45.262  10.485  1.00  0.00    -0.417 N 
ATOM      7  H1  UNL     1      29.677 -45.066  10.702  1.00  0.00     0.153 HD
HETATM    8  C9  UNL     1      27.656 -44.510  11.094  1.00  0.00     0.077 C 
HETATM    9  C10 UNL     1      27.373 -45.103  12.445  1.00  0.00     0.029 C 
HETATM   10  C11 UNL     1      26.091 -45.848  12.543  1.00  0.00    -0.012 C 
HETATM   11  C12 UNL     1      26.134 -47.246  12.019  1.00  0.00     0.009 C 
HETATM   12  C13 UNL     1      24.940 -45.136  11.909  1.00  0.00     0.014 C 
HETATM   13  C14 UNL     1      26.487 -44.195  10.260  1.00  0.00     0.034 C 
ENDROOT
BRANCH   1  14
HETATM   14  C3  UNL     1      24.073 -44.293   9.853  1.00  0.00     0.120 C 
BRANCH  14  15
HETATM   15  C2  UNL     1      23.589 -43.164  10.619  1.00  0.00     0.259 C 
HETATM   16  O2  UNL     1      24.329 -42.198  10.899  1.00  0.00    -0.265 OA
BRANCH  15  17
HETATM   17  O1  UNL     1      22.276 -43.140  11.061  1.00  0.00    -0.326 OA
HETATM   18  C1  UNL     1      21.212 -42.895  10.139  1.00  0.00     0.213 C 
ENDBRANCH  15  17
ENDBRANCH  14  15
ENDBRANCH   1  14
TORSDOF 3
ENDMDL
MODEL 3
REMARK VINA RESULT: -6.405707651      1.127      2.353
REMARK  3 active torsions:
REMARK  status: ('A' for Active; 'I' for Inactive)
REMARK    1  A    between atoms: O1_2  and  C2_3 
REMARK    2  A    between atoms: C2_3  and  C3_5 
REMARK    3  A    between atoms: C3_5  and  C4_6 
ROOT
HETATM    1  C4  UNL     1      25.492 -44.664  10.556  1.00  0.00    -0.029 C 
HETATM    2  C5  UNL     1      26.820 -44.106  10.211  1.00  0.00     0.014 C 
HETATM    3  C6  UNL     1      27.933 -45.109  10.074  1.00  0.00    -0.012 C 
HETATM    4  C7  UNL     1      28.813 -45.248  11.246  1.00  0.00     0.024 C 
HETATM    5  C8  UNL     1      28.246 -45.015  12.600  1.00  0.00     0.114 C 
HETATM    6  N1  UNL     1      27.370 -45.995  13.119  1.00  0.00    -0.417 N 
ATOM      7  H1  UNL     1      27.642 -46.562  13.922  1.00  0.00     0.153 HD
HETATM    8  C9  UNL     1      26.101 -46.175  12.500  1.00  0.00     0.077 C 
HETATM    9  C10 UNL     1      26.204 -47.319  11.532  1.00  0.00     0.029 C 
HETATM   10  C11 UNL     1      26.188 -46.927  10.099  1.00  0.00    -0.012 C 
HETATM   11  C12 UNL     1      27.498 -46.450   9.562  1.00  0.00     0.009 C 
HETATM   12  C13 UNL     1      25.140 -45.913   9.772  1.00  0.00     0.014 C 
HETATM   13  C14 UNL     1      25.419 -44.965  12.014  1.00  0.00     0.034 C 
ENDROOT
BRANCH   1  14
HETATM   14  C3  UNL     1      24.395 -43.686  10.193  1.00  0.00     0.120 C 
BRANCH  14  15
HETATM   15  C2  UNL     1      23.153 -43.824  10.924  1.00  0.00     0.259 C 
HETATM   16  O2  UNL     1      22.871 -43.074  11.882  1.00  0.00    -0.265 OA
BRANCH  15  17
HETATM   17  O1  UNL     1      22.245 -44.807  10.565  1.00  0.00    -0.326 OA
HETATM   18  C1  UNL     1      21.369 -44.605   9.454  1.00  0.00     0.213 C 
ENDBRANCH  15  17
ENDBRANCH  14  15
ENDBRANCH   1  14
TORSDOF 3
ENDMDL
MODEL 4
REMARK VINA RESULT: -6.364830452      1.255      1.373
REMARK  3 active torsions:
REMARK  status: ('A' for Active; 'I' for Inactive)
REMARK    1  A    between atoms: O1_2  and  C2_3 
REMARK    2  A    between atoms: C2_3  and  C3_5 
REMARK    3  A    between atoms: C3_5  and  C4_6 
ROOT
HETATM    1  C4  UNL     1      25.722 -44.395  10.797  1.00  0.00    -0.029 C 
HETATM    2  C5  UNL     1      25.061 -45.720  10.797  1.00  0.00     0.014 C 
HETATM    3  C6  UNL     1      25.786 -46.810  11.537  1.00  0.00    -0.012 C 
HETATM    4  C7  UNL     1      26.581 -47.726  10.702  1.00  0.00     0.024 C 
HETATM    5  C8  UNL     1      27.190 -47.209   9.449  1.00  0.00     0.114 C 
HETATM    6  N1  UNL     1      28.293 -46.334   9.572  1.00  0.00    -0.417 N 
ATOM      7  H1  UNL     1      29.222 -46.622   9.265  1.00  0.00     0.153 HD
HETATM    8  C9  UNL     1      28.083 -45.042  10.132  1.00  0.00     0.077 C 
HETATM    9  C10 UNL     1      28.441 -45.094  11.590  1.00  0.00     0.029 C 
HETATM   10  C11 UNL     1      27.283 -45.037  12.519  1.00  0.00    -0.012 C 
HETATM   11  C12 UNL     1      26.574 -46.336  12.722  1.00  0.00     0.009 C 
HETATM   12  C13 UNL     1      26.276 -43.996  12.151  1.00  0.00     0.014 C 
HETATM   13  C14 UNL     1      26.822 -44.365   9.792  1.00  0.00     0.034 C 
ENDROOT
BRANCH   1  14
HETATM   14  C3  UNL     1      24.724 -43.302  10.478  1.00  0.00     0.120 C 
BRANCH  14  15
HETATM   15  C2  UNL     1      23.442 -43.398  11.143  1.00  0.00     0.259 C 
HETATM   16  O2  UNL     1      23.295 -43.048  12.333  1.00  0.00    -0.265 OA
BRANCH  15  17
HETATM   17  O1  UNL     1      22.342 -43.887  10.458  1.00  0.00    -0.326 OA
HETATM   18  C1  UNL     1      21.295 -43.002  10.054  1.00  0.00     0.213 C 
ENDBRANCH  15  17
ENDBRANCH  14  15
ENDBRANCH   1  14
TORSDOF 3
ENDMDL
MODEL 5
REMARK VINA RESULT: -6.170476049      1.058      2.097
REMARK  3 active torsions:
REMARK  status: ('A' for Active; 'I' for Inactive)
REMARK    1  A    between atoms: O1_2  and  C2_3 
REMARK    2  A    between atoms: C2_3  and  C3_5 
REMARK    3  A    between atoms: C3_5  and  C4_6 
ROOT
HETATM    1  C4  UNL     1      24.630 -44.916   9.983  1.00  0.00    -0.029 C 
HETATM    2  C5  UNL     1      24.311 -45.231  11.394  1.00  0.00     0.014 C 
HETATM    3  C6  UNL     1      25.453 -45.108  12.365  1.00  0.00    -0.012 C 
HETATM    4  C7  UNL     1      26.124 -46.369  12.723  1.00  0.00     0.024 C 
HETATM    5  C8  UNL     1      26.176 -47.463  11.719  1.00  0.00     0.114 C 
HETATM    6  N1  UNL     1      27.041 -47.295  10.614  1.00  0.00    -0.417 N 
ATOM      7  H1  UNL     1      27.865 -47.887  10.504  1.00  0.00     0.153 HD
HETATM    8  C9  UNL     1      26.741 -46.285   9.658  1.00  0.00     0.077 C 
HETATM    9  C10 UNL     1      27.544 -45.060   9.995  1.00  0.00     0.029 C 
HETATM   10  C11 UNL     1      26.757 -43.933  10.557  1.00  0.00    -0.012 C 
HETATM   11  C12 UNL     1      26.451 -44.045  12.015  1.00  0.00     0.009 C 
HETATM   12  C13 UNL     1      25.482 -43.673   9.820  1.00  0.00     0.014 C 
HETATM   13  C14 UNL     1      25.322 -46.069   9.339  1.00  0.00     0.034 C 
ENDROOT
BRANCH   1  14
HETATM   14  C3  UNL     1      23.369 -44.595   9.211  1.00  0.00     0.120 C 
BRANCH  14  15
HETATM   15  C2  UNL     1      22.192 -44.311  10.005  1.00  0.00     0.259 C 
HETATM   16  O2  UNL     1      22.060 -43.230  10.616  1.00  0.00    -0.265 OA
BRANCH  15  17
HETATM   17  O1  UNL     1      21.179 -45.252  10.100  1.00  0.00    -0.326 OA
HETATM   18  C1  UNL     1      20.835 -46.054   8.969  1.00  0.00     0.213 C 
ENDBRANCH  15  17
ENDBRANCH  14  15
ENDBRANCH   1  14
TORSDOF 3
ENDMDL
