MODEL 1
REMARK VINA RESULT: -9.402699344      0.000      0.000
REMARK  7 active torsions:
REMARK  status: ('A' for Active; 'I' for Inactive)
REMARK    1  A    between atoms: O1_2  and  C2_3 
REMARK       I    between atoms: N1_9  and  C8_10 
REMARK    2  A    between atoms: C8_10  and  O3_12 
REMARK    3  A    between atoms: O3_12  and  C9_13 
REMARK    4  A    between atoms: C22_28  and  C23_29 
REMARK    5  A    between atoms: C23_29  and  C24_30 
REMARK    6  A    between atoms: C24_30  and  C25_31 
REMARK    7  A    between atoms: C27_36  and  O6_37 
ROOT
HETATM    1  C2  UNL     1      37.079   0.800  58.473  1.00  0.00     0.149 C 
HETATM    2  C3  UNL     1      36.944  -0.199  57.380  1.00  0.00     0.034 C 
HETATM    3  C4  UNL     1      38.055  -0.159  56.364  1.00  0.00     0.003 C 
HETATM    4  C5  UNL     1      37.499  -0.168  54.937  1.00  0.00     0.002 C 
HETATM    5  C6  UNL     1      37.548   1.210  54.325  1.00  0.00     0.020 C 
HETATM    6  C7  UNL     1      36.260   1.974  54.498  1.00  0.00     0.128 C 
HETATM    7  N1  UNL     1      36.435   3.233  55.194  1.00  0.00    -0.323 N 
HETATM    8  C8  UNL     1      37.381   4.163  54.679  1.00  0.00     0.363 C 
HETATM    9  O2  UNL     1      37.609   5.281  55.205  1.00  0.00    -0.238 OA
HETATM   10  C22 UNL     1      35.710   3.627  56.383  1.00  0.00     0.092 C 
HETATM   11  C26 UNL     1      35.581   2.514  57.392  1.00  0.00     0.059 C 
HETATM   12  C27 UNL     1      36.842   2.224  58.124  1.00  0.00     0.149 C 
ENDROOT
BRANCH   8  13
HETATM   13  O3  UNL     1      38.144   3.922  53.546  1.00  0.00    -0.298 OA
BRANCH  13  14
HETATM   14  C9  UNL     1      37.866   4.400  52.275  1.00  0.00     0.134 C 
HETATM   15  C10 UNL     1      36.760   3.674  51.561  1.00  0.00     0.033 C 
HETATM   16  C11 UNL     1      36.629   4.243  50.157  1.00  0.00     0.008 C 
HETATM   17  C12 UNL     1      36.744   5.746  50.145  1.00  0.00    -0.006 C 
HETATM   18  C13 UNL     1      35.958   6.360  49.030  1.00  0.00     0.042 C 
HETATM   19  C20 UNL     1      36.377   6.236  51.505  1.00  0.00    -0.001 C 
HETATM   20  C14 UNL     1      34.483   6.187  49.241  1.00  0.00    -0.039 A 
HETATM   21  C15 UNL     1      33.201   5.707  49.157  1.00  0.00     0.025 A 
HETATM   22  C16 UNL     1      33.469   6.781  49.963  1.00  0.00     0.137 A 
HETATM   23  O4  UNL     1      33.015   8.066  49.923  1.00  0.00    -0.352 OA
HETATM   24  C17 UNL     1      33.390   7.315  51.178  1.00  0.00     0.235 A 
HETATM   25  C18 UNL     1      34.640   7.955  51.714  1.00  0.00     0.159 C 
HETATM   26  O5  UNL     1      34.334   8.891  52.435  1.00  0.00    -0.295 OA
HETATM   27  C19 UNL     1      36.102   7.712  51.567  1.00  0.00     0.086 C 
HETATM   28  C21 UNL     1      37.569   5.878  52.404  1.00  0.00     0.038 C 
ENDBRANCH  13  14
ENDBRANCH   8  13
BRANCH  10  29
HETATM   29  C23 UNL     1      34.403   4.189  55.925  1.00  0.00     0.034 C 
BRANCH  29  30
HETATM   30  C24 UNL     1      33.535   3.269  55.142  1.00  0.00     0.119 C 
BRANCH  30  31
HETATM   31  C25 UNL     1      32.198   3.154  55.892  1.00  0.00     0.388 C 
HETATM   32  F1  UNL     1      31.695   1.872  55.783  1.00  0.00    -0.171 F 
HETATM   33  F2  UNL     1      32.382   3.407  57.246  1.00  0.00    -0.171 F 
HETATM   34  F3  UNL     1      31.298   4.082  55.432  1.00  0.00    -0.171 F 
ENDBRANCH  30  31
ENDBRANCH  29  30
ENDBRANCH  10  29
BRANCH  12  35
HETATM   35  O6  UNL     1      37.964   2.851  57.548  1.00  0.00    -0.393 OA
ATOM     36  H6  UNL     1      38.358   3.508  58.111  1.00  0.00     0.210 HD
ENDBRANCH  12  35
BRANCH   1  37
HETATM   37  O1  UNL     1      38.363   0.690  59.005  1.00  0.00    -0.388 OA
HETATM   38  C1  UNL     1      38.403  -0.160  60.109  1.00  0.00     0.202 C 
ENDBRANCH   1  37
TORSDOF 7
ENDMDL
MODEL 2
REMARK VINA RESULT: -9.105848136      2.466      3.857
REMARK  7 active torsions:
REMARK  status: ('A' for Active; 'I' for Inactive)
REMARK    1  A    between atoms: O1_2  and  C2_3 
REMARK       I    between atoms: N1_9  and  C8_10 
REMARK    2  A    between atoms: C8_10  and  O3_12 
REMARK    3  A    between atoms: O3_12  and  C9_13 
REMARK    4  A    between atoms: C22_28  and  C23_29 
REMARK    5  A    between atoms: C23_29  and  C24_30 
REMARK    6  A    between atoms: C24_30  and  C25_31 
REMARK    7  A    between atoms: C27_36  and  O6_37 
ROOT
HETATM    1  C2  UNL     1      38.381  -0.482  54.278  1.00  0.00     0.149 C 
HETATM    2  C3  UNL     1      37.313  -0.612  53.252  1.00  0.00     0.034 C 
HETATM    3  C4  UNL     1      37.418   0.376  52.120  1.00  0.00     0.003 C 
HETATM    4  C5  UNL     1      36.067   1.040  51.840  1.00  0.00     0.002 C 
HETATM    5  C6  UNL     1      36.019   2.437  52.407  1.00  0.00     0.020 C 
HETATM    6  C7  UNL     1      35.416   2.487  53.788  1.00  0.00     0.128 C 
HETATM    7  N1  UNL     1      36.307   3.058  54.778  1.00  0.00    -0.323 N 
HETATM    8  C8  UNL     1      36.845   4.353  54.533  1.00  0.00     0.363 C 
HETATM    9  O2  UNL     1      37.625   4.938  55.326  1.00  0.00    -0.238 OA
HETATM   10  C22 UNL     1      36.692   2.411  56.014  1.00  0.00     0.092 C 
HETATM   11  C26 UNL     1      37.014   0.949  55.839  1.00  0.00     0.059 C 
HETATM   12  C27 UNL     1      38.320   0.702  55.174  1.00  0.00     0.149 C 
ENDROOT
BRANCH   8  13
HETATM   13  O3  UNL     1      36.561   5.092  53.395  1.00  0.00    -0.298 OA
BRANCH  13  14
HETATM   14  C9  UNL     1      35.561   6.046  53.287  1.00  0.00     0.134 C 
HETATM   15  C10 UNL     1      36.053   7.465  53.227  1.00  0.00     0.033 C 
HETATM   16  C11 UNL     1      34.853   8.398  53.202  1.00  0.00     0.008 C 
HETATM   17  C12 UNL     1      33.760   7.886  52.300  1.00  0.00    -0.006 C 
HETATM   18  C13 UNL     1      32.956   8.999  51.705  1.00  0.00     0.042 C 
HETATM   19  C20 UNL     1      34.390   6.975  51.301  1.00  0.00    -0.001 C 
HETATM   20  C14 UNL     1      33.771   9.807  50.739  1.00  0.00    -0.039 A 
HETATM   21  C15 UNL     1      34.544  10.802  50.199  1.00  0.00     0.025 A 
HETATM   22  C16 UNL     1      34.189   9.728  49.427  1.00  0.00     0.137 A 
HETATM   23  O4  UNL     1      33.448   9.653  48.285  1.00  0.00    -0.352 OA
HETATM   24  C17 UNL     1      34.590   8.733  48.643  1.00  0.00     0.235 A 
HETATM   25  C18 UNL     1      33.993   7.380  48.914  1.00  0.00     0.159 C 
HETATM   26  O5  UNL     1      33.902   6.764  47.866  1.00  0.00    -0.295 OA
HETATM   27  C19 UNL     1      33.511   6.659  50.125  1.00  0.00     0.086 C 
HETATM   28  C21 UNL     1      34.729   5.693  52.074  1.00  0.00     0.038 C 
ENDBRANCH  13  14
ENDBRANCH   8  13
BRANCH  10  29
HETATM   29  C23 UNL     1      35.603   2.683  57.000  1.00  0.00     0.034 C 
BRANCH  29  30
HETATM   30  C24 UNL     1      35.967   2.525  58.435  1.00  0.00     0.119 C 
BRANCH  30  31
HETATM   31  C25 UNL     1      35.987   3.930  59.058  1.00  0.00     0.388 C 
HETATM   32  F1  UNL     1      34.712   4.460  59.088  1.00  0.00    -0.171 F 
HETATM   33  F2  UNL     1      36.434   3.868  60.372  1.00  0.00    -0.171 F 
HETATM   34  F3  UNL     1      36.851   4.753  58.380  1.00  0.00    -0.171 F 
ENDBRANCH  30  31
ENDBRANCH  29  30
ENDBRANCH  10  29
BRANCH  12  35
HETATM   35  O6  UNL     1      38.869   1.864  54.600  1.00  0.00    -0.393 OA
ATOM     36  H6  UNL     1      38.338   2.640  54.739  1.00  0.00     0.210 HD
ENDBRANCH  12  35
BRANCH   1  37
HETATM   37  O1  UNL     1      39.612  -0.470  53.625  1.00  0.00    -0.388 OA
HETATM   38  C1  UNL     1      40.652  -0.884  54.455  1.00  0.00     0.202 C 
ENDBRANCH   1  37
TORSDOF 7
ENDMDL
MODEL 3
REMARK VINA RESULT: -9.052324260      3.665      6.141
REMARK  7 active torsions:
REMARK  status: ('A' for Active; 'I' for Inactive)
REMARK    1  A    between atoms: O1_2  and  C2_3 
REMARK       I    between atoms: N1_9  and  C8_10 
REMARK    2  A    between atoms: C8_10  and  O3_12 
REMARK    3  A    between atoms: O3_12  and  C9_13 
REMARK    4  A    between atoms: C22_28  and  C23_29 
REMARK    5  A    between atoms: C23_29  and  C24_30 
REMARK    6  A    between atoms: C24_30  and  C25_31 
REMARK    7  A    between atoms: C27_36  and  O6_37 
ROOT
HETATM    1  C2  UNL     1      42.258   1.449  49.378  1.00  0.00     0.149 C 
HETATM    2  C3  UNL     1      41.334   1.227  48.233  1.00  0.00     0.034 C 
HETATM    3  C4  UNL     1      40.806   2.492  47.609  1.00  0.00     0.003 C 
HETATM    4  C5  UNL     1      39.290   2.418  47.410  1.00  0.00     0.002 C 
HETATM    5  C6  UNL     1      38.564   3.215  48.465  1.00  0.00     0.020 C 
HETATM    6  C7  UNL     1      38.145   2.377  49.646  1.00  0.00     0.128 C 
HETATM    7  N1  UNL     1      38.683   2.856  50.904  1.00  0.00    -0.323 N 
HETATM    8  C8  UNL     1      38.437   4.209  51.270  1.00  0.00     0.363 C 
HETATM    9  O2  UNL     1      38.857   4.723  52.337  1.00  0.00    -0.238 OA
HETATM   10  C22 UNL     1      39.456   2.056  51.830  1.00  0.00     0.092 C 
HETATM   11  C26 UNL     1      40.482   1.189  51.147  1.00  0.00     0.059 C 
HETATM   12  C27 UNL     1      41.661   1.943  50.645  1.00  0.00     0.149 C 
ENDROOT
BRANCH   8  13
HETATM   13  O3  UNL     1      37.710   5.090  50.483  1.00  0.00    -0.298 OA
BRANCH  13  14
HETATM   14  C9  UNL     1      36.352   5.340  50.605  1.00  0.00     0.134 C 
HETATM   15  C10 UNL     1      35.990   6.325  51.680  1.00  0.00     0.033 C 
HETATM   16  C11 UNL     1      34.476   6.430  51.757  1.00  0.00     0.008 C 
HETATM   17  C12 UNL     1      33.842   6.463  50.389  1.00  0.00    -0.006 C 
HETATM   18  C13 UNL     1      32.563   7.240  50.382  1.00  0.00     0.042 C 
HETATM   19  C20 UNL     1      34.872   6.954  49.429  1.00  0.00    -0.001 C 
HETATM   20  C14 UNL     1      32.809   8.700  50.619  1.00  0.00    -0.039 A 
HETATM   21  C15 UNL     1      32.917   9.922  51.232  1.00  0.00     0.025 A 
HETATM   22  C16 UNL     1      33.208   9.807  49.899  1.00  0.00     0.137 A 
HETATM   23  O4  UNL     1      32.633  10.382  48.805  1.00  0.00    -0.352 OA
HETATM   24  C17 UNL     1      34.091  10.009  48.926  1.00  0.00     0.235 A 
HETATM   25  C18 UNL     1      34.327   8.861  47.985  1.00  0.00     0.159 C 
HETATM   26  O5  UNL     1      34.592   9.298  46.877  1.00  0.00    -0.295 OA
HETATM   27  C19 UNL     1      34.312   7.376  48.100  1.00  0.00     0.086 C 
HETATM   28  C21 UNL     1      35.852   5.787  49.248  1.00  0.00     0.038 C 
ENDBRANCH  13  14
ENDBRANCH   8  13
BRANCH  10  29
HETATM   29  C23 UNL     1      38.475   1.298  52.666  1.00  0.00     0.034 C 
BRANCH  29  30
HETATM   30  C24 UNL     1      38.173   1.878  54.003  1.00  0.00     0.119 C 
BRANCH  30  31
HETATM   31  C25 UNL     1      36.678   2.235  54.019  1.00  0.00     0.388 C 
HETATM   32  F1  UNL     1      36.088   1.775  55.180  1.00  0.00    -0.171 F 
HETATM   33  F2  UNL     1      36.511   3.614  53.994  1.00  0.00    -0.171 F 
HETATM   34  F3  UNL     1      36.045   1.737  52.908  1.00  0.00    -0.171 F 
ENDBRANCH  30  31
ENDBRANCH  29  30
ENDBRANCH  10  29
BRANCH  12  35
HETATM   35  O6  UNL     1      41.464   3.338  50.663  1.00  0.00    -0.393 OA
ATOM     36  H6  UNL     1      41.125   3.659  51.490  1.00  0.00     0.210 HD
ENDBRANCH  12  35
BRANCH   1  37
HETATM   37  O1  UNL     1      43.237   2.356  48.976  1.00  0.00    -0.388 OA
HETATM   38  C1  UNL     1      44.423   1.721  48.611  1.00  0.00     0.202 C 
ENDBRANCH   1  37
TORSDOF 7
ENDMDL
MODEL 4
REMARK VINA RESULT: -8.926874668      3.293      8.111
REMARK  7 active torsions:
REMARK  status: ('A' for Active; 'I' for Inactive)
REMARK    1  A    between atoms: O1_2  and  C2_3 
REMARK       I    between atoms: N1_9  and  C8_10 
REMARK    2  A    between atoms: C8_10  and  O3_12 
REMARK    3  A    between atoms: O3_12  and  C9_13 
REMARK    4  A    between atoms: C22_28  and  C23_29 
REMARK    5  A    between atoms: C23_29  and  C24_30 
REMARK    6  A    between atoms: C24_30  and  C25_31 
REMARK    7  A    between atoms: C27_36  and  O6_37 
ROOT
HETATM    1  C2  UNL     1      34.156   9.693  51.087  1.00  0.00     0.149 C 
HETATM    2  C3  UNL     1      34.644   9.433  49.706  1.00  0.00     0.034 C 
HETATM    3  C4  UNL     1      33.898   8.344  48.981  1.00  0.00     0.003 C 
HETATM    4  C5  UNL     1      34.867   7.360  48.318  1.00  0.00     0.002 C 
HETATM    5  C6  UNL     1      34.976   6.084  49.113  1.00  0.00     0.020 C 
HETATM    6  C7  UNL     1      36.130   6.096  50.083  1.00  0.00     0.128 C 
HETATM    7  N1  UNL     1      35.721   5.886  51.458  1.00  0.00    -0.323 N 
HETATM    8  C8  UNL     1      34.958   4.724  51.764  1.00  0.00     0.363 C 
HETATM    9  O2  UNL     1      34.554   4.448  52.921  1.00  0.00    -0.238 OA
HETATM   10  C22 UNL     1      36.035   6.772  52.558  1.00  0.00     0.092 C 
HETATM   11  C26 UNL     1      35.874   8.229  52.208  1.00  0.00     0.059 C 
HETATM   12  C27 UNL     1      34.456   8.666  52.117  1.00  0.00     0.149 C 
ENDROOT
BRANCH   8  13
HETATM   13  O3  UNL     1      34.586   3.786  50.812  1.00  0.00    -0.298 OA
BRANCH  13  14
HETATM   14  C9  UNL     1      35.290   2.632  50.506  1.00  0.00     0.134 C 
HETATM   15  C10 UNL     1      36.642   2.867  49.893  1.00  0.00     0.033 C 
HETATM   16  C11 UNL     1      37.255   1.524  49.530  1.00  0.00     0.008 C 
HETATM   17  C12 UNL     1      37.026   0.491  50.605  1.00  0.00    -0.006 C 
HETATM   18  C13 UNL     1      38.126  -0.523  50.651  1.00  0.00     0.042 C 
HETATM   19  C20 UNL     1      36.799   1.218  51.886  1.00  0.00    -0.001 C 
HETATM   20  C14 UNL     1      39.415   0.090  51.112  1.00  0.00    -0.039 A 
HETATM   21  C15 UNL     1      40.666   0.651  51.109  1.00  0.00     0.025 A 
HETATM   22  C16 UNL     1      40.019   0.448  52.299  1.00  0.00     0.137 A 
HETATM   23  O4  UNL     1      40.343  -0.325  53.373  1.00  0.00    -0.352 OA
HETATM   24  C17 UNL     1      39.579   0.975  53.437  1.00  0.00     0.235 A 
HETATM   25  C18 UNL     1      38.170   0.636  53.835  1.00  0.00     0.159 C 
HETATM   26  O5  UNL     1      38.095   0.600  55.052  1.00  0.00    -0.295 OA
HETATM   27  C19 UNL     1      36.903   0.349  53.107  1.00  0.00     0.086 C 
HETATM   28  C21 UNL     1      35.388   1.813  51.774  1.00  0.00     0.038 C 
ENDBRANCH  13  14
ENDBRANCH   8  13
BRANCH  10  29
HETATM   29  C23 UNL     1      37.407   6.406  53.027  1.00  0.00     0.034 C 
BRANCH  29  30
HETATM   30  C24 UNL     1      37.485   5.737  54.355  1.00  0.00     0.119 C 
BRANCH  30  31
HETATM   31  C25 UNL     1      37.891   4.275  54.106  1.00  0.00     0.388 C 
HETATM   32  F1  UNL     1      39.013   3.957  54.844  1.00  0.00    -0.171 F 
HETATM   33  F2  UNL     1      36.877   3.417  54.515  1.00  0.00    -0.171 F 
HETATM   34  F3  UNL     1      38.093   4.045  52.769  1.00  0.00    -0.171 F 
ENDBRANCH  30  31
ENDBRANCH  29  30
ENDBRANCH  10  29
BRANCH  12  35
HETATM   35  O6  UNL     1      33.551   7.587  52.108  1.00  0.00    -0.393 OA
ATOM     36  H6  UNL     1      33.964   6.752  51.921  1.00  0.00     0.210 HD
ENDBRANCH  12  35
BRANCH   1  37
HETATM   37  O1  UNL     1      32.774   9.865  51.034  1.00  0.00    -0.388 OA
HETATM   38  C1  UNL     1      32.414  11.210  50.954  1.00  0.00     0.202 C 
ENDBRANCH   1  37
TORSDOF 7
ENDMDL
MODEL 5
REMARK VINA RESULT: -8.797676445      2.759      5.020
REMARK  7 active torsions:
REMARK  status: ('A' for Active; 'I' for Inactive)
REMARK    1  A    between atoms: O1_2  and  C2_3 
REMARK       I    between atoms: N1_9  and  C8_10 
REMARK    2  A    between atoms: C8_10  and  O3_12 
REMARK    3  A    between atoms: O3_12  and  C9_13 
REMARK    4  A    between atoms: C22_28  and  C23_29 
REMARK    5  A    between atoms: C23_29  and  C24_30 
REMARK    6  A    between atoms: C24_30  and  C25_31 
REMARK    7  A    between atoms: C27_36  and  O6_37 
ROOT
HETATM    1  C2  UNL     1      40.823   0.793  51.042  1.00  0.00     0.149 C 
HETATM    2  C3  UNL     1      39.990   0.999  49.828  1.00  0.00     0.034 C 
HETATM    3  C4  UNL     1      39.936   2.426  49.349  1.00  0.00     0.003 C 
HETATM    4  C5  UNL     1      38.496   2.857  49.057  1.00  0.00     0.002 C 
HETATM    5  C6  UNL     1      37.951   3.721  50.166  1.00  0.00     0.020 C 
HETATM    6  C7  UNL     1      37.185   2.934  51.199  1.00  0.00     0.128 C 
HETATM    7  N1  UNL     1      37.721   3.079  52.538  1.00  0.00    -0.323 N 
HETATM    8  C8  UNL     1      37.866   4.392  53.067  1.00  0.00     0.363 C 
HETATM    9  O2  UNL     1      38.320   4.628  54.215  1.00  0.00    -0.238 OA
HETATM   10  C22 UNL     1      38.120   1.980  53.390  1.00  0.00     0.092 C 
HETATM   11  C26 UNL     1      38.892   0.913  52.658  1.00  0.00     0.059 C 
HETATM   12  C27 UNL     1      40.287   1.307  52.329  1.00  0.00     0.149 C 
ENDROOT
BRANCH   8  13
HETATM   13  O3  UNL     1      37.522   5.537  52.365  1.00  0.00    -0.298 OA
BRANCH  13  14
HETATM   14  C9  UNL     1      36.348   6.255  52.529  1.00  0.00     0.134 C 
HETATM   15  C10 UNL     1      36.536   7.739  52.674  1.00  0.00     0.033 C 
HETATM   16  C11 UNL     1      35.183   8.381  52.934  1.00  0.00     0.008 C 
HETATM   17  C12 UNL     1      34.102   7.787  52.068  1.00  0.00    -0.006 C 
HETATM   18  C13 UNL     1      33.020   8.777  51.765  1.00  0.00     0.042 C 
HETATM   19  C20 UNL     1      34.760   7.201  50.866  1.00  0.00    -0.001 C 
HETATM   20  C14 UNL     1      33.522   9.881  50.882  1.00  0.00    -0.039 A 
HETATM   21  C15 UNL     1      34.003  11.091  50.454  1.00  0.00     0.025 A 
HETATM   22  C16 UNL     1      33.767  10.097  49.542  1.00  0.00     0.137 A 
HETATM   23  O4  UNL     1      32.910  10.039  48.484  1.00  0.00    -0.352 OA
HETATM   24  C17 UNL     1      34.249   9.346  48.557  1.00  0.00     0.235 A 
HETATM   25  C18 UNL     1      33.974   7.870  48.641  1.00  0.00     0.159 C 
HETATM   26  O5  UNL     1      33.866   7.418  47.513  1.00  0.00    -0.295 OA
HETATM   27  C19 UNL     1      33.811   6.884  49.745  1.00  0.00     0.086 C 
HETATM   28  C21 UNL     1      35.447   5.920  51.360  1.00  0.00     0.038 C 
ENDBRANCH  13  14
ENDBRANCH   8  13
BRANCH  10  29
HETATM   29  C23 UNL     1      36.880   1.483  54.062  1.00  0.00     0.034 C 
BRANCH  29  30
HETATM   30  C24 UNL     1      36.608   2.031  55.418  1.00  0.00     0.119 C 
BRANCH  30  31
HETATM   31  C25 UNL     1      35.306   2.844  55.330  1.00  0.00     0.388 C 
HETATM   32  F1  UNL     1      35.546   4.167  55.645  1.00  0.00    -0.171 F 
HETATM   33  F2  UNL     1      34.808   2.816  54.033  1.00  0.00    -0.171 F 
HETATM   34  F3  UNL     1      34.339   2.307  56.142  1.00  0.00    -0.171 F 
ENDBRANCH  30  31
ENDBRANCH  29  30
ENDBRANCH  10  29
BRANCH  12  35
HETATM   35  O6  UNL     1      40.526   2.682  52.521  1.00  0.00    -0.393 OA
ATOM     36  H6  UNL     1      41.194   2.860  53.173  1.00  0.00     0.210 HD
ENDBRANCH  12  35
BRANCH   1  37
HETATM   37  O1  UNL     1      42.066   1.382  50.821  1.00  0.00    -0.388 OA
HETATM   38  C1  UNL     1      43.013   0.462  50.375  1.00  0.00     0.202 C 
ENDBRANCH   1  37
TORSDOF 7
ENDMDL
