MODEL 1
REMARK VINA RESULT: -8.588960622      0.000      0.000
REMARK  6 active torsions:
REMARK  status: ('A' for Active; 'I' for Inactive)
REMARK    1  A    between atoms: O1_2  and  C2_3 
REMARK    2  A    between atoms: C2_3  and  C3_4 
REMARK    3  A    between atoms: C13_15  and  O3_16 
REMARK    4  A    between atoms: O3_16  and  C14_17 
REMARK    5  A    between atoms: C20_24  and  C21_25 
REMARK    6  A    between atoms: C21_25  and  O5_26 
ROOT
HETATM    1  C2  UNL     1      35.833   3.204  58.101  1.00  0.00     0.157 C 
HETATM    2  C4  UNL     1      36.062   4.365  57.140  1.00  0.00     0.050 C 
HETATM    3  C5  UNL     1      34.970   4.630  56.191  1.00  0.00     0.013 C 
HETATM    4  C6  UNL     1      34.867   3.831  54.944  1.00  0.00    -0.033 C 
HETATM    5  C7  UNL     1      33.366   3.465  54.835  1.00  0.00     0.016 C 
HETATM    6  C8  UNL     1      35.079   4.778  53.769  1.00  0.00    -0.001 C 
HETATM    7  C9  UNL     1      36.277   5.637  53.851  1.00  0.00     0.007 C 
HETATM    8  C10 UNL     1      36.974   5.937  52.559  1.00  0.00     0.012 C 
HETATM    9  C11 UNL     1      36.094   6.036  51.366  1.00  0.00    -0.013 C 
HETATM   10  C12 UNL     1      35.674   7.493  51.271  1.00  0.00     0.018 C 
HETATM   11  C13 UNL     1      36.892   5.600  50.123  1.00  0.00     0.140 C 
HETATM   12  C16 UNL     1      36.041   4.744  49.294  1.00  0.00     0.034 C 
HETATM   13  C17 UNL     1      34.661   4.713  49.975  1.00  0.00     0.008 C 
HETATM   14  C18 UNL     1      34.887   5.129  51.383  1.00  0.00     0.001 C 
HETATM   15  C19 UNL     1      34.879   4.090  52.430  1.00  0.00     0.001 C 
HETATM   16  C20 UNL     1      35.755   2.912  52.305  1.00  0.00     0.014 C 
HETATM   17  C22 UNL     1      36.519   2.558  53.541  1.00  0.00     0.015 C 
HETATM   18  C23 UNL     1      35.659   2.610  54.815  1.00  0.00     0.035 C 
HETATM   19  C24 UNL     1      36.587   2.190  55.910  1.00  0.00     0.137 A 
HETATM   20  O6  UNL     1      37.115   0.847  55.426  1.00  0.00    -0.365 OA
HETATM   21  C25 UNL     1      37.896   1.860  55.958  1.00  0.00     0.167 A 
HETATM   22  C26 UNL     1      38.254   1.475  57.403  1.00  0.00     0.118 C 
HETATM   23  C27 UNL     1      36.921   0.986  57.913  1.00  0.00     0.288 C 
HETATM   24  F1  UNL     1      36.699  -0.322  57.460  1.00  0.00    -0.202 F 
HETATM   25  F2  UNL     1      36.812   0.911  59.260  1.00  0.00    -0.202 F 
HETATM   26  C28 UNL     1      35.955   1.948  57.242  1.00  0.00     0.239 C 
HETATM   27  F3  UNL     1      34.716   1.383  57.025  1.00  0.00    -0.229 F 
ENDROOT
BRANCH   1  28
HETATM   28  O1  UNL     1      36.782   3.271  59.057  1.00  0.00    -0.374 OA
HETATM   29  C1  UNL     1      36.680   4.024  60.155  1.00  0.00     0.203 C 
ENDBRANCH   1  28
BRANCH   1  30
HETATM   30  C3  UNL     1      34.486   3.184  58.667  1.00  0.00     0.273 C 
HETATM   31  O2  UNL     1      33.871   4.217  58.816  1.00  0.00    -0.303 OA
ENDBRANCH   1  30
BRANCH  16  32
HETATM   32  C21 UNL     1      35.012   1.626  51.905  1.00  0.00     0.169 C 
BRANCH  32  33
HETATM   33  O5  UNL     1      35.404   1.221  50.632  1.00  0.00    -0.400 OA
ATOM     34  H5  UNL     1      36.180   0.677  50.686  1.00  0.00     0.209 HD
ENDBRANCH  32  33
ENDBRANCH  16  32
BRANCH  11  35
HETATM   35  O3  UNL     1      38.174   5.190  50.441  1.00  0.00    -0.316 OA
BRANCH  35  36
HETATM   36  C14 UNL     1      38.877   4.149  49.907  1.00  0.00     0.255 C 
HETATM   37  C15 UNL     1      38.892   2.765  50.410  1.00  0.00     0.126 C 
HETATM   38  O4  UNL     1      39.538   4.498  48.899  1.00  0.00    -0.266 OA
ENDBRANCH  35  36
ENDBRANCH  11  35
TORSDOF 6
ENDMDL
MODEL 2
REMARK VINA RESULT: -8.565353434      4.241      6.688
REMARK  6 active torsions:
REMARK  status: ('A' for Active; 'I' for Inactive)
REMARK    1  A    between atoms: O1_2  and  C2_3 
REMARK    2  A    between atoms: C2_3  and  C3_4 
REMARK    3  A    between atoms: C13_15  and  O3_16 
REMARK    4  A    between atoms: O3_16  and  C14_17 
REMARK    5  A    between atoms: C20_24  and  C21_25 
REMARK    6  A    between atoms: C21_25  and  O5_26 
ROOT
HETATM    1  C2  UNL     1      34.387   7.411  50.514  1.00  0.00     0.157 C 
HETATM    2  C4  UNL     1      35.290   6.735  49.488  1.00  0.00     0.050 C 
HETATM    3  C5  UNL     1      35.088   5.288  49.319  1.00  0.00     0.013 C 
HETATM    4  C6  UNL     1      35.727   4.340  50.266  1.00  0.00    -0.033 C 
HETATM    5  C7  UNL     1      34.616   3.317  50.609  1.00  0.00     0.016 C 
HETATM    6  C8  UNL     1      36.733   3.507  49.478  1.00  0.00    -0.001 C 
HETATM    7  C9  UNL     1      37.679   4.273  48.643  1.00  0.00     0.007 C 
HETATM    8  C10 UNL     1      39.065   3.718  48.522  1.00  0.00     0.012 C 
HETATM    9  C11 UNL     1      39.165   2.236  48.554  1.00  0.00    -0.013 C 
HETATM   10  C12 UNL     1      39.047   1.774  47.111  1.00  0.00     0.018 C 
HETATM   11  C13 UNL     1      40.524   1.842  49.160  1.00  0.00     0.140 C 
HETATM   12  C16 UNL     1      40.321   0.733  50.093  1.00  0.00     0.034 C 
HETATM   13  C17 UNL     1      38.829   0.361  50.008  1.00  0.00     0.008 C 
HETATM   14  C18 UNL     1      38.144   1.543  49.425  1.00  0.00     0.001 C 
HETATM   15  C19 UNL     1      37.368   2.417  50.323  1.00  0.00     0.001 C 
HETATM   16  C20 UNL     1      38.000   2.984  51.527  1.00  0.00     0.014 C 
HETATM   17  C22 UNL     1      37.759   4.444  51.741  1.00  0.00     0.015 C 
HETATM   18  C23 UNL     1      36.295   4.851  51.511  1.00  0.00     0.035 C 
HETATM   19  C24 UNL     1      36.263   6.316  51.811  1.00  0.00     0.137 A 
HETATM   20  O6  UNL     1      36.844   6.399  53.216  1.00  0.00    -0.365 OA
HETATM   21  C25 UNL     1      37.199   7.225  52.162  1.00  0.00     0.167 A 
HETATM   22  C26 UNL     1      36.511   8.585  52.371  1.00  0.00     0.118 C 
HETATM   23  C27 UNL     1      35.121   8.151  52.761  1.00  0.00     0.288 C 
HETATM   24  F1  UNL     1      35.112   7.769  54.111  1.00  0.00    -0.202 F 
HETATM   25  F2  UNL     1      34.169   9.109  52.666  1.00  0.00    -0.202 F 
HETATM   26  C28 UNL     1      34.906   6.939  51.870  1.00  0.00     0.239 C 
HETATM   27  F3  UNL     1      34.044   6.021  52.430  1.00  0.00    -0.229 F 
ENDROOT
BRANCH   1  28
HETATM   28  O1  UNL     1      34.507   8.744  50.349  1.00  0.00    -0.374 OA
HETATM   29  C1  UNL     1      34.485   9.352  49.160  1.00  0.00     0.203 C 
ENDBRANCH   1  28
BRANCH   1  30
HETATM   30  C3  UNL     1      32.996   6.973  50.433  1.00  0.00     0.273 C 
HETATM   31  O2  UNL     1      32.095   7.765  50.600  1.00  0.00    -0.303 OA
ENDBRANCH   1  30
BRANCH  16  32
HETATM   32  C21 UNL     1      37.563   2.304  52.836  1.00  0.00     0.169 C 
BRANCH  32  33
HETATM   33  O5  UNL     1      36.606   1.328  52.574  1.00  0.00    -0.400 OA
ATOM     34  H5  UNL     1      36.878   0.496  52.941  1.00  0.00     0.209 HD
ENDBRANCH  32  33
ENDBRANCH  16  32
BRANCH  11  35
HETATM   35  O3  UNL     1      41.260   2.945  49.556  1.00  0.00    -0.316 OA
BRANCH  35  36
HETATM   36  C14 UNL     1      42.439   3.396  49.035  1.00  0.00     0.255 C 
HETATM   37  C15 UNL     1      43.356   4.357  49.671  1.00  0.00     0.126 C 
HETATM   38  O4  UNL     1      42.678   2.891  47.912  1.00  0.00    -0.266 OA
ENDBRANCH  35  36
ENDBRANCH  11  35
TORSDOF 6
ENDMDL
MODEL 3
REMARK VINA RESULT: -8.345189827      3.016      4.960
REMARK  6 active torsions:
REMARK  status: ('A' for Active; 'I' for Inactive)
REMARK    1  A    between atoms: O1_2  and  C2_3 
REMARK    2  A    between atoms: C2_3  and  C3_4 
REMARK    3  A    between atoms: C13_15  and  O3_16 
REMARK    4  A    between atoms: O3_16  and  C14_17 
REMARK    5  A    between atoms: C20_24  and  C21_25 
REMARK    6  A    between atoms: C21_25  and  O5_26 
ROOT
HETATM    1  C2  UNL     1      37.341   2.701  54.440  1.00  0.00     0.157 C 
HETATM    2  C4  UNL     1      36.115   3.560  54.152  1.00  0.00     0.050 C 
HETATM    3  C5  UNL     1      35.372   3.219  52.929  1.00  0.00     0.013 C 
HETATM    4  C6  UNL     1      35.840   3.731  51.616  1.00  0.00    -0.033 C 
HETATM    5  C7  UNL     1      35.751   2.513  50.664  1.00  0.00     0.016 C 
HETATM    6  C8  UNL     1      34.767   4.671  51.077  1.00  0.00    -0.001 C 
HETATM    7  C9  UNL     1      34.304   5.714  52.014  1.00  0.00     0.007 C 
HETATM    8  C10 UNL     1      33.948   7.040  51.416  1.00  0.00     0.012 C 
HETATM    9  C11 UNL     1      33.371   6.990  50.048  1.00  0.00    -0.013 C 
HETATM   10  C12 UNL     1      31.867   6.869  50.230  1.00  0.00     0.018 C 
HETATM   11  C13 UNL     1      33.744   8.284  49.302  1.00  0.00     0.140 C 
HETATM   12  C16 UNL     1      34.145   7.942  47.937  1.00  0.00     0.034 C 
HETATM   13  C17 UNL     1      33.936   6.424  47.790  1.00  0.00     0.008 C 
HETATM   14  C18 UNL     1      33.896   5.878  49.170  1.00  0.00     0.001 C 
HETATM   15  C19 UNL     1      35.084   5.168  49.678  1.00  0.00     0.001 C 
HETATM   16  C20 UNL     1      36.405   5.818  49.635  1.00  0.00     0.014 C 
HETATM   17  C22 UNL     1      37.201   5.719  50.897  1.00  0.00     0.015 C 
HETATM   18  C23 UNL     1      37.178   4.310  51.513  1.00  0.00     0.035 C 
HETATM   19  C24 UNL     1      38.051   4.417  52.723  1.00  0.00     0.137 A 
HETATM   20  O6  UNL     1      39.358   4.960  52.165  1.00  0.00    -0.365 OA
HETATM   21  C25 UNL     1      38.729   5.429  53.307  1.00  0.00     0.167 A 
HETATM   22  C26 UNL     1      39.485   4.875  54.526  1.00  0.00     0.118 C 
HETATM   23  C27 UNL     1      39.683   3.437  54.118  1.00  0.00     0.288 C 
HETATM   24  F1  UNL     1      40.759   3.349  53.223  1.00  0.00    -0.202 F 
HETATM   25  F2  UNL     1      40.001   2.590  55.126  1.00  0.00    -0.202 F 
HETATM   26  C28 UNL     1      38.378   3.129  53.405  1.00  0.00     0.239 C 
HETATM   27  F3  UNL     1      38.525   2.161  52.433  1.00  0.00    -0.229 F 
ENDROOT
BRANCH   1  28
HETATM   28  O1  UNL     1      37.733   2.959  55.704  1.00  0.00    -0.374 OA
HETATM   29  C1  UNL     1      36.920   3.425  56.656  1.00  0.00     0.203 C 
ENDBRANCH   1  28
BRANCH   1  30
HETATM   30  C3  UNL     1      37.106   1.275  54.221  1.00  0.00     0.273 C 
HETATM   31  O2  UNL     1      37.639   0.452  54.933  1.00  0.00    -0.303 OA
ENDBRANCH   1  30
BRANCH  16  32
HETATM   32  C21 UNL     1      37.329   5.275  48.530  1.00  0.00     0.169 C 
BRANCH  32  33
HETATM   33  O5  UNL     1      37.367   6.162  47.458  1.00  0.00    -0.400 OA
ATOM     34  H5  UNL     1      38.267   6.369  47.236  1.00  0.00     0.209 HD
ENDBRANCH  32  33
ENDBRANCH  16  32
BRANCH  11  35
HETATM   35  O3  UNL     1      34.545   9.115  50.065  1.00  0.00    -0.316 OA
BRANCH  35  36
HETATM   36  C14 UNL     1      34.218  10.322  50.611  1.00  0.00     0.255 C 
HETATM   37  C15 UNL     1      32.889  10.717  51.109  1.00  0.00     0.126 C 
HETATM   38  O4  UNL     1      35.202  11.100  50.651  1.00  0.00    -0.266 OA
ENDBRANCH  35  36
ENDBRANCH  11  35
TORSDOF 6
ENDMDL
MODEL 4
REMARK VINA RESULT: -8.205587356      3.976      7.440
REMARK  6 active torsions:
REMARK  status: ('A' for Active; 'I' for Inactive)
REMARK    1  A    between atoms: O1_2  and  C2_3 
REMARK    2  A    between atoms: C2_3  and  C3_4 
REMARK    3  A    between atoms: C13_15  and  O3_16 
REMARK    4  A    between atoms: O3_16  and  C14_17 
REMARK    5  A    between atoms: C20_24  and  C21_25 
REMARK    6  A    between atoms: C21_25  and  O5_26 
ROOT
HETATM    1  C2  UNL     1      34.965   6.185  49.745  1.00  0.00     0.157 C 
HETATM    2  C4  UNL     1      36.411   5.822  49.428  1.00  0.00     0.050 C 
HETATM    3  C5  UNL     1      36.855   4.502  49.905  1.00  0.00     0.013 C 
HETATM    4  C6  UNL     1      37.292   4.337  51.314  1.00  0.00    -0.033 C 
HETATM    5  C7  UNL     1      36.609   3.030  51.787  1.00  0.00     0.016 C 
HETATM    6  C8  UNL     1      38.771   3.968  51.299  1.00  0.00    -0.001 C 
HETATM    7  C9  UNL     1      39.638   4.844  50.485  1.00  0.00     0.007 C 
HETATM    8  C10 UNL     1      41.022   5.085  51.005  1.00  0.00     0.012 C 
HETATM    9  C11 UNL     1      41.632   3.951  51.747  1.00  0.00    -0.013 C 
HETATM   10  C12 UNL     1      42.360   3.113  50.710  1.00  0.00     0.018 C 
HETATM   11  C13 UNL     1      42.605   4.512  52.799  1.00  0.00     0.140 C 
HETATM   12  C16 UNL     1      42.423   3.774  54.050  1.00  0.00     0.034 C 
HETATM   13  C17 UNL     1      41.387   2.673  53.758  1.00  0.00     0.008 C 
HETATM   14  C18 UNL     1      40.662   3.105  52.536  1.00  0.00     0.001 C 
HETATM   15  C19 UNL     1      39.303   3.658  52.686  1.00  0.00     0.001 C 
HETATM   16  C20 UNL     1      39.063   4.782  53.608  1.00  0.00     0.014 C 
HETATM   17  C22 UNL     1      38.234   5.894  53.048  1.00  0.00     0.015 C 
HETATM   18  C23 UNL     1      37.000   5.395  52.278  1.00  0.00     0.035 C 
HETATM   19  C24 UNL     1      36.301   6.644  51.844  1.00  0.00     0.137 A 
HETATM   20  O6  UNL     1      36.104   7.407  53.146  1.00  0.00    -0.365 OA
HETATM   21  C25 UNL     1      36.569   7.962  51.964  1.00  0.00     0.167 A 
HETATM   22  C26 UNL     1      35.416   8.759  51.329  1.00  0.00     0.118 C 
HETATM   23  C27 UNL     1      34.269   7.794  51.495  1.00  0.00     0.288 C 
HETATM   24  F1  UNL     1      33.789   7.861  52.811  1.00  0.00    -0.202 F 
HETATM   25  F2  UNL     1      33.189   8.044  50.719  1.00  0.00    -0.202 F 
HETATM   26  C28 UNL     1      34.944   6.455  51.248  1.00  0.00     0.239 C 
HETATM   27  F3  UNL     1      34.326   5.423  51.921  1.00  0.00    -0.229 F 
ENDROOT
BRANCH   1  28
HETATM   28  O1  UNL     1      34.648   7.276  49.018  1.00  0.00    -0.374 OA
HETATM   29  C1  UNL     1      35.148   7.534  47.807  1.00  0.00     0.203 C 
ENDBRANCH   1  28
BRANCH   1  30
HETATM   30  C3  UNL     1      34.032   5.084  49.514  1.00  0.00     0.273 C 
HETATM   31  O2  UNL     1      32.916   5.306  49.099  1.00  0.00    -0.303 OA
ENDBRANCH   1  30
BRANCH  16  32
HETATM   32  C21 UNL     1      38.363   4.374  54.915  1.00  0.00     0.169 C 
BRANCH  32  33
HETATM   33  O5  UNL     1      37.923   5.504  55.598  1.00  0.00    -0.400 OA
ATOM     34  H5  UNL     1      38.303   5.530  56.468  1.00  0.00     0.209 HD
ENDBRANCH  32  33
ENDBRANCH  16  32
BRANCH  11  35
HETATM   35  O3  UNL     1      42.619   5.896  52.815  1.00  0.00    -0.316 OA
BRANCH  35  36
HETATM   36  C14 UNL     1      43.700   6.721  52.937  1.00  0.00     0.255 C 
HETATM   37  C15 UNL     1      44.695   7.004  51.889  1.00  0.00     0.126 C 
HETATM   38  O4  UNL     1      43.768   7.239  54.078  1.00  0.00    -0.266 OA
ENDBRANCH  35  36
ENDBRANCH  11  35
TORSDOF 6
ENDMDL
MODEL 5
REMARK VINA RESULT: -7.962728491      4.336      6.420
REMARK  6 active torsions:
REMARK  status: ('A' for Active; 'I' for Inactive)
REMARK    1  A    between atoms: O1_2  and  C2_3 
REMARK    2  A    between atoms: C2_3  and  C3_4 
REMARK    3  A    between atoms: C13_15  and  O3_16 
REMARK    4  A    between atoms: O3_16  and  C14_17 
REMARK    5  A    between atoms: C20_24  and  C21_25 
REMARK    6  A    between atoms: C21_25  and  O5_26 
ROOT
HETATM    1  C2  UNL     1      39.847   2.962  51.450  1.00  0.00     0.157 C 
HETATM    2  C4  UNL     1      39.390   4.323  51.963  1.00  0.00     0.050 C 
HETATM    3  C5  UNL     1      38.126   4.327  52.715  1.00  0.00     0.013 C 
HETATM    4  C6  UNL     1      36.835   4.351  51.983  1.00  0.00    -0.033 C 
HETATM    5  C7  UNL     1      35.956   3.297  52.702  1.00  0.00     0.016 C 
HETATM    6  C8  UNL     1      36.139   5.666  52.316  1.00  0.00    -0.001 C 
HETATM    7  C9  UNL     1      36.961   6.881  52.150  1.00  0.00     0.007 C 
HETATM    8  C10 UNL     1      36.250   8.109  51.671  1.00  0.00     0.012 C 
HETATM    9  C11 UNL     1      34.839   8.247  52.116  1.00  0.00    -0.013 C 
HETATM   10  C12 UNL     1      34.885   9.004  53.433  1.00  0.00     0.018 C 
HETATM   11  C13 UNL     1      34.054   9.026  51.046  1.00  0.00     0.140 C 
HETATM   12  C16 UNL     1      32.756   8.378  50.849  1.00  0.00     0.034 C 
HETATM   13  C17 UNL     1      32.685   7.229  51.870  1.00  0.00     0.008 C 
HETATM   14  C18 UNL     1      34.087   6.946  52.271  1.00  0.00     0.001 C 
HETATM   15  C19 UNL     1      34.748   5.752  51.713  1.00  0.00     0.001 C 
HETATM   16  C20 UNL     1      34.790   5.547  50.255  1.00  0.00     0.014 C 
HETATM   17  C22 UNL     1      36.126   5.154  49.709  1.00  0.00     0.015 C 
HETATM   18  C23 UNL     1      36.824   4.071  50.549  1.00  0.00     0.035 C 
HETATM   19  C24 UNL     1      38.102   3.800  49.822  1.00  0.00     0.137 A 
HETATM   20  O6  UNL     1      37.638   3.461  48.412  1.00  0.00    -0.365 OA
HETATM   21  C25 UNL     1      38.683   4.317  48.717  1.00  0.00     0.167 A 
HETATM   22  C26 UNL     1      40.001   3.567  48.459  1.00  0.00     0.118 C 
HETATM   23  C27 UNL     1      39.704   2.230  49.088  1.00  0.00     0.288 C 
HETATM   24  F1  UNL     1      38.922   1.464  48.211  1.00  0.00    -0.202 F 
HETATM   25  F2  UNL     1      40.788   1.461  49.347  1.00  0.00    -0.202 F 
HETATM   26  C28 UNL     1      38.891   2.628  50.308  1.00  0.00     0.239 C 
HETATM   27  F3  UNL     1      37.999   1.647  50.688  1.00  0.00    -0.229 F 
ENDROOT
BRANCH   1  28
HETATM   28  O1  UNL     1      41.124   3.089  51.035  1.00  0.00    -0.374 OA
HETATM   29  C1  UNL     1      41.990   3.965  51.550  1.00  0.00     0.203 C 
ENDBRANCH   1  28
BRANCH   1  30
HETATM   30  C3  UNL     1      39.695   1.895  52.436  1.00  0.00     0.273 C 
HETATM   31  O2  UNL     1      40.456   0.952  52.438  1.00  0.00    -0.303 OA
ENDBRANCH   1  30
BRANCH  16  32
HETATM   32  C21 UNL     1      33.814   4.470  49.751  1.00  0.00     0.169 C 
BRANCH  32  33
HETATM   33  O5  UNL     1      32.811   5.053  48.983  1.00  0.00    -0.400 OA
ATOM     34  H5  UNL     1      32.146   4.409  48.769  1.00  0.00     0.209 HD
ENDBRANCH  32  33
ENDBRANCH  16  32
BRANCH  11  35
HETATM   35  O3  UNL     1      34.836   9.344  49.950  1.00  0.00    -0.316 OA
BRANCH  35  36
HETATM   36  C14 UNL     1      34.510   9.234  48.629  1.00  0.00     0.255 C 
HETATM   37  C15 UNL     1      34.784   8.076  47.763  1.00  0.00     0.126 C 
HETATM   38  O4  UNL     1      33.927  10.261  48.204  1.00  0.00    -0.266 OA
ENDBRANCH  35  36
ENDBRANCH  11  35
TORSDOF 6
ENDMDL
