MODEL 1
REMARK VINA RESULT: -9.289277561      0.000      0.000
REMARK  7 active torsions:
REMARK  status: ('A' for Active; 'I' for Inactive)
REMARK    1  A    between atoms: N1_1  and  C1_4 
REMARK    2  A    between atoms: C2_7  and  N3_8 
REMARK    3  A    between atoms: N4_11  and  C5_12 
REMARK    4  A    between atoms: C8_15  and  C9_16 
REMARK    5  A    between atoms: N6_18  and  O1_20 
REMARK    6  A    between atoms: C13_28  and  N9_29 
REMARK    7  A    between atoms: C15_33  and  C16_34 
ROOT
HETATM    1  C1  UNL     1      -7.108 -89.686  92.992  1.00  0.00     0.705 A 
HETATM    2  N2  UNL     1      -6.117 -88.795  92.847  1.00  0.00    -0.021 N 
ATOM      3  H2  UNL     1      -5.154 -89.126  92.817  1.00  0.00     0.203 HD
HETATM    4  C2  UNL     1      -6.361 -87.456  92.739  1.00  0.00     0.710 A 
HETATM    5  N8  UNL     1      -7.634 -87.085  92.783  1.00  0.00    -0.018 N 
ATOM      6  H8  UNL     1      -7.843 -86.090  92.704  1.00  0.00     0.203 HD
HETATM    7  C13 UNL     1      -8.680 -87.941  92.928  1.00  0.00     0.748 A 
HETATM    8  N13 UNL     1      -8.378 -89.245  93.029  1.00  0.00    -0.018 N 
ATOM      9  H13 UNL     1      -9.134 -89.921  93.137  1.00  0.00     0.203 HD
ENDROOT
BRANCH   4  10
HETATM   10  N3  UNL     1      -5.242 -86.616  92.590  1.00  0.00    -0.200 N 
HETATM   11  C3  UNL     1      -5.239 -85.427  91.774  1.00  0.00     0.164 C 
HETATM   12  C4  UNL     1      -4.165 -85.532  90.710  1.00  0.00     0.165 C 
HETATM   13  N4  UNL     1      -3.010 -86.240  91.256  1.00  0.00    -0.293 N 
HETATM   14  N7  UNL     1      -2.881 -86.243  92.624  1.00  0.00    -0.118 NA
HETATM   15  C12 UNL     1      -3.976 -86.910  93.275  1.00  0.00     0.277 C 
BRANCH  13  16
HETATM   16  C5  UNL     1      -2.116 -86.856  90.326  1.00  0.00     0.047 A 
HETATM   17  C6  UNL     1      -0.752 -86.885  90.504  1.00  0.00     0.031 A 
HETATM   18  C7  UNL     1       0.107 -87.473  89.605  1.00  0.00     0.017 A 
HETATM   19  C8  UNL     1      -0.363 -88.090  88.433  1.00  0.00     0.007 A 
HETATM   20  C10 UNL     1      -1.718 -88.060  88.260  1.00  0.00     0.017 A 
HETATM   21  C11 UNL     1      -2.587 -87.457  89.183  1.00  0.00     0.031 A 
BRANCH  19  22
HETATM   22  C9  UNL     1       0.596 -88.697  87.518  1.00  0.00     0.146 C 
HETATM   23  N5  UNL     1       1.966 -88.899  88.001  1.00  0.00    -0.080 NA
HETATM   24  N6  UNL     1       0.360 -89.061  86.362  1.00  0.00    -0.255 N 
ATOM     25  H6  UNL     1       1.172 -89.461  85.891  1.00  0.00     0.195 HD
BRANCH  24  26
HETATM   26  O1  UNL     1      -0.725 -89.040  85.607  1.00  0.00    -0.288 OA
ATOM     27  H1  UNL     1      -0.978 -89.500  84.815  1.00  0.00     0.244 HD
ENDBRANCH  24  26
ENDBRANCH  19  22
ENDBRANCH  13  16
ENDBRANCH   4  10
BRANCH   1  28
HETATM   28  N1  UNL     1      -6.825 -90.954  93.091  1.00  0.00    -0.234 N 
ATOM     29  H12 UNL     1      -6.563 -91.507  92.275  1.00  0.00     0.174 HD
ATOM     30  H11 UNL     1      -6.863 -91.409  94.003  1.00  0.00     0.174 HD
ENDBRANCH   1  28
BRANCH   7  31
HETATM   31  N9  UNL     1     -10.002 -87.423  92.961  1.00  0.00    -0.019 N 
HETATM   32  N10 UNL     1     -10.326 -86.143  93.017  1.00  0.00    -0.274 N 
HETATM   33  C14 UNL     1     -11.657 -85.987  93.037  1.00  0.00     0.146 A 
ATOM     34  H10 UNL     1      -9.652 -85.377  93.042  1.00  0.00     0.188 HD
HETATM   35  C15 UNL     1     -12.200 -87.252  92.989  1.00  0.00     0.132 A 
HETATM   36  N12 UNL     1     -11.141 -88.094  92.945  1.00  0.00    -0.258 N 
ATOM     37  H12 UNL     1     -11.212 -89.111  92.904  1.00  0.00     0.190 HD
BRANCH  35  38
HETATM   38  C16 UNL     1     -13.622 -87.615  92.988  1.00  0.00     0.284 C 
HETATM   39  N11 UNL     1     -13.989 -88.966  92.991  1.00  0.00    -0.056 NA
HETATM   40  O2  UNL     1     -14.466 -86.694  92.982  1.00  0.00    -0.269 OA
ENDBRANCH  35  38
ENDBRANCH   7  31
TORSDOF 7
ENDMDL
MODEL 2
REMARK VINA RESULT: -9.089674340      1.741      2.416
REMARK  7 active torsions:
REMARK  status: ('A' for Active; 'I' for Inactive)
REMARK    1  A    between atoms: N1_1  and  C1_4 
REMARK    2  A    between atoms: C2_7  and  N3_8 
REMARK    3  A    between atoms: N4_11  and  C5_12 
REMARK    4  A    between atoms: C8_15  and  C9_16 
REMARK    5  A    between atoms: N6_18  and  O1_20 
REMARK    6  A    between atoms: C13_28  and  N9_29 
REMARK    7  A    between atoms: C15_33  and  C16_34 
ROOT
HETATM    1  C1  UNL     1      -8.517 -84.875  90.491  1.00  0.00     0.705 A 
HETATM    2  N2  UNL     1      -7.277 -84.934  90.997  1.00  0.00    -0.021 N 
ATOM      3  H2  UNL     1      -6.538 -84.382  90.564  1.00  0.00     0.203 HD
HETATM    4  C2  UNL     1      -6.975 -85.714  92.077  1.00  0.00     0.710 A 
HETATM    5  N8  UNL     1      -7.978 -86.409  92.598  1.00  0.00    -0.018 N 
ATOM      6  H8  UNL     1      -7.779 -86.999  93.406  1.00  0.00     0.203 HD
HETATM    7  C13 UNL     1      -9.254 -86.389  92.129  1.00  0.00     0.748 A 
HETATM    8  N13 UNL     1      -9.489 -85.604  91.066  1.00  0.00    -0.018 N 
ATOM      9  H13 UNL     1     -10.434 -85.559  90.683  1.00  0.00     0.203 HD
ENDROOT
BRANCH   4  10
HETATM   10  N3  UNL     1      -5.641 -85.696  92.521  1.00  0.00    -0.200 N 
HETATM   11  C3  UNL     1      -4.803 -84.523  92.484  1.00  0.00     0.164 C 
HETATM   12  C4  UNL     1      -3.568 -84.794  91.647  1.00  0.00     0.165 C 
HETATM   13  N4  UNL     1      -3.151 -86.180  91.836  1.00  0.00    -0.293 N 
HETATM   14  N7  UNL     1      -3.572 -86.799  92.989  1.00  0.00    -0.118 NA
HETATM   15  C12 UNL     1      -5.004 -86.905  93.060  1.00  0.00     0.277 C 
BRANCH  13  16
HETATM   16  C5  UNL     1      -2.339 -86.768  90.817  1.00  0.00     0.047 A 
HETATM   17  C6  UNL     1      -0.986 -86.974  90.961  1.00  0.00     0.031 A 
HETATM   18  C7  UNL     1      -0.206 -87.533  89.976  1.00  0.00     0.017 A 
HETATM   19  C8  UNL     1      -0.751 -87.936  88.744  1.00  0.00     0.007 A 
HETATM   20  C10 UNL     1      -2.094 -87.731  88.605  1.00  0.00     0.017 A 
HETATM   21  C11 UNL     1      -2.882 -87.158  89.616  1.00  0.00     0.031 A 
BRANCH  19  22
HETATM   22  C9  UNL     1       0.127 -88.523  87.739  1.00  0.00     0.146 C 
HETATM   23  N5  UNL     1       1.502 -88.843  88.137  1.00  0.00    -0.080 NA
HETATM   24  N6  UNL     1      -0.182 -88.779  86.572  1.00  0.00    -0.255 N 
ATOM     25  H6  UNL     1       0.581 -89.188  86.032  1.00  0.00     0.195 HD
BRANCH  24  26
HETATM   26  O1  UNL     1      -1.296 -88.634  85.875  1.00  0.00    -0.288 OA
ATOM     27  H1  UNL     1      -2.212 -88.562  86.115  1.00  0.00     0.244 HD
ENDBRANCH  24  26
ENDBRANCH  19  22
ENDBRANCH  13  16
ENDBRANCH   4  10
BRANCH   1  28
HETATM   28  N1  UNL     1      -8.756 -84.117  89.458  1.00  0.00    -0.234 N 
ATOM     29  H12 UNL     1      -8.026 -83.536  89.044  1.00  0.00     0.174 HD
ATOM     30  H11 UNL     1      -9.690 -84.100  89.049  1.00  0.00     0.174 HD
ENDBRANCH   1  28
BRANCH   7  31
HETATM   31  N9  UNL     1     -10.244 -87.178  92.773  1.00  0.00    -0.019 N 
HETATM   32  N10 UNL     1     -10.230 -87.542  94.044  1.00  0.00    -0.274 N 
HETATM   33  C14 UNL     1     -11.307 -88.283  94.340  1.00  0.00     0.146 A 
ATOM     34  H10 UNL     1      -9.499 -87.291  94.709  1.00  0.00     0.188 HD
HETATM   35  C15 UNL     1     -12.040 -88.389  93.179  1.00  0.00     0.132 A 
HETATM   36  N12 UNL     1     -11.342 -87.694  92.250  1.00  0.00    -0.258 N 
ATOM     37  H12 UNL     1     -11.626 -87.583  91.277  1.00  0.00     0.190 HD
BRANCH  35  38
HETATM   38  C16 UNL     1     -13.308 -89.102  92.984  1.00  0.00     0.284 C 
HETATM   39  N11 UNL     1     -14.511 -88.385  92.991  1.00  0.00    -0.056 NA
HETATM   40  O2  UNL     1     -13.270 -90.340  92.818  1.00  0.00    -0.269 OA
ENDBRANCH  35  38
ENDBRANCH   7  31
TORSDOF 7
ENDMDL
MODEL 3
REMARK VINA RESULT: -9.064350610      3.186      3.851
REMARK  7 active torsions:
REMARK  status: ('A' for Active; 'I' for Inactive)
REMARK    1  A    between atoms: N1_1  and  C1_4 
REMARK    2  A    between atoms: C2_7  and  N3_8 
REMARK    3  A    between atoms: N4_11  and  C5_12 
REMARK    4  A    between atoms: C8_15  and  C9_16 
REMARK    5  A    between atoms: N6_18  and  O1_20 
REMARK    6  A    between atoms: C13_28  and  N9_29 
REMARK    7  A    between atoms: C15_33  and  C16_34 
ROOT
HETATM    1  C1  UNL     1      -9.888 -86.727  93.215  1.00  0.00     0.705 A 
HETATM    2  N2  UNL     1      -8.607 -86.338  93.281  1.00  0.00    -0.021 N 
ATOM      3  H2  UNL     1      -8.301 -85.772  94.072  1.00  0.00     0.203 HD
HETATM    4  C2  UNL     1      -7.699 -86.679  92.320  1.00  0.00     0.710 A 
HETATM    5  N8  UNL     1      -8.155 -87.419  91.317  1.00  0.00    -0.018 N 
ATOM      6  H8  UNL     1      -7.496 -87.687  90.587  1.00  0.00     0.203 HD
HETATM    7  C13 UNL     1      -9.441 -87.843  91.196  1.00  0.00     0.748 A 
HETATM    8  N13 UNL     1     -10.287 -87.476  92.172  1.00  0.00    -0.018 N 
ATOM      9  H13 UNL     1     -11.261 -87.774  92.121  1.00  0.00     0.203 HD
ENDROOT
BRANCH   4  10
HETATM   10  N3  UNL     1      -6.383 -86.215  92.496  1.00  0.00    -0.200 N 
HETATM   11  C3  UNL     1      -5.936 -84.906  92.086  1.00  0.00     0.164 C 
HETATM   12  C4  UNL     1      -4.794 -85.033  91.099  1.00  0.00     0.165 C 
HETATM   13  N4  UNL     1      -3.969 -86.182  91.459  1.00  0.00    -0.293 N 
HETATM   14  N7  UNL     1      -4.039 -86.607  92.764  1.00  0.00    -0.118 NA
HETATM   15  C12 UNL     1      -5.356 -87.061  93.120  1.00  0.00     0.277 C 
BRANCH  13  16
HETATM   16  C5  UNL     1      -3.157 -86.758  90.432  1.00  0.00     0.047 A 
HETATM   17  C6  UNL     1      -3.515 -87.894  89.742  1.00  0.00     0.031 A 
HETATM   18  C7  UNL     1      -2.729 -88.449  88.759  1.00  0.00     0.017 A 
HETATM   19  C8  UNL     1      -1.496 -87.882  88.393  1.00  0.00     0.007 A 
HETATM   20  C10 UNL     1      -1.146 -86.754  89.079  1.00  0.00     0.017 A 
HETATM   21  C11 UNL     1      -1.954 -86.194  90.081  1.00  0.00     0.031 A 
BRANCH  19  22
HETATM   22  C9  UNL     1      -0.708 -88.516  87.343  1.00  0.00     0.146 C 
HETATM   23  N5  UNL     1      -1.328 -88.668  86.022  1.00  0.00    -0.080 NA
HETATM   24  N6  UNL     1       0.444 -88.942  87.463  1.00  0.00    -0.255 N 
ATOM     25  H6  UNL     1       0.814 -89.351  86.605  1.00  0.00     0.195 HD
BRANCH  24  26
HETATM   26  O1  UNL     1       1.299 -88.978  88.471  1.00  0.00    -0.288 OA
ATOM     27  H1  UNL     1       1.567 -88.341  89.122  1.00  0.00     0.244 HD
ENDBRANCH  24  26
ENDBRANCH  19  22
ENDBRANCH  13  16
ENDBRANCH   4  10
BRANCH   1  28
HETATM   28  N1  UNL     1     -10.717 -86.376  94.157  1.00  0.00    -0.234 N 
ATOM     29  H12 UNL     1     -10.458 -85.691  94.867  1.00  0.00     0.174 HD
ATOM     30  H11 UNL     1     -11.649 -86.789  94.189  1.00  0.00     0.174 HD
ENDBRANCH   1  28
BRANCH   7  31
HETATM   31  N9  UNL     1      -9.810 -88.631  90.075  1.00  0.00    -0.019 N 
HETATM   32  N10 UNL     1     -10.125 -89.914  90.107  1.00  0.00    -0.274 N 
HETATM   33  C14 UNL     1     -10.425 -90.364  88.880  1.00  0.00     0.146 A 
ATOM     34  H10 UNL     1     -10.139 -90.485  90.952  1.00  0.00     0.188 HD
HETATM   35  C15 UNL     1     -10.289 -89.291  88.027  1.00  0.00     0.132 A 
HETATM   36  N12 UNL     1      -9.910 -88.255  88.812  1.00  0.00    -0.258 N 
ATOM     37  H12 UNL     1      -9.725 -87.311  88.473  1.00  0.00     0.190 HD
BRANCH  35  38
HETATM   38  C16 UNL     1     -10.507 -89.271  86.575  1.00  0.00     0.284 C 
HETATM   39  N11 UNL     1     -11.641 -88.633  86.057  1.00  0.00    -0.056 NA
HETATM   40  O2  UNL     1      -9.664 -89.831  85.844  1.00  0.00    -0.269 OA
ENDBRANCH  35  38
ENDBRANCH   7  31
TORSDOF 7
ENDMDL
MODEL 4
REMARK VINA RESULT: -9.023779375      3.440      4.865
REMARK  7 active torsions:
REMARK  status: ('A' for Active; 'I' for Inactive)
REMARK    1  A    between atoms: N1_1  and  C1_4 
REMARK    2  A    between atoms: C2_7  and  N3_8 
REMARK    3  A    between atoms: N4_11  and  C5_12 
REMARK    4  A    between atoms: C8_15  and  C9_16 
REMARK    5  A    between atoms: N6_18  and  O1_20 
REMARK    6  A    between atoms: C13_28  and  N9_29 
REMARK    7  A    between atoms: C15_33  and  C16_34 
ROOT
HETATM    1  C1  UNL     1     -10.958 -88.400  92.330  1.00  0.00     0.705 A 
HETATM    2  N2  UNL     1      -9.937 -87.651  92.770  1.00  0.00    -0.021 N 
ATOM      3  H2  UNL     1     -10.028 -87.165  93.661  1.00  0.00     0.203 HD
HETATM    4  C2  UNL     1      -8.779 -87.521  92.058  1.00  0.00     0.710 A 
HETATM    5  N8  UNL     1      -8.720 -88.179  90.907  1.00  0.00    -0.018 N 
ATOM      6  H8  UNL     1      -7.864 -88.098  90.358  1.00  0.00     0.203 HD
HETATM    7  C13 UNL     1      -9.720 -88.952  90.411  1.00  0.00     0.748 A 
HETATM    8  N13 UNL     1     -10.835 -89.042  91.155  1.00  0.00    -0.018 N 
ATOM      9  H13 UNL     1     -11.609 -89.613  90.819  1.00  0.00     0.203 HD
ENDROOT
BRANCH   4  10
HETATM   10  N3  UNL     1      -7.776 -86.710  92.619  1.00  0.00    -0.200 N 
HETATM   11  C3  UNL     1      -7.632 -85.304  92.331  1.00  0.00     0.164 C 
HETATM   12  C4  UNL     1      -6.259 -85.031  91.750  1.00  0.00     0.165 C 
HETATM   13  N4  UNL     1      -5.283 -85.915  92.380  1.00  0.00    -0.293 N 
HETATM   14  N7  UNL     1      -5.619 -86.426  93.611  1.00  0.00    -0.118 NA
HETATM   15  C12 UNL     1      -6.787 -87.263  93.555  1.00  0.00     0.277 C 
BRANCH  13  16
HETATM   16  C5  UNL     1      -4.067 -86.164  91.672  1.00  0.00     0.047 A 
HETATM   17  C6  UNL     1      -2.839 -85.720  92.109  1.00  0.00     0.031 A 
HETATM   18  C7  UNL     1      -1.671 -85.955  91.422  1.00  0.00     0.017 A 
HETATM   19  C8  UNL     1      -1.659 -86.674  90.214  1.00  0.00     0.007 A 
HETATM   20  C10 UNL     1      -2.878 -87.114  89.784  1.00  0.00     0.017 A 
HETATM   21  C11 UNL     1      -4.066 -86.869  90.491  1.00  0.00     0.031 A 
BRANCH  19  22
HETATM   22  C9  UNL     1      -0.389 -86.892  89.532  1.00  0.00     0.146 C 
HETATM   23  N5  UNL     1       0.729 -87.417  90.323  1.00  0.00    -0.080 NA
HETATM   24  N6  UNL     1      -0.164 -86.673  88.338  1.00  0.00    -0.255 N 
ATOM     25  H6  UNL     1       0.792 -86.892  88.060  1.00  0.00     0.195 HD
BRANCH  24  26
HETATM   26  O1  UNL     1      -0.905 -86.212  87.344  1.00  0.00    -0.288 OA
ATOM     27  H1  UNL     1      -1.764 -86.442  87.009  1.00  0.00     0.244 HD
ENDBRANCH  24  26
ENDBRANCH  19  22
ENDBRANCH  13  16
ENDBRANCH   4  10
BRANCH   1  28
HETATM   28  N1  UNL     1     -12.044 -88.493  93.044  1.00  0.00    -0.234 N 
ATOM     29  H12 UNL     1     -12.053 -88.244  94.034  1.00  0.00     0.174 HD
ATOM     30  H11 UNL     1     -12.907 -88.820  92.611  1.00  0.00     0.174 HD
ENDBRANCH   1  28
BRANCH   7  31
HETATM   31  N9  UNL     1      -9.539 -89.608  89.164  1.00  0.00    -0.019 N 
HETATM   32  N10 UNL     1     -10.475 -90.254  88.492  1.00  0.00    -0.274 N 
HETATM   33  C14 UNL     1      -9.982 -90.762  87.353  1.00  0.00     0.146 A 
ATOM     34  H10 UNL     1     -11.443 -90.352  88.798  1.00  0.00     0.188 HD
HETATM   35  C15 UNL     1      -8.651 -90.410  87.313  1.00  0.00     0.132 A 
HETATM   36  N12 UNL     1      -8.432 -89.704  88.448  1.00  0.00    -0.258 N 
ATOM     37  H12 UNL     1      -7.534 -89.301  88.714  1.00  0.00     0.190 HD
BRANCH  35  38
HETATM   38  C16 UNL     1      -7.673 -90.729  86.265  1.00  0.00     0.284 C 
HETATM   39  N11 UNL     1      -7.433 -89.804  85.241  1.00  0.00    -0.056 NA
HETATM   40  O2  UNL     1      -7.083 -91.828  86.324  1.00  0.00    -0.269 OA
ENDBRANCH  35  38
ENDBRANCH   7  31
TORSDOF 7
ENDMDL
MODEL 5
REMARK VINA RESULT: -9.019833537      3.170      4.506
REMARK  7 active torsions:
REMARK  status: ('A' for Active; 'I' for Inactive)
REMARK    1  A    between atoms: N1_1  and  C1_4 
REMARK    2  A    between atoms: C2_7  and  N3_8 
REMARK    3  A    between atoms: N4_11  and  C5_12 
REMARK    4  A    between atoms: C8_15  and  C9_16 
REMARK    5  A    between atoms: N6_18  and  O1_20 
REMARK    6  A    between atoms: C13_28  and  N9_29 
REMARK    7  A    between atoms: C15_33  and  C16_34 
ROOT
HETATM    1  C1  UNL     1     -10.605 -87.888  92.665  1.00  0.00     0.705 A 
HETATM    2  N2  UNL     1      -9.503 -87.211  93.019  1.00  0.00    -0.021 N 
ATOM      3  H2  UNL     1      -9.510 -86.672  93.884  1.00  0.00     0.203 HD
HETATM    4  C2  UNL     1      -8.372 -87.223  92.254  1.00  0.00     0.710 A 
HETATM    5  N8  UNL     1      -8.424 -87.943  91.141  1.00  0.00    -0.018 N 
ATOM      6  H8  UNL     1      -7.591 -87.969  90.552  1.00  0.00     0.203 HD
HETATM    7  C13 UNL     1      -9.510 -88.650  90.730  1.00  0.00     0.748 A 
HETATM    8  N13 UNL     1     -10.592 -88.600  91.524  1.00  0.00    -0.018 N 
ATOM      9  H13 UNL     1     -11.428 -89.117  91.253  1.00  0.00     0.203 HD
ENDROOT
BRANCH   4  10
HETATM   10  N3  UNL     1      -7.278 -86.476  92.726  1.00  0.00    -0.200 N 
HETATM   11  C3  UNL     1      -7.068 -85.084  92.415  1.00  0.00     0.164 C 
HETATM   12  C4  UNL     1      -5.732 -84.902  91.723  1.00  0.00     0.165 C 
HETATM   13  N4  UNL     1      -4.766 -85.844  92.281  1.00  0.00    -0.293 N 
HETATM   14  N7  UNL     1      -5.035 -86.328  93.540  1.00  0.00    -0.118 NA
HETATM   15  C12 UNL     1      -6.255 -87.088  93.584  1.00  0.00     0.277 C 
BRANCH  13  16
HETATM   16  C5  UNL     1      -3.629 -86.173  91.480  1.00  0.00     0.047 A 
HETATM   17  C6  UNL     1      -2.335 -85.927  91.877  1.00  0.00     0.031 A 
HETATM   18  C7  UNL     1      -1.243 -86.238  91.102  1.00  0.00     0.017 A 
HETATM   19  C8  UNL     1      -1.383 -86.837  89.838  1.00  0.00     0.007 A 
HETATM   20  C10 UNL     1      -2.669 -87.081  89.447  1.00  0.00     0.017 A 
HETATM   21  C11 UNL     1      -3.778 -86.759  90.246  1.00  0.00     0.031 A 
BRANCH  19  22
HETATM   22  C9  UNL     1      -0.188 -87.144  89.062  1.00  0.00     0.146 C 
HETATM   23  N5  UNL     1       0.975 -86.266  89.225  1.00  0.00    -0.080 NA
HETATM   24  N6  UNL     1      -0.062 -88.085  88.273  1.00  0.00    -0.255 N 
ATOM     25  H6  UNL     1       0.858 -88.121  87.831  1.00  0.00     0.195 HD
BRANCH  24  26
HETATM   26  O1  UNL     1      -0.869 -89.055  87.879  1.00  0.00    -0.288 OA
ATOM     27  H1  UNL     1      -1.757 -89.069  87.541  1.00  0.00     0.244 HD
ENDBRANCH  24  26
ENDBRANCH  19  22
ENDBRANCH  13  16
ENDBRANCH   4  10
BRANCH   1  28
HETATM   28  N1  UNL     1     -11.660 -87.846  93.427  1.00  0.00    -0.234 N 
ATOM     29  H12 UNL     1     -12.155 -88.695  93.700  1.00  0.00     0.174 HD
ATOM     30  H11 UNL     1     -12.004 -86.946  93.765  1.00  0.00     0.174 HD
ENDBRANCH   1  28
BRANCH   7  31
HETATM   31  N9  UNL     1      -9.443 -89.385  89.517  1.00  0.00    -0.019 N 
HETATM   32  N10 UNL     1     -10.415 -90.124  89.012  1.00  0.00    -0.274 N 
HETATM   33  C14 UNL     1     -10.036 -90.688  87.856  1.00  0.00     0.146 A 
ATOM     34  H10 UNL     1     -11.331 -90.248  89.443  1.00  0.00     0.188 HD
HETATM   35  C15 UNL     1      -8.743 -90.273  87.625  1.00  0.00     0.132 A 
HETATM   36  N12 UNL     1      -8.429 -89.477  88.674  1.00  0.00    -0.258 N 
ATOM     37  H12 UNL     1      -7.531 -89.010  88.798  1.00  0.00     0.190 HD
BRANCH  35  38
HETATM   38  C16 UNL     1      -7.884 -90.618  86.486  1.00  0.00     0.284 C 
HETATM   39  N11 UNL     1      -7.378 -91.919  86.373  1.00  0.00    -0.056 NA
HETATM   40  O2  UNL     1      -7.630 -89.728  85.647  1.00  0.00    -0.269 OA
ENDBRANCH  35  38
ENDBRANCH   7  31
TORSDOF 7
ENDMDL
