MODEL 1
REMARK VINA RESULT: -9.394605628      0.000      0.000
REMARK  8 active torsions:
REMARK  status: ('A' for Active; 'I' for Inactive)
REMARK    1  A    between atoms: N2_4  and  O1_5 
REMARK    2  A    between atoms: N2_4  and  C1_7 
REMARK    3  A    between atoms: C2_8  and  C3_9 
REMARK    4  A    between atoms: C3_9  and  N3_10 
REMARK    5  A    between atoms: N3_10  and  C4_13 
REMARK    6  A    between atoms: C7_21  and  N7_22 
REMARK    7  A    between atoms: C8_27  and  N9_28 
REMARK    8  A    between atoms: N9_28  and  N10_30 
ROOT
HETATM    1  C1  UNL     1     -40.943  -7.055  25.121  1.00  0.00     0.160 C 
HETATM    2  C2  UNL     1     -41.305  -7.534  23.866  1.00  0.00     0.048 C 
HETATM    3  C7  UNL     1     -40.796  -7.093  22.639  1.00  0.00     0.125 C 
HETATM    4  N8  UNL     1     -40.403  -5.830  22.345  1.00  0.00    -0.175 N 
ATOM      5  H8  UNL     1     -40.464  -5.549  21.367  1.00  0.00     0.186 HD
HETATM    6  C8  UNL     1     -39.936  -4.903  23.215  1.00  0.00     0.700 C 
HETATM    7  N11 UNL     1     -39.915  -4.921  24.564  1.00  0.00    -0.153 N 
ATOM      8  H11 UNL     1     -39.569  -4.064  24.998  1.00  0.00     0.187 HD
HETATM    9  C9  UNL     1     -40.276  -5.888  25.428  1.00  0.00     0.291 C 
HETATM   10  O2  UNL     1     -39.994  -5.751  26.643  1.00  0.00    -0.265 OA
ENDROOT
BRANCH   2  11
HETATM   11  C3  UNL     1     -42.307  -8.614  23.878  1.00  0.00     0.279 C 
BRANCH  11  12
HETATM   12  N3  UNL     1     -43.563  -8.124  23.392  1.00  0.00    -0.049 N 
ATOM     13  H32 UNL     1     -44.336  -8.446  23.973  1.00  0.00     0.280 HD
ATOM     14  H31 UNL     1     -43.654  -7.120  23.547  1.00  0.00     0.280 HD
BRANCH  12  15
HETATM   15  C4  UNL     1     -43.774  -8.467  21.988  1.00  0.00     0.304 C 
HETATM   16  C5  UNL     1     -44.280  -9.900  21.832  1.00  0.00     0.176 C 
HETATM   17  N4  UNL     1     -45.272  -9.713  20.792  1.00  0.00    -0.361 N 
HETATM   18  C6  UNL     1     -45.740  -8.382  20.852  1.00  0.00     0.185 C 
ATOM     19  H4  UNL     1     -45.581 -10.423  20.128  1.00  0.00     0.162 HD
HETATM   20  N5  UNL     1     -46.970  -7.896  20.250  1.00  0.00    -0.064 NA
HETATM   21  N6  UNL     1     -44.897  -7.694  21.522  1.00  0.00    -0.336 N 
ATOM     22  H6  UNL     1     -45.007  -6.697  21.708  1.00  0.00     0.164 HD
ENDBRANCH  12  15
ENDBRANCH  11  12
ENDBRANCH   2  11
BRANCH   1  23
HETATM   23  N2  UNL     1     -41.330  -7.896  26.190  1.00  0.00    -0.164 N 
HETATM   24  N1  UNL     1     -42.443  -7.772  26.803  1.00  0.00    -0.319 N 
ATOM     25  H12 UNL     1     -42.722  -8.379  27.573  1.00  0.00     0.179 HD
ATOM     26  H11 UNL     1     -43.101  -7.042  26.530  1.00  0.00     0.179 HD
BRANCH  23  27
HETATM   27  O1  UNL     1     -40.434  -8.891  26.561  1.00  0.00    -0.268 OA
ATOM     28  H1  UNL     1     -40.196  -9.575  25.946  1.00  0.00     0.247 HD
ENDBRANCH  23  27
ENDBRANCH   1  23
BRANCH   3  29
HETATM   29  N7  UNL     1     -40.709  -8.011  21.748  1.00  0.00    -0.385 N 
ATOM     30  H72 UNL     1     -40.805  -8.990  22.018  1.00  0.00     0.157 HD
ATOM     31  H71 UNL     1     -40.549  -7.660  20.804  1.00  0.00     0.157 HD
ENDBRANCH   3  29
BRANCH   6  32
HETATM   32  N9  UNL     1     -39.448  -3.866  22.622  1.00  0.00    -0.138 N 
ATOM     33  H9  UNL     1     -38.758  -3.298  23.113  1.00  0.00     0.205 HD
BRANCH  32  34
HETATM   34  N10 UNL     1     -39.826  -3.495  21.339  1.00  0.00    -0.331 N 
ATOM     35 2H10 UNL     1     -39.933  -4.232  20.643  1.00  0.00     0.177 HD
ATOM     36 1H10 UNL     1     -39.997  -2.524  21.078  1.00  0.00     0.177 HD
ENDBRANCH  32  34
ENDBRANCH   6  32
TORSDOF 8
ENDMDL
MODEL 2
REMARK VINA RESULT: -8.856345619      1.260      1.822
REMARK  8 active torsions:
REMARK  status: ('A' for Active; 'I' for Inactive)
REMARK    1  A    between atoms: N2_4  and  O1_5 
REMARK    2  A    between atoms: N2_4  and  C1_7 
REMARK    3  A    between atoms: C2_8  and  C3_9 
REMARK    4  A    between atoms: C3_9  and  N3_10 
REMARK    5  A    between atoms: N3_10  and  C4_13 
REMARK    6  A    between atoms: C7_21  and  N7_22 
REMARK    7  A    between atoms: C8_27  and  N9_28 
REMARK    8  A    between atoms: N9_28  and  N10_30 
ROOT
HETATM    1  C1  UNL     1     -40.949  -7.055  25.186  1.00  0.00     0.160 C 
HETATM    2  C2  UNL     1     -41.388  -7.502  23.942  1.00  0.00     0.048 C 
HETATM    3  C7  UNL     1     -40.917  -7.066  22.699  1.00  0.00     0.125 C 
HETATM    4  N8  UNL     1     -40.483  -5.818  22.401  1.00  0.00    -0.175 N 
ATOM      5  H8  UNL     1     -40.577  -5.521  21.430  1.00  0.00     0.186 HD
HETATM    6  C8  UNL     1     -39.938  -4.923  23.259  1.00  0.00     0.700 C 
HETATM    7  N11 UNL     1     -39.856  -4.959  24.605  1.00  0.00    -0.153 N 
ATOM      8  H11 UNL     1     -39.454  -4.124  25.033  1.00  0.00     0.187 HD
HETATM    9  C9  UNL     1     -40.219  -5.921  25.474  1.00  0.00     0.291 C 
HETATM   10  O2  UNL     1     -39.876  -5.813  26.677  1.00  0.00    -0.265 OA
ENDROOT
BRANCH   2  11
HETATM   11  C3  UNL     1     -42.435  -8.538  23.989  1.00  0.00     0.279 C 
BRANCH  11  12
HETATM   12  N3  UNL     1     -42.863  -8.863  22.661  1.00  0.00    -0.049 N 
ATOM     13  H32 UNL     1     -42.735  -8.075  22.027  1.00  0.00     0.280 HD
ATOM     14  H31 UNL     1     -42.228  -9.528  22.219  1.00  0.00     0.280 HD
BRANCH  12  15
HETATM   15  C4  UNL     1     -44.241  -9.347  22.637  1.00  0.00     0.304 C 
HETATM   16  C5  UNL     1     -44.562 -10.056  21.322  1.00  0.00     0.176 C 
HETATM   17  N4  UNL     1     -45.344 -11.174  21.814  1.00  0.00    -0.361 N 
HETATM   18  C6  UNL     1     -44.951 -11.446  23.142  1.00  0.00     0.185 C 
ATOM     19  H4  UNL     1     -46.058 -11.679  21.289  1.00  0.00     0.162 HD
HETATM   20  N5  UNL     1     -45.210 -12.683  23.859  1.00  0.00    -0.064 NA
HETATM   21  N6  UNL     1     -44.336 -10.420  23.593  1.00  0.00    -0.336 N 
ATOM     22  H6  UNL     1     -43.951 -10.366  24.536  1.00  0.00     0.164 HD
ENDBRANCH  12  15
ENDBRANCH  11  12
ENDBRANCH   2  11
BRANCH   1  23
HETATM   23  N2  UNL     1     -41.323  -7.893  26.261  1.00  0.00    -0.164 N 
HETATM   24  N1  UNL     1     -42.422  -7.758  26.896  1.00  0.00    -0.319 N 
ATOM     25  H12 UNL     1     -42.692  -8.362  27.672  1.00  0.00     0.179 HD
ATOM     26  H11 UNL     1     -43.078  -7.021  26.637  1.00  0.00     0.179 HD
BRANCH  23  27
HETATM   27  O1  UNL     1     -40.430  -8.897  26.614  1.00  0.00    -0.268 OA
ATOM     28  H1  UNL     1     -39.643  -8.687  27.104  1.00  0.00     0.247 HD
ENDBRANCH  23  27
ENDBRANCH   1  23
BRANCH   3  29
HETATM   29  N7  UNL     1     -40.911  -7.975  21.795  1.00  0.00    -0.385 N 
ATOM     30  H72 UNL     1     -40.028  -8.390  21.499  1.00  0.00     0.157 HD
ATOM     31  H71 UNL     1     -41.837  -8.214  21.440  1.00  0.00     0.157 HD
ENDBRANCH   3  29
BRANCH   6  32
HETATM   32  N9  UNL     1     -39.433  -3.900  22.655  1.00  0.00    -0.138 N 
ATOM     33  H9  UNL     1     -38.727  -3.343  23.138  1.00  0.00     0.205 HD
BRANCH  32  34
HETATM   34  N10 UNL     1     -39.813  -3.529  21.373  1.00  0.00    -0.331 N 
ATOM     35 2H10 UNL     1     -40.811  -3.482  21.169  1.00  0.00     0.177 HD
ATOM     36 1H10 UNL     1     -39.136  -3.308  20.644  1.00  0.00     0.177 HD
ENDBRANCH  32  34
ENDBRANCH   6  32
TORSDOF 8
ENDMDL
MODEL 3
REMARK VINA RESULT: -8.688966050      1.954      3.372
REMARK  8 active torsions:
REMARK  status: ('A' for Active; 'I' for Inactive)
REMARK    1  A    between atoms: N2_4  and  O1_5 
REMARK    2  A    between atoms: N2_4  and  C1_7 
REMARK    3  A    between atoms: C2_8  and  C3_9 
REMARK    4  A    between atoms: C3_9  and  N3_10 
REMARK    5  A    between atoms: N3_10  and  C4_13 
REMARK    6  A    between atoms: C7_21  and  N7_22 
REMARK    7  A    between atoms: C8_27  and  N9_28 
REMARK    8  A    between atoms: N9_28  and  N10_30 
ROOT
HETATM    1  C1  UNL     1     -40.736  -6.166  23.903  1.00  0.00     0.160 C 
HETATM    2  C2  UNL     1     -41.118  -7.200  24.753  1.00  0.00     0.048 C 
HETATM    3  C7  UNL     1     -41.107  -7.162  26.152  1.00  0.00     0.125 C 
HETATM    4  N8  UNL     1     -40.223  -6.487  26.925  1.00  0.00    -0.175 N 
ATOM      5  H8  UNL     1     -40.053  -6.862  27.858  1.00  0.00     0.186 HD
HETATM    6  C8  UNL     1     -39.541  -5.367  26.588  1.00  0.00     0.700 C 
HETATM    7  N11 UNL     1     -39.421  -4.758  25.391  1.00  0.00    -0.153 N 
ATOM      8  H11 UNL     1     -38.790  -3.956  25.378  1.00  0.00     0.187 HD
HETATM    9  C9  UNL     1     -40.000  -5.041  24.208  1.00  0.00     0.291 C 
HETATM   10  O2  UNL     1     -39.884  -4.221  23.265  1.00  0.00    -0.265 OA
ENDROOT
BRANCH   2  11
HETATM   11  C3  UNL     1     -41.584  -8.422  24.073  1.00  0.00     0.279 C 
BRANCH  11  12
HETATM   12  N3  UNL     1     -42.982  -8.317  23.778  1.00  0.00    -0.049 N 
ATOM     13  H32 UNL     1     -43.551  -8.653  24.555  1.00  0.00     0.280 HD
ATOM     14  H31 UNL     1     -43.287  -7.343  23.766  1.00  0.00     0.280 HD
BRANCH  12  15
HETATM   15  C4  UNL     1     -43.328  -8.996  22.532  1.00  0.00     0.304 C 
HETATM   16  C5  UNL     1     -44.220 -10.211  22.786  1.00  0.00     0.176 C 
HETATM   17  N4  UNL     1     -45.154 -10.081  21.685  1.00  0.00    -0.361 N 
HETATM   18  C6  UNL     1     -45.228  -8.720  21.318  1.00  0.00     0.185 C 
ATOM     19  H4  UNL     1     -45.672 -10.844  21.250  1.00  0.00     0.162 HD
HETATM   20  N5  UNL     1     -46.292  -8.119  20.532  1.00  0.00    -0.064 NA
HETATM   21  N6  UNL     1     -44.204  -8.123  21.795  1.00  0.00    -0.336 N 
ATOM     22  H6  UNL     1     -44.025  -7.127  21.667  1.00  0.00     0.164 HD
ENDBRANCH  12  15
ENDBRANCH  11  12
ENDBRANCH   2  11
BRANCH   1  23
HETATM   23  N2  UNL     1     -41.172  -6.330  22.567  1.00  0.00    -0.164 N 
HETATM   24  N1  UNL     1     -40.511  -6.992  21.699  1.00  0.00    -0.319 N 
ATOM     25  H12 UNL     1     -40.826  -7.111  20.736  1.00  0.00     0.179 HD
ATOM     26  H11 UNL     1     -39.627  -7.433  21.952  1.00  0.00     0.179 HD
BRANCH  23  27
HETATM   27  O1  UNL     1     -42.376  -5.729  22.223  1.00  0.00    -0.268 OA
ATOM     28  H1  UNL     1     -42.994  -5.473  22.897  1.00  0.00     0.247 HD
ENDBRANCH  23  27
ENDBRANCH   1  23
BRANCH   3  29
HETATM   29  N7  UNL     1     -42.046  -7.840  26.700  1.00  0.00    -0.385 N 
ATOM     30  H72 UNL     1     -42.733  -8.318  26.118  1.00  0.00     0.157 HD
ATOM     31  H71 UNL     1     -42.014  -7.844  27.720  1.00  0.00     0.157 HD
ENDBRANCH   3  29
BRANCH   6  32
HETATM   32  N9  UNL     1     -38.931  -4.835  27.594  1.00  0.00    -0.138 N 
ATOM     33  H9  UNL     1     -39.485  -4.389  28.325  1.00  0.00     0.205 HD
BRANCH  32  34
HETATM   34  N10 UNL     1     -37.549  -4.847  27.718  1.00  0.00    -0.331 N 
ATOM     35 2H10 UNL     1     -37.007  -5.247  26.952  1.00  0.00     0.177 HD
ATOM     36 1H10 UNL     1     -37.069  -4.476  28.537  1.00  0.00     0.177 HD
ENDBRANCH  32  34
ENDBRANCH   6  32
TORSDOF 8
ENDMDL
MODEL 4
REMARK VINA RESULT: -8.624189834      1.169      1.476
REMARK  8 active torsions:
REMARK  status: ('A' for Active; 'I' for Inactive)
REMARK    1  A    between atoms: N2_4  and  O1_5 
REMARK    2  A    between atoms: N2_4  and  C1_7 
REMARK    3  A    between atoms: C2_8  and  C3_9 
REMARK    4  A    between atoms: C3_9  and  N3_10 
REMARK    5  A    between atoms: N3_10  and  C4_13 
REMARK    6  A    between atoms: C7_21  and  N7_22 
REMARK    7  A    between atoms: C8_27  and  N9_28 
REMARK    8  A    between atoms: N9_28  and  N10_30 
ROOT
HETATM    1  C1  UNL     1     -40.995  -7.007  25.237  1.00  0.00     0.160 C 
HETATM    2  C2  UNL     1     -41.541  -7.380  24.011  1.00  0.00     0.048 C 
HETATM    3  C7  UNL     1     -41.102  -6.954  22.752  1.00  0.00     0.125 C 
HETATM    4  N8  UNL     1     -40.577  -5.741  22.458  1.00  0.00    -0.175 N 
ATOM      5  H8  UNL     1     -40.698  -5.411  21.501  1.00  0.00     0.186 HD
HETATM    6  C8  UNL     1     -39.907  -4.921  23.302  1.00  0.00     0.700 C 
HETATM    7  N11 UNL     1     -39.753  -5.000  24.640  1.00  0.00    -0.153 N 
ATOM      8  H11 UNL     1     -39.256  -4.216  25.062  1.00  0.00     0.187 HD
HETATM    9  C9  UNL     1     -40.152  -5.950  25.507  1.00  0.00     0.291 C 
HETATM   10  O2  UNL     1     -39.735  -5.904  26.690  1.00  0.00    -0.265 OA
ENDROOT
BRANCH   2  11
HETATM   11  C3  UNL     1     -42.671  -8.321  24.096  1.00  0.00     0.279 C 
BRANCH  11  12
HETATM   12  N3  UNL     1     -42.184  -9.659  24.261  1.00  0.00    -0.049 N 
ATOM     13  H32 UNL     1     -41.206  -9.734  23.982  1.00  0.00     0.280 HD
ATOM     14  H31 UNL     1     -42.088  -9.900  25.247  1.00  0.00     0.280 HD
BRANCH  12  15
HETATM   15  C4  UNL     1     -43.014 -10.631  23.555  1.00  0.00     0.304 C 
HETATM   16  C5  UNL     1     -44.331 -10.880  24.289  1.00  0.00     0.176 C 
HETATM   17  N4  UNL     1     -45.247 -10.935  23.166  1.00  0.00    -0.361 N 
HETATM   18  C6  UNL     1     -44.705 -10.174  22.107  1.00  0.00     0.185 C 
ATOM     19  H4  UNL     1     -46.134 -11.437  23.145  1.00  0.00     0.162 HD
HETATM   20  N5  UNL     1     -45.450  -9.673  20.965  1.00  0.00    -0.064 NA
HETATM   21  N6  UNL     1     -43.458 -10.010  22.334  1.00  0.00    -0.336 N 
ATOM     22  H6  UNL     1     -42.838  -9.492  21.711  1.00  0.00     0.164 HD
ENDBRANCH  12  15
ENDBRANCH  11  12
ENDBRANCH   2  11
BRANCH   1  23
HETATM   23  N2  UNL     1     -41.382  -7.838  26.313  1.00  0.00    -0.164 N 
HETATM   24  N1  UNL     1     -42.431  -7.628  27.010  1.00  0.00    -0.319 N 
ATOM     25  H12 UNL     1     -42.710  -8.227  27.786  1.00  0.00     0.179 HD
ATOM     26  H11 UNL     1     -43.034  -6.833  26.802  1.00  0.00     0.179 HD
BRANCH  23  27
HETATM   27  O1  UNL     1     -40.559  -8.921  26.597  1.00  0.00    -0.268 OA
ATOM     28  H1  UNL     1     -40.112  -9.380  25.894  1.00  0.00     0.247 HD
ENDBRANCH  23  27
ENDBRANCH   1  23
BRANCH   3  29
HETATM   29  N7  UNL     1     -41.228  -7.835  21.830  1.00  0.00    -0.385 N 
ATOM     30  H72 UNL     1     -40.438  -8.435  21.591  1.00  0.00     0.157 HD
ATOM     31  H71 UNL     1     -42.153  -7.859  21.402  1.00  0.00     0.157 HD
ENDBRANCH   3  29
BRANCH   6  32
HETATM   32  N9  UNL     1     -39.347  -3.930  22.693  1.00  0.00    -0.138 N 
ATOM     33  H9  UNL     1     -38.565  -3.454  23.143  1.00  0.00     0.205 HD
BRANCH  32  34
HETATM   34  N10 UNL     1     -39.769  -3.488  21.447  1.00  0.00    -0.331 N 
ATOM     35 2H10 UNL     1     -40.033  -4.191  20.757  1.00  0.00     0.177 HD
ATOM     36 1H10 UNL     1     -39.820  -2.498  21.206  1.00  0.00     0.177 HD
ENDBRANCH  32  34
ENDBRANCH   6  32
TORSDOF 8
ENDMDL
MODEL 5
REMARK VINA RESULT: -8.328128037      2.441      3.818
REMARK  8 active torsions:
REMARK  status: ('A' for Active; 'I' for Inactive)
REMARK    1  A    between atoms: N2_4  and  O1_5 
REMARK    2  A    between atoms: N2_4  and  C1_7 
REMARK    3  A    between atoms: C2_8  and  C3_9 
REMARK    4  A    between atoms: C3_9  and  N3_10 
REMARK    5  A    between atoms: N3_10  and  C4_13 
REMARK    6  A    between atoms: C7_21  and  N7_22 
REMARK    7  A    between atoms: C8_27  and  N9_28 
REMARK    8  A    between atoms: N9_28  and  N10_30 
ROOT
HETATM    1  C1  UNL     1     -41.069  -6.674  23.531  1.00  0.00     0.160 C 
HETATM    2  C2  UNL     1     -41.375  -7.556  24.563  1.00  0.00     0.048 C 
HETATM    3  C7  UNL     1     -41.246  -7.296  25.932  1.00  0.00     0.125 C 
HETATM    4  N8  UNL     1     -40.303  -6.516  26.512  1.00  0.00    -0.175 N 
ATOM      5  H8  UNL     1     -40.054  -6.739  27.475  1.00  0.00     0.186 HD
HETATM    6  C8  UNL     1     -39.656  -5.470  25.946  1.00  0.00     0.700 C 
HETATM    7  N11 UNL     1     -39.639  -5.060  24.660  1.00  0.00    -0.153 N 
ATOM      8  H11 UNL     1     -39.015  -4.276  24.468  1.00  0.00     0.187 HD
HETATM    9  C9  UNL     1     -40.315  -5.521  23.591  1.00  0.00     0.291 C 
HETATM   10  O2  UNL     1     -40.281  -4.863  22.523  1.00  0.00    -0.265 OA
ENDROOT
BRANCH   2  11
HETATM   11  C3  UNL     1     -41.892  -8.865  24.128  1.00  0.00     0.279 C 
BRANCH  11  12
HETATM   12  N3  UNL     1     -43.008  -9.248  24.942  1.00  0.00    -0.049 N 
ATOM     13  H32 UNL     1     -42.764 -10.013  25.570  1.00  0.00     0.280 HD
ATOM     14  H31 UNL     1     -43.223  -8.532  25.636  1.00  0.00     0.280 HD
BRANCH  12  15
HETATM   15  C4  UNL     1     -44.181  -9.576  24.136  1.00  0.00     0.304 C 
HETATM   16  C5  UNL     1     -43.793  -9.946  22.706  1.00  0.00     0.176 C 
HETATM   17  N4  UNL     1     -44.690 -11.060  22.473  1.00  0.00    -0.361 N 
HETATM   18  C6  UNL     1     -45.001 -11.653  23.716  1.00  0.00     0.185 C 
ATOM     19  H4  UNL     1     -45.038 -11.366  21.564  1.00  0.00     0.162 HD
HETATM   20  N5  UNL     1     -45.552 -12.985  23.898  1.00  0.00    -0.064 NA
HETATM   21  N6  UNL     1     -44.713 -10.816  24.639  1.00  0.00    -0.336 N 
ATOM     22  H6  UNL     1     -44.848 -11.007  25.632  1.00  0.00     0.164 HD
ENDBRANCH  12  15
ENDBRANCH  11  12
ENDBRANCH   2  11
BRANCH   1  23
HETATM   23  N2  UNL     1     -41.615  -7.043  22.280  1.00  0.00    -0.164 N 
HETATM   24  N1  UNL     1     -42.767  -6.660  21.885  1.00  0.00    -0.319 N 
ATOM     25  H12 UNL     1     -43.161  -6.927  20.983  1.00  0.00     0.179 HD
ATOM     26  H11 UNL     1     -43.340  -6.060  22.478  1.00  0.00     0.179 HD
BRANCH  23  27
HETATM   27  O1  UNL     1     -40.835  -7.861  21.472  1.00  0.00    -0.268 OA
ATOM     28  H1  UNL     1     -40.329  -8.569  21.853  1.00  0.00     0.247 HD
ENDBRANCH  23  27
ENDBRANCH   1  23
BRANCH   3  29
HETATM   29  N7  UNL     1     -42.133  -7.870  26.659  1.00  0.00    -0.385 N 
ATOM     30  H72 UNL     1     -43.111  -7.857  26.370  1.00  0.00     0.157 HD
ATOM     31  H71 UNL     1     -41.760  -8.312  27.498  1.00  0.00     0.157 HD
ENDBRANCH   3  29
BRANCH   6  32
HETATM   32  N9  UNL     1     -38.965  -4.790  26.799  1.00  0.00    -0.138 N 
ATOM     33  H9  UNL     1     -38.308  -4.091  26.455  1.00  0.00     0.205 HD
BRANCH  32  34
HETATM   34  N10 UNL     1     -39.085  -4.976  28.169  1.00  0.00    -0.331 N 
ATOM     35 2H10 UNL     1     -39.792  -5.633  28.500  1.00  0.00     0.177 HD
ATOM     36 1H10 UNL     1     -38.498  -4.484  28.842  1.00  0.00     0.177 HD
ENDBRANCH  32  34
ENDBRANCH   6  32
TORSDOF 8
ENDMDL
