MODEL 1
REMARK VINA RESULT: -6.369365715      0.000      0.000
REMARK  7 active torsions:
REMARK  status: ('A' for Active; 'I' for Inactive)
REMARK    1  A    between atoms: C2_2  and  C3_4 
REMARK    2  A    between atoms: C3_4  and  N2_5 
REMARK    3  A    between atoms: N2_5  and  C4_7 
REMARK    4  A    between atoms: C4_7  and  C5_8 
REMARK    5  A    between atoms: C5_8  and  O1_9 
REMARK    6  A    between atoms: O1_9  and  C6_10 
REMARK    7  A    between atoms: C10_14  and  N3_15 
ROOT
HETATM    1  C6  UNL     1      22.801  -3.742  10.567  1.00  0.00     0.143 A 
HETATM    2  C7  UNL     1      22.734  -5.075  10.895  1.00  0.00     0.056 A 
HETATM    3  C8  UNL     1      23.429  -6.050  10.169  1.00  0.00     0.008 A 
HETATM    4  C9  UNL     1      24.202  -5.656   9.099  1.00  0.00     0.048 A 
HETATM    5  C10 UNL     1      24.263  -4.304   8.779  1.00  0.00     0.100 A 
HETATM    6  N4  UNL     1      23.582  -3.401   9.497  1.00  0.00    -0.324 N 
ATOM      7  H4  UNL     1      23.649  -2.417   9.235  1.00  0.00     0.169 HD
ENDROOT
BRANCH   1   8
HETATM    8  O1  UNL     1      22.156  -2.736  11.213  1.00  0.00    -0.334 OA
BRANCH   8   9
HETATM    9  C5  UNL     1      20.840  -2.387  11.314  1.00  0.00     0.196 C 
BRANCH   9  10
HETATM   10  C4  UNL     1      20.238  -2.888  12.633  1.00  0.00     0.141 C 
BRANCH  10  11
HETATM   11  N2  UNL     1      19.118  -2.090  13.013  1.00  0.00    -0.414 N 
ATOM     12  H2  UNL     1      19.227  -1.185  13.473  1.00  0.00     0.153 HD
BRANCH  11  13
HETATM   13  C3  UNL     1      17.834  -2.639  12.708  1.00  0.00     0.167 C 
BRANCH  13  14
HETATM   14  C2  UNL     1      17.096  -1.984  11.610  1.00  0.00     0.032 C 
HETATM   15  C1  UNL     1      17.093  -2.530  10.409  1.00  0.00     0.036 C 
HETATM   16  N1  UNL     1      16.352  -0.785  11.765  1.00  0.00    -0.106 NA
ENDBRANCH  13  14
ENDBRANCH  11  13
ENDBRANCH  10  11
ENDBRANCH   9  10
ENDBRANCH   8   9
ENDBRANCH   1   8
BRANCH   5  17
HETATM   17  N3  UNL     1      25.000  -3.984   7.765  1.00  0.00    -0.385 N 
ATOM     18  H32 UNL     1      24.674  -3.376   7.014  1.00  0.00     0.157 HD
ATOM     19  H31 UNL     1      25.942  -4.373   7.747  1.00  0.00     0.157 HD
ENDBRANCH   5  17
TORSDOF 7
ENDMDL
MODEL 2
REMARK VINA RESULT: -6.366773409      2.384      3.420
REMARK  7 active torsions:
REMARK  status: ('A' for Active; 'I' for Inactive)
REMARK    1  A    between atoms: C2_2  and  C3_4 
REMARK    2  A    between atoms: C3_4  and  N2_5 
REMARK    3  A    between atoms: N2_5  and  C4_7 
REMARK    4  A    between atoms: C4_7  and  C5_8 
REMARK    5  A    between atoms: C5_8  and  O1_9 
REMARK    6  A    between atoms: O1_9  and  C6_10 
REMARK    7  A    between atoms: C10_14  and  N3_15 
ROOT
HETATM    1  C6  UNL     1      22.995  -5.299  10.421  1.00  0.00     0.143 A 
HETATM    2  C7  UNL     1      23.749  -6.253   9.780  1.00  0.00     0.056 A 
HETATM    3  C8  UNL     1      23.798  -7.579  10.228  1.00  0.00     0.008 A 
HETATM    4  C9  UNL     1      23.068  -7.932  11.340  1.00  0.00     0.048 A 
HETATM    5  C10 UNL     1      22.308  -6.957  11.979  1.00  0.00     0.100 A 
HETATM    6  N4  UNL     1      22.287  -5.698  11.521  1.00  0.00    -0.324 N 
ATOM      7  H4  UNL     1      21.719  -5.009  12.013  1.00  0.00     0.169 HD
ENDROOT
BRANCH   1   8
HETATM    8  O1  UNL     1      22.897  -3.994  10.057  1.00  0.00    -0.334 OA
BRANCH   8   9
HETATM    9  C5  UNL     1      22.496  -2.869  10.719  1.00  0.00     0.196 C 
BRANCH   9  10
HETATM   10  C4  UNL     1      20.970  -2.719  10.675  1.00  0.00     0.141 C 
BRANCH  10  11
HETATM   11  N2  UNL     1      20.473  -2.245  11.925  1.00  0.00    -0.414 N 
ATOM     12  H2  UNL     1      21.030  -1.653  12.542  1.00  0.00     0.153 HD
BRANCH  11  13
HETATM   13  C3  UNL     1      19.143  -2.653  12.259  1.00  0.00     0.167 C 
BRANCH  13  14
HETATM   14  C2  UNL     1      19.028  -3.672  13.319  1.00  0.00     0.032 C 
HETATM   15  C1  UNL     1      17.956  -3.694  14.090  1.00  0.00     0.036 C 
HETATM   16  N1  UNL     1      20.006  -4.672  13.563  1.00  0.00    -0.106 NA
ENDBRANCH  13  14
ENDBRANCH  11  13
ENDBRANCH  10  11
ENDBRANCH   9  10
ENDBRANCH   8   9
ENDBRANCH   1   8
BRANCH   5  17
HETATM   17  N3  UNL     1      21.641  -7.337  13.020  1.00  0.00    -0.385 N 
ATOM     18  H32 UNL     1      21.844  -7.000  13.961  1.00  0.00     0.157 HD
ATOM     19  H31 UNL     1      20.885  -8.002  12.859  1.00  0.00     0.157 HD
ENDBRANCH   5  17
TORSDOF 7
ENDMDL
MODEL 3
REMARK VINA RESULT: -6.306746544      1.512      2.025
REMARK  7 active torsions:
REMARK  status: ('A' for Active; 'I' for Inactive)
REMARK    1  A    between atoms: C2_2  and  C3_4 
REMARK    2  A    between atoms: C3_4  and  N2_5 
REMARK    3  A    between atoms: N2_5  and  C4_7 
REMARK    4  A    between atoms: C4_7  and  C5_8 
REMARK    5  A    between atoms: C5_8  and  O1_9 
REMARK    6  A    between atoms: O1_9  and  C6_10 
REMARK    7  A    between atoms: C10_14  and  N3_15 
ROOT
HETATM    1  C6  UNL     1      22.106  -4.259  10.133  1.00  0.00     0.143 A 
HETATM    2  C7  UNL     1      22.357  -5.503  10.663  1.00  0.00     0.056 A 
HETATM    3  C8  UNL     1      23.445  -6.278  10.245  1.00  0.00     0.008 A 
HETATM    4  C9  UNL     1      24.287  -5.775   9.278  1.00  0.00     0.048 A 
HETATM    5  C10 UNL     1      24.023  -4.515   8.751  1.00  0.00     0.100 A 
HETATM    6  N4  UNL     1      22.970  -3.804   9.175  1.00  0.00    -0.324 N 
ATOM      7  H4  UNL     1      22.805  -2.884   8.768  1.00  0.00     0.169 HD
ENDROOT
BRANCH   1   8
HETATM    8  O1  UNL     1      21.073  -3.448  10.477  1.00  0.00    -0.334 OA
BRANCH   8   9
HETATM    9  C5  UNL     1      20.792  -2.721  11.598  1.00  0.00     0.196 C 
BRANCH   9  10
HETATM   10  C4  UNL     1      19.285  -2.712  11.884  1.00  0.00     0.141 C 
BRANCH  10  11
HETATM   11  N2  UNL     1      19.004  -2.006  13.091  1.00  0.00    -0.414 N 
ATOM     12  H2  UNL     1      18.769  -1.013  13.097  1.00  0.00     0.153 HD
BRANCH  11  13
HETATM   13  C3  UNL     1      19.072  -2.779  14.292  1.00  0.00     0.167 C 
BRANCH  13  14
HETATM   14  C2  UNL     1      17.897  -3.620  14.586  1.00  0.00     0.032 C 
HETATM   15  C1  UNL     1      17.991  -4.933  14.481  1.00  0.00     0.036 C 
HETATM   16  N1  UNL     1      16.642  -3.105  15.005  1.00  0.00    -0.106 NA
ENDBRANCH  13  14
ENDBRANCH  11  13
ENDBRANCH  10  11
ENDBRANCH   9  10
ENDBRANCH   8   9
ENDBRANCH   1   8
BRANCH   5  17
HETATM   17  N3  UNL     1      24.840  -4.087   7.844  1.00  0.00    -0.385 N 
ATOM     18  H32 UNL     1      25.345  -3.205   7.926  1.00  0.00     0.157 HD
ATOM     19  H31 UNL     1      24.961  -4.680   7.023  1.00  0.00     0.157 HD
ENDBRANCH   5  17
TORSDOF 7
ENDMDL
MODEL 4
REMARK VINA RESULT: -6.283954491      2.030      2.692
REMARK  7 active torsions:
REMARK  status: ('A' for Active; 'I' for Inactive)
REMARK    1  A    between atoms: C2_2  and  C3_4 
REMARK    2  A    between atoms: C3_4  and  N2_5 
REMARK    3  A    between atoms: N2_5  and  C4_7 
REMARK    4  A    between atoms: C4_7  and  C5_8 
REMARK    5  A    between atoms: C5_8  and  O1_9 
REMARK    6  A    between atoms: O1_9  and  C6_10 
REMARK    7  A    between atoms: C10_14  and  N3_15 
ROOT
HETATM    1  C6  UNL     1      22.132  -5.681  11.494  1.00  0.00     0.143 A 
HETATM    2  C7  UNL     1      22.790  -6.830  11.122  1.00  0.00     0.056 A 
HETATM    3  C8  UNL     1      23.772  -6.827  10.124  1.00  0.00     0.008 A 
HETATM    4  C9  UNL     1      24.085  -5.638   9.503  1.00  0.00     0.048 A 
HETATM    5  C10 UNL     1      23.412  -4.484   9.890  1.00  0.00     0.100 A 
HETATM    6  N4  UNL     1      22.477  -4.527  10.849  1.00  0.00    -0.324 N 
ATOM      7  H4  UNL     1      22.003  -3.662  11.108  1.00  0.00     0.169 HD
ENDROOT
BRANCH   1   8
HETATM    8  O1  UNL     1      21.166  -5.599  12.446  1.00  0.00    -0.334 OA
BRANCH   8   9
HETATM    9  C5  UNL     1      20.753  -6.449  13.431  1.00  0.00     0.196 C 
BRANCH   9  10
HETATM   10  C4  UNL     1      20.069  -5.681  14.569  1.00  0.00     0.141 C 
BRANCH  10  11
HETATM   11  N2  UNL     1      18.942  -4.954  14.083  1.00  0.00    -0.414 N 
ATOM     12  H2  UNL     1      18.135  -5.419  13.666  1.00  0.00     0.153 HD
BRANCH  11  13
HETATM   13  C3  UNL     1      19.016  -3.532  14.218  1.00  0.00     0.167 C 
BRANCH  13  14
HETATM   14  C2  UNL     1      19.227  -2.776  12.969  1.00  0.00     0.032 C 
HETATM   15  C1  UNL     1      18.187  -2.408  12.244  1.00  0.00     0.036 C 
HETATM   16  N1  UNL     1      20.505  -2.386  12.489  1.00  0.00    -0.106 NA
ENDBRANCH  13  14
ENDBRANCH  11  13
ENDBRANCH  10  11
ENDBRANCH   9  10
ENDBRANCH   8   9
ENDBRANCH   1   8
BRANCH   5  17
HETATM   17  N3  UNL     1      23.739  -3.393   9.276  1.00  0.00    -0.385 N 
ATOM     18  H32 UNL     1      24.588  -3.304   8.719  1.00  0.00     0.157 HD
ATOM     19  H31 UNL     1      23.098  -2.606   9.375  1.00  0.00     0.157 HD
ENDBRANCH   5  17
TORSDOF 7
ENDMDL
MODEL 5
REMARK VINA RESULT: -6.172331219      1.698      6.353
REMARK  7 active torsions:
REMARK  status: ('A' for Active; 'I' for Inactive)
REMARK    1  A    between atoms: C2_2  and  C3_4 
REMARK    2  A    between atoms: C3_4  and  N2_5 
REMARK    3  A    between atoms: N2_5  and  C4_7 
REMARK    4  A    between atoms: C4_7  and  C5_8 
REMARK    5  A    between atoms: C5_8  and  O1_9 
REMARK    6  A    between atoms: O1_9  and  C6_10 
REMARK    7  A    between atoms: C10_14  and  N3_15 
ROOT
HETATM    1  C6  UNL     1      20.009  -3.308  12.386  1.00  0.00     0.143 A 
HETATM    2  C7  UNL     1      19.570  -4.126  13.400  1.00  0.00     0.056 A 
HETATM    3  C8  UNL     1      18.276  -4.023  13.923  1.00  0.00     0.008 A 
HETATM    4  C9  UNL     1      17.423  -3.076  13.403  1.00  0.00     0.048 A 
HETATM    5  C10 UNL     1      17.879  -2.255  12.377  1.00  0.00     0.100 A 
HETATM    6  N4  UNL     1      19.125  -2.383  11.903  1.00  0.00    -0.324 N 
ATOM      7  H4  UNL     1      19.428  -1.766  11.150  1.00  0.00     0.169 HD
ENDROOT
BRANCH   1   8
HETATM    8  O1  UNL     1      21.247  -3.339  11.826  1.00  0.00    -0.334 OA
BRANCH   8   9
HETATM    9  C5  UNL     1      21.774  -2.777  10.699  1.00  0.00     0.196 C 
BRANCH   9  10
HETATM   10  C4  UNL     1      22.997  -3.566  10.212  1.00  0.00     0.141 C 
BRANCH  10  11
HETATM   11  N2  UNL     1      22.598  -4.799   9.617  1.00  0.00    -0.414 N 
ATOM     12  H2  UNL     1      21.799  -4.864   8.985  1.00  0.00     0.153 HD
BRANCH  11  13
HETATM   13  C3  UNL     1      23.390  -5.939   9.961  1.00  0.00     0.167 C 
BRANCH  13  14
HETATM   14  C2  UNL     1      22.660  -7.077  10.553  1.00  0.00     0.032 C 
HETATM   15  C1  UNL     1      23.087  -8.308  10.341  1.00  0.00     0.036 C 
HETATM   16  N1  UNL     1      21.511  -6.936  11.375  1.00  0.00    -0.106 NA
ENDBRANCH  13  14
ENDBRANCH  11  13
ENDBRANCH  10  11
ENDBRANCH   9  10
ENDBRANCH   8   9
ENDBRANCH   1   8
BRANCH   5  17
HETATM   17  N3  UNL     1      17.042  -1.379  11.923  1.00  0.00    -0.385 N 
ATOM     18  H32 UNL     1      16.215  -1.083  12.441  1.00  0.00     0.157 HD
ATOM     19  H31 UNL     1      17.247  -0.988  11.004  1.00  0.00     0.157 HD
ENDBRANCH   5  17
TORSDOF 7
ENDMDL
