MODEL 1
REMARK VINA RESULT: -5.637848393      0.000      0.000
REMARK  3 active torsions:
REMARK  status: ('A' for Active; 'I' for Inactive)
REMARK    1  A    between atoms: C2_2  and  O1_3 
REMARK    2  A    between atoms: O1_3  and  C3_4 
REMARK    3  A    between atoms: C3_4  and  C4_6 
ROOT
HETATM    1  C4  UNL     1      25.630  24.618  -7.549  1.00  0.00     0.120 A 
HETATM    2  S1  UNL     1      27.244  24.974  -7.966  1.00  0.00    -0.051 SA
HETATM    3  C5  UNL     1      27.457  23.770  -9.154  1.00  0.00     0.144 A 
HETATM    4  S2  UNL     1      28.798  23.433 -10.075  1.00  0.00    -0.052 SA
HETATM    5  N1  UNL     1      26.278  23.148  -9.178  1.00  0.00    -0.332 N 
ATOM      6  H1  UNL     1      26.113  22.366  -9.812  1.00  0.00     0.168 HD
HETATM    7  C6  UNL     1      25.334  23.566  -8.366  1.00  0.00     0.138 A 
HETATM    8  C7  UNL     1      24.002  22.946  -8.316  1.00  0.00     0.119 C 
HETATM    9  N2  UNL     1      22.943  22.441  -8.263  1.00  0.00    -0.190 NA
ENDROOT
BRANCH   1  10
HETATM   10  C3  UNL     1      24.749  25.275  -6.550  1.00  0.00     0.303 C 
HETATM   11  O2  UNL     1      23.575  25.579  -6.865  1.00  0.00    -0.259 OA
BRANCH  10  12
HETATM   12  O1  UNL     1      25.194  25.551  -5.293  1.00  0.00    -0.317 OA
BRANCH  12  13
HETATM   13  C2  UNL     1      25.410  26.844  -4.777  1.00  0.00     0.174 C 
HETATM   14  C1  UNL     1      26.849  27.246  -4.760  1.00  0.00     0.034 C 
ENDBRANCH  12  13
ENDBRANCH  10  12
ENDBRANCH   1  10
TORSDOF 3
ENDMDL
MODEL 2
REMARK VINA RESULT: -5.564709451      4.330      6.259
REMARK  3 active torsions:
REMARK  status: ('A' for Active; 'I' for Inactive)
REMARK    1  A    between atoms: C2_2  and  O1_3 
REMARK    2  A    between atoms: O1_3  and  C3_4 
REMARK    3  A    between atoms: C3_4  and  C4_6 
ROOT
HETATM    1  C4  UNL     1      25.182  27.306  -4.236  1.00  0.00     0.120 A 
HETATM    2  S1  UNL     1      24.440  27.832  -2.794  1.00  0.00    -0.051 SA
HETATM    3  C5  UNL     1      25.657  28.908  -2.276  1.00  0.00     0.144 A 
HETATM    4  S2  UNL     1      25.705  29.856  -0.912  1.00  0.00    -0.052 SA
HETATM    5  N1  UNL     1      26.579  28.816  -3.234  1.00  0.00    -0.332 N 
ATOM      6  H1  UNL     1      27.438  29.365  -3.186  1.00  0.00     0.168 HD
HETATM    7  C6  UNL     1      26.355  28.004  -4.242  1.00  0.00     0.138 A 
HETATM    8  C7  UNL     1      27.310  27.832  -5.346  1.00  0.00     0.119 C 
HETATM    9  N2  UNL     1      28.079  27.680  -6.221  1.00  0.00    -0.190 NA
ENDROOT
BRANCH   1  10
HETATM   10  C3  UNL     1      24.694  26.334  -5.247  1.00  0.00     0.303 C 
HETATM   11  O2  UNL     1      23.625  26.561  -5.860  1.00  0.00    -0.259 OA
BRANCH  10  12
HETATM   12  O1  UNL     1      25.390  25.196  -5.522  1.00  0.00    -0.317 OA
BRANCH  12  13
HETATM   13  C2  UNL     1      25.293  24.457  -6.717  1.00  0.00     0.174 C 
HETATM   14  C1  UNL     1      26.321  24.832  -7.735  1.00  0.00     0.034 C 
ENDBRANCH  12  13
ENDBRANCH  10  12
ENDBRANCH   1  10
TORSDOF 3
ENDMDL
MODEL 3
REMARK VINA RESULT: -5.540200103      1.733      2.053
REMARK  3 active torsions:
REMARK  status: ('A' for Active; 'I' for Inactive)
REMARK    1  A    between atoms: C2_2  and  O1_3 
REMARK    2  A    between atoms: O1_3  and  C3_4 
REMARK    3  A    between atoms: C3_4  and  C4_6 
ROOT
HETATM    1  C4  UNL     1      25.288  23.736  -8.091  1.00  0.00     0.120 A 
HETATM    2  S1  UNL     1      26.793  23.573  -8.875  1.00  0.00    -0.051 SA
HETATM    3  C5  UNL     1      26.325  22.439 -10.059  1.00  0.00     0.144 A 
HETATM    4  S2  UNL     1      27.238  21.740 -11.259  1.00  0.00    -0.052 SA
HETATM    5  N1  UNL     1      25.033  22.236  -9.800  1.00  0.00    -0.332 N 
ATOM      6  H1  UNL     1      24.483  21.590 -10.365  1.00  0.00     0.168 HD
HETATM    7  C6  UNL     1      24.487  22.888  -8.799  1.00  0.00     0.138 A 
HETATM    8  C7  UNL     1      23.072  22.733  -8.433  1.00  0.00     0.119 C 
HETATM    9  N2  UNL     1      21.945  22.598  -8.128  1.00  0.00    -0.190 NA
ENDROOT
BRANCH   1  10
HETATM   10  C3  UNL     1      24.919  24.582  -6.927  1.00  0.00     0.303 C 
HETATM   11  O2  UNL     1      25.456  24.375  -5.815  1.00  0.00    -0.259 OA
BRANCH  10  12
HETATM   12  O1  UNL     1      24.005  25.585  -7.049  1.00  0.00    -0.317 OA
BRANCH  12  13
HETATM   13  C2  UNL     1      22.946  25.827  -6.153  1.00  0.00     0.174 C 
HETATM   14  C1  UNL     1      23.190  26.985  -5.240  1.00  0.00     0.034 C 
ENDBRANCH  12  13
ENDBRANCH  10  12
ENDBRANCH   1  10
TORSDOF 3
ENDMDL
MODEL 4
REMARK VINA RESULT: -5.532379470      2.765      3.765
REMARK  3 active torsions:
REMARK  status: ('A' for Active; 'I' for Inactive)
REMARK    1  A    between atoms: C2_2  and  O1_3 
REMARK    2  A    between atoms: O1_3  and  C3_4 
REMARK    3  A    between atoms: C3_4  and  C4_6 
ROOT
HETATM    1  C4  UNL     1      24.926  26.135  -5.874  1.00  0.00     0.120 A 
HETATM    2  S1  UNL     1      24.161  24.895  -6.761  1.00  0.00    -0.051 SA
HETATM    3  C5  UNL     1      25.500  24.407  -7.695  1.00  0.00     0.144 A 
HETATM    4  S2  UNL     1      25.594  23.211  -8.846  1.00  0.00    -0.052 SA
HETATM    5  N1  UNL     1      26.476  25.217  -7.285  1.00  0.00    -0.332 N 
ATOM      6  H1  UNL     1      27.414  25.148  -7.682  1.00  0.00     0.168 HD
HETATM    7  C6  UNL     1      26.202  26.105  -6.357  1.00  0.00     0.138 A 
HETATM    8  C7  UNL     1      27.208  27.043  -5.838  1.00  0.00     0.119 C 
HETATM    9  N2  UNL     1      28.006  27.805  -5.435  1.00  0.00    -0.190 NA
ENDROOT
BRANCH   1  10
HETATM   10  C3  UNL     1      24.364  27.032  -4.833  1.00  0.00     0.303 C 
HETATM   11  O2  UNL     1      23.454  27.838  -5.135  1.00  0.00    -0.259 OA
BRANCH  10  12
HETATM   12  O1  UNL     1      24.822  26.995  -3.550  1.00  0.00    -0.317 OA
BRANCH  12  13
HETATM   13  C2  UNL     1      24.719  28.050  -2.624  1.00  0.00     0.174 C 
HETATM   14  C1  UNL     1      26.020  28.734  -2.354  1.00  0.00     0.034 C 
ENDBRANCH  12  13
ENDBRANCH  10  12
ENDBRANCH   1  10
TORSDOF 3
ENDMDL
MODEL 5
REMARK VINA RESULT: -5.452610648      3.047      4.887
REMARK  3 active torsions:
REMARK  status: ('A' for Active; 'I' for Inactive)
REMARK    1  A    between atoms: C2_2  and  O1_3 
REMARK    2  A    between atoms: O1_3  and  C3_4 
REMARK    3  A    between atoms: C3_4  and  C4_6 
ROOT
HETATM    1  C4  UNL     1      25.643  24.178  -8.269  1.00  0.00     0.120 A 
HETATM    2  S1  UNL     1      25.315  25.297  -7.025  1.00  0.00    -0.051 SA
HETATM    3  C5  UNL     1      23.633  25.047  -6.915  1.00  0.00     0.144 A 
HETATM    4  S2  UNL     1      22.529  25.776  -5.908  1.00  0.00    -0.052 SA
HETATM    5  N1  UNL     1      23.397  24.114  -7.837  1.00  0.00    -0.332 N 
ATOM      6  H1  UNL     1      22.452  23.763  -7.995  1.00  0.00     0.168 HD
HETATM    7  C6  UNL     1      24.410  23.659  -8.539  1.00  0.00     0.138 A 
HETATM    8  C7  UNL     1      24.254  22.632  -9.578  1.00  0.00     0.119 C 
HETATM    9  N2  UNL     1      24.129  21.823 -10.422  1.00  0.00    -0.190 NA
ENDROOT
BRANCH   1  10
HETATM   10  C3  UNL     1      26.938  23.836  -8.911  1.00  0.00     0.303 C 
HETATM   11  O2  UNL     1      27.784  24.736  -9.118  1.00  0.00    -0.259 OA
BRANCH  10  12
HETATM   12  O1  UNL     1      27.224  22.556  -9.280  1.00  0.00    -0.317 OA
BRANCH  12  13
HETATM   13  C2  UNL     1      28.191  22.186 -10.235  1.00  0.00     0.174 C 
HETATM   14  C1  UNL     1      27.603  21.649 -11.500  1.00  0.00     0.034 C 
ENDBRANCH  12  13
ENDBRANCH  10  12
ENDBRANCH   1  10
TORSDOF 3
ENDMDL
