MODEL 1
REMARK VINA RESULT: -6.780945837      0.000      0.000
REMARK  5 active torsions:
REMARK  status: ('A' for Active; 'I' for Inactive)
REMARK    1  A    between atoms: C2_2  and  O1_4 
REMARK    2  A    between atoms: O1_4  and  C4_5 
REMARK    3  A    between atoms: C4_5  and  O3_7 
REMARK    4  A    between atoms: O3_7  and  N1_8 
REMARK    5  A    between atoms: C8_13  and  N2_14 
ROOT
HETATM    1  N1  UNL     1      27.769  25.243  -7.848  1.00  0.00    -0.264 N 
ATOM      2  H1  UNL     1      28.662  25.733  -7.914  1.00  0.00     0.194 HD
HETATM    3  C5  UNL     1      26.993  25.382  -6.825  1.00  0.00     0.011 C 
HETATM    4  C6  UNL     1      25.707  24.706  -6.681  1.00  0.00     0.056 C 
HETATM    5  C7  UNL     1      24.687  25.416  -5.885  1.00  0.00     0.038 C 
HETATM    6  C8  UNL     1      25.123  26.574  -5.088  1.00  0.00     0.184 C 
HETATM    7  C9  UNL     1      26.319  27.306  -5.570  1.00  0.00     0.038 C 
HETATM    8  C10 UNL     1      27.450  26.285  -5.741  1.00  0.00     0.056 C 
ENDROOT
BRANCH   1   9
HETATM    9  O3  UNL     1      27.331  24.402  -8.845  1.00  0.00    -0.175 OA
BRANCH   9  10
HETATM   10  C4  UNL     1      28.301  23.725  -9.575  1.00  0.00     0.429 C 
HETATM   11  O2  UNL     1      29.383  24.255  -9.940  1.00  0.00    -0.227 OA
BRANCH  10  12
HETATM   12  O1  UNL     1      28.081  22.408  -9.924  1.00  0.00    -0.292 OA
BRANCH  12  13
HETATM   13  C2  UNL     1      27.253  22.079 -11.000  1.00  0.00     0.126 C 
HETATM   14  C1  UNL     1      28.138  21.453 -12.076  1.00  0.00     0.040 C 
HETATM   15  C3  UNL     1      26.147  21.114 -10.608  1.00  0.00     0.040 C 
ENDBRANCH  12  13
ENDBRANCH  10  12
ENDBRANCH   9  10
ENDBRANCH   1   9
BRANCH   6  16
HETATM   16  N2  UNL     1      24.006  27.527  -5.009  1.00  0.00    -0.075 N 
ATOM     17  H23 UNL     1      24.252  28.451  -5.367  1.00  0.00     0.274 HD
ATOM     18  H22 UNL     1      23.261  27.315  -5.673  1.00  0.00     0.274 HD
ATOM     19  H21 UNL     1      23.677  27.554  -4.044  1.00  0.00     0.274 HD
ENDBRANCH   6  16
TORSDOF 5
ENDMDL
MODEL 2
REMARK VINA RESULT: -6.693813844      1.341      1.680
REMARK  5 active torsions:
REMARK  status: ('A' for Active; 'I' for Inactive)
REMARK    1  A    between atoms: C2_2  and  O1_4 
REMARK    2  A    between atoms: O1_4  and  C4_5 
REMARK    3  A    between atoms: C4_5  and  O3_7 
REMARK    4  A    between atoms: O3_7  and  N1_8 
REMARK    5  A    between atoms: C8_13  and  N2_14 
ROOT
HETATM    1  N1  UNL     1      27.040  24.894  -7.912  1.00  0.00    -0.264 N 
ATOM      2  H1  UNL     1      27.750  25.392  -7.375  1.00  0.00     0.194 HD
HETATM    3  C5  UNL     1      25.896  24.583  -7.399  1.00  0.00     0.011 C 
HETATM    4  C6  UNL     1      24.845  23.873  -8.121  1.00  0.00     0.056 C 
HETATM    5  C7  UNL     1      23.459  24.169  -7.708  1.00  0.00     0.038 C 
HETATM    6  C8  UNL     1      23.264  24.913  -6.454  1.00  0.00     0.184 C 
HETATM    7  C9  UNL     1      24.364  25.810  -6.027  1.00  0.00     0.038 C 
HETATM    8  C10 UNL     1      25.652  24.978  -5.990  1.00  0.00     0.056 C 
ENDROOT
BRANCH   1   9
HETATM    9  O3  UNL     1      27.251  24.520  -9.219  1.00  0.00    -0.175 OA
BRANCH   9  10
HETATM   10  C4  UNL     1      28.305  23.649  -9.468  1.00  0.00     0.429 C 
HETATM   11  O2  UNL     1      29.515  23.986  -9.369  1.00  0.00    -0.227 OA
BRANCH  10  12
HETATM   12  O1  UNL     1      28.029  22.349  -9.841  1.00  0.00    -0.292 OA
BRANCH  12  13
HETATM   13  C2  UNL     1      27.206  22.077 -10.936  1.00  0.00     0.126 C 
HETATM   14  C1  UNL     1      28.082  21.434 -12.010  1.00  0.00     0.040 C 
HETATM   15  C3  UNL     1      26.054  21.152 -10.581  1.00  0.00     0.040 C 
ENDBRANCH  12  13
ENDBRANCH  10  12
ENDBRANCH   9  10
ENDBRANCH   1   9
BRANCH   6  16
HETATM   16  N2  UNL     1      22.042  25.721  -6.582  1.00  0.00    -0.075 N 
ATOM     17  H23 UNL     1      21.913  26.093  -7.524  1.00  0.00     0.274 HD
ATOM     18  H22 UNL     1      21.192  25.158  -6.538  1.00  0.00     0.274 HD
ATOM     19  H21 UNL     1      22.065  26.453  -5.872  1.00  0.00     0.274 HD
ENDBRANCH   6  16
TORSDOF 5
ENDMDL
MODEL 3
REMARK VINA RESULT: -6.629424790      3.096      4.428
REMARK  5 active torsions:
REMARK  status: ('A' for Active; 'I' for Inactive)
REMARK    1  A    between atoms: C2_2  and  O1_4 
REMARK    2  A    between atoms: O1_4  and  C4_5 
REMARK    3  A    between atoms: C4_5  and  O3_7 
REMARK    4  A    between atoms: O3_7  and  N1_8 
REMARK    5  A    between atoms: C8_13  and  N2_14 
ROOT
HETATM    1  N1  UNL     1      28.801  23.076 -11.358  1.00  0.00    -0.264 N 
ATOM      2  H1  UNL     1      29.674  23.599 -11.293  1.00  0.00     0.194 HD
HETATM    3  C5  UNL     1      27.993  22.977 -10.355  1.00  0.00     0.011 C 
HETATM    4  C6  UNL     1      26.733  22.242 -10.393  1.00  0.00     0.056 C 
HETATM    5  C7  UNL     1      25.663  22.740  -9.506  1.00  0.00     0.038 C 
HETATM    6  C8  UNL     1      26.031  23.728  -8.479  1.00  0.00     0.184 C 
HETATM    7  C9  UNL     1      27.207  24.584  -8.763  1.00  0.00     0.038 C 
HETATM    8  C10 UNL     1      28.384  23.658  -9.097  1.00  0.00     0.056 C 
ENDROOT
BRANCH   1   9
HETATM    9  O3  UNL     1      28.424  22.438 -12.518  1.00  0.00    -0.175 OA
BRANCH   9  10
HETATM   10  C4  UNL     1      29.158  22.720 -13.664  1.00  0.00     0.429 C 
HETATM   11  O2  UNL     1      29.807  23.788 -13.820  1.00  0.00    -0.227 OA
BRANCH  10  12
HETATM   12  O1  UNL     1      29.186  21.796 -14.688  1.00  0.00    -0.292 OA
BRANCH  12  13
HETATM   13  C2  UNL     1      28.863  20.457 -14.456  1.00  0.00     0.126 C 
HETATM   14  C1  UNL     1      28.616  19.810 -15.818  1.00  0.00     0.040 C 
HETATM   15  C3  UNL     1      29.963  19.713 -13.717  1.00  0.00     0.040 C 
ENDBRANCH  12  13
ENDBRANCH  10  12
ENDBRANCH   9  10
ENDBRANCH   1   9
BRANCH   6  16
HETATM   16  N2  UNL     1      24.874  24.606  -8.249  1.00  0.00    -0.075 N 
ATOM     17  H23 UNL     1      24.823  24.945  -7.287  1.00  0.00     0.274 HD
ATOM     18  H22 UNL     1      24.968  25.511  -8.710  1.00  0.00     0.274 HD
ATOM     19  H21 UNL     1      24.031  24.106  -8.534  1.00  0.00     0.274 HD
ENDBRANCH   6  16
TORSDOF 5
ENDMDL
MODEL 4
REMARK VINA RESULT: -6.528863064      2.687      6.493
REMARK  5 active torsions:
REMARK  status: ('A' for Active; 'I' for Inactive)
REMARK    1  A    between atoms: C2_2  and  O1_4 
REMARK    2  A    between atoms: O1_4  and  C4_5 
REMARK    3  A    between atoms: C4_5  and  O3_7 
REMARK    4  A    between atoms: O3_7  and  N1_8 
REMARK    5  A    between atoms: C8_13  and  N2_14 
ROOT
HETATM    1  N1  UNL     1      28.266  25.542  -7.411  1.00  0.00    -0.264 N 
ATOM      2  H1  UNL     1      29.235  25.857  -7.358  1.00  0.00     0.194 HD
HETATM    3  C5  UNL     1      27.827  24.861  -8.417  1.00  0.00     0.011 C 
HETATM    4  C6  UNL     1      26.453  24.386  -8.543  1.00  0.00     0.056 C 
HETATM    5  C7  UNL     1      26.264  23.140  -9.311  1.00  0.00     0.038 C 
HETATM    6  C8  UNL     1      27.402  22.646 -10.104  1.00  0.00     0.184 C 
HETATM    7  C9  UNL     1      28.757  23.024  -9.640  1.00  0.00     0.038 C 
HETATM    8  C10 UNL     1      28.791  24.551  -9.501  1.00  0.00     0.056 C 
ENDROOT
BRANCH   1   9
HETATM    9  O3  UNL     1      27.359  25.822  -6.414  1.00  0.00    -0.175 OA
BRANCH   9  10
HETATM   10  C4  UNL     1      27.589  26.959  -5.649  1.00  0.00     0.429 C 
HETATM   11  O2  UNL     1      28.303  27.920  -6.041  1.00  0.00    -0.227 OA
BRANCH  10  12
HETATM   12  O1  UNL     1      27.013  27.054  -4.398  1.00  0.00    -0.292 OA
BRANCH  12  13
HETATM   13  C2  UNL     1      26.015  27.995  -4.136  1.00  0.00     0.126 C 
HETATM   14  C1  UNL     1      24.680  27.348  -4.502  1.00  0.00     0.040 C 
HETATM   15  C3  UNL     1      25.999  28.437  -2.683  1.00  0.00     0.040 C 
ENDBRANCH  12  13
ENDBRANCH  10  12
ENDBRANCH   9  10
ENDBRANCH   1   9
BRANCH   6  16
HETATM   16  N2  UNL     1      27.328  21.179 -10.152  1.00  0.00    -0.075 N 
ATOM     17  H23 UNL     1      26.445  20.817  -9.790  1.00  0.00     0.274 HD
ATOM     18  H22 UNL     1      27.245  20.820 -11.104  1.00  0.00     0.274 HD
ATOM     19  H21 UNL     1      28.138  20.802  -9.660  1.00  0.00     0.274 HD
ENDBRANCH   6  16
TORSDOF 5
ENDMDL
MODEL 5
REMARK VINA RESULT: -6.528731107      1.793      2.396
REMARK  5 active torsions:
REMARK  status: ('A' for Active; 'I' for Inactive)
REMARK    1  A    between atoms: C2_2  and  O1_4 
REMARK    2  A    between atoms: O1_4  and  C4_5 
REMARK    3  A    between atoms: C4_5  and  O3_7 
REMARK    4  A    between atoms: O3_7  and  N1_8 
REMARK    5  A    between atoms: C8_13  and  N2_14 
ROOT
HETATM    1  N1  UNL     1      26.344  25.118  -7.733  1.00  0.00    -0.264 N 
ATOM      2  H1  UNL     1      27.194  24.986  -8.281  1.00  0.00     0.194 HD
HETATM    3  C5  UNL     1      26.380  25.549  -6.516  1.00  0.00     0.011 C 
HETATM    4  C6  UNL     1      25.194  25.756  -5.690  1.00  0.00     0.056 C 
HETATM    5  C7  UNL     1      25.293  26.816  -4.668  1.00  0.00     0.038 C 
HETATM    6  C8  UNL     1      26.627  27.368  -4.380  1.00  0.00     0.184 C 
HETATM    7  C9  UNL     1      27.628  27.305  -5.472  1.00  0.00     0.038 C 
HETATM    8  C10 UNL     1      27.713  25.847  -5.939  1.00  0.00     0.056 C 
ENDROOT
BRANCH   1   9
HETATM    9  O3  UNL     1      25.099  24.845  -8.254  1.00  0.00    -0.175 OA
BRANCH   9  10
HETATM   10  C4  UNL     1      24.907  23.586  -8.812  1.00  0.00     0.429 C 
HETATM   11  O2  UNL     1      23.786  23.176  -9.213  1.00  0.00    -0.227 OA
BRANCH  10  12
HETATM   12  O1  UNL     1      25.986  22.736  -8.937  1.00  0.00    -0.292 OA
BRANCH  12  13
HETATM   13  C2  UNL     1      26.570  22.497 -10.183  1.00  0.00     0.126 C 
HETATM   14  C1  UNL     1      28.072  22.732 -10.029  1.00  0.00     0.040 C 
HETATM   15  C3  UNL     1      26.313  21.087 -10.685  1.00  0.00     0.040 C 
ENDBRANCH  12  13
ENDBRANCH  10  12
ENDBRANCH   9  10
ENDBRANCH   1   9
BRANCH   6  16
HETATM   16  N2  UNL     1      26.469  28.776  -3.987  1.00  0.00    -0.075 N 
ATOM     17  H23 UNL     1      26.141  29.364  -4.754  1.00  0.00     0.274 HD
ATOM     18  H22 UNL     1      25.681  28.922  -3.355  1.00  0.00     0.274 HD
ATOM     19  H21 UNL     1      27.353  29.100  -3.595  1.00  0.00     0.274 HD
ENDBRANCH   6  16
TORSDOF 5
ENDMDL
