MODEL 1
REMARK VINA RESULT: -6.322322105      0.000      0.000
REMARK  2 active torsions:
REMARK  status: ('A' for Active; 'I' for Inactive)
REMARK    1  A    between atoms: C2_2  and  C3_3 
REMARK    2  A    between atoms: C4_4  and  C5_5 
ROOT
HETATM    1  C3  UNL     1      28.237  23.115 -10.868  1.00  0.00    -0.039 C 
HETATM    2  C4  UNL     1      27.024  22.889 -10.103  1.00  0.00     0.043 C 
HETATM    3  C7  UNL     1      26.844  23.702  -9.041  1.00  0.00     0.065 C 
HETATM    4  C8  UNL     1      25.617  23.568  -8.211  1.00  0.00     0.077 C 
HETATM    5  O2  UNL     1      27.794  24.679  -8.649  1.00  0.00    -0.300 OA
HETATM    6  C9  UNL     1      28.950  24.785  -9.375  1.00  0.00     0.139 C 
HETATM    7  N1  UNL     1      29.583  25.849  -9.520  1.00  0.00    -0.382 N 
ATOM      8  H11 UNL     1      30.444  25.928 -10.060  1.00  0.00     0.158 HD
ATOM      9  H12 UNL     1      29.249  26.709  -9.087  1.00  0.00     0.158 HD
HETATM   10  C10 UNL     1      29.452  23.491 -10.026  1.00  0.00     0.197 C 
HETATM   11  C11 UNL     1      29.724  22.497  -9.027  1.00  0.00     0.076 C 
HETATM   12  N2  UNL     1      29.961  21.693  -8.229  1.00  0.00    -0.196 NA
ENDROOT
BRANCH   1  13
HETATM   13  C2  UNL     1      28.561  22.509 -12.152  1.00  0.00     0.032 C 
HETATM   14  C1  UNL     1      29.341  23.451 -13.042  1.00  0.00     0.010 C 
ENDBRANCH   1  13
BRANCH   2  15
HETATM   15  C5  UNL     1      26.013  21.860 -10.298  1.00  0.00     0.158 C 
HETATM   16  C6  UNL     1      24.564  22.036 -10.524  1.00  0.00     0.097 C 
HETATM   17  O1  UNL     1      26.312  20.599 -10.299  1.00  0.00    -0.293 OA
ENDBRANCH   2  15
TORSDOF 2
ENDMDL
MODEL 2
REMARK VINA RESULT: -6.201915781      2.016      3.344
REMARK  2 active torsions:
REMARK  status: ('A' for Active; 'I' for Inactive)
REMARK    1  A    between atoms: C2_2  and  C3_3 
REMARK    2  A    between atoms: C4_4  and  C5_5 
ROOT
HETATM    1  C3  UNL     1      27.216  23.216  -9.629  1.00  0.00    -0.039 C 
HETATM    2  C4  UNL     1      27.559  24.392  -8.851  1.00  0.00     0.043 C 
HETATM    3  C7  UNL     1      28.624  25.094  -9.293  1.00  0.00     0.065 C 
HETATM    4  C8  UNL     1      29.038  26.331  -8.580  1.00  0.00     0.077 C 
HETATM    5  O2  UNL     1      29.403  24.692 -10.407  1.00  0.00    -0.300 OA
HETATM    6  C9  UNL     1      29.063  23.530 -11.049  1.00  0.00     0.139 C 
HETATM    7  N1  UNL     1      29.253  23.327 -12.263  1.00  0.00    -0.382 N 
ATOM      8  H11 UNL     1      29.000  22.462 -12.740  1.00  0.00     0.158 HD
ATOM      9  H12 UNL     1      29.683  24.046 -12.844  1.00  0.00     0.158 HD
HETATM   10  C10 UNL     1      28.416  22.449 -10.175  1.00  0.00     0.197 C 
HETATM   11  C11 UNL     1      29.306  22.052  -9.121  1.00  0.00     0.076 C 
HETATM   12  N2  UNL     1      30.023  21.714  -8.278  1.00  0.00    -0.196 NA
ENDROOT
BRANCH   1  13
HETATM   13  C2  UNL     1      26.011  22.413  -9.474  1.00  0.00     0.032 C 
HETATM   14  C1  UNL     1      25.894  21.355 -10.548  1.00  0.00     0.010 C 
ENDBRANCH   1  13
BRANCH   2  15
HETATM   15  C5  UNL     1      26.943  24.873  -7.623  1.00  0.00     0.158 C 
HETATM   16  C6  UNL     1      25.538  25.273  -7.403  1.00  0.00     0.097 C 
HETATM   17  O1  UNL     1      27.616  24.998  -6.523  1.00  0.00    -0.293 OA
ENDBRANCH   2  15
TORSDOF 2
ENDMDL
MODEL 3
REMARK VINA RESULT: -4.955272143      9.977     11.721
REMARK  2 active torsions:
REMARK  status: ('A' for Active; 'I' for Inactive)
REMARK    1  A    between atoms: C2_2  and  C3_3 
REMARK    2  A    between atoms: C4_4  and  C5_5 
ROOT
HETATM    1  C3  UNL     1      24.500  28.576  -1.293  1.00  0.00    -0.039 C 
HETATM    2  C4  UNL     1      23.466  28.187  -0.353  1.00  0.00     0.043 C 
HETATM    3  C7  UNL     1      23.136  29.116   0.569  1.00  0.00     0.065 C 
HETATM    4  C8  UNL     1      22.066  28.823   1.560  1.00  0.00     0.077 C 
HETATM    5  O2  UNL     1      23.786  30.372   0.664  1.00  0.00    -0.300 OA
HETATM    6  C9  UNL     1      24.805  30.641  -0.211  1.00  0.00     0.139 C 
HETATM    7  N1  UNL     1      25.089  31.785  -0.616  1.00  0.00    -0.382 N 
ATOM      8  H11 UNL     1      25.847  31.985  -1.267  1.00  0.00     0.158 HD
ATOM      9  H12 UNL     1      24.552  32.591  -0.297  1.00  0.00     0.158 HD
HETATM   10  C10 UNL     1      25.612  29.428  -0.690  1.00  0.00     0.197 C 
HETATM   11  C11 UNL     1      26.234  28.766   0.421  1.00  0.00     0.076 C 
HETATM   12  N2  UNL     1      26.753  28.234   1.308  1.00  0.00    -0.196 NA
ENDROOT
BRANCH   1  13
HETATM   13  C2  UNL     1      24.891  27.837  -2.486  1.00  0.00     0.032 C 
HETATM   14  C1  UNL     1      26.133  28.412  -3.127  1.00  0.00     0.010 C 
ENDBRANCH   1  13
BRANCH   2  15
HETATM   15  C5  UNL     1      22.786  26.904  -0.238  1.00  0.00     0.158 C 
HETATM   16  C6  UNL     1      23.150  25.753   0.614  1.00  0.00     0.097 C 
HETATM   17  O1  UNL     1      21.715  26.634  -0.915  1.00  0.00    -0.293 OA
ENDBRANCH   2  15
TORSDOF 2
ENDMDL
MODEL 4
REMARK VINA RESULT: -4.908394876      8.684     10.964
REMARK  2 active torsions:
REMARK  status: ('A' for Active; 'I' for Inactive)
REMARK    1  A    between atoms: C2_2  and  C3_3 
REMARK    2  A    between atoms: C4_4  and  C5_5 
ROOT
HETATM    1  C3  UNL     1      23.738  27.427  -1.196  1.00  0.00    -0.039 C 
HETATM    2  C4  UNL     1      24.467  27.691  -2.422  1.00  0.00     0.043 C 
HETATM    3  C7  UNL     1      25.647  28.330  -2.273  1.00  0.00     0.065 C 
HETATM    4  C8  UNL     1      26.483  28.620  -3.468  1.00  0.00     0.077 C 
HETATM    5  O2  UNL     1      26.131  28.771  -1.016  1.00  0.00    -0.300 OA
HETATM    6  C9  UNL     1      25.353  28.551   0.090  1.00  0.00     0.139 C 
HETATM    7  N1  UNL     1      25.809  28.374   1.236  1.00  0.00    -0.382 N 
ATOM      8  H11 UNL     1      25.230  28.211   2.059  1.00  0.00     0.158 HD
ATOM      9  H12 UNL     1      26.816  28.386   1.396  1.00  0.00     0.158 HD
HETATM   10  C10 UNL     1      23.839  28.533  -0.151  1.00  0.00     0.197 C 
HETATM   11  C11 UNL     1      23.397  29.793  -0.679  1.00  0.00     0.076 C 
HETATM   12  N2  UNL     1      23.028  30.810  -1.090  1.00  0.00    -0.196 NA
ENDROOT
BRANCH   1  13
HETATM   13  C2  UNL     1      22.550  26.592  -1.073  1.00  0.00     0.032 C 
HETATM   14  C1  UNL     1      22.535  25.817   0.225  1.00  0.00     0.010 C 
ENDBRANCH   1  13
BRANCH   2  15
HETATM   15  C5  UNL     1      24.060  27.414  -3.792  1.00  0.00     0.158 C 
HETATM   16  C6  UNL     1      24.655  26.452  -4.744  1.00  0.00     0.097 C 
HETATM   17  O1  UNL     1      23.060  28.023  -4.345  1.00  0.00    -0.293 OA
ENDBRANCH   2  15
TORSDOF 2
ENDMDL
MODEL 5
REMARK VINA RESULT: -4.733609676      9.766     11.986
REMARK  2 active torsions:
REMARK  status: ('A' for Active; 'I' for Inactive)
REMARK    1  A    between atoms: C2_2  and  C3_3 
REMARK    2  A    between atoms: C4_4  and  C5_5 
ROOT
HETATM    1  C3  UNL     1      23.831  27.680  -1.434  1.00  0.00    -0.039 C 
HETATM    2  C4  UNL     1      24.733  28.577  -0.737  1.00  0.00     0.043 C 
HETATM    3  C7  UNL     1      24.973  28.275   0.557  1.00  0.00     0.065 C 
HETATM    4  C8  UNL     1      25.907  29.119   1.349  1.00  0.00     0.077 C 
HETATM    5  O2  UNL     1      24.349  27.191   1.223  1.00  0.00    -0.300 OA
HETATM    6  C9  UNL     1      23.451  26.430   0.521  1.00  0.00     0.139 C 
HETATM    7  N1  UNL     1      23.249  25.220   0.737  1.00  0.00    -0.382 N 
ATOM      8  H11 UNL     1      22.580  24.654   0.214  1.00  0.00     0.158 HD
ATOM      9  H12 UNL     1      23.764  24.735   1.471  1.00  0.00     0.158 HD
HETATM   10  C10 UNL     1      22.677  27.160  -0.583  1.00  0.00     0.197 C 
HETATM   11  C11 UNL     1      21.907  28.238  -0.031  1.00  0.00     0.076 C 
HETATM   12  N2  UNL     1      21.271  29.100   0.406  1.00  0.00    -0.196 NA
ENDROOT
BRANCH   1  13
HETATM   13  C2  UNL     1      23.569  27.677  -2.867  1.00  0.00     0.032 C 
HETATM   14  C1  UNL     1      24.779  27.245  -3.664  1.00  0.00     0.010 C 
ENDBRANCH   1  13
BRANCH   2  15
HETATM   15  C5  UNL     1      25.360  29.793  -1.235  1.00  0.00     0.158 C 
HETATM   16  C6  UNL     1      26.634  29.927  -1.971  1.00  0.00     0.097 C 
HETATM   17  O1  UNL     1      24.816  30.958  -1.075  1.00  0.00    -0.293 OA
ENDBRANCH   2  15
TORSDOF 2
ENDMDL
