MODEL 1
REMARK VINA RESULT: -9.065496831      0.000      0.000
REMARK  4 active torsions:
REMARK  status: ('A' for Active; 'I' for Inactive)
REMARK    1  A    between atoms: O1_2  and  C2_3 
REMARK    2  A    between atoms: C6_9  and  O4_10 
REMARK    3  A    between atoms: C11_16  and  O5_17 
REMARK    4  A    between atoms: O5_17  and  C12_18 
ROOT
HETATM    1  C2  UNL     1     -17.468  -6.925  29.691  1.00  0.00     0.089 A 
HETATM    2  C3  UNL     1     -18.303  -8.000  29.941  1.00  0.00     0.120 A 
HETATM    3  C4  UNL     1     -18.887  -8.622  28.859  1.00  0.00     0.291 A 
HETATM    4  O2  UNL     1     -19.652  -9.609  29.091  1.00  0.00    -0.260 OA
HETATM    5  O3  UNL     1     -18.652  -8.197  27.634  1.00  0.00    -0.272 OA
HETATM    6  C5  UNL     1     -17.857  -7.175  27.392  1.00  0.00     0.129 A 
HETATM    7  C6  UNL     1     -17.658  -6.780  26.063  1.00  0.00     0.107 A 
HETATM    8  C7  UNL     1     -16.840  -5.716  25.749  1.00  0.00    -0.017 A 
HETATM    9  C8  UNL     1     -16.626  -5.293  24.321  1.00  0.00     0.052 C 
HETATM   10  C9  UNL     1     -16.227  -5.057  26.793  1.00  0.00    -0.018 A 
HETATM   11  C10 UNL     1     -15.347  -3.907  26.427  1.00  0.00     0.052 C 
HETATM   12  C11 UNL     1     -16.403  -5.421  28.123  1.00  0.00     0.097 A 
HETATM   13  C16 UNL     1     -17.224  -6.486  28.408  1.00  0.00     0.069 A 
ENDROOT
BRANCH  12  14
HETATM   14  O5  UNL     1     -15.759  -4.719  29.124  1.00  0.00    -0.321 OA
BRANCH  14  15
HETATM   15  C12 UNL     1     -15.208  -3.455  28.929  1.00  0.00     0.144 C 
HETATM   16  C13 UNL     1     -14.398  -2.887  29.794  1.00  0.00    -0.065 C 
HETATM   17  C14 UNL     1     -13.866  -1.539  29.492  1.00  0.00     0.045 C 
HETATM   18  C15 UNL     1     -13.997  -3.544  31.062  1.00  0.00     0.045 C 
ENDBRANCH  14  15
ENDBRANCH  12  14
BRANCH   1  19
HETATM   19  O1  UNL     1     -16.883  -6.298  30.775  1.00  0.00    -0.355 OA
HETATM   20  C1  UNL     1     -15.787  -6.830  31.454  1.00  0.00     0.210 C 
ENDBRANCH   1  19
BRANCH   7  21
HETATM   21  O4  UNL     1     -18.295  -7.472  25.033  1.00  0.00    -0.357 OA
ATOM     22  H4  UNL     1     -18.199  -7.175  24.135  1.00  0.00     0.217 HD
ENDBRANCH   7  21
TORSDOF 4
ENDMDL
MODEL 2
REMARK VINA RESULT: -8.430646938      2.409      5.835
REMARK  4 active torsions:
REMARK  status: ('A' for Active; 'I' for Inactive)
REMARK    1  A    between atoms: O1_2  and  C2_3 
REMARK    2  A    between atoms: C6_9  and  O4_10 
REMARK    3  A    between atoms: C11_16  and  O5_17 
REMARK    4  A    between atoms: O5_17  and  C12_18 
ROOT
HETATM    1  C2  UNL     1     -16.192  -4.300  26.089  1.00  0.00     0.089 A 
HETATM    2  C3  UNL     1     -16.452  -3.836  24.811  1.00  0.00     0.120 A 
HETATM    3  C4  UNL     1     -16.026  -2.565  24.492  1.00  0.00     0.291 A 
HETATM    4  O2  UNL     1     -16.265  -2.143  23.318  1.00  0.00    -0.260 OA
HETATM    5  O3  UNL     1     -15.395  -1.827  25.382  1.00  0.00    -0.272 OA
HETATM    6  C5  UNL     1     -15.145  -2.264  26.599  1.00  0.00     0.129 A 
HETATM    7  C6  UNL     1     -14.471  -1.419  27.490  1.00  0.00     0.107 A 
HETATM    8  C7  UNL     1     -14.184  -1.822  28.778  1.00  0.00    -0.017 A 
HETATM    9  C8  UNL     1     -13.461  -0.914  29.734  1.00  0.00     0.052 C 
HETATM   10  C9  UNL     1     -14.586  -3.087  29.151  1.00  0.00    -0.018 A 
HETATM   11  C10 UNL     1     -14.266  -3.499  30.551  1.00  0.00     0.052 C 
HETATM   12  C11 UNL     1     -15.257  -3.950  28.293  1.00  0.00     0.097 A 
HETATM   13  C16 UNL     1     -15.530  -3.524  27.015  1.00  0.00     0.069 A 
ENDROOT
BRANCH  12  14
HETATM   14  O5  UNL     1     -15.632  -5.207  28.730  1.00  0.00    -0.321 OA
BRANCH  14  15
HETATM   15  C12 UNL     1     -16.819  -5.447  29.417  1.00  0.00     0.144 C 
HETATM   16  C13 UNL     1     -16.875  -6.159  30.520  1.00  0.00    -0.065 C 
HETATM   17  C14 UNL     1     -18.188  -6.355  31.175  1.00  0.00     0.045 C 
HETATM   18  C15 UNL     1     -15.673  -6.775  31.134  1.00  0.00     0.045 C 
ENDBRANCH  14  15
ENDBRANCH  12  14
BRANCH   1  19
HETATM   19  O1  UNL     1     -16.621  -5.574  26.412  1.00  0.00    -0.355 OA
HETATM   20  C1  UNL     1     -16.972  -6.519  25.449  1.00  0.00     0.210 C 
ENDBRANCH   1  19
BRANCH   7  21
HETATM   21  O4  UNL     1     -14.079  -0.147  27.076  1.00  0.00    -0.357 OA
ATOM     22  H4  UNL     1     -13.666   0.444  27.694  1.00  0.00     0.217 HD
ENDBRANCH   7  21
TORSDOF 4
ENDMDL
MODEL 3
REMARK VINA RESULT: -8.288003586      2.266      5.308
REMARK  4 active torsions:
REMARK  status: ('A' for Active; 'I' for Inactive)
REMARK    1  A    between atoms: O1_2  and  C2_3 
REMARK    2  A    between atoms: C6_9  and  O4_10 
REMARK    3  A    between atoms: C11_16  and  O5_17 
REMARK    4  A    between atoms: O5_17  and  C12_18 
ROOT
HETATM    1  C2  UNL     1     -14.661  -3.090  28.258  1.00  0.00     0.089 A 
HETATM    2  C3  UNL     1     -14.054  -1.848  28.204  1.00  0.00     0.120 A 
HETATM    3  C4  UNL     1     -14.065  -1.181  26.998  1.00  0.00     0.291 A 
HETATM    4  O2  UNL     1     -13.508  -0.041  26.952  1.00  0.00    -0.260 OA
HETATM    5  O3  UNL     1     -14.637  -1.721  25.941  1.00  0.00    -0.272 OA
HETATM    6  C5  UNL     1     -15.216  -2.902  25.988  1.00  0.00     0.129 A 
HETATM    7  C6  UNL     1     -15.801  -3.410  24.820  1.00  0.00     0.107 A 
HETATM    8  C7  UNL     1     -16.420  -4.642  24.809  1.00  0.00    -0.017 A 
HETATM    9  C8  UNL     1     -17.047  -5.186  23.555  1.00  0.00     0.052 C 
HETATM   10  C9  UNL     1     -16.439  -5.353  25.990  1.00  0.00    -0.018 A 
HETATM   11  C10 UNL     1     -17.114  -6.685  25.952  1.00  0.00     0.052 C 
HETATM   12  C11 UNL     1     -15.869  -4.880  27.165  1.00  0.00     0.097 A 
HETATM   13  C16 UNL     1     -15.259  -3.649  27.149  1.00  0.00     0.069 A 
ENDROOT
BRANCH  12  14
HETATM   14  O5  UNL     1     -15.924  -5.642  28.318  1.00  0.00    -0.321 OA
BRANCH  14  15
HETATM   15  C12 UNL     1     -17.121  -6.022  28.918  1.00  0.00     0.144 C 
HETATM   16  C13 UNL     1     -17.186  -6.504  30.139  1.00  0.00    -0.065 C 
HETATM   17  C14 UNL     1     -18.511  -6.879  30.686  1.00  0.00     0.045 C 
HETATM   18  C15 UNL     1     -15.986  -6.688  30.990  1.00  0.00     0.045 C 
ENDBRANCH  14  15
ENDBRANCH  12  14
BRANCH   1  19
HETATM   19  O1  UNL     1     -14.649  -3.762  29.467  1.00  0.00    -0.355 OA
HETATM   20  C1  UNL     1     -14.863  -3.123  30.687  1.00  0.00     0.210 C 
ENDBRANCH   1  19
BRANCH   7  21
HETATM   21  O4  UNL     1     -15.762  -2.661  23.645  1.00  0.00    -0.357 OA
ATOM     22  H4  UNL     1     -16.536  -2.602  23.097  1.00  0.00     0.217 HD
ENDBRANCH   7  21
TORSDOF 4
ENDMDL
MODEL 4
REMARK VINA RESULT: -8.256619222      1.755      5.038
REMARK  4 active torsions:
REMARK  status: ('A' for Active; 'I' for Inactive)
REMARK    1  A    between atoms: O1_2  and  C2_3 
REMARK    2  A    between atoms: C6_9  and  O4_10 
REMARK    3  A    between atoms: C11_16  and  O5_17 
REMARK    4  A    between atoms: O5_17  and  C12_18 
ROOT
HETATM    1  C2  UNL     1     -16.802  -5.919  27.914  1.00  0.00     0.089 A 
HETATM    2  C3  UNL     1     -17.241  -6.538  29.071  1.00  0.00     0.120 A 
HETATM    3  C4  UNL     1     -16.845  -6.000  30.276  1.00  0.00     0.291 A 
HETATM    4  O2  UNL     1     -17.249  -6.569  31.336  1.00  0.00    -0.260 OA
HETATM    5  O3  UNL     1     -16.073  -4.932  30.311  1.00  0.00    -0.272 OA
HETATM    6  C5  UNL     1     -15.654  -4.339  29.212  1.00  0.00     0.129 A 
HETATM    7  C6  UNL     1     -14.834  -3.209  29.331  1.00  0.00     0.107 A 
HETATM    8  C7  UNL     1     -14.363  -2.549  28.215  1.00  0.00    -0.017 A 
HETATM    9  C8  UNL     1     -13.483  -1.335  28.343  1.00  0.00     0.052 C 
HETATM   10  C9  UNL     1     -14.730  -3.044  26.982  1.00  0.00    -0.018 A 
HETATM   11  C10 UNL     1     -14.206  -2.313  25.790  1.00  0.00     0.052 C 
HETATM   12  C11 UNL     1     -15.541  -4.162  26.829  1.00  0.00     0.097 A 
HETATM   13  C16 UNL     1     -15.996  -4.802  27.957  1.00  0.00     0.069 A 
ENDROOT
BRANCH  12  14
HETATM   14  O5  UNL     1     -15.873  -4.608  25.563  1.00  0.00    -0.321 OA
BRANCH  14  15
HETATM   15  C12 UNL     1     -16.550  -3.821  24.636  1.00  0.00     0.144 C 
HETATM   16  C13 UNL     1     -17.236  -4.325  23.635  1.00  0.00    -0.065 C 
HETATM   17  C14 UNL     1     -17.921  -3.399  22.704  1.00  0.00     0.045 C 
HETATM   18  C15 UNL     1     -17.351  -5.785  23.402  1.00  0.00     0.045 C 
ENDBRANCH  14  15
ENDBRANCH  12  14
BRANCH   1  19
HETATM   19  O1  UNL     1     -17.196  -6.460  26.704  1.00  0.00    -0.355 OA
HETATM   20  C1  UNL     1     -18.152  -7.470  26.605  1.00  0.00     0.210 C 
ENDBRANCH   1  19
BRANCH   7  21
HETATM   21  O4  UNL     1     -14.485  -2.737  30.595  1.00  0.00    -0.357 OA
ATOM     22  H4  UNL     1     -13.865  -2.022  30.677  1.00  0.00     0.217 HD
ENDBRANCH   7  21
TORSDOF 4
ENDMDL
MODEL 5
REMARK VINA RESULT: -8.224016791      2.420      5.905
REMARK  4 active torsions:
REMARK  status: ('A' for Active; 'I' for Inactive)
REMARK    1  A    between atoms: O1_2  and  C2_3 
REMARK    2  A    between atoms: C6_9  and  O4_10 
REMARK    3  A    between atoms: C11_16  and  O5_17 
REMARK    4  A    between atoms: O5_17  and  C12_18 
ROOT
HETATM    1  C2  UNL     1     -14.287  -2.366  29.531  1.00  0.00     0.089 A 
HETATM    2  C3  UNL     1     -13.482  -1.269  29.786  1.00  0.00     0.120 A 
HETATM    3  C4  UNL     1     -13.035  -0.538  28.708  1.00  0.00     0.291 A 
HETATM    4  O2  UNL     1     -12.297   0.468  28.944  1.00  0.00    -0.260 OA
HETATM    5  O3  UNL     1     -13.369  -0.883  27.480  1.00  0.00    -0.272 OA
HETATM    6  C5  UNL     1     -14.136  -1.925  27.233  1.00  0.00     0.129 A 
HETATM    7  C6  UNL     1     -14.445  -2.229  25.901  1.00  0.00     0.107 A 
HETATM    8  C7  UNL     1     -15.241  -3.309  25.582  1.00  0.00    -0.017 A 
HETATM    9  C8  UNL     1     -15.573  -3.635  24.151  1.00  0.00     0.052 C 
HETATM   10  C9  UNL     1     -15.718  -4.076  26.624  1.00  0.00    -0.018 A 
HETATM   11  C10 UNL     1     -16.576  -5.241  26.252  1.00  0.00     0.052 C 
HETATM   12  C11 UNL     1     -15.430  -3.803  27.955  1.00  0.00     0.097 A 
HETATM   13  C16 UNL     1     -14.634  -2.720  28.246  1.00  0.00     0.069 A 
ENDROOT
BRANCH  12  14
HETATM   14  O5  UNL     1     -15.941  -4.611  28.954  1.00  0.00    -0.321 OA
BRANCH  14  15
HETATM   15  C12 UNL     1     -16.816  -5.664  28.702  1.00  0.00     0.144 C 
HETATM   16  C13 UNL     1     -17.013  -6.648  29.551  1.00  0.00    -0.065 C 
HETATM   17  C14 UNL     1     -17.966  -7.722  29.187  1.00  0.00     0.045 C 
HETATM   18  C15 UNL     1     -16.318  -6.725  30.859  1.00  0.00     0.045 C 
ENDBRANCH  14  15
ENDBRANCH  12  14
BRANCH   1  19
HETATM   19  O1  UNL     1     -14.735  -3.102  30.613  1.00  0.00    -0.355 OA
HETATM   20  C1  UNL     1     -13.880  -3.849  31.422  1.00  0.00     0.210 C 
ENDBRANCH   1  19
BRANCH   7  21
HETATM   21  O4  UNL     1     -13.945  -1.429  24.874  1.00  0.00    -0.357 OA
ATOM     22  H4  UNL     1     -13.602  -1.833  24.086  1.00  0.00     0.217 HD
ENDBRANCH   7  21
TORSDOF 4
ENDMDL
