MODEL 1
REMARK VINA RESULT: -4.997432711      0.000      0.000
REMARK  10 active torsions:
REMARK  status: ('A' for Active; 'I' for Inactive)
REMARK    1  A    between atoms: C2_2  and  N1_3 
REMARK    2  A    between atoms: N1_3  and  C4_5 
REMARK    3  A    between atoms: N1_3  and  C11_18 
REMARK    4  A    between atoms: C4_5  and  C5_6 
REMARK    5  A    between atoms: C5_6  and  N2_7 
REMARK    6  A    between atoms: N2_7  and  C8_10 
REMARK    7  A    between atoms: C8_10  and  C9_11 
REMARK    8  A    between atoms: C9_11  and  N3_12 
REMARK    9  A    between atoms: N3_12  and  N4_14 
REMARK   10  A    between atoms: C14_21  and  N5_22 
ROOT
HETATM    1  N1  UNL     1       3.055  37.645   7.954  1.00  0.00    -0.065 N 
HETATM    2  C3  UNL     1       4.197  38.106   8.678  1.00  0.00     0.273 C 
ENDROOT
BRANCH   1   3
HETATM    3  C2  UNL     1       3.343  36.659   6.938  1.00  0.00     0.233 C 
HETATM    4  C1  UNL     1       3.721  35.309   7.424  1.00  0.00     0.035 C 
ENDBRANCH   1   3
BRANCH   1   5
HETATM    5  C4  UNL     1       2.153  36.968   8.891  1.00  0.00     0.265 C 
BRANCH   5   6
HETATM    6  C5  UNL     1       2.399  37.320  10.310  1.00  0.00     0.264 C 
BRANCH   6   7
HETATM    7  N2  UNL     1       2.419  36.174  11.199  1.00  0.00    -0.071 N 
HETATM    8  C6  UNL     1       1.839  36.508  12.492  1.00  0.00     0.272 C 
HETATM    9  C7  UNL     1       3.707  35.602  11.415  1.00  0.00     0.272 C 
BRANCH   7  10
HETATM   10  C8  UNL     1       1.612  35.120  10.567  1.00  0.00     0.275 C 
BRANCH  10  11
HETATM   11  C9  UNL     1       0.956  34.210  11.565  1.00  0.00     0.369 C 
BRANCH  11  12
HETATM   12  N3  UNL     1      -0.363  33.852  11.044  1.00  0.00     0.101 N 
HETATM   13  C10 UNL     1      -0.265  32.513  10.497  1.00  0.00     0.389 C 
HETATM   14  O1  UNL     1      -1.310  33.859  11.984  1.00  0.00    -0.043 OA
BRANCH  12  15
HETATM   15  N4  UNL     1      -0.753  34.749  10.032  1.00  0.00    -0.211 N 
ATOM     16  H42 UNL     1      -1.252  35.621  10.206  1.00  0.00     0.192 HD
ATOM     17  H41 UNL     1      -0.467  34.400   9.117  1.00  0.00     0.192 HD
ENDBRANCH  12  15
ENDBRANCH  11  12
ENDBRANCH  10  11
ENDBRANCH   7  10
ENDBRANCH   6   7
ENDBRANCH   5   6
ENDBRANCH   1   5
BRANCH   1  18
HETATM   18  C11 UNL     1       2.273  38.724   7.379  1.00  0.00     0.192 C 
HETATM   19  C12 UNL     1       1.167  38.329   6.497  1.00  0.00     0.035 C 
HETATM   20  C13 UNL     1       1.170  39.244   5.282  1.00  0.00     0.035 C 
HETATM   21  C14 UNL     1       2.176  40.312   5.548  1.00  0.00     0.187 C 
HETATM   22  C16 UNL     1       3.092  39.682   6.569  1.00  0.00     0.066 C 
BRANCH  21  23
HETATM   23  N5  UNL     1       2.902  40.710   4.357  1.00  0.00    -0.075 N 
HETATM   24  C15 UNL     1       4.283  41.027   4.653  1.00  0.00     0.267 C 
ATOM     25  H52 UNL     1       2.830  40.004   3.624  1.00  0.00     0.277 HD
ATOM     26  H51 UNL     1       2.437  41.482   3.879  1.00  0.00     0.277 HD
ENDBRANCH  21  23
ENDBRANCH   1  18
TORSDOF 10
ENDMDL
MODEL 2
REMARK VINA RESULT: -4.809503401      6.946     11.255
REMARK  10 active torsions:
REMARK  status: ('A' for Active; 'I' for Inactive)
REMARK    1  A    between atoms: C2_2  and  N1_3 
REMARK    2  A    between atoms: N1_3  and  C4_5 
REMARK    3  A    between atoms: N1_3  and  C11_18 
REMARK    4  A    between atoms: C4_5  and  C5_6 
REMARK    5  A    between atoms: C5_6  and  N2_7 
REMARK    6  A    between atoms: N2_7  and  C8_10 
REMARK    7  A    between atoms: C8_10  and  C9_11 
REMARK    8  A    between atoms: C9_11  and  N3_12 
REMARK    9  A    between atoms: N3_12  and  N4_14 
REMARK   10  A    between atoms: C14_21  and  N5_22 
ROOT
HETATM    1  N1  UNL     1      -0.898  25.861  10.028  1.00  0.00    -0.065 N 
HETATM    2  C3  UNL     1       0.144  25.039   9.500  1.00  0.00     0.273 C 
ENDROOT
BRANCH   1   3
HETATM    3  C2  UNL     1      -1.544  25.330  11.207  1.00  0.00     0.233 C 
HETATM    4  C1  UNL     1      -1.232  23.921  11.547  1.00  0.00     0.035 C 
ENDBRANCH   1   3
BRANCH   1   5
HETATM    5  C4  UNL     1      -0.312  27.134  10.461  1.00  0.00     0.265 C 
BRANCH   5   6
HETATM    6  C5  UNL     1      -0.266  27.294  11.934  1.00  0.00     0.264 C 
BRANCH   6   7
HETATM    7  N2  UNL     1       0.095  28.632  12.364  1.00  0.00    -0.071 N 
HETATM    8  C6  UNL     1       1.531  28.845  12.253  1.00  0.00     0.272 C 
HETATM    9  C7  UNL     1      -0.311  28.969  13.689  1.00  0.00     0.272 C 
BRANCH   7  10
HETATM   10  C8  UNL     1      -0.602  29.575  11.477  1.00  0.00     0.275 C 
BRANCH  10  11
HETATM   11  C9  UNL     1       0.203  30.809  11.190  1.00  0.00     0.369 C 
BRANCH  11  12
HETATM   12  N3  UNL     1      -0.707  31.954  11.219  1.00  0.00     0.101 N 
HETATM   13  C10 UNL     1      -0.162  32.917  12.158  1.00  0.00     0.389 C 
HETATM   14  O1  UNL     1      -0.835  32.545  10.031  1.00  0.00    -0.043 OA
BRANCH  12  15
HETATM   15  N4  UNL     1      -1.988  31.554  11.643  1.00  0.00    -0.211 N 
ATOM     16  H42 UNL     1      -2.497  30.765  11.246  1.00  0.00     0.192 HD
ATOM     17  H41 UNL     1      -2.322  32.161  12.391  1.00  0.00     0.192 HD
ENDBRANCH  12  15
ENDBRANCH  11  12
ENDBRANCH  10  11
ENDBRANCH   7  10
ENDBRANCH   6   7
ENDBRANCH   5   6
ENDBRANCH   1   5
BRANCH   1  18
HETATM   18  C11 UNL     1      -1.899  26.215   9.040  1.00  0.00     0.192 C 
HETATM   19  C12 UNL     1      -3.226  25.607   9.208  1.00  0.00     0.035 C 
HETATM   20  C13 UNL     1      -3.722  25.150   7.845  1.00  0.00     0.035 C 
HETATM   21  C14 UNL     1      -2.754  25.670   6.836  1.00  0.00     0.187 C 
HETATM   22  C16 UNL     1      -1.492  25.877   7.638  1.00  0.00     0.066 C 
BRANCH  21  23
HETATM   23  N5  UNL     1      -2.540  24.749   5.736  1.00  0.00    -0.075 N 
HETATM   24  C15 UNL     1      -1.355  25.089   4.977  1.00  0.00     0.267 C 
ATOM     25  H52 UNL     1      -2.510  23.783   6.060  1.00  0.00     0.277 HD
ATOM     26  H51 UNL     1      -3.362  24.689   5.135  1.00  0.00     0.277 HD
ENDBRANCH  21  23
ENDBRANCH   1  18
TORSDOF 10
ENDMDL
MODEL 3
REMARK VINA RESULT: -4.783773559      1.113      1.655
REMARK  10 active torsions:
REMARK  status: ('A' for Active; 'I' for Inactive)
REMARK    1  A    between atoms: C2_2  and  N1_3 
REMARK    2  A    between atoms: N1_3  and  C4_5 
REMARK    3  A    between atoms: N1_3  and  C11_18 
REMARK    4  A    between atoms: C4_5  and  C5_6 
REMARK    5  A    between atoms: C5_6  and  N2_7 
REMARK    6  A    between atoms: N2_7  and  C8_10 
REMARK    7  A    between atoms: C8_10  and  C9_11 
REMARK    8  A    between atoms: C9_11  and  N3_12 
REMARK    9  A    between atoms: N3_12  and  N4_14 
REMARK   10  A    between atoms: C14_21  and  N5_22 
ROOT
HETATM    1  N1  UNL     1       3.501  36.480   8.133  1.00  0.00    -0.065 N 
HETATM    2  C3  UNL     1       4.730  37.000   8.641  1.00  0.00     0.273 C 
ENDROOT
BRANCH   1   3
HETATM    3  C2  UNL     1       3.440  35.037   8.066  1.00  0.00     0.233 C 
HETATM    4  C1  UNL     1       3.790  34.426   6.761  1.00  0.00     0.035 C 
ENDBRANCH   1   3
BRANCH   1   5
HETATM    5  C4  UNL     1       2.420  36.861   9.049  1.00  0.00     0.265 C 
BRANCH   5   6
HETATM    6  C5  UNL     1       2.896  37.241  10.400  1.00  0.00     0.264 C 
BRANCH   6   7
HETATM    7  N2  UNL     1       2.412  36.371  11.454  1.00  0.00    -0.071 N 
HETATM    8  C6  UNL     1       2.103  37.130  12.657  1.00  0.00     0.272 C 
HETATM    9  C7  UNL     1       3.293  35.305  11.807  1.00  0.00     0.272 C 
BRANCH   7  10
HETATM   10  C8  UNL     1       1.184  35.730  10.959  1.00  0.00     0.275 C 
BRANCH  10  11
HETATM   11  C9  UNL     1       0.924  34.397  11.597  1.00  0.00     0.369 C 
BRANCH  11  12
HETATM   12  N3  UNL     1      -0.359  33.904  11.096  1.00  0.00     0.101 N 
HETATM   13  C10 UNL     1      -0.155  32.540  10.649  1.00  0.00     0.389 C 
HETATM   14  O1  UNL     1      -1.314  33.908  12.027  1.00  0.00    -0.043 OA
BRANCH  12  15
HETATM   15  N4  UNL     1      -0.803  34.693  10.019  1.00  0.00    -0.211 N 
ATOM     16  H42 UNL     1      -1.500  35.432  10.105  1.00  0.00     0.192 HD
ATOM     17  H41 UNL     1      -0.331  34.418   9.157  1.00  0.00     0.192 HD
ENDBRANCH  12  15
ENDBRANCH  11  12
ENDBRANCH  10  11
ENDBRANCH   7  10
ENDBRANCH   6   7
ENDBRANCH   5   6
ENDBRANCH   1   5
BRANCH   1  18
HETATM   18  C11 UNL     1       3.133  37.044   6.848  1.00  0.00     0.192 C 
HETATM   19  C12 UNL     1       3.991  38.121   6.338  1.00  0.00     0.035 C 
HETATM   20  C13 UNL     1       3.102  39.214   5.764  1.00  0.00     0.035 C 
HETATM   21  C14 UNL     1       1.709  38.683   5.765  1.00  0.00     0.187 C 
HETATM   22  C16 UNL     1       1.746  37.610   6.827  1.00  0.00     0.066 C 
BRANCH  21  23
HETATM   23  N5  UNL     1       0.720  39.700   6.070  1.00  0.00    -0.075 N 
HETATM   24  C15 UNL     1       0.313  40.423   4.883  1.00  0.00     0.267 C 
ATOM     25  H52 UNL     1      -0.082  39.304   6.559  1.00  0.00     0.277 HD
ATOM     26  H51 UNL     1       1.051  40.335   6.797  1.00  0.00     0.277 HD
ENDBRANCH  21  23
ENDBRANCH   1  18
TORSDOF 10
ENDMDL
MODEL 4
REMARK VINA RESULT: -4.757471369      1.133      1.500
REMARK  10 active torsions:
REMARK  status: ('A' for Active; 'I' for Inactive)
REMARK    1  A    between atoms: C2_2  and  N1_3 
REMARK    2  A    between atoms: N1_3  and  C4_5 
REMARK    3  A    between atoms: N1_3  and  C11_18 
REMARK    4  A    between atoms: C4_5  and  C5_6 
REMARK    5  A    between atoms: C5_6  and  N2_7 
REMARK    6  A    between atoms: N2_7  and  C8_10 
REMARK    7  A    between atoms: C8_10  and  C9_11 
REMARK    8  A    between atoms: C9_11  and  N3_12 
REMARK    9  A    between atoms: N3_12  and  N4_14 
REMARK   10  A    between atoms: C14_21  and  N5_22 
ROOT
HETATM    1  N1  UNL     1       2.885  38.271   8.315  1.00  0.00    -0.065 N 
HETATM    2  C3  UNL     1       3.144  38.926   9.558  1.00  0.00     0.273 C 
ENDROOT
BRANCH   1   3
HETATM    3  C2  UNL     1       4.068  37.870   7.589  1.00  0.00     0.233 C 
HETATM    4  C1  UNL     1       5.348  37.928   8.336  1.00  0.00     0.035 C 
ENDBRANCH   1   3
BRANCH   1   5
HETATM    5  C4  UNL     1       2.169  37.021   8.588  1.00  0.00     0.265 C 
BRANCH   5   6
HETATM    6  C5  UNL     1       2.161  36.644  10.022  1.00  0.00     0.264 C 
BRANCH   6   7
HETATM    7  N2  UNL     1       2.840  35.392  10.299  1.00  0.00    -0.071 N 
HETATM    8  C6  UNL     1       4.095  35.624  10.999  1.00  0.00     0.272 C 
HETATM    9  C7  UNL     1       3.104  34.584   9.154  1.00  0.00     0.272 C 
BRANCH   7  10
HETATM   10  C8  UNL     1       1.949  34.596  11.156  1.00  0.00     0.275 C 
BRANCH  10  11
HETATM   11  C9  UNL     1       1.215  33.527  10.400  1.00  0.00     0.369 C 
BRANCH  11  12
HETATM   12  N3  UNL     1      -0.194  33.594  10.786  1.00  0.00     0.101 N 
HETATM   13  C10 UNL     1      -0.245  33.616  12.236  1.00  0.00     0.389 C 
HETATM   14  O1  UNL     1      -0.807  34.684  10.323  1.00  0.00    -0.043 OA
BRANCH  12  15
HETATM   15  N4  UNL     1      -0.891  32.470  10.306  1.00  0.00    -0.211 N 
ATOM     16  H42 UNL     1      -0.727  31.517  10.631  1.00  0.00     0.192 HD
ATOM     17  H41 UNL     1      -1.571  32.747   9.598  1.00  0.00     0.192 HD
ENDBRANCH  12  15
ENDBRANCH  11  12
ENDBRANCH  10  11
ENDBRANCH   7  10
ENDBRANCH   6   7
ENDBRANCH   5   6
ENDBRANCH   1   5
BRANCH   1  18
HETATM   18  C11 UNL     1       2.011  39.032   7.442  1.00  0.00     0.192 C 
HETATM   19  C12 UNL     1       1.254  38.263   6.446  1.00  0.00     0.035 C 
HETATM   20  C13 UNL     1       1.302  39.010   5.122  1.00  0.00     0.035 C 
HETATM   21  C14 UNL     1       1.936  40.332   5.395  1.00  0.00     0.187 C 
HETATM   22  C16 UNL     1       2.730  40.084   6.655  1.00  0.00     0.066 C 
BRANCH  21  23
HETATM   23  N5  UNL     1       2.786  40.783   4.310  1.00  0.00    -0.075 N 
HETATM   24  C15 UNL     1       4.165  40.916   4.731  1.00  0.00     0.267 C 
ATOM     25  H52 UNL     1       2.702  40.175   3.495  1.00  0.00     0.277 HD
ATOM     26  H51 UNL     1       2.438  41.649   3.899  1.00  0.00     0.277 HD
ENDBRANCH  21  23
ENDBRANCH   1  18
TORSDOF 10
ENDMDL
MODEL 5
REMARK VINA RESULT: -4.755799372      1.122      1.345
REMARK  10 active torsions:
REMARK  status: ('A' for Active; 'I' for Inactive)
REMARK    1  A    between atoms: C2_2  and  N1_3 
REMARK    2  A    between atoms: N1_3  and  C4_5 
REMARK    3  A    between atoms: N1_3  and  C11_18 
REMARK    4  A    between atoms: C4_5  and  C5_6 
REMARK    5  A    between atoms: C5_6  and  N2_7 
REMARK    6  A    between atoms: N2_7  and  C8_10 
REMARK    7  A    between atoms: C8_10  and  C9_11 
REMARK    8  A    between atoms: C9_11  and  N3_12 
REMARK    9  A    between atoms: N3_12  and  N4_14 
REMARK   10  A    between atoms: C14_21  and  N5_22 
ROOT
HETATM    1  N1  UNL     1       3.003  37.907   8.429  1.00  0.00    -0.065 N 
HETATM    2  C3  UNL     1       3.272  38.492   9.704  1.00  0.00     0.273 C 
ENDROOT
BRANCH   1   3
HETATM    3  C2  UNL     1       4.179  37.570   7.661  1.00  0.00     0.233 C 
HETATM    4  C1  UNL     1       4.415  36.125   7.424  1.00  0.00     0.035 C 
ENDBRANCH   1   3
BRANCH   1   5
HETATM    5  C4  UNL     1       2.312  36.630   8.639  1.00  0.00     0.265 C 
BRANCH   5   6
HETATM    6  C5  UNL     1       1.549  36.571   9.909  1.00  0.00     0.264 C 
BRANCH   6   7
HETATM    7  N2  UNL     1       1.556  35.262  10.533  1.00  0.00    -0.071 N 
HETATM    8  C6  UNL     1       1.962  35.351  11.927  1.00  0.00     0.272 C 
HETATM    9  C7  UNL     1       2.375  34.291   9.884  1.00  0.00     0.272 C 
BRANCH   7  10
HETATM   10  C8  UNL     1       0.182  34.741  10.463  1.00  0.00     0.275 C 
BRANCH  10  11
HETATM   11  C9  UNL     1       0.127  33.240  10.487  1.00  0.00     0.369 C 
BRANCH  11  12
HETATM   12  N3  UNL     1      -0.683  32.842  11.638  1.00  0.00     0.101 N 
HETATM   13  C10 UNL     1       0.221  32.307  12.639  1.00  0.00     0.389 C 
HETATM   14  O1  UNL     1      -1.357  33.860  12.174  1.00  0.00    -0.043 OA
BRANCH  12  15
HETATM   15  N4  UNL     1      -1.614  31.854  11.267  1.00  0.00    -0.211 N 
ATOM     16  H42 UNL     1      -2.447  32.039  10.708  1.00  0.00     0.192 HD
ATOM     17  H41 UNL     1      -1.336  30.944  11.635  1.00  0.00     0.192 HD
ENDBRANCH  12  15
ENDBRANCH  11  12
ENDBRANCH  10  11
ENDBRANCH   7  10
ENDBRANCH   6   7
ENDBRANCH   5   6
ENDBRANCH   1   5
BRANCH   1  18
HETATM   18  C11 UNL     1       2.101  38.703   7.617  1.00  0.00     0.192 C 
HETATM   19  C12 UNL     1       1.355  37.984   6.575  1.00  0.00     0.035 C 
HETATM   20  C13 UNL     1       1.372  38.823   5.307  1.00  0.00     0.035 C 
HETATM   21  C14 UNL     1       1.974  40.139   5.666  1.00  0.00     0.187 C 
HETATM   22  C16 UNL     1       2.785  39.825   6.900  1.00  0.00     0.066 C 
BRANCH  21  23
HETATM   23  N5  UNL     1       2.802  40.686   4.609  1.00  0.00    -0.075 N 
HETATM   24  C15 UNL     1       4.195  40.751   5.000  1.00  0.00     0.267 C 
ATOM     25  H52 UNL     1       2.683  40.169   3.738  1.00  0.00     0.277 HD
ATOM     26  H51 UNL     1       2.460  41.597   4.301  1.00  0.00     0.277 HD
ENDBRANCH  21  23
ENDBRANCH   1  18
TORSDOF 10
ENDMDL
