MODEL 1
REMARK VINA RESULT: -5.058701911      0.000      0.000
REMARK  14 active torsions:
REMARK  status: ('A' for Active; 'I' for Inactive)
REMARK    1  A    between atoms: C2_2  and  N1_3 
REMARK    2  A    between atoms: N1_3  and  C3_4 
REMARK    3  A    between atoms: C3_4  and  C4_5 
REMARK    4  A    between atoms: C5_6  and  C6_7 
REMARK    5  A    between atoms: C7_8  and  C8_9 
REMARK    6  A    between atoms: C9_11  and  C10_12 
REMARK    7  A    between atoms: C10_12  and  C11_13 
REMARK    8  A    between atoms: C11_13  and  C12_14 
REMARK    9  A    between atoms: C12_14  and  C13_15 
REMARK   10  A    between atoms: C13_15  and  C14_16 
REMARK   11  A    between atoms: C14_16  and  C15_17 
REMARK   12  A    between atoms: C15_17  and  C16_18 
REMARK   13  A    between atoms: C16_18  and  N2_19 
REMARK   14  A    between atoms: C18_24  and  O2_25 
ROOT
HETATM    1  C8  UNL     1      -0.141  25.383   9.366  1.00  0.00     0.230 A 
HETATM    2  O1  UNL     1       0.699  25.337   8.262  1.00  0.00    -0.362 OA
HETATM    3  C9  UNL     1      -0.655  25.319   7.942  1.00  0.00     0.164 A 
ENDROOT
BRANCH   1   4
HETATM    4  C7  UNL     1      -0.273  26.671  10.082  1.00  0.00    -0.058 C 
HETATM    5  C6  UNL     1      -0.389  27.731  10.649  1.00  0.00    -0.012 C 
BRANCH   5   6
HETATM    6  C5  UNL     1      -0.528  28.985  11.292  1.00  0.00    -0.013 C 
HETATM    7  C4  UNL     1      -0.640  30.077  11.831  1.00  0.00    -0.065 C 
BRANCH   7   8
HETATM    8  C3  UNL     1      -0.782  31.373  12.445  1.00  0.00     0.332 C 
BRANCH   8   9
HETATM    9  N1  UNL     1       0.052  32.356  11.844  1.00  0.00    -0.053 N 
HETATM   10  C17 UNL     1      -0.223  33.729  12.099  1.00  0.00     0.271 C 
HETATM   11  C18 UNL     1      -0.040  34.085  10.626  1.00  0.00     0.170 C 
HETATM   12  C19 UNL     1      -0.210  32.594  10.437  1.00  0.00     0.271 C 
BRANCH   9  13
HETATM   13  C2  UNL     1       1.459  31.987  12.002  1.00  0.00     0.234 C 
HETATM   14  C1  UNL     1       1.836  32.334  13.431  1.00  0.00     0.035 C 
ENDBRANCH   9  13
BRANCH  11  15
HETATM   15  O2  UNL     1      -1.051  34.833  10.073  1.00  0.00    -0.392 OA
ATOM     16  H2  UNL     1      -1.886  34.389   9.991  1.00  0.00     0.210 HD
ENDBRANCH  11  15
ENDBRANCH   8   9
ENDBRANCH   7   8
ENDBRANCH   5   6
ENDBRANCH   1   4
BRANCH   3  17
HETATM   17  C10 UNL     1      -1.273  24.017   7.479  1.00  0.00     0.035 C 
BRANCH  17  18
HETATM   18  C11 UNL     1      -2.634  24.341   6.924  1.00  0.00     0.003 C 
BRANCH  18  19
HETATM   19  C12 UNL     1      -3.137  25.676   7.516  1.00  0.00     0.000 C 
BRANCH  19  20
HETATM   20  C13 UNL     1      -4.249  25.362   8.463  1.00  0.00     0.000 C 
BRANCH  20  21
HETATM   21  C14 UNL     1      -3.987  25.460   9.905  1.00  0.00     0.002 C 
BRANCH  21  22
HETATM   22  C15 UNL     1      -3.397  24.357  10.667  1.00  0.00     0.027 C 
BRANCH  22  23
HETATM   23  C16 UNL     1      -3.519  24.294  12.133  1.00  0.00     0.229 C 
BRANCH  23  24
HETATM   24  N2  UNL     1      -4.686  24.981  12.657  1.00  0.00    -0.079 N 
ATOM     25  H23 UNL     1      -4.480  25.966  12.819  1.00  0.00     0.274 HD
ATOM     26  H22 UNL     1      -5.402  25.071  11.937  1.00  0.00     0.274 HD
ATOM     27  H21 UNL     1      -5.074  24.553  13.498  1.00  0.00     0.274 HD
ENDBRANCH  23  24
ENDBRANCH  22  23
ENDBRANCH  21  22
ENDBRANCH  20  21
ENDBRANCH  19  20
ENDBRANCH  18  19
ENDBRANCH  17  18
ENDBRANCH   3  17
TORSDOF 14
ENDMDL
MODEL 2
REMARK VINA RESULT: -4.952836026      5.461      8.675
REMARK  14 active torsions:
REMARK  status: ('A' for Active; 'I' for Inactive)
REMARK    1  A    between atoms: C2_2  and  N1_3 
REMARK    2  A    between atoms: N1_3  and  C3_4 
REMARK    3  A    between atoms: C3_4  and  C4_5 
REMARK    4  A    between atoms: C5_6  and  C6_7 
REMARK    5  A    between atoms: C7_8  and  C8_9 
REMARK    6  A    between atoms: C9_11  and  C10_12 
REMARK    7  A    between atoms: C10_12  and  C11_13 
REMARK    8  A    between atoms: C11_13  and  C12_14 
REMARK    9  A    between atoms: C12_14  and  C13_15 
REMARK   10  A    between atoms: C13_15  and  C14_16 
REMARK   11  A    between atoms: C14_16  and  C15_17 
REMARK   12  A    between atoms: C15_17  and  C16_18 
REMARK   13  A    between atoms: C16_18  and  N2_19 
REMARK   14  A    between atoms: C18_24  and  O2_25 
ROOT
HETATM    1  C8  UNL     1       2.608  31.823   7.823  1.00  0.00     0.230 A 
HETATM    2  O1  UNL     1       1.300  31.392   7.640  1.00  0.00    -0.362 OA
HETATM    3  C9  UNL     1       1.643  31.610   8.971  1.00  0.00     0.164 A 
ENDROOT
BRANCH   1   4
HETATM    4  C7  UNL     1       2.935  33.218   7.456  1.00  0.00    -0.058 C 
HETATM    5  C6  UNL     1       3.182  34.364   7.163  1.00  0.00    -0.012 C 
BRANCH   5   6
HETATM    6  C5  UNL     1       3.449  35.712   6.822  1.00  0.00    -0.013 C 
HETATM    7  C4  UNL     1       3.665  36.875   6.512  1.00  0.00    -0.065 C 
BRANCH   7   8
HETATM    8  C3  UNL     1       3.895  38.250   6.147  1.00  0.00     0.332 C 
BRANCH   8   9
HETATM    9  N1  UNL     1       2.708  39.033   6.194  1.00  0.00    -0.053 N 
HETATM   10  C17 UNL     1       1.620  38.669   5.351  1.00  0.00     0.271 C 
HETATM   11  C18 UNL     1       1.393  40.122   4.942  1.00  0.00     0.170 C 
HETATM   12  C19 UNL     1       2.791  40.300   5.491  1.00  0.00     0.271 C 
BRANCH   9  13
HETATM   13  C2  UNL     1       2.330  39.292   7.582  1.00  0.00     0.234 C 
HETATM   14  C1  UNL     1       3.393  40.213   8.152  1.00  0.00     0.035 C 
ENDBRANCH   9  13
BRANCH  11  15
HETATM   15  O2  UNL     1       1.296  40.342   3.589  1.00  0.00    -0.392 OA
ATOM     16  H2  UNL     1       1.441  41.239   3.312  1.00  0.00     0.210 HD
ENDBRANCH  11  15
ENDBRANCH   8   9
ENDBRANCH   7   8
ENDBRANCH   5   6
ENDBRANCH   1   4
BRANCH   3  17
HETATM   17  C10 UNL     1       1.873  30.410   9.866  1.00  0.00     0.035 C 
BRANCH  17  18
HETATM   18  C11 UNL     1       0.641  30.241  10.714  1.00  0.00     0.003 C 
BRANCH  18  19
HETATM   19  C12 UNL     1       1.009  30.390  12.207  1.00  0.00     0.000 C 
BRANCH  19  20
HETATM   20  C13 UNL     1      -0.156  31.019  12.899  1.00  0.00     0.000 C 
BRANCH  20  21
HETATM   21  C14 UNL     1      -0.986  31.971  12.148  1.00  0.00     0.002 C 
BRANCH  21  22
HETATM   22  C15 UNL     1      -0.733  33.413  12.171  1.00  0.00     0.027 C 
BRANCH  22  23
HETATM   23  C16 UNL     1       0.038  34.069  11.101  1.00  0.00     0.229 C 
BRANCH  23  24
HETATM   24  N2  UNL     1      -0.786  34.719  10.098  1.00  0.00    -0.079 N 
ATOM     25  H23 UNL     1      -0.826  35.724  10.263  1.00  0.00     0.274 HD
ATOM     26  H22 UNL     1      -0.320  34.712   9.191  1.00  0.00     0.274 HD
ATOM     27  H21 UNL     1      -1.727  34.331  10.020  1.00  0.00     0.274 HD
ENDBRANCH  23  24
ENDBRANCH  22  23
ENDBRANCH  21  22
ENDBRANCH  20  21
ENDBRANCH  19  20
ENDBRANCH  18  19
ENDBRANCH  17  18
ENDBRANCH   3  17
TORSDOF 14
ENDMDL
MODEL 3
REMARK VINA RESULT: -4.843648042      5.425      8.829
REMARK  14 active torsions:
REMARK  status: ('A' for Active; 'I' for Inactive)
REMARK    1  A    between atoms: C2_2  and  N1_3 
REMARK    2  A    between atoms: N1_3  and  C3_4 
REMARK    3  A    between atoms: C3_4  and  C4_5 
REMARK    4  A    between atoms: C5_6  and  C6_7 
REMARK    5  A    between atoms: C7_8  and  C8_9 
REMARK    6  A    between atoms: C9_11  and  C10_12 
REMARK    7  A    between atoms: C10_12  and  C11_13 
REMARK    8  A    between atoms: C11_13  and  C12_14 
REMARK    9  A    between atoms: C12_14  and  C13_15 
REMARK   10  A    between atoms: C13_15  and  C14_16 
REMARK   11  A    between atoms: C14_16  and  C15_17 
REMARK   12  A    between atoms: C15_17  and  C16_18 
REMARK   13  A    between atoms: C16_18  and  N2_19 
REMARK   14  A    between atoms: C18_24  and  O2_25 
ROOT
HETATM    1  C8  UNL     1       0.457  31.819   9.949  1.00  0.00     0.230 A 
HETATM    2  O1  UNL     1      -0.707  32.491   9.601  1.00  0.00    -0.362 OA
HETATM    3  C9  UNL     1       0.153  33.230  10.408  1.00  0.00     0.164 A 
ENDROOT
BRANCH   1   4
HETATM    4  C7  UNL     1       1.495  31.647   8.909  1.00  0.00    -0.058 C 
HETATM    5  C6  UNL     1       2.356  31.520   8.071  1.00  0.00    -0.012 C 
BRANCH   5   6
HETATM    6  C5  UNL     1       3.377  31.389   7.099  1.00  0.00    -0.013 C 
HETATM    7  C4  UNL     1       4.245  31.267   6.247  1.00  0.00    -0.065 C 
BRANCH   7   8
HETATM    8  C3  UNL     1       5.253  31.133   5.225  1.00  0.00     0.332 C 
BRANCH   8   9
HETATM    9  N1  UNL     1       5.112  29.932   4.474  1.00  0.00    -0.053 N 
HETATM   10  C17 UNL     1       5.782  29.831   3.223  1.00  0.00     0.271 C 
HETATM   11  C18 UNL     1       4.543  29.236   2.558  1.00  0.00     0.170 C 
HETATM   12  C19 UNL     1       3.847  29.800   3.776  1.00  0.00     0.271 C 
BRANCH   9  13
HETATM   13  C2  UNL     1       5.290  28.770   5.344  1.00  0.00     0.234 C 
HETATM   14  C1  UNL     1       6.786  28.543   5.457  1.00  0.00     0.035 C 
ENDBRANCH   9  13
BRANCH  11  15
HETATM   15  O2  UNL     1       4.167  29.831   1.378  1.00  0.00    -0.392 OA
ATOM     16  H2  UNL     1       4.509  29.425   0.591  1.00  0.00     0.210 HD
ENDBRANCH  11  15
ENDBRANCH   8   9
ENDBRANCH   7   8
ENDBRANCH   5   6
ENDBRANCH   1   4
BRANCH   3  17
HETATM   17  C10 UNL     1      -0.211  33.430  11.864  1.00  0.00     0.035 C 
BRANCH  17  18
HETATM   18  C11 UNL     1       0.876  34.265  12.486  1.00  0.00     0.003 C 
BRANCH  18  19
HETATM   19  C12 UNL     1       2.180  33.442  12.579  1.00  0.00     0.000 C 
BRANCH  19  20
HETATM   20  C13 UNL     1       1.984  32.402  13.634  1.00  0.00     0.000 C 
BRANCH  20  21
HETATM   21  C14 UNL     1       1.931  30.992  13.225  1.00  0.00     0.002 C 
BRANCH  21  22
HETATM   22  C15 UNL     1       0.861  30.093  13.664  1.00  0.00     0.027 C 
BRANCH  22  23
HETATM   23  C16 UNL     1      -0.014  29.418  12.691  1.00  0.00     0.229 C 
BRANCH  23  24
HETATM   24  N2  UNL     1      -1.368  29.941  12.656  1.00  0.00    -0.079 N 
ATOM     25  H23 UNL     1      -1.365  30.953  12.775  1.00  0.00     0.274 HD
ATOM     26  H22 UNL     1      -1.752  29.880  11.713  1.00  0.00     0.274 HD
ATOM     27  H21 UNL     1      -1.998  29.502  13.328  1.00  0.00     0.274 HD
ENDBRANCH  23  24
ENDBRANCH  22  23
ENDBRANCH  21  22
ENDBRANCH  20  21
ENDBRANCH  19  20
ENDBRANCH  18  19
ENDBRANCH  17  18
ENDBRANCH   3  17
TORSDOF 14
ENDMDL
MODEL 4
REMARK VINA RESULT: -4.774425948      5.572      9.043
REMARK  14 active torsions:
REMARK  status: ('A' for Active; 'I' for Inactive)
REMARK    1  A    between atoms: C2_2  and  N1_3 
REMARK    2  A    between atoms: N1_3  and  C3_4 
REMARK    3  A    between atoms: C3_4  and  C4_5 
REMARK    4  A    between atoms: C5_6  and  C6_7 
REMARK    5  A    between atoms: C7_8  and  C8_9 
REMARK    6  A    between atoms: C9_11  and  C10_12 
REMARK    7  A    between atoms: C10_12  and  C11_13 
REMARK    8  A    between atoms: C11_13  and  C12_14 
REMARK    9  A    between atoms: C12_14  and  C13_15 
REMARK   10  A    between atoms: C13_15  and  C14_16 
REMARK   11  A    between atoms: C14_16  and  C15_17 
REMARK   12  A    between atoms: C15_17  and  C16_18 
REMARK   13  A    between atoms: C16_18  and  N2_19 
REMARK   14  A    between atoms: C18_24  and  O2_25 
ROOT
HETATM    1  C8  UNL     1       2.511  31.871   7.979  1.00  0.00     0.230 A 
HETATM    2  O1  UNL     1       1.238  31.411   7.672  1.00  0.00    -0.362 OA
HETATM    3  C9  UNL     1       1.425  31.697   9.021  1.00  0.00     0.164 A 
ENDROOT
BRANCH   1   4
HETATM    4  C7  UNL     1       2.863  33.251   7.582  1.00  0.00    -0.058 C 
HETATM    5  C6  UNL     1       3.132  34.386   7.266  1.00  0.00    -0.012 C 
BRANCH   5   6
HETATM    6  C5  UNL     1       3.423  35.722   6.899  1.00  0.00    -0.013 C 
HETATM    7  C4  UNL     1       3.665  36.873   6.564  1.00  0.00    -0.065 C 
BRANCH   7   8
HETATM    8  C3  UNL     1       3.926  38.233   6.163  1.00  0.00     0.332 C 
BRANCH   8   9
HETATM    9  N1  UNL     1       2.754  39.040   6.180  1.00  0.00    -0.053 N 
HETATM   10  C17 UNL     1       1.681  38.699   5.311  1.00  0.00     0.271 C 
HETATM   11  C18 UNL     1       1.495  40.157   4.896  1.00  0.00     0.170 C 
HETATM   12  C19 UNL     1       2.882  40.305   5.480  1.00  0.00     0.271 C 
BRANCH   9  13
HETATM   13  C2  UNL     1       2.347  39.308   7.559  1.00  0.00     0.234 C 
HETATM   14  C1  UNL     1       3.397  40.234   8.145  1.00  0.00     0.035 C 
ENDBRANCH   9  13
BRANCH  11  15
HETATM   15  O2  UNL     1       1.437  40.378   3.540  1.00  0.00    -0.392 OA
ATOM     16  H2  UNL     1       0.772  40.995   3.258  1.00  0.00     0.210 HD
ENDBRANCH  11  15
ENDBRANCH   8   9
ENDBRANCH   7   8
ENDBRANCH   5   6
ENDBRANCH   1   4
BRANCH   3  17
HETATM   17  C10 UNL     1       1.566  30.546   9.994  1.00  0.00     0.035 C 
BRANCH  17  18
HETATM   18  C11 UNL     1       0.416  30.636  10.961  1.00  0.00     0.003 C 
BRANCH  18  19
HETATM   19  C12 UNL     1      -0.338  31.969  10.756  1.00  0.00     0.000 C 
BRANCH  19  20
HETATM   20  C13 UNL     1      -0.473  32.623  12.092  1.00  0.00     0.000 C 
BRANCH  20  21
HETATM   21  C14 UNL     1       0.086  33.971  12.270  1.00  0.00     0.002 C 
BRANCH  21  22
HETATM   22  C15 UNL     1       1.274  34.424  11.544  1.00  0.00     0.027 C 
BRANCH  22  23
HETATM   23  C16 UNL     1       1.170  35.406  10.452  1.00  0.00     0.229 C 
BRANCH  23  24
HETATM   24  N2  UNL     1      -0.170  35.541   9.907  1.00  0.00    -0.079 N 
ATOM     25  H23 UNL     1      -0.165  35.382   8.900  1.00  0.00     0.274 HD
ATOM     26  H22 UNL     1      -0.756  34.760  10.201  1.00  0.00     0.274 HD
ATOM     27  H21 UNL     1      -0.619  36.429  10.128  1.00  0.00     0.274 HD
ENDBRANCH  23  24
ENDBRANCH  22  23
ENDBRANCH  21  22
ENDBRANCH  20  21
ENDBRANCH  19  20
ENDBRANCH  18  19
ENDBRANCH  17  18
ENDBRANCH   3  17
TORSDOF 14
ENDMDL
MODEL 5
REMARK VINA RESULT: -4.717056429      6.372     10.024
REMARK  14 active torsions:
REMARK  status: ('A' for Active; 'I' for Inactive)
REMARK    1  A    between atoms: C2_2  and  N1_3 
REMARK    2  A    between atoms: N1_3  and  C3_4 
REMARK    3  A    between atoms: C3_4  and  C4_5 
REMARK    4  A    between atoms: C5_6  and  C6_7 
REMARK    5  A    between atoms: C7_8  and  C8_9 
REMARK    6  A    between atoms: C9_11  and  C10_12 
REMARK    7  A    between atoms: C10_12  and  C11_13 
REMARK    8  A    between atoms: C11_13  and  C12_14 
REMARK    9  A    between atoms: C12_14  and  C13_15 
REMARK   10  A    between atoms: C13_15  and  C14_16 
REMARK   11  A    between atoms: C14_16  and  C15_17 
REMARK   12  A    between atoms: C15_17  and  C16_18 
REMARK   13  A    between atoms: C16_18  and  N2_19 
REMARK   14  A    between atoms: C18_24  and  O2_25 
ROOT
HETATM    1  C8  UNL     1       0.449  31.848  10.031  1.00  0.00     0.230 A 
HETATM    2  O1  UNL     1      -0.761  32.434   9.684  1.00  0.00    -0.362 OA
HETATM    3  C9  UNL     1       0.084  33.268  10.411  1.00  0.00     0.164 A 
ENDROOT
BRANCH   1   4
HETATM    4  C7  UNL     1       1.460  31.663   8.968  1.00  0.00    -0.058 C 
HETATM    5  C6  UNL     1       2.300  31.526   8.109  1.00  0.00    -0.012 C 
BRANCH   5   6
HETATM    6  C5  UNL     1       3.295  31.384   7.113  1.00  0.00    -0.013 C 
HETATM    7  C4  UNL     1       4.151  31.281   6.246  1.00  0.00    -0.065 C 
BRANCH   7   8
HETATM    8  C3  UNL     1       5.170  31.182   5.231  1.00  0.00     0.332 C 
BRANCH   8   9
HETATM    9  N1  UNL     1       5.080  29.974   4.484  1.00  0.00    -0.053 N 
HETATM   10  C17 UNL     1       5.762  29.894   3.237  1.00  0.00     0.271 C 
HETATM   11  C18 UNL     1       4.551  29.248   2.566  1.00  0.00     0.170 C 
HETATM   12  C19 UNL     1       3.826  29.791   3.778  1.00  0.00     0.271 C 
BRANCH   9  13
HETATM   13  C2  UNL     1       5.296  28.823   5.360  1.00  0.00     0.234 C 
HETATM   14  C1  UNL     1       6.798  28.701   5.547  1.00  0.00     0.035 C 
ENDBRANCH   9  13
BRANCH  11  15
HETATM   15  O2  UNL     1       4.161  29.825   1.382  1.00  0.00    -0.392 OA
ATOM     16  H2  UNL     1       4.823  29.840   0.700  1.00  0.00     0.210 HD
ENDBRANCH  11  15
ENDBRANCH   8   9
ENDBRANCH   7   8
ENDBRANCH   5   6
ENDBRANCH   1   4
BRANCH   3  17
HETATM   17  C10 UNL     1      -0.244  33.543  11.863  1.00  0.00     0.035 C 
BRANCH  17  18
HETATM   18  C11 UNL     1       0.727  34.585  12.350  1.00  0.00     0.003 C 
BRANCH  18  19
HETATM   19  C12 UNL     1       2.150  33.986  12.413  1.00  0.00     0.000 C 
BRANCH  19  20
HETATM   20  C13 UNL     1       3.063  34.911  11.677  1.00  0.00     0.000 C 
BRANCH  20  21
HETATM   21  C14 UNL     1       3.596  34.480  10.377  1.00  0.00     0.002 C 
BRANCH  21  22
HETATM   22  C15 UNL     1       3.116  35.044   9.113  1.00  0.00     0.027 C 
BRANCH  22  23
HETATM   23  C16 UNL     1       3.926  34.958   7.885  1.00  0.00     0.229 C 
BRANCH  23  24
HETATM   24  N2  UNL     1       3.151  35.065   6.662  1.00  0.00    -0.079 N 
ATOM     25  H23 UNL     1       3.281  34.237   6.081  1.00  0.00     0.274 HD
ATOM     26  H22 UNL     1       2.154  34.981   6.860  1.00  0.00     0.274 HD
ATOM     27  H21 UNL     1       3.340  35.912   6.126  1.00  0.00     0.274 HD
ENDBRANCH  23  24
ENDBRANCH  22  23
ENDBRANCH  21  22
ENDBRANCH  20  21
ENDBRANCH  19  20
ENDBRANCH  18  19
ENDBRANCH  17  18
ENDBRANCH   3  17
TORSDOF 14
ENDMDL
