MODEL 1
REMARK VINA RESULT: -7.613283473      0.000      0.000
REMARK  4 active torsions:
REMARK  status: ('A' for Active; 'I' for Inactive)
REMARK    1  A    between atoms: C1_2  and  C2_4 
REMARK    2  A    between atoms: C2_4  and  N2_5 
REMARK    3  A    between atoms: N2_5  and  N3_7 
REMARK       I    between atoms: N3_7  and  C3_9 
REMARK    4  A    between atoms: C3_9  and  C4_11 
ROOT
HETATM    1  N3  UNL     1      21.043  -3.147  12.400  1.00  0.00    -0.266 N 
ATOM      2  H3  UNL     1      20.965  -4.065  12.838  1.00  0.00     0.190 HD
HETATM    3  C3  UNL     1      22.019  -3.002  11.399  1.00  0.00     0.270 C 
HETATM    4  O2  UNL     1      22.226  -1.916  10.773  1.00  0.00    -0.266 OA
ENDROOT
BRANCH   1   5
HETATM    5  N2  UNL     1      20.191  -2.177  12.844  1.00  0.00    -0.304 N 
ATOM      6  H2  UNL     1      20.500  -1.206  12.881  1.00  0.00     0.186 HD
BRANCH   5   7
HETATM    7  C2  UNL     1      18.888  -2.516  13.251  1.00  0.00     0.177 C 
BRANCH   7   8
HETATM    8  C1  UNL     1      17.925  -2.141  12.167  1.00  0.00     0.271 C 
HETATM    9  N1  UNL     1      18.001  -2.717  10.871  1.00  0.00    -0.057 NA
HETATM   10  O1  UNL     1      17.043  -1.300  12.431  1.00  0.00    -0.270 OA
ENDBRANCH   7   8
ENDBRANCH   5   7
ENDBRANCH   1   5
BRANCH   3  11
HETATM   11  C4  UNL     1      22.885  -4.111  10.994  1.00  0.00     0.033 A 
HETATM   12  C5  UNL     1      22.892  -5.329  11.675  1.00  0.00     0.017 A 
HETATM   13  C6  UNL     1      23.704  -6.377  11.303  1.00  0.00     0.001 A 
HETATM   14  C7  UNL     1      24.549  -6.234  10.219  1.00  0.00     0.000 A 
HETATM   15  C8  UNL     1      24.566  -5.036   9.522  1.00  0.00     0.001 A 
HETATM   16  C9  UNL     1      23.727  -3.989   9.924  1.00  0.00     0.017 A 
ENDBRANCH   3  11
TORSDOF 4
ENDMDL
MODEL 2
REMARK VINA RESULT: -7.606542239      0.109      1.273
REMARK  4 active torsions:
REMARK  status: ('A' for Active; 'I' for Inactive)
REMARK    1  A    between atoms: C1_2  and  C2_4 
REMARK    2  A    between atoms: C2_4  and  N2_5 
REMARK    3  A    between atoms: N2_5  and  N3_7 
REMARK       I    between atoms: N3_7  and  C3_9 
REMARK    4  A    between atoms: C3_9  and  C4_11 
ROOT
HETATM    1  N3  UNL     1      21.042  -3.176  12.387  1.00  0.00    -0.266 N 
ATOM      2  H3  UNL     1      20.959  -4.097  12.817  1.00  0.00     0.190 HD
HETATM    3  C3  UNL     1      22.027  -3.024  11.398  1.00  0.00     0.270 C 
HETATM    4  O2  UNL     1      22.241  -1.933  10.781  1.00  0.00    -0.266 OA
ENDROOT
BRANCH   1   5
HETATM    5  N2  UNL     1      20.184  -2.210  12.828  1.00  0.00    -0.304 N 
ATOM      6  H2  UNL     1      20.510  -1.249  12.931  1.00  0.00     0.186 HD
BRANCH   5   7
HETATM    7  C2  UNL     1      18.853  -2.538  13.142  1.00  0.00     0.177 C 
BRANCH   7   8
HETATM    8  C1  UNL     1      17.973  -2.162  11.990  1.00  0.00     0.271 C 
HETATM    9  N1  UNL     1      18.133  -2.750  10.707  1.00  0.00    -0.057 NA
HETATM   10  O1  UNL     1      17.083  -1.310  12.185  1.00  0.00    -0.270 OA
ENDBRANCH   7   8
ENDBRANCH   5   7
ENDBRANCH   1   5
BRANCH   3  11
HETATM   11  C4  UNL     1      22.898  -4.130  10.994  1.00  0.00     0.033 A 
HETATM   12  C5  UNL     1      23.756  -4.032   9.898  1.00  0.00     0.017 A 
HETATM   13  C6  UNL     1      24.577  -5.067   9.509  1.00  0.00     0.001 A 
HETATM   14  C7  UNL     1      24.563  -6.253  10.219  1.00  0.00     0.000 A 
HETATM   15  C8  UNL     1      23.721  -6.382  11.311  1.00  0.00     0.001 A 
HETATM   16  C9  UNL     1      22.898  -5.311  11.683  1.00  0.00     0.017 A 
ENDBRANCH   3  11
TORSDOF 4
ENDMDL
MODEL 3
REMARK VINA RESULT: -7.356857423      1.001      1.175
REMARK  4 active torsions:
REMARK  status: ('A' for Active; 'I' for Inactive)
REMARK    1  A    between atoms: C1_2  and  C2_4 
REMARK    2  A    between atoms: C2_4  and  N2_5 
REMARK    3  A    between atoms: N2_5  and  N3_7 
REMARK       I    between atoms: N3_7  and  C3_9 
REMARK    4  A    between atoms: C3_9  and  C4_11 
ROOT
HETATM    1  N3  UNL     1      21.330  -3.565  12.086  1.00  0.00    -0.266 N 
ATOM      2  H3  UNL     1      20.937  -4.396  12.528  1.00  0.00     0.190 HD
HETATM    3  C3  UNL     1      22.501  -3.741  11.330  1.00  0.00     0.270 C 
HETATM    4  O2  UNL     1      23.096  -2.793  10.727  1.00  0.00    -0.266 OA
ENDROOT
BRANCH   1   5
HETATM    5  N2  UNL     1      20.666  -2.389  12.286  1.00  0.00    -0.304 N 
ATOM      6  H2  UNL     1      20.797  -1.613  11.636  1.00  0.00     0.186 HD
BRANCH   5   7
HETATM    7  C2  UNL     1      19.802  -2.245  13.386  1.00  0.00     0.177 C 
BRANCH   7   8
HETATM    8  C1  UNL     1      18.403  -2.553  12.952  1.00  0.00     0.271 C 
HETATM    9  N1  UNL     1      18.072  -2.742  11.584  1.00  0.00    -0.057 NA
HETATM   10  O1  UNL     1      17.522  -2.641  13.831  1.00  0.00    -0.270 OA
ENDBRANCH   7   8
ENDBRANCH   5   7
ENDBRANCH   1   5
BRANCH   3  11
HETATM   11  C4  UNL     1      23.135  -5.051  11.176  1.00  0.00     0.033 A 
HETATM   12  C5  UNL     1      22.828  -6.123  12.015  1.00  0.00     0.017 A 
HETATM   13  C6  UNL     1      23.421  -7.359  11.879  1.00  0.00     0.001 A 
HETATM   14  C7  UNL     1      24.356  -7.561  10.883  1.00  0.00     0.000 A 
HETATM   15  C8  UNL     1      24.684  -6.516  10.034  1.00  0.00     0.001 A 
HETATM   16  C9  UNL     1      24.062  -5.271  10.196  1.00  0.00     0.017 A 
ENDBRANCH   3  11
TORSDOF 4
ENDMDL
MODEL 4
REMARK VINA RESULT: -7.353256039      1.010      1.727
REMARK  4 active torsions:
REMARK  status: ('A' for Active; 'I' for Inactive)
REMARK    1  A    between atoms: C1_2  and  C2_4 
REMARK    2  A    between atoms: C2_4  and  N2_5 
REMARK    3  A    between atoms: N2_5  and  N3_7 
REMARK       I    between atoms: N3_7  and  C3_9 
REMARK    4  A    between atoms: C3_9  and  C4_11 
ROOT
HETATM    1  N3  UNL     1      21.338  -3.580  12.087  1.00  0.00    -0.266 N 
ATOM      2  H3  UNL     1      20.938  -4.404  12.535  1.00  0.00     0.190 HD
HETATM    3  C3  UNL     1      22.507  -3.771  11.332  1.00  0.00     0.270 C 
HETATM    4  O2  UNL     1      23.111  -2.833  10.723  1.00  0.00    -0.266 OA
ENDROOT
BRANCH   1   5
HETATM    5  N2  UNL     1      20.685  -2.396  12.278  1.00  0.00    -0.304 N 
ATOM      6  H2  UNL     1      20.830  -1.623  11.629  1.00  0.00     0.186 HD
BRANCH   5   7
HETATM    7  C2  UNL     1      19.812  -2.241  13.371  1.00  0.00     0.177 C 
BRANCH   7   8
HETATM    8  C1  UNL     1      18.416  -2.550  12.928  1.00  0.00     0.271 C 
HETATM    9  N1  UNL     1      18.094  -2.743  11.558  1.00  0.00    -0.057 NA
HETATM   10  O1  UNL     1      17.528  -2.635  13.801  1.00  0.00    -0.270 OA
ENDBRANCH   7   8
ENDBRANCH   5   7
ENDBRANCH   1   5
BRANCH   3  11
HETATM   11  C4  UNL     1      23.130  -5.088  11.188  1.00  0.00     0.033 A 
HETATM   12  C5  UNL     1      24.086  -5.349  10.205  1.00  0.00     0.017 A 
HETATM   13  C6  UNL     1      24.675  -6.585  10.059  1.00  0.00     0.001 A 
HETATM   14  C7  UNL     1      24.318  -7.616  10.908  1.00  0.00     0.000 A 
HETATM   15  C8  UNL     1      23.371  -7.389  11.894  1.00  0.00     0.001 A 
HETATM   16  C9  UNL     1      22.790  -6.120  12.018  1.00  0.00     0.017 A 
ENDBRANCH   3  11
TORSDOF 4
ENDMDL
MODEL 5
REMARK VINA RESULT: -7.255304204      1.152      1.598
REMARK  4 active torsions:
REMARK  status: ('A' for Active; 'I' for Inactive)
REMARK    1  A    between atoms: C1_2  and  C2_4 
REMARK    2  A    between atoms: C2_4  and  N2_5 
REMARK    3  A    between atoms: N2_5  and  N3_7 
REMARK       I    between atoms: N3_7  and  C3_9 
REMARK    4  A    between atoms: C3_9  and  C4_11 
ROOT
HETATM    1  N3  UNL     1      20.991  -3.243  12.267  1.00  0.00    -0.266 N 
ATOM      2  H3  UNL     1      20.847  -4.175  12.655  1.00  0.00     0.190 HD
HETATM    3  C3  UNL     1      22.058  -3.088  11.366  1.00  0.00     0.270 C 
HETATM    4  O2  UNL     1      22.351  -1.984  10.809  1.00  0.00    -0.266 OA
ENDROOT
BRANCH   1   5
HETATM    5  N2  UNL     1      20.129  -2.266  12.673  1.00  0.00    -0.304 N 
ATOM      6  H2  UNL     1      20.468  -1.316  12.819  1.00  0.00     0.186 HD
BRANCH   5   7
HETATM    7  C2  UNL     1      18.772  -2.569  12.891  1.00  0.00     0.177 C 
BRANCH   7   8
HETATM    8  C1  UNL     1      18.609  -3.110  14.278  1.00  0.00     0.271 C 
HETATM    9  N1  UNL     1      19.691  -3.709  14.976  1.00  0.00    -0.057 NA
HETATM   10  O1  UNL     1      17.486  -3.021  14.814  1.00  0.00    -0.270 OA
ENDBRANCH   7   8
ENDBRANCH   5   7
ENDBRANCH   1   5
BRANCH   3  11
HETATM   11  C4  UNL     1      22.927  -4.206  10.993  1.00  0.00     0.033 A 
HETATM   12  C5  UNL     1      22.971  -5.387  11.736  1.00  0.00     0.017 A 
HETATM   13  C6  UNL     1      23.786  -6.442  11.395  1.00  0.00     0.001 A 
HETATM   14  C7  UNL     1      24.597  -6.346  10.280  1.00  0.00     0.000 A 
HETATM   15  C8  UNL     1      24.577  -5.187   9.522  1.00  0.00     0.001 A 
HETATM   16  C9  UNL     1      23.736  -4.130   9.894  1.00  0.00     0.017 A 
ENDBRANCH   3  11
TORSDOF 4
ENDMDL
