MODEL 1
REMARK VINA RESULT: -7.541693780      0.000      0.000
REMARK  4 active torsions:
REMARK  status: ('A' for Active; 'I' for Inactive)
REMARK    1  A    between atoms: N2_3  and  N3_5 
REMARK       I    between atoms: N3_5  and  C2_7 
REMARK    2  A    between atoms: C2_7  and  C3_9 
REMARK    3  A    between atoms: C3_9  and  N4_10 
REMARK    4  A    between atoms: N4_10  and  C4_12 
ROOT
HETATM    1  C3  UNL     1      22.958  -3.952  11.340  1.00  0.00     0.224 C 
ENDROOT
BRANCH   1   2
HETATM    2  C2  UNL     1      21.918  -2.920  11.466  1.00  0.00     0.253 C 
HETATM    3  N3  UNL     1      20.796  -3.151  12.292  1.00  0.00    -0.268 N 
ATOM      4  H3  UNL     1      20.736  -4.041  12.787  1.00  0.00     0.190 HD
HETATM    5  O1  UNL     1      22.014  -1.838  10.854  1.00  0.00    -0.270 OA
BRANCH   3   6
HETATM    6  N2  UNL     1      19.769  -2.230  12.469  1.00  0.00    -0.296 N 
HETATM    7  C1  UNL     1      18.538  -2.597  12.526  1.00  0.00     0.207 C 
HETATM    8  N1  UNL     1      17.488  -1.648  12.707  1.00  0.00    -0.095 NA
ATOM      9  H2  UNL     1      19.997  -1.240  12.554  1.00  0.00     0.187 HD
ENDBRANCH   3   6
ENDBRANCH   1   2
BRANCH   1  10
HETATM   10  N4  UNL     1      22.407  -5.235  11.785  1.00  0.00    -0.381 N 
ATOM     11  H4  UNL     1      21.563  -5.271  12.357  1.00  0.00     0.160 HD
BRANCH  10  12
HETATM   12  C4  UNL     1      23.074  -6.422  11.403  1.00  0.00     0.028 A 
HETATM   13  C5  UNL     1      24.406  -6.616  11.672  1.00  0.00     0.029 A 
HETATM   14  C6  UNL     1      25.063  -7.792  11.293  1.00  0.00     0.002 A 
HETATM   15  C7  UNL     1      24.333  -8.757  10.638  1.00  0.00     0.000 A 
HETATM   16  C8  UNL     1      23.011  -8.569  10.369  1.00  0.00     0.002 A 
HETATM   17  C9  UNL     1      22.371  -7.403  10.748  1.00  0.00     0.029 A 
ENDBRANCH  10  12
ENDBRANCH   1  10
TORSDOF 4
ENDMDL
MODEL 2
REMARK VINA RESULT: -7.523599915      0.069      1.271
REMARK  4 active torsions:
REMARK  status: ('A' for Active; 'I' for Inactive)
REMARK    1  A    between atoms: N2_3  and  N3_5 
REMARK       I    between atoms: N3_5  and  C2_7 
REMARK    2  A    between atoms: C2_7  and  C3_9 
REMARK    3  A    between atoms: C3_9  and  N4_10 
REMARK    4  A    between atoms: N4_10  and  C4_12 
ROOT
HETATM    1  C3  UNL     1      22.995  -3.962  11.465  1.00  0.00     0.224 C 
ENDROOT
BRANCH   1   2
HETATM    2  C2  UNL     1      21.940  -2.936  11.486  1.00  0.00     0.253 C 
HETATM    3  N3  UNL     1      20.772  -3.145  12.253  1.00  0.00    -0.268 N 
ATOM      4  H3  UNL     1      20.690  -4.016  12.779  1.00  0.00     0.190 HD
HETATM    5  O1  UNL     1      22.063  -1.879  10.837  1.00  0.00    -0.270 OA
BRANCH   3   6
HETATM    6  N2  UNL     1      19.729  -2.230  12.330  1.00  0.00    -0.296 N 
HETATM    7  C1  UNL     1      18.530  -2.598  12.610  1.00  0.00     0.207 C 
HETATM    8  N1  UNL     1      17.462  -1.654  12.688  1.00  0.00    -0.095 NA
ATOM      9  H2  UNL     1      19.919  -1.243  12.159  1.00  0.00     0.187 HD
ENDBRANCH   3   6
ENDBRANCH   1   2
BRANCH   1  10
HETATM   10  N4  UNL     1      22.408  -5.251  11.838  1.00  0.00    -0.381 N 
ATOM     11  H4  UNL     1      21.550  -5.295  12.388  1.00  0.00     0.160 HD
BRANCH  10  12
HETATM   12  C4  UNL     1      23.059  -6.434  11.416  1.00  0.00     0.028 A 
HETATM   13  C5  UNL     1      22.384  -7.424  10.746  1.00  0.00     0.029 A 
HETATM   14  C6  UNL     1      23.031  -8.594  10.330  1.00  0.00     0.002 A 
HETATM   15  C7  UNL     1      24.371  -8.726  10.613  1.00  0.00     0.000 A 
HETATM   16  C8  UNL     1      25.044  -7.746  11.277  1.00  0.00     0.002 A 
HETATM   17  C9  UNL     1      24.396  -6.593  11.684  1.00  0.00     0.029 A 
ENDBRANCH  10  12
ENDBRANCH   1  10
TORSDOF 4
ENDMDL
MODEL 3
REMARK VINA RESULT: -7.336841621      1.286      1.594
REMARK  4 active torsions:
REMARK  status: ('A' for Active; 'I' for Inactive)
REMARK    1  A    between atoms: N2_3  and  N3_5 
REMARK       I    between atoms: N3_5  and  C2_7 
REMARK    2  A    between atoms: C2_7  and  C3_9 
REMARK    3  A    between atoms: C3_9  and  N4_10 
REMARK    4  A    between atoms: N4_10  and  C4_12 
ROOT
HETATM    1  C3  UNL     1      23.057  -3.006  11.126  1.00  0.00     0.224 C 
ENDROOT
BRANCH   1   2
HETATM    2  C2  UNL     1      21.600  -2.827  11.220  1.00  0.00     0.253 C 
HETATM    3  N3  UNL     1      21.017  -2.446  12.449  1.00  0.00    -0.268 N 
ATOM      4  H3  UNL     1      21.631  -2.303  13.251  1.00  0.00     0.190 HD
HETATM    5  O1  UNL     1      20.869  -3.005  10.227  1.00  0.00    -0.270 OA
BRANCH   3   6
HETATM    6  N2  UNL     1      19.651  -2.255  12.626  1.00  0.00    -0.296 N 
HETATM    7  C1  UNL     1      19.008  -2.830  13.579  1.00  0.00     0.207 C 
HETATM    8  N1  UNL     1      17.606  -2.631  13.755  1.00  0.00    -0.095 NA
ATOM      9  H2  UNL     1      19.146  -1.644  11.984  1.00  0.00     0.187 HD
ENDBRANCH   3   6
ENDBRANCH   1   2
BRANCH   1  10
HETATM   10  N4  UNL     1      23.342  -4.057  10.147  1.00  0.00    -0.381 N 
ATOM     11  H4  UNL     1      23.382  -3.846   9.150  1.00  0.00     0.160 HD
BRANCH  10  12
HETATM   12  C4  UNL     1      23.562  -5.373  10.618  1.00  0.00     0.028 A 
HETATM   13  C5  UNL     1      22.851  -5.885  11.675  1.00  0.00     0.029 A 
HETATM   14  C6  UNL     1      23.070  -7.187  12.138  1.00  0.00     0.002 A 
HETATM   15  C7  UNL     1      24.024  -7.947  11.501  1.00  0.00     0.000 A 
HETATM   16  C8  UNL     1      24.731  -7.443  10.452  1.00  0.00     0.002 A 
HETATM   17  C9  UNL     1      24.507  -6.154  10.002  1.00  0.00     0.029 A 
ENDBRANCH  10  12
ENDBRANCH   1  10
TORSDOF 4
ENDMDL
MODEL 4
REMARK VINA RESULT: -7.327399608      1.283      1.434
REMARK  4 active torsions:
REMARK  status: ('A' for Active; 'I' for Inactive)
REMARK    1  A    between atoms: N2_3  and  N3_5 
REMARK       I    between atoms: N3_5  and  C2_7 
REMARK    2  A    between atoms: C2_7  and  C3_9 
REMARK    3  A    between atoms: C3_9  and  N4_10 
REMARK    4  A    between atoms: N4_10  and  C4_12 
ROOT
HETATM    1  C3  UNL     1      23.045  -3.029  11.139  1.00  0.00     0.224 C 
ENDROOT
BRANCH   1   2
HETATM    2  C2  UNL     1      21.589  -2.841  11.236  1.00  0.00     0.253 C 
HETATM    3  N3  UNL     1      21.015  -2.427  12.458  1.00  0.00    -0.268 N 
ATOM      4  H3  UNL     1      21.635  -2.267  13.253  1.00  0.00     0.190 HD
HETATM    5  O1  UNL     1      20.852  -3.041  10.252  1.00  0.00    -0.270 OA
BRANCH   3   6
HETATM    6  N2  UNL     1      19.651  -2.225  12.637  1.00  0.00    -0.296 N 
HETATM    7  C1  UNL     1      19.007  -2.788  13.597  1.00  0.00     0.207 C 
HETATM    8  N1  UNL     1      17.607  -2.578  13.777  1.00  0.00    -0.095 NA
ATOM      9  H2  UNL     1      19.148  -1.616  11.992  1.00  0.00     0.187 HD
ENDBRANCH   3   6
ENDBRANCH   1   2
BRANCH   1  10
HETATM   10  N4  UNL     1      23.321  -4.081  10.157  1.00  0.00    -0.381 N 
ATOM     11  H4  UNL     1      23.367  -3.867   9.161  1.00  0.00     0.160 HD
BRANCH  10  12
HETATM   12  C4  UNL     1      23.524  -5.400  10.624  1.00  0.00     0.028 A 
HETATM   13  C5  UNL     1      24.460  -6.227  10.055  1.00  0.00     0.029 A 
HETATM   14  C6  UNL     1      24.659  -7.533  10.519  1.00  0.00     0.002 A 
HETATM   15  C7  UNL     1      23.884  -7.969  11.569  1.00  0.00     0.000 A 
HETATM   16  C8  UNL     1      22.955  -7.152  12.138  1.00  0.00     0.002 A 
HETATM   17  C9  UNL     1      22.766  -5.863  11.671  1.00  0.00     0.029 A 
ENDBRANCH  10  12
ENDBRANCH   1  10
TORSDOF 4
ENDMDL
MODEL 5
REMARK VINA RESULT: -7.266090574      1.359      1.720
REMARK  4 active torsions:
REMARK  status: ('A' for Active; 'I' for Inactive)
REMARK    1  A    between atoms: N2_3  and  N3_5 
REMARK       I    between atoms: N3_5  and  C2_7 
REMARK    2  A    between atoms: C2_7  and  C3_9 
REMARK    3  A    between atoms: C3_9  and  N4_10 
REMARK    4  A    between atoms: N4_10  and  C4_12 
ROOT
HETATM    1  C3  UNL     1      22.031  -3.126  10.472  1.00  0.00     0.224 C 
ENDROOT
BRANCH   1   2
HETATM    2  C2  UNL     1      21.279  -2.650  11.644  1.00  0.00     0.253 C 
HETATM    3  N3  UNL     1      19.867  -2.635  11.613  1.00  0.00    -0.268 N 
ATOM      4  H3  UNL     1      19.399  -2.960  10.767  1.00  0.00     0.190 HD
HETATM    5  O1  UNL     1      21.872  -2.259  12.668  1.00  0.00    -0.270 OA
BRANCH   3   6
HETATM    6  N2  UNL     1      19.080  -2.203  12.675  1.00  0.00    -0.296 N 
HETATM    7  C1  UNL     1      18.350  -3.019  13.348  1.00  0.00     0.207 C 
HETATM    8  N1  UNL     1      17.543  -2.569  14.436  1.00  0.00    -0.095 NA
ATOM      9  H2  UNL     1      19.081  -1.214  12.925  1.00  0.00     0.187 HD
ENDBRANCH   3   6
ENDBRANCH   1   2
BRANCH   1  10
HETATM   10  N4  UNL     1      23.332  -3.629  10.918  1.00  0.00    -0.381 N 
ATOM     11  H4  UNL     1      24.095  -2.987  11.134  1.00  0.00     0.160 HD
BRANCH  10  12
HETATM   12  C4  UNL     1      23.506  -5.028  11.042  1.00  0.00     0.028 A 
HETATM   13  C5  UNL     1      22.868  -5.746  12.022  1.00  0.00     0.029 A 
HETATM   14  C6  UNL     1      23.041  -7.130  12.142  1.00  0.00     0.002 A 
HETATM   15  C7  UNL     1      23.876  -7.756  11.245  1.00  0.00     0.000 A 
HETATM   16  C8  UNL     1      24.511  -7.047  10.271  1.00  0.00     0.002 A 
HETATM   17  C9  UNL     1      24.333  -5.679  10.161  1.00  0.00     0.029 A 
ENDBRANCH  10  12
ENDBRANCH   1  10
TORSDOF 4
ENDMDL
