MODEL 1
REMARK VINA RESULT: -6.561569649      0.000      0.000
REMARK  4 active torsions:
REMARK  status: ('A' for Active; 'I' for Inactive)
REMARK    1  A    between atoms: C2_2  and  C3_3 
REMARK    2  A    between atoms: C3_3  and  N1_4 
REMARK       I    between atoms: C4_6  and  N3_8 
REMARK    3  A    between atoms: N3_8  and  N4_10 
REMARK    4  A    between atoms: C5_12  and  C6_13 
ROOT
HETATM    1  N4  UNL     1      22.120  -3.542  11.595  1.00  0.00    -0.307 N 
ATOM      2  H4  UNL     1      22.951  -3.368  11.030  1.00  0.00     0.186 HD
HETATM    3  C5  UNL     1      21.301  -2.610  11.681  1.00  0.00     0.138 C 
ENDROOT
BRANCH   1   4
HETATM    4  N3  UNL     1      22.026  -4.783  12.180  1.00  0.00    -0.274 N 
HETATM    5  C4  UNL     1      22.610  -5.906  11.490  1.00  0.00     0.203 C 
HETATM    6  N1  UNL     1      23.771  -5.716  10.977  1.00  0.00    -0.360 N 
HETATM    7  N2  UNL     1      21.925  -7.133  11.399  1.00  0.00    -0.062 NA
ATOM      8  H1  UNL     1      24.213  -4.803  11.079  1.00  0.00     0.162 HD
ATOM      9  H3  UNL     1      21.556  -4.906  13.077  1.00  0.00     0.189 HD
BRANCH   6  10
HETATM   10  C3  UNL     1      24.477  -6.760  10.255  1.00  0.00     0.148 C 
BRANCH  10  11
HETATM   11  C2  UNL     1      25.140  -7.728  11.166  1.00  0.00    -0.018 C 
HETATM   12  C1  UNL     1      24.779  -8.995  11.124  1.00  0.00     0.008 C 
ENDBRANCH  10  11
ENDBRANCH   6  10
ENDBRANCH   1   4
BRANCH   3  13
HETATM   13  C6  UNL     1      20.032  -2.579  12.419  1.00  0.00     0.065 A 
HETATM   14  C7  UNL     1      19.779  -2.659  13.762  1.00  0.00     0.119 A 
HETATM   15  N5  UNL     1      18.434  -2.588  13.997  1.00  0.00    -0.360 N 
HETATM   16  C8  UNL     1      17.859  -2.464  12.795  1.00  0.00     0.180 A 
ATOM     17  H5  UNL     1      17.966  -2.623  14.902  1.00  0.00     0.166 HD
HETATM   18  N6  UNL     1      18.794  -2.456  11.839  1.00  0.00    -0.350 N 
ATOM     19  H6  UNL     1      18.616  -2.372  10.838  1.00  0.00     0.166 HD
ENDBRANCH   3  13
TORSDOF 4
ENDMDL
MODEL 2
REMARK VINA RESULT: -6.530910562      1.740      2.405
REMARK  4 active torsions:
REMARK  status: ('A' for Active; 'I' for Inactive)
REMARK    1  A    between atoms: C2_2  and  C3_3 
REMARK    2  A    between atoms: C3_3  and  N1_4 
REMARK       I    between atoms: C4_6  and  N3_8 
REMARK    3  A    between atoms: N3_8  and  N4_10 
REMARK    4  A    between atoms: C5_12  and  C6_13 
ROOT
HETATM    1  N4  UNL     1      23.554  -2.900  11.286  1.00  0.00    -0.307 N 
ATOM      2  H4  UNL     1      24.427  -2.868  11.812  1.00  0.00     0.186 HD
HETATM    3  C5  UNL     1      22.512  -2.660  11.923  1.00  0.00     0.138 C 
ENDROOT
BRANCH   1   4
HETATM    4  N3  UNL     1      23.655  -3.202   9.948  1.00  0.00    -0.274 N 
HETATM    5  C4  UNL     1      24.337  -4.415   9.575  1.00  0.00     0.203 C 
HETATM    6  N1  UNL     1      24.065  -5.458  10.273  1.00  0.00    -0.360 N 
HETATM    7  N2  UNL     1      25.247  -4.431   8.501  1.00  0.00    -0.062 NA
ATOM      8  H1  UNL     1      23.396  -5.379  11.038  1.00  0.00     0.162 HD
ATOM      9  H3  UNL     1      23.258  -2.585   9.240  1.00  0.00     0.189 HD
BRANCH   6  10
HETATM   10  C3  UNL     1      24.678  -6.747  10.007  1.00  0.00     0.148 C 
BRANCH  10  11
HETATM   11  C2  UNL     1      24.727  -7.609  11.216  1.00  0.00    -0.018 C 
HETATM   12  C1  UNL     1      24.344  -8.867  11.119  1.00  0.00     0.008 C 
ENDBRANCH  10  11
ENDBRANCH   6  10
ENDBRANCH   1   4
BRANCH   3  13
HETATM   13  C6  UNL     1      21.130  -2.636  11.430  1.00  0.00     0.065 A 
HETATM   14  C7  UNL     1      19.941  -2.708  12.105  1.00  0.00     0.119 A 
HETATM   15  N5  UNL     1      18.893  -2.648  11.228  1.00  0.00    -0.360 N 
HETATM   16  C8  UNL     1      19.440  -2.539  10.012  1.00  0.00     0.180 A 
ATOM     17  H5  UNL     1      17.899  -2.680  11.455  1.00  0.00     0.166 HD
HETATM   18  N6  UNL     1      20.774  -2.530  10.109  1.00  0.00    -0.350 N 
ATOM     19  H6  UNL     1      21.423  -2.455   9.325  1.00  0.00     0.166 HD
ENDBRANCH   3  13
TORSDOF 4
ENDMDL
MODEL 3
REMARK VINA RESULT: -6.291965296      1.387      2.101
REMARK  4 active torsions:
REMARK  status: ('A' for Active; 'I' for Inactive)
REMARK    1  A    between atoms: C2_2  and  C3_3 
REMARK    2  A    between atoms: C3_3  and  N1_4 
REMARK       I    between atoms: C4_6  and  N3_8 
REMARK    3  A    between atoms: N3_8  and  N4_10 
REMARK    4  A    between atoms: C5_12  and  C6_13 
ROOT
HETATM    1  N4  UNL     1      21.215  -3.517  12.695  1.00  0.00    -0.307 N 
ATOM      2  H4  UNL     1      21.883  -3.987  13.306  1.00  0.00     0.186 HD
HETATM    3  C5  UNL     1      20.093  -3.277  13.177  1.00  0.00     0.138 C 
ENDROOT
BRANCH   1   4
HETATM    4  N3  UNL     1      21.652  -3.216  11.426  1.00  0.00    -0.274 N 
HETATM    5  C4  UNL     1      22.792  -3.933  10.912  1.00  0.00     0.203 C 
HETATM    6  N1  UNL     1      22.814  -5.198  11.129  1.00  0.00    -0.360 N 
HETATM    7  N2  UNL     1      23.813  -3.259  10.215  1.00  0.00    -0.062 NA
ATOM      8  H1  UNL     1      22.042  -5.623  11.642  1.00  0.00     0.162 HD
ATOM      9  H3  UNL     1      21.182  -2.507  10.863  1.00  0.00     0.189 HD
BRANCH   6  10
HETATM   10  C3  UNL     1      23.901  -6.042  10.668  1.00  0.00     0.148 C 
BRANCH  10  11
HETATM   11  C2  UNL     1      24.053  -7.268  11.492  1.00  0.00    -0.018 C 
HETATM   12  C1  UNL     1      24.393  -8.396  10.902  1.00  0.00     0.008 C 
ENDBRANCH  10  11
ENDBRANCH   6  10
ENDBRANCH   1   4
BRANCH   3  13
HETATM   13  C6  UNL     1      18.949  -2.620  12.534  1.00  0.00     0.065 A 
HETATM   14  C7  UNL     1      18.507  -2.664  11.239  1.00  0.00     0.119 A 
HETATM   15  N5  UNL     1      17.392  -1.887  11.091  1.00  0.00    -0.360 N 
HETATM   16  C8  UNL     1      17.147  -1.364  12.298  1.00  0.00     0.180 A 
ATOM     17  H5  UNL     1      16.856  -1.736  10.235  1.00  0.00     0.166 HD
HETATM   18  N6  UNL     1      18.064  -1.788  13.175  1.00  0.00    -0.350 N 
ATOM     19  H6  UNL     1      18.100  -1.534  14.162  1.00  0.00     0.166 HD
ENDBRANCH   3  13
TORSDOF 4
ENDMDL
MODEL 4
REMARK VINA RESULT: -6.137041892      1.829      2.501
REMARK  4 active torsions:
REMARK  status: ('A' for Active; 'I' for Inactive)
REMARK    1  A    between atoms: C2_2  and  C3_3 
REMARK    2  A    between atoms: C3_3  and  N1_4 
REMARK       I    between atoms: C4_6  and  N3_8 
REMARK    3  A    between atoms: N3_8  and  N4_10 
REMARK    4  A    between atoms: C5_12  and  C6_13 
ROOT
HETATM    1  N4  UNL     1      20.187  -2.538  10.015  1.00  0.00    -0.307 N 
ATOM      2  H4  UNL     1      20.070  -2.678   9.012  1.00  0.00     0.186 HD
HETATM    3  C5  UNL     1      19.187  -2.749  10.726  1.00  0.00     0.138 C 
ENDROOT
BRANCH   1   4
HETATM    4  N3  UNL     1      21.433  -2.138  10.438  1.00  0.00    -0.274 N 
HETATM    5  C4  UNL     1      22.404  -3.156  10.749  1.00  0.00     0.203 C 
HETATM    6  N1  UNL     1      22.480  -4.139   9.928  1.00  0.00    -0.360 N 
HETATM    7  N2  UNL     1      23.213  -3.055  11.898  1.00  0.00    -0.062 NA
ATOM      8  H1  UNL     1      21.865  -4.152   9.115  1.00  0.00     0.162 HD
ATOM      9  H3  UNL     1      21.663  -1.148  10.528  1.00  0.00     0.189 HD
BRANCH   6  10
HETATM   10  C3  UNL     1      23.415  -5.234  10.118  1.00  0.00     0.148 C 
BRANCH  10  11
HETATM   11  C2  UNL     1      22.812  -6.368  10.864  1.00  0.00    -0.018 C 
HETATM   12  C1  UNL     1      23.335  -6.722  12.021  1.00  0.00     0.008 C 
ENDBRANCH  10  11
ENDBRANCH   6  10
ENDBRANCH   1   4
BRANCH   3  13
HETATM   13  C6  UNL     1      19.066  -2.628  12.184  1.00  0.00     0.065 A 
HETATM   14  C7  UNL     1      17.962  -2.668  12.994  1.00  0.00     0.119 A 
HETATM   15  N5  UNL     1      18.327  -2.511  14.302  1.00  0.00    -0.360 N 
HETATM   16  C8  UNL     1      19.659  -2.375  14.296  1.00  0.00     0.180 A 
ATOM     17  H5  UNL     1      17.711  -2.500  15.115  1.00  0.00     0.166 HD
HETATM   18  N6  UNL     1      20.120  -2.441  13.042  1.00  0.00    -0.350 N 
ATOM     19  H6  UNL     1      21.100  -2.366  12.768  1.00  0.00     0.166 HD
ENDBRANCH   3  13
TORSDOF 4
ENDMDL
MODEL 5
REMARK VINA RESULT: -6.095165465      2.066      2.746
REMARK  4 active torsions:
REMARK  status: ('A' for Active; 'I' for Inactive)
REMARK    1  A    between atoms: C2_2  and  C3_3 
REMARK    2  A    between atoms: C3_3  and  N1_4 
REMARK       I    between atoms: C4_6  and  N3_8 
REMARK    3  A    between atoms: N3_8  and  N4_10 
REMARK    4  A    between atoms: C5_12  and  C6_13 
ROOT
HETATM    1  N4  UNL     1      20.298  -2.544   9.921  1.00  0.00    -0.307 N 
ATOM      2  H4  UNL     1      20.209  -2.667   8.912  1.00  0.00     0.186 HD
HETATM    3  C5  UNL     1      19.270  -2.735  10.597  1.00  0.00     0.138 C 
ENDROOT
BRANCH   1   4
HETATM    4  N3  UNL     1      21.540  -2.184  10.388  1.00  0.00    -0.274 N 
HETATM    5  C4  UNL     1      22.462  -3.233  10.743  1.00  0.00     0.203 C 
HETATM    6  N1  UNL     1      22.535  -4.225   9.932  1.00  0.00    -0.360 N 
HETATM    7  N2  UNL     1      23.230  -3.151  11.921  1.00  0.00    -0.062 NA
ATOM      8  H1  UNL     1      21.951  -4.222   9.096  1.00  0.00     0.162 HD
ATOM      9  H3  UNL     1      21.802  -1.202  10.480  1.00  0.00     0.189 HD
BRANCH   6  10
HETATM   10  C3  UNL     1      23.422  -5.350  10.165  1.00  0.00     0.148 C 
BRANCH  10  11
HETATM   11  C2  UNL     1      24.770  -5.138   9.577  1.00  0.00    -0.018 C 
HETATM   12  C1  UNL     1      24.866  -4.613   8.372  1.00  0.00     0.008 C 
ENDBRANCH  10  11
ENDBRANCH   6  10
ENDBRANCH   1   4
BRANCH   3  13
HETATM   13  C6  UNL     1      19.106  -2.630  12.051  1.00  0.00     0.065 A 
HETATM   14  C7  UNL     1      17.978  -2.669  12.827  1.00  0.00     0.119 A 
HETATM   15  N5  UNL     1      18.305  -2.530  14.147  1.00  0.00    -0.360 N 
HETATM   16  C8  UNL     1      19.637  -2.405  14.183  1.00  0.00     0.180 A 
ATOM     17  H5  UNL     1      17.664  -2.522  14.941  1.00  0.00     0.166 HD
HETATM   18  N6  UNL     1      20.135  -2.462  12.943  1.00  0.00    -0.350 N 
ATOM     19  H6  UNL     1      21.124  -2.393  12.700  1.00  0.00     0.166 HD
ENDBRANCH   3  13
TORSDOF 4
ENDMDL
