MODEL 1
REMARK VINA RESULT: -6.536002977      0.000      0.000
REMARK  4 active torsions:
REMARK  status: ('A' for Active; 'I' for Inactive)
REMARK       I    between atoms: C1_4  and  N2_5 
REMARK       I    between atoms: C1_4  and  N4_15 
REMARK    1  A    between atoms: N2_5  and  N3_7 
REMARK    2  A    between atoms: C2_9  and  C3_10 
REMARK    3  A    between atoms: N4_15  and  N5_17 
REMARK    4  A    between atoms: N5_17  and  C7_19 
ROOT
HETATM    1  N1  UNL     1      19.181  -2.640  14.553  1.00  0.00    -0.232 N 
ATOM      2  H11 UNL     1      18.303  -2.966  14.956  1.00  0.00     0.174 HD
ATOM      3  H12 UNL     1      19.982  -2.433  15.149  1.00  0.00     0.174 HD
HETATM    4  C1  UNL     1      19.217  -2.507  13.287  1.00  0.00     0.705 C 
HETATM    5  N2  UNL     1      20.459  -2.046  12.717  1.00  0.00    -0.132 N 
ATOM      6  H2  UNL     1      20.738  -1.075  12.855  1.00  0.00     0.205 HD
HETATM    7  N4  UNL     1      18.102  -2.795  12.458  1.00  0.00    -0.129 N 
ATOM      8  H4  UNL     1      17.451  -3.529  12.736  1.00  0.00     0.205 HD
ENDROOT
BRANCH   5   9
HETATM    9  N3  UNL     1      21.280  -2.880  11.991  1.00  0.00    -0.295 N 
HETATM   10  C2  UNL     1      22.428  -2.592  11.536  1.00  0.00     0.144 C 
ATOM     11  H3  UNL     1      20.930  -3.819  11.801  1.00  0.00     0.186 HD
BRANCH  10  12
HETATM   12  C3  UNL     1      23.196  -3.575  10.781  1.00  0.00     0.091 A 
HETATM   13  C4  UNL     1      23.077  -4.968  10.880  1.00  0.00     0.040 A 
HETATM   14  C5  UNL     1      23.973  -5.520  10.007  1.00  0.00     0.027 A 
HETATM   15  C6  UNL     1      24.613  -4.465   9.397  1.00  0.00     0.142 A 
HETATM   16  O1  UNL     1      24.120  -3.365   9.888  1.00  0.00    -0.321 OA
ENDBRANCH  10  12
ENDBRANCH   5   9
BRANCH   7  17
HETATM   17  N5  UNL     1      17.875  -2.091  11.263  1.00  0.00    -0.263 N 
ATOM     18  H5  UNL     1      17.412  -1.182  11.297  1.00  0.00     0.190 HD
BRANCH  17  19
HETATM   19  C7  UNL     1      18.275  -2.622  10.012  1.00  0.00     0.369 C 
HETATM   20  O2  UNL     1      19.434  -2.847   9.631  1.00  0.00    -0.282 OA
ENDBRANCH  17  19
ENDBRANCH   7  17
TORSDOF 4
ENDMDL
MODEL 2
REMARK VINA RESULT: -6.309112907      2.689      5.710
REMARK  4 active torsions:
REMARK  status: ('A' for Active; 'I' for Inactive)
REMARK       I    between atoms: C1_4  and  N2_5 
REMARK       I    between atoms: C1_4  and  N4_15 
REMARK    1  A    between atoms: N2_5  and  N3_7 
REMARK    2  A    between atoms: C2_9  and  C3_10 
REMARK    3  A    between atoms: N4_15  and  N5_17 
REMARK    4  A    between atoms: N5_17  and  C7_19 
ROOT
HETATM    1  N1  UNL     1      24.490  -3.813   9.176  1.00  0.00    -0.232 N 
ATOM      2  H11 UNL     1      24.886  -4.413   8.452  1.00  0.00     0.174 HD
ATOM      3  H12 UNL     1      24.531  -2.797   9.089  1.00  0.00     0.174 HD
HETATM    4  C1  UNL     1      23.957  -4.393  10.175  1.00  0.00     0.705 C 
HETATM    5  N2  UNL     1      23.397  -3.544  11.198  1.00  0.00    -0.132 N 
ATOM      6  H2  UNL     1      24.026  -3.019  11.804  1.00  0.00     0.205 HD
HETATM    7  N4  UNL     1      23.901  -5.806  10.295  1.00  0.00    -0.129 N 
ATOM      8  H4  UNL     1      23.829  -6.375   9.453  1.00  0.00     0.205 HD
ENDROOT
BRANCH   5   9
HETATM    9  N3  UNL     1      22.038  -3.424  11.380  1.00  0.00    -0.295 N 
HETATM   10  C2  UNL     1      21.458  -2.700  12.246  1.00  0.00     0.144 C 
ATOM     11  H3  UNL     1      21.440  -3.968  10.758  1.00  0.00     0.186 HD
BRANCH  10  12
HETATM   12  C3  UNL     1      20.003  -2.664  12.329  1.00  0.00     0.091 A 
HETATM   13  C4  UNL     1      19.244  -2.597  13.505  1.00  0.00     0.040 A 
HETATM   14  C5  UNL     1      17.926  -2.583  13.143  1.00  0.00     0.027 A 
HETATM   15  C6  UNL     1      17.906  -2.638  11.768  1.00  0.00     0.142 A 
HETATM   16  O1  UNL     1      19.139  -2.685  11.355  1.00  0.00    -0.321 OA
ENDBRANCH  10  12
ENDBRANCH   5   9
BRANCH   7  17
HETATM   17  N5  UNL     1      23.943  -6.438  11.550  1.00  0.00    -0.263 N 
ATOM     18  H5  UNL     1      24.847  -6.625  11.986  1.00  0.00     0.190 HD
BRANCH  17  19
HETATM   19  C7  UNL     1      22.755  -6.820  12.219  1.00  0.00     0.369 C 
HETATM   20  O2  UNL     1      21.729  -6.140  12.371  1.00  0.00    -0.282 OA
ENDBRANCH  17  19
ENDBRANCH   7  17
TORSDOF 4
ENDMDL
MODEL 3
REMARK VINA RESULT: -6.262976682      0.857      1.056
REMARK  4 active torsions:
REMARK  status: ('A' for Active; 'I' for Inactive)
REMARK       I    between atoms: C1_4  and  N2_5 
REMARK       I    between atoms: C1_4  and  N4_15 
REMARK    1  A    between atoms: N2_5  and  N3_7 
REMARK    2  A    between atoms: C2_9  and  C3_10 
REMARK    3  A    between atoms: N4_15  and  N5_17 
REMARK    4  A    between atoms: N5_17  and  C7_19 
ROOT
HETATM    1  N1  UNL     1      19.124  -2.443  14.853  1.00  0.00    -0.232 N 
ATOM      2  H11 UNL     1      18.249  -2.686  15.316  1.00  0.00     0.174 HD
ATOM      3  H12 UNL     1      19.969  -2.268  15.396  1.00  0.00     0.174 HD
HETATM    4  C1  UNL     1      19.100  -2.370  13.582  1.00  0.00     0.705 C 
HETATM    5  N2  UNL     1      20.338  -2.027  12.927  1.00  0.00    -0.132 N 
ATOM      6  H2  UNL     1      20.691  -1.073  13.002  1.00  0.00     0.205 HD
HETATM    7  N4  UNL     1      17.924  -2.613  12.827  1.00  0.00    -0.129 N 
ATOM      8  H4  UNL     1      17.239  -3.284  13.174  1.00  0.00     0.205 HD
ENDROOT
BRANCH   5   9
HETATM    9  N3  UNL     1      21.057  -2.950  12.201  1.00  0.00    -0.295 N 
HETATM   10  C2  UNL     1      22.142  -2.735  11.579  1.00  0.00     0.144 C 
ATOM     11  H3  UNL     1      20.681  -3.897  12.160  1.00  0.00     0.186 HD
BRANCH  10  12
HETATM   12  C3  UNL     1      22.803  -3.809  10.848  1.00  0.00     0.091 A 
HETATM   13  C4  UNL     1      23.952  -3.683  10.056  1.00  0.00     0.040 A 
HETATM   14  C5  UNL     1      24.241  -4.921   9.551  1.00  0.00     0.027 A 
HETATM   15  C6  UNL     1      23.275  -5.769  10.042  1.00  0.00     0.142 A 
HETATM   16  O1  UNL     1      22.471  -5.067  10.786  1.00  0.00    -0.321 OA
ENDBRANCH  10  12
ENDBRANCH   5   9
BRANCH   7  17
HETATM   17  N5  UNL     1      17.681  -1.950  11.612  1.00  0.00    -0.263 N 
ATOM     18  H5  UNL     1      17.316  -0.997  11.626  1.00  0.00     0.190 HD
BRANCH  17  19
HETATM   19  C7  UNL     1      17.933  -2.580  10.369  1.00  0.00     0.369 C 
HETATM   20  O2  UNL     1      19.039  -2.817   9.860  1.00  0.00    -0.282 OA
ENDBRANCH  17  19
ENDBRANCH   7  17
TORSDOF 4
ENDMDL
MODEL 4
REMARK VINA RESULT: -6.219065680      2.575      5.940
REMARK  4 active torsions:
REMARK  status: ('A' for Active; 'I' for Inactive)
REMARK       I    between atoms: C1_4  and  N2_5 
REMARK       I    between atoms: C1_4  and  N4_15 
REMARK    1  A    between atoms: N2_5  and  N3_7 
REMARK    2  A    between atoms: C2_9  and  C3_10 
REMARK    3  A    between atoms: N4_15  and  N5_17 
REMARK    4  A    between atoms: N5_17  and  C7_19 
ROOT
HETATM    1  N1  UNL     1      24.557  -3.310   9.316  1.00  0.00    -0.232 N 
ATOM      2  H11 UNL     1      24.983  -3.940   8.637  1.00  0.00     0.174 HD
ATOM      3  H12 UNL     1      24.688  -2.301   9.243  1.00  0.00     0.174 HD
HETATM    4  C1  UNL     1      23.869  -3.845  10.243  1.00  0.00     0.705 C 
HETATM    5  N2  UNL     1      23.266  -2.954  11.203  1.00  0.00    -0.132 N 
ATOM      6  H2  UNL     1      23.862  -2.480  11.881  1.00  0.00     0.205 HD
HETATM    7  N4  UNL     1      23.687  -5.249  10.344  1.00  0.00    -0.129 N 
ATOM      8  H4  UNL     1      23.666  -5.811   9.494  1.00  0.00     0.205 HD
ENDROOT
BRANCH   5   9
HETATM    9  N3  UNL     1      21.910  -2.724  11.231  1.00  0.00    -0.295 N 
HETATM   10  C2  UNL     1      21.118  -3.015  12.179  1.00  0.00     0.144 C 
ATOM     11  H3  UNL     1      21.501  -2.277  10.410  1.00  0.00     0.186 HD
BRANCH  10  12
HETATM   12  C3  UNL     1      19.695  -2.712  12.078  1.00  0.00     0.091 A 
HETATM   13  C4  UNL     1      18.854  -2.337  13.134  1.00  0.00     0.040 A 
HETATM   14  C5  UNL     1      17.603  -2.148  12.615  1.00  0.00     0.027 A 
HETATM   15  C6  UNL     1      17.705  -2.406  11.268  1.00  0.00     0.142 A 
HETATM   16  O1  UNL     1      18.940  -2.729  11.017  1.00  0.00    -0.321 OA
ENDBRANCH  10  12
ENDBRANCH   5   9
BRANCH   7  17
HETATM   17  N5  UNL     1      23.536  -5.882  11.590  1.00  0.00    -0.263 N 
ATOM     18  H5  UNL     1      23.046  -5.396  12.342  1.00  0.00     0.190 HD
BRANCH  17  19
HETATM   19  C7  UNL     1      24.051  -7.181  11.820  1.00  0.00     0.369 C 
HETATM   20  O2  UNL     1      25.003  -7.723  11.239  1.00  0.00    -0.282 OA
ENDBRANCH  17  19
ENDBRANCH   7  17
TORSDOF 4
ENDMDL
MODEL 5
REMARK VINA RESULT: -5.876308457      2.443      3.036
REMARK  4 active torsions:
REMARK  status: ('A' for Active; 'I' for Inactive)
REMARK       I    between atoms: C1_4  and  N2_5 
REMARK       I    between atoms: C1_4  and  N4_15 
REMARK    1  A    between atoms: N2_5  and  N3_7 
REMARK    2  A    between atoms: C2_9  and  C3_10 
REMARK    3  A    between atoms: N4_15  and  N5_17 
REMARK    4  A    between atoms: N5_17  and  C7_19 
ROOT
HETATM    1  N1  UNL     1      20.634  -2.191  12.234  1.00  0.00    -0.232 N 
ATOM      2  H11 UNL     1      19.698  -1.943  12.554  1.00  0.00     0.174 HD
ATOM      3  H12 UNL     1      21.436  -2.109  12.860  1.00  0.00     0.174 HD
HETATM    4  C1  UNL     1      20.741  -2.598  11.033  1.00  0.00     0.705 C 
HETATM    5  N2  UNL     1      22.065  -2.949  10.581  1.00  0.00    -0.132 N 
ATOM      6  H2  UNL     1      22.747  -2.208  10.420  1.00  0.00     0.205 HD
HETATM    7  N4  UNL     1      19.626  -2.711  10.164  1.00  0.00    -0.129 N 
ATOM      8  H4  UNL     1      18.712  -2.941  10.553  1.00  0.00     0.205 HD
ENDROOT
BRANCH   5   9
HETATM    9  N3  UNL     1      22.435  -4.256  10.360  1.00  0.00    -0.295 N 
HETATM   10  C2  UNL     1      22.918  -5.055  11.219  1.00  0.00     0.144 C 
ATOM     11  H3  UNL     1      22.310  -4.617   9.414  1.00  0.00     0.186 HD
BRANCH  10  12
HETATM   12  C3  UNL     1      23.266  -6.422  10.849  1.00  0.00     0.091 A 
HETATM   13  C4  UNL     1      24.560  -6.913  10.629  1.00  0.00     0.040 A 
HETATM   14  C5  UNL     1      24.447  -8.236  10.303  1.00  0.00     0.027 A 
HETATM   15  C6  UNL     1      23.102  -8.524  10.333  1.00  0.00     0.142 A 
HETATM   16  O1  UNL     1      22.469  -7.433  10.654  1.00  0.00    -0.321 OA
ENDBRANCH  10  12
ENDBRANCH   5   9
BRANCH   7  17
HETATM   17  N5  UNL     1      19.751  -2.513   8.778  1.00  0.00    -0.263 N 
ATOM     18  H5  UNL     1      20.215  -1.672   8.432  1.00  0.00     0.190 HD
BRANCH  17  19
HETATM   19  C7  UNL     1      19.246  -3.460   7.853  1.00  0.00     0.369 C 
HETATM   20  O2  UNL     1      19.898  -4.141   7.048  1.00  0.00    -0.282 OA
ENDBRANCH  17  19
ENDBRANCH   7  17
TORSDOF 4
ENDMDL
