MODEL 1
REMARK VINA RESULT: -7.267066864      0.000      0.000
REMARK  6 active torsions:
REMARK  status: ('A' for Active; 'I' for Inactive)
REMARK    1  A    between atoms: N1_1  and  C1_4 
REMARK    2  A    between atoms: C2_5  and  C3_6 
REMARK       I    between atoms: C3_6  and  N2_8 
REMARK    3  A    between atoms: N2_8  and  C4_10 
REMARK    4  A    between atoms: C4_10  and  C5_11 
REMARK    5  A    between atoms: C10_16  and  N3_17 
REMARK    6  A    between atoms: N3_17  and  C11_19 
ROOT
HETATM    1  C5  UNL     1      23.176  -5.645  11.028  1.00  0.00    -0.014 A 
HETATM    2  C6  UNL     1      23.077  -6.565  12.034  1.00  0.00     0.011 A 
HETATM    3  C7  UNL     1      23.347  -7.906  11.771  1.00  0.00     0.001 A 
HETATM    4  C8  UNL     1      23.710  -8.316  10.518  1.00  0.00     0.002 A 
HETATM    5  C9  UNL     1      23.801  -7.342   9.512  1.00  0.00     0.030 A 
HETATM    6  C10 UNL     1      23.547  -6.017   9.720  1.00  0.00     0.042 A 
ENDROOT
BRANCH   1   7
HETATM    7  C4  UNL     1      22.933  -4.213  11.268  1.00  0.00     0.164 C 
BRANCH   7   8
HETATM    8  N2  UNL     1      21.633  -3.935  11.794  1.00  0.00    -0.346 N 
HETATM    9  C3  UNL     1      20.911  -2.750  11.489  1.00  0.00     0.298 C 
HETATM   10  O1  UNL     1      21.445  -1.907  10.725  1.00  0.00    -0.258 OA
ATOM     11  H2  UNL     1      21.204  -4.619  12.418  1.00  0.00     0.163 HD
BRANCH   9  12
HETATM   12  C2  UNL     1      19.607  -2.558  12.057  1.00  0.00     0.017 C 
HETATM   13  C1  UNL     1      18.504  -2.400  12.558  1.00  0.00     0.013 C 
BRANCH  13  14
HETATM   14  N1  UNL     1      17.246  -2.197  13.138  1.00  0.00    -0.359 N 
ATOM     15  H12 UNL     1      17.872  -1.702  12.502  1.00  0.00     0.166 HD
ATOM     16  H11 UNL     1      16.331  -2.064  13.569  1.00  0.00     0.166 HD
ENDBRANCH  13  14
ENDBRANCH   9  12
ENDBRANCH   7   8
ENDBRANCH   1   7
BRANCH   6  17
HETATM   17  N3  UNL     1      23.625  -5.002   8.748  1.00  0.00    -0.334 N 
ATOM     18  H3  UNL     1      22.869  -4.318   8.722  1.00  0.00     0.168 HD
BRANCH  17  19
HETATM   19  C11 UNL     1      24.659  -4.856   7.810  1.00  0.00     0.353 C 
HETATM   20  O2  UNL     1      25.505  -3.959   7.717  1.00  0.00    -0.283 OA
ENDBRANCH  17  19
ENDBRANCH   6  17
TORSDOF 6
ENDMDL
MODEL 2
REMARK VINA RESULT: -7.034566944      1.299      1.340
REMARK  6 active torsions:
REMARK  status: ('A' for Active; 'I' for Inactive)
REMARK    1  A    between atoms: N1_1  and  C1_4 
REMARK    2  A    between atoms: C2_5  and  C3_6 
REMARK       I    between atoms: C3_6  and  N2_8 
REMARK    3  A    between atoms: N2_8  and  C4_10 
REMARK    4  A    between atoms: C4_10  and  C5_11 
REMARK    5  A    between atoms: C10_16  and  N3_17 
REMARK    6  A    between atoms: N3_17  and  C11_19 
ROOT
HETATM    1  C5  UNL     1      22.461  -5.239  11.006  1.00  0.00    -0.014 A 
HETATM    2  C6  UNL     1      22.192  -6.120  12.016  1.00  0.00     0.011 A 
HETATM    3  C7  UNL     1      22.829  -7.359  12.035  1.00  0.00     0.001 A 
HETATM    4  C8  UNL     1      23.721  -7.706  11.059  1.00  0.00     0.002 A 
HETATM    5  C9  UNL     1      23.970  -6.774  10.040  1.00  0.00     0.030 A 
HETATM    6  C10 UNL     1      23.372  -5.548   9.976  1.00  0.00     0.042 A 
ENDROOT
BRANCH   1   7
HETATM    7  C4  UNL     1      21.838  -3.905  10.963  1.00  0.00     0.164 C 
BRANCH   7   8
HETATM    8  N2  UNL     1      21.220  -3.525  12.195  1.00  0.00    -0.346 N 
HETATM    9  C3  UNL     1      19.952  -2.886  12.261  1.00  0.00     0.298 C 
HETATM   10  O1  UNL     1      19.352  -2.642  11.184  1.00  0.00    -0.258 OA
ATOM     11  H2  UNL     1      21.712  -3.721  13.067  1.00  0.00     0.163 HD
BRANCH   9  12
HETATM   12  C2  UNL     1      19.404  -2.546  13.543  1.00  0.00     0.017 C 
HETATM   13  C1  UNL     1      18.956  -2.258  14.642  1.00  0.00     0.013 C 
BRANCH  13  14
HETATM   14  N1  UNL     1      18.445  -1.903  15.896  1.00  0.00    -0.359 N 
ATOM     15  H12 UNL     1      19.356  -2.100  15.482  1.00  0.00     0.166 HD
ATOM     16  H11 UNL     1      18.056  -1.645  16.804  1.00  0.00     0.166 HD
ENDBRANCH  13  14
ENDBRANCH   9  12
ENDBRANCH   7   8
ENDBRANCH   1   7
BRANCH   6  17
HETATM   17  N3  UNL     1      23.589  -4.578   8.979  1.00  0.00    -0.334 N 
ATOM     18  H3  UNL     1      23.015  -3.736   9.013  1.00  0.00     0.168 HD
BRANCH  17  19
HETATM   19  C11 UNL     1      24.529  -4.678   7.943  1.00  0.00     0.353 C 
HETATM   20  O2  UNL     1      25.508  -3.959   7.709  1.00  0.00    -0.283 OA
ENDBRANCH  17  19
ENDBRANCH   6  17
TORSDOF 6
ENDMDL
MODEL 3
REMARK VINA RESULT: -6.964311091      3.765      5.023
REMARK  6 active torsions:
REMARK  status: ('A' for Active; 'I' for Inactive)
REMARK    1  A    between atoms: N1_1  and  C1_4 
REMARK    2  A    between atoms: C2_5  and  C3_6 
REMARK       I    between atoms: C3_6  and  N2_8 
REMARK    3  A    between atoms: N2_8  and  C4_10 
REMARK    4  A    between atoms: C4_10  and  C5_11 
REMARK    5  A    between atoms: C10_16  and  N3_17 
REMARK    6  A    between atoms: N3_17  and  C11_19 
ROOT
HETATM    1  C5  UNL     1      22.296  -6.486  12.037  1.00  0.00    -0.014 A 
HETATM    2  C6  UNL     1      22.915  -7.696  11.894  1.00  0.00     0.011 A 
HETATM    3  C7  UNL     1      23.818  -7.889  10.851  1.00  0.00     0.001 A 
HETATM    4  C8  UNL     1      24.095  -6.883   9.967  1.00  0.00     0.002 A 
HETATM    5  C9  UNL     1      23.439  -5.656  10.148  1.00  0.00     0.030 A 
HETATM    6  C10 UNL     1      22.547  -5.418  11.153  1.00  0.00     0.042 A 
ENDROOT
BRANCH   1   7
HETATM    7  C4  UNL     1      21.361  -6.226  13.144  1.00  0.00     0.164 C 
BRANCH   7   8
HETATM    8  N2  UNL     1      21.225  -7.328  14.046  1.00  0.00    -0.346 N 
HETATM    9  C3  UNL     1      21.006  -7.165  15.441  1.00  0.00     0.298 C 
HETATM   10  O1  UNL     1      20.933  -5.997  15.899  1.00  0.00    -0.258 OA
ATOM     11  H2  UNL     1      21.289  -8.274  13.671  1.00  0.00     0.163 HD
BRANCH   9  12
HETATM   12  C2  UNL     1      20.875  -8.328  16.271  1.00  0.00     0.017 C 
HETATM   13  C1  UNL     1      20.778  -9.327  16.967  1.00  0.00     0.013 C 
BRANCH  13  14
HETATM   14  N1  UNL     1      20.683 -10.462  17.782  1.00  0.00    -0.359 N 
ATOM     15  H12 UNL     1      21.414  -9.836  17.444  1.00  0.00     0.166 HD
ATOM     16  H11 UNL     1      20.596 -11.289  18.372  1.00  0.00     0.166 HD
ENDBRANCH  13  14
ENDBRANCH   9  12
ENDBRANCH   7   8
ENDBRANCH   1   7
BRANCH   6  17
HETATM   17  N3  UNL     1      21.866  -4.207  11.378  1.00  0.00    -0.334 N 
ATOM     18  H3  UNL     1      20.973  -4.255  11.869  1.00  0.00     0.168 HD
BRANCH  17  19
HETATM   19  C11 UNL     1      22.316  -2.938  10.983  1.00  0.00     0.353 C 
HETATM   20  O2  UNL     1      21.660  -1.969  10.582  1.00  0.00    -0.283 OA
ENDBRANCH  17  19
ENDBRANCH   6  17
TORSDOF 6
ENDMDL
MODEL 4
REMARK VINA RESULT: -6.532844702      3.524      4.076
REMARK  6 active torsions:
REMARK  status: ('A' for Active; 'I' for Inactive)
REMARK    1  A    between atoms: N1_1  and  C1_4 
REMARK    2  A    between atoms: C2_5  and  C3_6 
REMARK       I    between atoms: C3_6  and  N2_8 
REMARK    3  A    between atoms: N2_8  and  C4_10 
REMARK    4  A    between atoms: C4_10  and  C5_11 
REMARK    5  A    between atoms: C10_16  and  N3_17 
REMARK    6  A    between atoms: N3_17  and  C11_19 
ROOT
HETATM    1  C5  UNL     1      22.529  -6.748  11.674  1.00  0.00    -0.014 A 
HETATM    2  C6  UNL     1      22.990  -8.017  11.893  1.00  0.00     0.011 A 
HETATM    3  C7  UNL     1      23.808  -8.625  10.944  1.00  0.00     0.001 A 
HETATM    4  C8  UNL     1      24.160  -7.970   9.796  1.00  0.00     0.002 A 
HETATM    5  C9  UNL     1      23.668  -6.669   9.609  1.00  0.00     0.030 A 
HETATM    6  C10 UNL     1      22.863  -6.030  10.508  1.00  0.00     0.042 A 
ENDROOT
BRANCH   1   7
HETATM    7  C4  UNL     1      21.690  -6.053  12.665  1.00  0.00     0.164 C 
BRANCH   7   8
HETATM    8  N2  UNL     1      21.257  -6.895  13.736  1.00  0.00    -0.346 N 
HETATM    9  C3  UNL     1      20.545  -6.408  14.866  1.00  0.00     0.298 C 
HETATM   10  O1  UNL     1      20.291  -5.178  14.924  1.00  0.00    -0.258 OA
ATOM     11  H2  UNL     1      21.469  -7.892  13.688  1.00  0.00     0.163 HD
BRANCH   9  12
HETATM   12  C2  UNL     1      20.144  -7.327  15.891  1.00  0.00     0.017 C 
HETATM   13  C1  UNL     1      19.785  -8.113  16.755  1.00  0.00     0.013 C 
BRANCH  13  14
HETATM   14  N1  UNL     1      19.383  -9.031  17.733  1.00  0.00    -0.359 N 
ATOM     15  H12 UNL     1      19.273  -8.035  17.545  1.00  0.00     0.166 HD
ATOM     16  H11 UNL     1      19.100  -9.714  18.436  1.00  0.00     0.166 HD
ENDBRANCH  13  14
ENDBRANCH   9  12
ENDBRANCH   7   8
ENDBRANCH   1   7
BRANCH   6  17
HETATM   17  N3  UNL     1      22.345  -4.729  10.369  1.00  0.00    -0.334 N 
ATOM     18  H3  UNL     1      21.339  -4.636  10.235  1.00  0.00     0.168 HD
BRANCH  17  19
HETATM   19  C11 UNL     1      23.103  -3.548  10.400  1.00  0.00     0.353 C 
HETATM   20  O2  UNL     1      24.041  -3.206   9.671  1.00  0.00    -0.283 OA
ENDBRANCH  17  19
ENDBRANCH   6  17
TORSDOF 6
ENDMDL
MODEL 5
REMARK VINA RESULT: -6.398171170      3.577      4.313
REMARK  6 active torsions:
REMARK  status: ('A' for Active; 'I' for Inactive)
REMARK    1  A    between atoms: N1_1  and  C1_4 
REMARK    2  A    between atoms: C2_5  and  C3_6 
REMARK       I    between atoms: C3_6  and  N2_8 
REMARK    3  A    between atoms: N2_8  and  C4_10 
REMARK    4  A    between atoms: C4_10  and  C5_11 
REMARK    5  A    between atoms: C10_16  and  N3_17 
REMARK    6  A    between atoms: N3_17  and  C11_19 
ROOT
HETATM    1  C5  UNL     1      22.621  -6.697  12.029  1.00  0.00    -0.014 A 
HETATM    2  C6  UNL     1      23.168  -7.930  11.806  1.00  0.00     0.011 A 
HETATM    3  C7  UNL     1      23.878  -8.167  10.632  1.00  0.00     0.001 A 
HETATM    4  C8  UNL     1      24.039  -7.182   9.697  1.00  0.00     0.002 A 
HETATM    5  C9  UNL     1      23.464  -5.930   9.962  1.00  0.00     0.030 A 
HETATM    6  C10 UNL     1      22.759  -5.648  11.097  1.00  0.00     0.042 A 
ENDROOT
BRANCH   1   7
HETATM    7  C4  UNL     1      21.892  -6.391  13.270  1.00  0.00     0.164 C 
BRANCH   7   8
HETATM    8  N2  UNL     1      20.652  -7.094  13.391  1.00  0.00    -0.346 N 
HETATM    9  C3  UNL     1      19.934  -7.195  14.613  1.00  0.00     0.298 C 
HETATM   10  O1  UNL     1      20.418  -6.645  15.634  1.00  0.00    -0.258 OA
ATOM     11  H2  UNL     1      20.265  -7.543  12.560  1.00  0.00     0.163 HD
BRANCH   9  12
HETATM   12  C2  UNL     1      18.693  -7.915  14.640  1.00  0.00     0.017 C 
HETATM   13  C1  UNL     1      17.637  -8.528  14.643  1.00  0.00     0.013 C 
BRANCH  13  14
HETATM   14  N1  UNL     1      16.438  -9.252  14.647  1.00  0.00    -0.359 N 
ATOM     15  H12 UNL     1      16.995  -8.713  15.310  1.00  0.00     0.166 HD
ATOM     16  H11 UNL     1      15.568  -9.784  14.632  1.00  0.00     0.166 HD
ENDBRANCH  13  14
ENDBRANCH   9  12
ENDBRANCH   7   8
ENDBRANCH   1   7
BRANCH   6  17
HETATM   17  N3  UNL     1      22.165  -4.411  11.411  1.00  0.00    -0.334 N 
ATOM     18  H3  UNL     1      21.396  -4.417  12.080  1.00  0.00     0.168 HD
BRANCH  17  19
HETATM   19  C11 UNL     1      22.545  -3.171  10.876  1.00  0.00     0.353 C 
HETATM   20  O2  UNL     1      21.857  -2.163  10.682  1.00  0.00    -0.283 OA
ENDBRANCH  17  19
ENDBRANCH   6  17
TORSDOF 6
ENDMDL
