MODEL 1
REMARK VINA RESULT: -6.592756891      0.000      0.000
REMARK  5 active torsions:
REMARK  status: ('A' for Active; 'I' for Inactive)
REMARK    1  A    between atoms: C2_2  and  C4_10 
REMARK    2  A    between atoms: N1_3  and  N2_5 
REMARK    3  A    between atoms: C7_13  and  C8_14 
REMARK    4  A    between atoms: C8_14  and  N5_15 
REMARK    5  A    between atoms: N5_15  and  N6_16 
ROOT
HETATM    1  C4  UNL     1      19.096  -3.468  14.525  1.00  0.00    -0.013 A 
HETATM    2  C5  UNL     1      18.947  -2.956  15.784  1.00  0.00     0.014 A 
HETATM    3  C6  UNL     1      19.345  -3.743  16.878  1.00  0.00     0.009 A 
HETATM    4  C7  UNL     1      19.871  -4.991  16.725  1.00  0.00    -0.042 A 
HETATM    5  C9  UNL     1      20.015  -5.490  15.458  1.00  0.00     0.009 A 
HETATM    6  C10 UNL     1      19.634  -4.742  14.384  1.00  0.00     0.014 A 
ENDROOT
BRANCH   1   7
HETATM    7  C2  UNL     1      18.709  -2.719  13.319  1.00  0.00     0.032 C 
HETATM    8  C1  UNL     1      17.238  -2.380  13.138  1.00  0.00     0.070 C 
HETATM    9  N1  UNL     1      19.489  -2.352  12.456  1.00  0.00    -0.302 N 
ATOM     10  H1  UNL     1      18.962  -1.857  11.737  1.00  0.00     0.186 HD
BRANCH   9  11
HETATM   11  N2  UNL     1      20.778  -2.356  12.102  1.00  0.00    -0.276 N 
HETATM   12  C3  UNL     1      21.163  -2.643  10.917  1.00  0.00     0.215 C 
HETATM   13  N3  UNL     1      20.209  -2.965   9.944  1.00  0.00    -0.065 NA
HETATM   14  N4  UNL     1      22.546  -2.627  10.620  1.00  0.00    -0.065 NA
ATOM     15  H2  UNL     1      21.481  -2.123  12.804  1.00  0.00     0.189 HD
ENDBRANCH   9  11
ENDBRANCH   1   7
BRANCH   4  16
HETATM   16  C8  UNL     1      20.273  -5.766  17.911  1.00  0.00     0.172 C 
BRANCH  16  17
HETATM   17  N5  UNL     1      21.630  -6.211  17.734  1.00  0.00    -0.144 NA
BRANCH  17  18
HETATM   18  N6  UNL     1      21.780  -7.542  18.164  1.00  0.00    -0.348 N 
ATOM     19  H62 UNL     1      21.009  -8.204  18.239  1.00  0.00     0.172 HD
ATOM     20  H61 UNL     1      22.755  -7.743  18.385  1.00  0.00     0.172 HD
ENDBRANCH  17  18
ENDBRANCH  16  17
ENDBRANCH   4  16
TORSDOF 5
ENDMDL
MODEL 2
REMARK VINA RESULT: -6.258451185      3.355      6.527
REMARK  5 active torsions:
REMARK  status: ('A' for Active; 'I' for Inactive)
REMARK    1  A    between atoms: C2_2  and  C4_10 
REMARK    2  A    between atoms: N1_3  and  N2_5 
REMARK    3  A    between atoms: C7_13  and  C8_14 
REMARK    4  A    between atoms: C8_14  and  N5_15 
REMARK    5  A    between atoms: N5_15  and  N6_16 
ROOT
HETATM    1  C4  UNL     1      21.719  -6.071  12.702  1.00  0.00    -0.013 A 
HETATM    2  C5  UNL     1      21.683  -4.926  11.956  1.00  0.00     0.014 A 
HETATM    3  C6  UNL     1      22.526  -4.830  10.837  1.00  0.00     0.009 A 
HETATM    4  C7  UNL     1      23.372  -5.834  10.473  1.00  0.00    -0.042 A 
HETATM    5  C9  UNL     1      23.396  -6.976  11.229  1.00  0.00     0.009 A 
HETATM    6  C10 UNL     1      22.587  -7.088  12.320  1.00  0.00     0.014 A 
ENDROOT
BRANCH   1   7
HETATM    7  C2  UNL     1      20.873  -6.264  13.891  1.00  0.00     0.032 C 
HETATM    8  C1  UNL     1      21.111  -7.505  14.735  1.00  0.00     0.070 C 
HETATM    9  N1  UNL     1      19.995  -5.494  14.243  1.00  0.00    -0.302 N 
ATOM     10  H1  UNL     1      19.567  -5.863  15.092  1.00  0.00     0.186 HD
BRANCH   9  11
HETATM   11  N2  UNL     1      19.384  -4.346  13.932  1.00  0.00    -0.276 N 
HETATM   12  C3  UNL     1      18.254  -4.013  14.429  1.00  0.00     0.215 C 
HETATM   13  N3  UNL     1      17.622  -4.873  15.336  1.00  0.00    -0.065 NA
HETATM   14  N4  UNL     1      17.672  -2.782  14.049  1.00  0.00    -0.065 NA
ATOM     15  H2  UNL     1      19.837  -3.713  13.272  1.00  0.00     0.189 HD
ENDBRANCH   9  11
ENDBRANCH   1   7
BRANCH   4  16
HETATM   16  C8  UNL     1      24.230  -5.676   9.286  1.00  0.00     0.172 C 
BRANCH  16  17
HETATM   17  N5  UNL     1      24.450  -4.272   9.060  1.00  0.00    -0.144 NA
BRANCH  17  18
HETATM   18  N6  UNL     1      25.001  -4.050   7.785  1.00  0.00    -0.348 N 
ATOM     19  H62 UNL     1      25.049  -4.762   7.057  1.00  0.00     0.172 HD
ATOM     20  H61 UNL     1      25.338  -3.092   7.698  1.00  0.00     0.172 HD
ENDBRANCH  17  18
ENDBRANCH  16  17
ENDBRANCH   4  16
TORSDOF 5
ENDMDL
MODEL 3
REMARK VINA RESULT: -6.140706840      1.666      2.241
REMARK  5 active torsions:
REMARK  status: ('A' for Active; 'I' for Inactive)
REMARK    1  A    between atoms: C2_2  and  C4_10 
REMARK    2  A    between atoms: N1_3  and  N2_5 
REMARK    3  A    between atoms: C7_13  and  C8_14 
REMARK    4  A    between atoms: C8_14  and  N5_15 
REMARK    5  A    between atoms: N5_15  and  N6_16 
ROOT
HETATM    1  C4  UNL     1      18.364  -3.185  13.505  1.00  0.00    -0.013 A 
HETATM    2  C5  UNL     1      19.322  -4.038  13.975  1.00  0.00     0.014 A 
HETATM    3  C6  UNL     1      19.184  -4.549  15.277  1.00  0.00     0.009 A 
HETATM    4  C7  UNL     1      18.132  -4.223  16.080  1.00  0.00    -0.042 A 
HETATM    5  C9  UNL     1      17.179  -3.367  15.595  1.00  0.00     0.009 A 
HETATM    6  C10 UNL     1      17.296  -2.861  14.335  1.00  0.00     0.014 A 
ENDROOT
BRANCH   1   7
HETATM    7  C2  UNL     1      18.422  -2.600  12.156  1.00  0.00     0.032 C 
HETATM    8  C1  UNL     1      17.111  -2.409  11.410  1.00  0.00     0.070 C 
HETATM    9  N1  UNL     1      19.451  -2.259  11.597  1.00  0.00    -0.302 N 
ATOM     10  H1  UNL     1      19.209  -1.888  10.678  1.00  0.00     0.186 HD
BRANCH   9  11
HETATM   11  N2  UNL     1      20.778  -2.190  11.741  1.00  0.00    -0.276 N 
HETATM   12  C3  UNL     1      21.585  -2.838  10.988  1.00  0.00     0.215 C 
HETATM   13  N3  UNL     1      21.071  -3.654   9.973  1.00  0.00    -0.065 NA
HETATM   14  N4  UNL     1      22.976  -2.713  11.204  1.00  0.00    -0.065 NA
ATOM     15  H2  UNL     1      21.162  -1.598  12.478  1.00  0.00     0.189 HD
ENDBRANCH   9  11
ENDBRANCH   1   7
BRANCH   4  16
HETATM   16  C8  UNL     1      18.041  -4.793  17.435  1.00  0.00     0.172 C 
BRANCH  16  17
HETATM   17  N5  UNL     1      19.305  -4.611  18.098  1.00  0.00    -0.144 NA
BRANCH  17  18
HETATM   18  N6  UNL     1      19.457  -3.282  18.529  1.00  0.00    -0.348 N 
ATOM     19  H62 UNL     1      18.829  -2.825  19.191  1.00  0.00     0.172 HD
ATOM     20  H61 UNL     1      20.271  -2.850  18.092  1.00  0.00     0.172 HD
ENDBRANCH  17  18
ENDBRANCH  16  17
ENDBRANCH   4  16
TORSDOF 5
ENDMDL
MODEL 4
REMARK VINA RESULT: -5.975733567      2.942      5.897
REMARK  5 active torsions:
REMARK  status: ('A' for Active; 'I' for Inactive)
REMARK    1  A    between atoms: C2_2  and  C4_10 
REMARK    2  A    between atoms: N1_3  and  N2_5 
REMARK    3  A    between atoms: C7_13  and  C8_14 
REMARK    4  A    between atoms: C8_14  and  N5_15 
REMARK    5  A    between atoms: N5_15  and  N6_16 
ROOT
HETATM    1  C4  UNL     1      19.809  -2.980  12.246  1.00  0.00    -0.013 A 
HETATM    2  C5  UNL     1      20.423  -4.084  12.769  1.00  0.00     0.014 A 
HETATM    3  C6  UNL     1      21.563  -4.586  12.120  1.00  0.00     0.009 A 
HETATM    4  C7  UNL     1      22.074  -4.012  10.994  1.00  0.00    -0.042 A 
HETATM    5  C9  UNL     1      21.448  -2.906  10.482  1.00  0.00     0.009 A 
HETATM    6  C10 UNL     1      20.340  -2.405  11.097  1.00  0.00     0.014 A 
ENDROOT
BRANCH   1   7
HETATM    7  C2  UNL     1      18.610  -2.382  12.856  1.00  0.00     0.032 C 
HETATM    8  C1  UNL     1      17.413  -2.122  11.955  1.00  0.00     0.070 C 
HETATM    9  N1  UNL     1      18.514  -2.083  14.034  1.00  0.00    -0.302 N 
ATOM     10  H1  UNL     1      17.585  -1.690  14.189  1.00  0.00     0.186 HD
BRANCH   9  11
HETATM   11  N2  UNL     1      19.171  -2.077  15.198  1.00  0.00    -0.276 N 
HETATM   12  C3  UNL     1      18.576  -2.208  16.323  1.00  0.00     0.215 C 
HETATM   13  N3  UNL     1      17.185  -2.364  16.350  1.00  0.00    -0.065 NA
HETATM   14  N4  UNL     1      19.342  -2.190  17.511  1.00  0.00    -0.065 NA
ATOM     15  H2  UNL     1      20.185  -1.964  15.188  1.00  0.00     0.189 HD
ENDBRANCH   9  11
ENDBRANCH   1   7
BRANCH   4  16
HETATM   16  C8  UNL     1      23.274  -4.583  10.361  1.00  0.00     0.172 C 
BRANCH  16  17
HETATM   17  N5  UNL     1      23.957  -3.540   9.641  1.00  0.00    -0.144 NA
BRANCH  17  18
HETATM   18  N6  UNL     1      24.627  -4.062   8.520  1.00  0.00    -0.348 N 
ATOM     19  H62 UNL     1      24.184  -4.214   7.615  1.00  0.00     0.172 HD
ATOM     20  H61 UNL     1      25.602  -4.262   8.742  1.00  0.00     0.172 HD
ENDBRANCH  17  18
ENDBRANCH  16  17
ENDBRANCH   4  16
TORSDOF 5
ENDMDL
MODEL 5
REMARK VINA RESULT: -5.921767959      3.914      6.542
REMARK  5 active torsions:
REMARK  status: ('A' for Active; 'I' for Inactive)
REMARK    1  A    between atoms: C2_2  and  C4_10 
REMARK    2  A    between atoms: N1_3  and  N2_5 
REMARK    3  A    between atoms: C7_13  and  C8_14 
REMARK    4  A    between atoms: C8_14  and  N5_15 
REMARK    5  A    between atoms: N5_15  and  N6_16 
ROOT
HETATM    1  C4  UNL     1      22.795  -4.605  10.513  1.00  0.00    -0.013 A 
HETATM    2  C5  UNL     1      22.218  -5.244  11.575  1.00  0.00     0.014 A 
HETATM    3  C6  UNL     1      21.217  -4.573  12.297  1.00  0.00     0.009 A 
HETATM    4  C7  UNL     1      20.805  -3.315  11.974  1.00  0.00    -0.042 A 
HETATM    5  C9  UNL     1      21.392  -2.687  10.908  1.00  0.00     0.009 A 
HETATM    6  C10 UNL     1      22.366  -3.321  10.196  1.00  0.00     0.014 A 
ENDROOT
BRANCH   1   7
HETATM    7  C2  UNL     1      23.850  -5.227   9.697  1.00  0.00     0.032 C 
HETATM    8  C1  UNL     1      24.278  -4.509   8.427  1.00  0.00     0.070 C 
HETATM    9  N1  UNL     1      24.404  -6.278   9.973  1.00  0.00    -0.302 N 
ATOM     10  H1  UNL     1      25.091  -6.479   9.246  1.00  0.00     0.186 HD
BRANCH   9  11
HETATM   11  N2  UNL     1      24.448  -7.264  10.874  1.00  0.00    -0.276 N 
HETATM   12  C3  UNL     1      23.786  -8.351  10.734  1.00  0.00     0.215 C 
HETATM   13  N3  UNL     1      22.985  -8.525   9.599  1.00  0.00    -0.065 NA
HETATM   14  N4  UNL     1      23.884  -9.348  11.732  1.00  0.00    -0.065 NA
ATOM     15  H2  UNL     1      25.029  -7.147  11.704  1.00  0.00     0.189 HD
ENDBRANCH   9  11
ENDBRANCH   1   7
BRANCH   4  16
HETATM   16  C8  UNL     1      19.748  -2.664  12.768  1.00  0.00     0.172 C 
BRANCH  16  17
HETATM   17  N5  UNL     1      18.523  -2.691  12.014  1.00  0.00    -0.144 NA
BRANCH  17  18
HETATM   18  N6  UNL     1      17.744  -1.551  12.284  1.00  0.00    -0.348 N 
ATOM     19  H62 UNL     1      17.888  -0.945  13.091  1.00  0.00     0.172 HD
ATOM     20  H61 UNL     1      17.030  -1.423  11.568  1.00  0.00     0.172 HD
ENDBRANCH  17  18
ENDBRANCH  16  17
ENDBRANCH   4  16
TORSDOF 5
ENDMDL
