MODEL 1
REMARK VINA RESULT: -9.308962741      0.000      0.000
REMARK  14 active torsions:
REMARK  status: ('A' for Active; 'I' for Inactive)
REMARK    1  A    between atoms: N1_1  and  N2_4 
REMARK       I    between atoms: N2_4  and  C1_6 
REMARK    2  A    between atoms: C1_6  and  C2_8 
REMARK       I    between atoms: C2_8  and  N3_10 
REMARK    3  A    between atoms: N3_10  and  C3_12 
REMARK    4  A    between atoms: C3_12  and  N4_13 
REMARK    5  A    between atoms: C3_12  and  C14_45 
REMARK    6  A    between atoms: N4_13  and  N5_15 
REMARK    7  A    between atoms: C4_17  and  C5_18 
REMARK    8  A    between atoms: C6_19  and  O3_20 
REMARK    9  A    between atoms: C7_22  and  O4_23 
REMARK   10  A    between atoms: C8_25  and  N6_26 
REMARK   11  A    between atoms: C9_29  and  C10_30 
REMARK   12  A    between atoms: C11_35  and  N10_36 
REMARK   13  A    between atoms: C12_39  and  O8_40 
REMARK   14  A    between atoms: C13_42  and  O9_43 
ROOT
HETATM    1  C5  UNL     1     -27.168   8.730  -3.720  1.00  0.00     0.088 C 
HETATM    2  C6  UNL     1     -26.243   9.888  -3.886  1.00  0.00     0.160 C 
HETATM    3  C7  UNL     1     -24.927   9.451  -4.452  1.00  0.00     0.175 C 
HETATM    4  C8  UNL     1     -25.251   8.964  -5.873  1.00  0.00     0.174 C 
HETATM    5  C12 UNL     1     -25.969   7.645  -5.670  1.00  0.00     0.175 C 
HETATM    6  C13 UNL     1     -27.174   7.722  -4.806  1.00  0.00     0.160 C 
ENDROOT
BRANCH   1   7
HETATM    7  C4  UNL     1     -28.572   9.267  -3.564  1.00  0.00     0.089 C 
HETATM    8  N5  UNL     1     -29.453   9.072  -4.469  1.00  0.00    -0.317 N 
ATOM      9  H5  UNL     1     -29.212   8.548  -5.310  1.00  0.00     0.185 HD
BRANCH   8  10
HETATM   10  N4  UNL     1     -30.736   9.575  -4.308  1.00  0.00    -0.305 N 
ATOM     11  H4  UNL     1     -30.889  10.423  -3.760  1.00  0.00     0.183 HD
BRANCH  10  12
HETATM   12  C3  UNL     1     -31.852   8.896  -4.917  1.00  0.00     0.290 C 
BRANCH  12  13
HETATM   13  N3  UNL     1     -31.710   7.480  -4.536  1.00  0.00    -0.323 N 
HETATM   14  C2  UNL     1     -30.954   6.560  -5.262  1.00  0.00     0.313 C 
HETATM   15  O2  UNL     1     -30.351   6.926  -6.299  1.00  0.00    -0.262 OA
ATOM     16  H3  UNL     1     -32.190   7.155  -3.697  1.00  0.00     0.165 HD
BRANCH  14  17
HETATM   17  C1  UNL     1     -30.862   5.180  -4.820  1.00  0.00     0.327 C 
HETATM   18  N2  UNL     1     -29.620   4.689  -4.344  1.00  0.00    -0.268 N 
ATOM     19  H2  UNL     1     -28.810   5.308  -4.316  1.00  0.00     0.190 HD
HETATM   20  O1  UNL     1     -31.854   4.399  -4.844  1.00  0.00    -0.261 OA
BRANCH  18  21
HETATM   21  N1  UNL     1     -29.494   3.349  -3.907  1.00  0.00    -0.342 N 
ATOM     22  H12 UNL     1     -30.020   2.624  -4.395  1.00  0.00     0.176 HD
ATOM     23  H11 UNL     1     -28.890   3.114  -3.119  1.00  0.00     0.176 HD
ENDBRANCH  18  21
ENDBRANCH  14  17
ENDBRANCH  12  13
BRANCH  12  24
HETATM   24  C14 UNL     1     -33.113   9.433  -4.324  1.00  0.00     0.275 C 
HETATM   25  N11 UNL     1     -34.363   9.095  -4.890  1.00  0.00    -0.059 NA
HETATM   26  O10 UNL     1     -33.094  10.187  -3.320  1.00  0.00    -0.272 OA
ENDBRANCH  12  24
ENDBRANCH  10  12
ENDBRANCH   8  10
ENDBRANCH   1   7
BRANCH   2  27
HETATM   27  O3  UNL     1     -26.763  10.865  -4.760  1.00  0.00    -0.392 OA
ATOM     28  H3  UNL     1     -26.287  10.904  -5.580  1.00  0.00     0.210 HD
ENDBRANCH   2  27
BRANCH   6  29
HETATM   29  O9  UNL     1     -27.317   6.442  -4.212  1.00  0.00    -0.392 OA
ATOM     30  H9  UNL     1     -26.944   5.801  -4.806  1.00  0.00     0.210 HD
ENDBRANCH   6  29
BRANCH   3  31
HETATM   31  O4  UNL     1     -23.983  10.455  -4.483  1.00  0.00    -0.391 OA
ATOM     32  H4  UNL     1     -23.668  10.652  -5.358  1.00  0.00     0.210 HD
ENDBRANCH   3  31
BRANCH   5  33
HETATM   33  O8  UNL     1     -26.315   7.166  -6.932  1.00  0.00    -0.391 OA
ATOM     34  H8  UNL     1     -27.264   7.170  -6.983  1.00  0.00     0.210 HD
ENDBRANCH   5  33
BRANCH   4  35
HETATM   35  N6  UNL     1     -23.989   8.653  -6.515  1.00  0.00    -0.245 N 
HETATM   36  N7  UNL     1     -23.465   7.423  -6.360  1.00  0.00    -0.276 N 
HETATM   37  C9  UNL     1     -22.323   7.375  -7.035  1.00  0.00     0.189 A 
ATOM     38  H7  UNL     1     -23.875   6.662  -5.819  1.00  0.00     0.189 HD
HETATM   39  N9  UNL     1     -22.151   8.586  -7.607  1.00  0.00    -0.303 N 
HETATM   40  C11 UNL     1     -23.192   9.382  -7.280  1.00  0.00     0.269 A 
ATOM     41  H9  UNL     1     -21.361   8.857  -8.192  1.00  0.00     0.171 HD
BRANCH  37  42
HETATM   42  C10 UNL     1     -21.460   6.214  -7.109  1.00  0.00     0.300 C 
HETATM   43  N8  UNL     1     -21.884   5.062  -7.787  1.00  0.00    -0.054 NA
HETATM   44  O5  UNL     1     -20.341   6.245  -6.568  1.00  0.00    -0.268 OA
ENDBRANCH  37  42
BRANCH  40  45
HETATM   45  N10 UNL     1     -23.408  10.729  -7.670  1.00  0.00    -0.077 N 
HETATM   46  O6  UNL     1     -24.001  11.107  -8.684  1.00  0.00    -0.529 OA
HETATM   47  O7  UNL     1     -22.923  11.760  -6.865  1.00  0.00    -0.529 OA
ENDBRANCH  40  45
ENDBRANCH   4  35
TORSDOF 14
ENDMDL
MODEL 2
REMARK VINA RESULT: -9.156213557      2.207      4.455
REMARK  14 active torsions:
REMARK  status: ('A' for Active; 'I' for Inactive)
REMARK    1  A    between atoms: N1_1  and  N2_4 
REMARK       I    between atoms: N2_4  and  C1_6 
REMARK    2  A    between atoms: C1_6  and  C2_8 
REMARK       I    between atoms: C2_8  and  N3_10 
REMARK    3  A    between atoms: N3_10  and  C3_12 
REMARK    4  A    between atoms: C3_12  and  N4_13 
REMARK    5  A    between atoms: C3_12  and  C14_45 
REMARK    6  A    between atoms: N4_13  and  N5_15 
REMARK    7  A    between atoms: C4_17  and  C5_18 
REMARK    8  A    between atoms: C6_19  and  O3_20 
REMARK    9  A    between atoms: C7_22  and  O4_23 
REMARK   10  A    between atoms: C8_25  and  N6_26 
REMARK   11  A    between atoms: C9_29  and  C10_30 
REMARK   12  A    between atoms: C11_35  and  N10_36 
REMARK   13  A    between atoms: C12_39  and  O8_40 
REMARK   14  A    between atoms: C13_42  and  O9_43 
ROOT
HETATM    1  C5  UNL     1     -26.359   8.460  -5.391  1.00  0.00     0.088 C 
HETATM    2  C6  UNL     1     -26.545   7.788  -6.710  1.00  0.00     0.160 C 
HETATM    3  C7  UNL     1     -25.474   8.191  -7.676  1.00  0.00     0.175 C 
HETATM    4  C8  UNL     1     -24.176   7.614  -7.090  1.00  0.00     0.174 C 
HETATM    5  C12 UNL     1     -23.876   8.491  -5.891  1.00  0.00     0.175 C 
HETATM    6  C13 UNL     1     -24.969   8.568  -4.889  1.00  0.00     0.160 C 
ENDROOT
BRANCH   1   7
HETATM    7  C4  UNL     1     -27.178   7.714  -4.363  1.00  0.00     0.089 C 
HETATM    8  N5  UNL     1     -28.382   7.368  -4.610  1.00  0.00    -0.317 N 
ATOM      9  H5  UNL     1     -28.804   7.594  -5.511  1.00  0.00     0.185 HD
BRANCH   8  10
HETATM   10  N4  UNL     1     -29.119   6.685  -3.652  1.00  0.00    -0.305 N 
ATOM     11  H4  UNL     1     -29.059   6.957  -2.670  1.00  0.00     0.183 HD
BRANCH  10  12
HETATM   12  C3  UNL     1     -29.968   5.590  -4.050  1.00  0.00     0.290 C 
BRANCH  12  13
HETATM   13  N3  UNL     1     -30.552   5.990  -5.341  1.00  0.00    -0.323 N 
HETATM   14  C2  UNL     1     -31.610   6.890  -5.462  1.00  0.00     0.313 C 
HETATM   15  O2  UNL     1     -32.114   7.403  -4.434  1.00  0.00    -0.262 OA
ATOM     16  H3  UNL     1     -30.161   5.588  -6.193  1.00  0.00     0.165 HD
BRANCH  14  17
HETATM   17  C1  UNL     1     -32.130   7.236  -6.772  1.00  0.00     0.327 C 
HETATM   18  N2  UNL     1     -31.314   7.035  -7.913  1.00  0.00    -0.268 N 
ATOM     19  H2  UNL     1     -30.375   6.651  -7.802  1.00  0.00     0.190 HD
HETATM   20  O1  UNL     1     -33.290   7.710  -6.931  1.00  0.00    -0.261 OA
BRANCH  18  21
HETATM   21  N1  UNL     1     -31.788   7.362  -9.206  1.00  0.00    -0.342 N 
ATOM     22  H12 UNL     1     -32.114   8.313  -9.382  1.00  0.00     0.176 HD
ATOM     23  H11 UNL     1     -31.805   6.661  -9.947  1.00  0.00     0.176 HD
ENDBRANCH  18  21
ENDBRANCH  14  17
ENDBRANCH  12  13
BRANCH  12  24
HETATM   24  C14 UNL     1     -29.114   4.382  -4.258  1.00  0.00     0.275 C 
HETATM   25  N11 UNL     1     -29.435   3.166  -3.612  1.00  0.00    -0.059 NA
HETATM   26  O10 UNL     1     -28.104   4.416  -5.004  1.00  0.00    -0.272 OA
ENDBRANCH  12  24
ENDBRANCH  10  12
ENDBRANCH   8  10
ENDBRANCH   1   7
BRANCH   2  27
HETATM   27  O3  UNL     1     -26.498   6.384  -6.604  1.00  0.00    -0.392 OA
ATOM     28  H3  UNL     1     -25.731   6.017  -7.026  1.00  0.00     0.210 HD
ENDBRANCH   2  27
BRANCH   6  29
HETATM   29  O9  UNL     1     -24.833   9.826  -4.251  1.00  0.00    -0.392 OA
ATOM     30  H9  UNL     1     -24.029  10.226  -4.562  1.00  0.00     0.210 HD
ENDBRANCH   6  29
BRANCH   3  31
HETATM   31  O4  UNL     1     -25.684   7.720  -8.955  1.00  0.00    -0.391 OA
ATOM     32  H4  UNL     1     -25.093   8.096  -9.598  1.00  0.00     0.210 HD
ENDBRANCH   3  31
BRANCH   5  33
HETATM   33  O8  UNL     1     -22.717   7.995  -5.297  1.00  0.00    -0.391 OA
ATOM     34  H8  UNL     1     -22.359   8.689  -4.757  1.00  0.00     0.210 HD
ENDBRANCH   5  33
BRANCH   4  35
HETATM   35  N6  UNL     1     -23.125   7.861  -8.056  1.00  0.00    -0.245 N 
HETATM   36  N7  UNL     1     -23.180   8.975  -8.808  1.00  0.00    -0.276 N 
HETATM   37  C9  UNL     1     -22.120   8.984  -9.607  1.00  0.00     0.189 A 
ATOM     38  H7  UNL     1     -23.909   9.687  -8.771  1.00  0.00     0.189 HD
HETATM   39  N9  UNL     1     -21.412   7.867  -9.337  1.00  0.00    -0.303 N 
HETATM   40  C11 UNL     1     -22.041   7.167  -8.370  1.00  0.00     0.269 A 
ATOM     41  H9  UNL     1     -20.541   7.594  -9.792  1.00  0.00     0.171 HD
BRANCH  37  42
HETATM   42  C10 UNL     1     -21.826  10.025 -10.572  1.00  0.00     0.300 C 
HETATM   43  N8  UNL     1     -20.651  10.782 -10.457  1.00  0.00    -0.054 NA
HETATM   44  O5  UNL     1     -22.621  10.242 -11.502  1.00  0.00    -0.268 OA
ENDBRANCH  37  42
BRANCH  40  45
HETATM   45  N10 UNL     1     -21.639   5.935  -7.789  1.00  0.00    -0.077 N 
HETATM   46  O6  UNL     1     -21.951   4.809  -8.185  1.00  0.00    -0.529 OA
HETATM   47  O7  UNL     1     -20.814   5.948  -6.664  1.00  0.00    -0.529 OA
ENDBRANCH  40  45
ENDBRANCH   4  35
TORSDOF 14
ENDMDL
MODEL 3
REMARK VINA RESULT: -9.069599496      1.985      3.188
REMARK  14 active torsions:
REMARK  status: ('A' for Active; 'I' for Inactive)
REMARK    1  A    between atoms: N1_1  and  N2_4 
REMARK       I    between atoms: N2_4  and  C1_6 
REMARK    2  A    between atoms: C1_6  and  C2_8 
REMARK       I    between atoms: C2_8  and  N3_10 
REMARK    3  A    between atoms: N3_10  and  C3_12 
REMARK    4  A    between atoms: C3_12  and  N4_13 
REMARK    5  A    between atoms: C3_12  and  C14_45 
REMARK    6  A    between atoms: N4_13  and  N5_15 
REMARK    7  A    between atoms: C4_17  and  C5_18 
REMARK    8  A    between atoms: C6_19  and  O3_20 
REMARK    9  A    between atoms: C7_22  and  O4_23 
REMARK   10  A    between atoms: C8_25  and  N6_26 
REMARK   11  A    between atoms: C9_29  and  C10_30 
REMARK   12  A    between atoms: C11_35  and  N10_36 
REMARK   13  A    between atoms: C12_39  and  O8_40 
REMARK   14  A    between atoms: C13_42  and  O9_43 
ROOT
HETATM    1  C5  UNL     1     -27.612   7.346  -4.238  1.00  0.00     0.088 C 
HETATM    2  C6  UNL     1     -26.625   8.462  -4.175  1.00  0.00     0.160 C 
HETATM    3  C7  UNL     1     -25.380   8.126  -4.937  1.00  0.00     0.175 C 
HETATM    4  C8  UNL     1     -25.827   8.043  -6.405  1.00  0.00     0.174 C 
HETATM    5  C12 UNL     1     -26.617   6.752  -6.491  1.00  0.00     0.175 C 
HETATM    6  C13 UNL     1     -27.755   6.658  -5.542  1.00  0.00     0.160 C 
ENDROOT
BRANCH   1   7
HETATM    7  C4  UNL     1     -28.963   7.890  -3.837  1.00  0.00     0.089 C 
HETATM    8  N5  UNL     1     -29.954   7.842  -4.643  1.00  0.00    -0.317 N 
ATOM      9  H5  UNL     1     -29.839   7.432  -5.569  1.00  0.00     0.185 HD
BRANCH   8  10
HETATM   10  N4  UNL     1     -31.187   8.348  -4.257  1.00  0.00    -0.305 N 
ATOM     11  H4  UNL     1     -31.780   7.820  -3.616  1.00  0.00     0.183 HD
BRANCH  10  12
HETATM   12  C3  UNL     1     -31.627   9.623  -4.766  1.00  0.00     0.290 C 
BRANCH  12  13
HETATM   13  N3  UNL     1     -33.099   9.584  -4.713  1.00  0.00    -0.323 N 
HETATM   14  C2  UNL     1     -33.875   8.720  -5.486  1.00  0.00     0.313 C 
HETATM   15  O2  UNL     1     -33.319   7.922  -6.278  1.00  0.00    -0.262 OA
ATOM     16  H3  UNL     1     -33.577  10.223  -4.078  1.00  0.00     0.165 HD
BRANCH  14  17
HETATM   17  C1  UNL     1     -35.321   8.741  -5.376  1.00  0.00     0.327 C 
HETATM   18  N2  UNL     1     -35.960   9.908  -4.889  1.00  0.00    -0.268 N 
ATOM     19  H2  UNL     1     -35.399  10.717  -4.622  1.00  0.00     0.190 HD
HETATM   20  O1  UNL     1     -36.035   7.751  -5.704  1.00  0.00    -0.261 OA
BRANCH  18  21
HETATM   21  N1  UNL     1     -37.369   9.963  -4.768  1.00  0.00    -0.342 N 
ATOM     22  H12 UNL     1     -37.927  10.125  -5.606  1.00  0.00     0.176 HD
ATOM     23  H11 UNL     1     -37.818   9.842  -3.859  1.00  0.00     0.176 HD
ENDBRANCH  18  21
ENDBRANCH  14  17
ENDBRANCH  12  13
BRANCH  12  24
HETATM   24  C14 UNL     1     -31.138  10.693  -3.845  1.00  0.00     0.275 C 
HETATM   25  N11 UNL     1     -30.288  11.712  -4.331  1.00  0.00    -0.059 NA
HETATM   26  O10 UNL     1     -31.469  10.715  -2.634  1.00  0.00    -0.272 OA
ENDBRANCH  12  24
ENDBRANCH  10  12
ENDBRANCH   8  10
ENDBRANCH   1   7
BRANCH   2  27
HETATM   27  O3  UNL     1     -27.134   9.656  -4.723  1.00  0.00    -0.392 OA
ATOM     28  H3  UNL     1     -26.472  10.147  -5.194  1.00  0.00     0.210 HD
ENDBRANCH   2  27
BRANCH   6  29
HETATM   29  O9  UNL     1     -27.944   5.276  -5.287  1.00  0.00    -0.392 OA
ATOM     30  H9  UNL     1     -28.861   5.140  -5.080  1.00  0.00     0.210 HD
ENDBRANCH   6  29
BRANCH   3  31
HETATM   31  O4  UNL     1     -24.375   9.058  -4.785  1.00  0.00    -0.391 OA
ATOM     32  H4  UNL     1     -24.258   9.344  -3.886  1.00  0.00     0.210 HD
ENDBRANCH   3  31
BRANCH   5  33
HETATM   33  O8  UNL     1     -27.075   6.636  -7.802  1.00  0.00    -0.391 OA
ATOM     34  H8  UNL     1     -26.338   6.814  -8.373  1.00  0.00     0.210 HD
ENDBRANCH   5  33
BRANCH   4  35
HETATM   35  N6  UNL     1     -24.633   7.851  -7.204  1.00  0.00    -0.245 N 
HETATM   36  N7  UNL     1     -23.983   6.675  -7.131  1.00  0.00    -0.276 N 
HETATM   37  C9  UNL     1     -22.935   6.734  -7.945  1.00  0.00     0.189 A 
ATOM     38  H7  UNL     1     -24.248   5.879  -6.552  1.00  0.00     0.189 HD
HETATM   39  N9  UNL     1     -22.950   7.955  -8.519  1.00  0.00    -0.303 N 
HETATM   40  C11 UNL     1     -24.010   8.651  -8.055  1.00  0.00     0.269 A 
ATOM     41  H9  UNL     1     -22.268   8.298  -9.196  1.00  0.00     0.171 HD
BRANCH  37  42
HETATM   42  C10 UNL     1     -21.985   5.658  -8.141  1.00  0.00     0.300 C 
HETATM   43  N8  UNL     1     -20.933   5.472  -7.231  1.00  0.00    -0.054 NA
HETATM   44  O5  UNL     1     -22.106   4.902  -9.119  1.00  0.00    -0.268 OA
ENDBRANCH  37  42
BRANCH  40  45
HETATM   45  N10 UNL     1     -24.397   9.972  -8.399  1.00  0.00    -0.077 N 
HETATM   46  O6  UNL     1     -24.606  10.396  -9.539  1.00  0.00    -0.529 OA
HETATM   47  O7  UNL     1     -24.569  10.918  -7.388  1.00  0.00    -0.529 OA
ENDBRANCH  40  45
ENDBRANCH   4  35
TORSDOF 14
ENDMDL
MODEL 4
REMARK VINA RESULT: -9.058947642      2.823      9.428
REMARK  14 active torsions:
REMARK  status: ('A' for Active; 'I' for Inactive)
REMARK    1  A    between atoms: N1_1  and  N2_4 
REMARK       I    between atoms: N2_4  and  C1_6 
REMARK    2  A    between atoms: C1_6  and  C2_8 
REMARK       I    between atoms: C2_8  and  N3_10 
REMARK    3  A    between atoms: N3_10  and  C3_12 
REMARK    4  A    between atoms: C3_12  and  N4_13 
REMARK    5  A    between atoms: C3_12  and  C14_45 
REMARK    6  A    between atoms: N4_13  and  N5_15 
REMARK    7  A    between atoms: C4_17  and  C5_18 
REMARK    8  A    between atoms: C6_19  and  O3_20 
REMARK    9  A    between atoms: C7_22  and  O4_23 
REMARK   10  A    between atoms: C8_25  and  N6_26 
REMARK   11  A    between atoms: C9_29  and  C10_30 
REMARK   12  A    between atoms: C11_35  and  N10_36 
REMARK   13  A    between atoms: C12_39  and  O8_40 
REMARK   14  A    between atoms: C13_42  and  O9_43 
ROOT
HETATM    1  C5  UNL     1     -30.158   8.148  -4.060  1.00  0.00     0.088 C 
HETATM    2  C6  UNL     1     -30.840   7.068  -4.830  1.00  0.00     0.160 C 
HETATM    3  C7  UNL     1     -32.324   7.267  -4.840  1.00  0.00     0.175 C 
HETATM    4  C8  UNL     1     -32.544   8.559  -5.643  1.00  0.00     0.174 C 
HETATM    5  C12 UNL     1     -32.076   9.666  -4.720  1.00  0.00     0.175 C 
HETATM    6  C13 UNL     1     -30.678   9.524  -4.240  1.00  0.00     0.160 C 
ENDROOT
BRANCH   1   7
HETATM    7  C4  UNL     1     -28.694   8.141  -4.435  1.00  0.00     0.089 C 
HETATM    8  N5  UNL     1     -27.835   8.773  -3.732  1.00  0.00    -0.317 N 
ATOM      9  H5  UNL     1     -28.133   9.290  -2.905  1.00  0.00     0.185 HD
BRANCH   8  10
HETATM   10  N4  UNL     1     -26.495   8.756  -4.094  1.00  0.00    -0.305 N 
ATOM     11  H4  UNL     1     -26.005   7.868  -4.203  1.00  0.00     0.183 HD
BRANCH  10  12
HETATM   12  C3  UNL     1     -25.798   9.999  -4.314  1.00  0.00     0.290 C 
BRANCH  12  13
HETATM   13  N3  UNL     1     -25.653  10.118  -5.775  1.00  0.00    -0.323 N 
HETATM   14  C2  UNL     1     -25.019   9.162  -6.567  1.00  0.00     0.313 C 
HETATM   15  O2  UNL     1     -24.534   8.134  -6.036  1.00  0.00    -0.262 OA
ATOM     16  H3  UNL     1     -26.038  10.945  -6.232  1.00  0.00     0.165 HD
BRANCH  14  17
HETATM   17  C1  UNL     1     -24.917   9.351  -8.002  1.00  0.00     0.327 C 
HETATM   18  N2  UNL     1     -26.069   9.163  -8.806  1.00  0.00    -0.268 N 
ATOM     19  H2  UNL     1     -26.952   8.899  -8.369  1.00  0.00     0.190 HD
HETATM   20  O1  UNL     1     -23.834   9.681  -8.561  1.00  0.00    -0.261 OA
BRANCH  18  21
HETATM   21  N1  UNL     1     -26.006   9.338 -10.209  1.00  0.00    -0.342 N 
ATOM     22  H12 UNL     1     -25.226   9.865 -10.602  1.00  0.00     0.176 HD
ATOM     23  H11 UNL     1     -26.727   8.945 -10.815  1.00  0.00     0.176 HD
ENDBRANCH  18  21
ENDBRANCH  14  17
ENDBRANCH  12  13
BRANCH  12  24
HETATM   24  C14 UNL     1     -26.658  11.116  -3.820  1.00  0.00     0.275 C 
HETATM   25  N11 UNL     1     -26.502  11.602  -2.502  1.00  0.00    -0.059 NA
HETATM   26  O10 UNL     1     -27.528  11.646  -4.554  1.00  0.00    -0.272 OA
ENDBRANCH  12  24
ENDBRANCH  10  12
ENDBRANCH   8  10
ENDBRANCH   1   7
BRANCH   2  27
HETATM   27  O3  UNL     1     -30.421   7.025  -6.175  1.00  0.00    -0.392 OA
ATOM     28  H3  UNL     1     -31.033   7.460  -6.756  1.00  0.00     0.210 HD
ENDBRANCH   2  27
BRANCH   6  29
HETATM   29  O9  UNL     1     -30.623  10.179  -2.984  1.00  0.00    -0.392 OA
ATOM     30  H9  UNL     1     -29.796  10.645  -2.934  1.00  0.00     0.210 HD
ENDBRANCH   6  29
BRANCH   3  31
HETATM   31  O4  UNL     1     -33.015   6.216  -5.406  1.00  0.00    -0.391 OA
ATOM     32  H4  UNL     1     -33.817   5.998  -4.944  1.00  0.00     0.210 HD
ENDBRANCH   3  31
BRANCH   5  33
HETATM   33  O8  UNL     1     -32.225  10.868  -5.411  1.00  0.00    -0.391 OA
ATOM     34  H8  UNL     1     -33.084  10.854  -5.815  1.00  0.00     0.210 HD
ENDBRANCH   5  33
BRANCH   4  35
HETATM   35  N6  UNL     1     -33.975   8.727  -5.798  1.00  0.00    -0.245 N 
HETATM   36  N7  UNL     1     -34.651   9.436  -4.876  1.00  0.00    -0.276 N 
HETATM   37  C9  UNL     1     -35.931   9.455  -5.229  1.00  0.00     0.189 A 
ATOM     38  H7  UNL     1     -34.250   9.882  -4.051  1.00  0.00     0.189 HD
HETATM   39  N9  UNL     1     -36.034   8.752  -6.376  1.00  0.00    -0.303 N 
HETATM   40  C11 UNL     1     -34.813   8.298  -6.729  1.00  0.00     0.269 A 
ATOM     41  H9  UNL     1     -36.897   8.589  -6.895  1.00  0.00     0.171 HD
BRANCH  37  42
HETATM   42  C10 UNL     1     -36.980  10.120  -4.484  1.00  0.00     0.300 C 
HETATM   43  N8  UNL     1     -36.662  10.908  -3.367  1.00  0.00    -0.054 NA
HETATM   44  O5  UNL     1     -38.163   9.989  -4.839  1.00  0.00    -0.268 OA
ENDBRANCH  37  42
BRANCH  40  45
HETATM   45  N10 UNL     1     -34.472   7.519  -7.866  1.00  0.00    -0.077 N 
HETATM   46  O6  UNL     1     -33.333   7.187  -8.206  1.00  0.00    -0.529 OA
HETATM   47  O7  UNL     1     -35.486   7.062  -8.709  1.00  0.00    -0.529 OA
ENDBRANCH  40  45
ENDBRANCH   4  35
TORSDOF 14
ENDMDL
MODEL 5
REMARK VINA RESULT: -9.032643918      2.107      3.737
REMARK  14 active torsions:
REMARK  status: ('A' for Active; 'I' for Inactive)
REMARK    1  A    between atoms: N1_1  and  N2_4 
REMARK       I    between atoms: N2_4  and  C1_6 
REMARK    2  A    between atoms: C1_6  and  C2_8 
REMARK       I    between atoms: C2_8  and  N3_10 
REMARK    3  A    between atoms: N3_10  and  C3_12 
REMARK    4  A    between atoms: C3_12  and  N4_13 
REMARK    5  A    between atoms: C3_12  and  C14_45 
REMARK    6  A    between atoms: N4_13  and  N5_15 
REMARK    7  A    between atoms: C4_17  and  C5_18 
REMARK    8  A    between atoms: C6_19  and  O3_20 
REMARK    9  A    between atoms: C7_22  and  O4_23 
REMARK   10  A    between atoms: C8_25  and  N6_26 
REMARK   11  A    between atoms: C9_29  and  C10_30 
REMARK   12  A    between atoms: C11_35  and  N10_36 
REMARK   13  A    between atoms: C12_39  and  O8_40 
REMARK   14  A    between atoms: C13_42  and  O9_43 
ROOT
HETATM    1  C5  UNL     1     -25.539   9.249  -4.594  1.00  0.00     0.088 C 
HETATM    2  C6  UNL     1     -24.889  10.582  -4.755  1.00  0.00     0.160 C 
HETATM    3  C7  UNL     1     -23.825  10.539  -5.809  1.00  0.00     0.175 C 
HETATM    4  C8  UNL     1     -24.579  10.278  -7.122  1.00  0.00     0.174 C 
HETATM    5  C12 UNL     1     -25.005   8.826  -7.034  1.00  0.00     0.175 C 
HETATM    6  C13 UNL     1     -25.813   8.488  -5.835  1.00  0.00     0.160 C 
ENDROOT
BRANCH   1   7
HETATM    7  C4  UNL     1     -26.845   9.448  -3.861  1.00  0.00     0.089 C 
HETATM    8  N5  UNL     1     -27.953   9.089  -4.386  1.00  0.00    -0.317 N 
ATOM      9  H5  UNL     1     -27.963   8.660  -5.311  1.00  0.00     0.185 HD
BRANCH   8  10
HETATM   10  N4  UNL     1     -29.142   9.282  -3.697  1.00  0.00    -0.305 N 
ATOM     11  H4  UNL     1     -29.423  10.221  -3.414  1.00  0.00     0.183 HD
BRANCH  10  12
HETATM   12  C3  UNL     1     -29.978   8.150  -3.383  1.00  0.00     0.290 C 
BRANCH  12  13
HETATM   13  N3  UNL     1     -31.280   8.432  -4.012  1.00  0.00    -0.323 N 
HETATM   14  C2  UNL     1     -32.109   9.484  -3.627  1.00  0.00     0.313 C 
HETATM   15  O2  UNL     1     -31.757  10.250  -2.698  1.00  0.00    -0.262 OA
ATOM     16  H3  UNL     1     -31.591   7.824  -4.770  1.00  0.00     0.165 HD
BRANCH  14  17
HETATM   17  C1  UNL     1     -33.378   9.698  -4.298  1.00  0.00     0.327 C 
HETATM   18  N2  UNL     1     -33.428   9.644  -5.713  1.00  0.00    -0.268 N 
ATOM     19  H2  UNL     1     -32.576   9.455  -6.242  1.00  0.00     0.190 HD
HETATM   20  O1  UNL     1     -34.445   9.929  -3.661  1.00  0.00    -0.261 OA
BRANCH  18  21
HETATM   21  N1  UNL     1     -34.649   9.848  -6.400  1.00  0.00    -0.342 N 
ATOM     22  H12 UNL     1     -34.958   9.143  -7.070  1.00  0.00     0.176 HD
ATOM     23  H11 UNL     1     -35.208  10.684  -6.229  1.00  0.00     0.176 HD
ENDBRANCH  18  21
ENDBRANCH  14  17
ENDBRANCH  12  13
BRANCH  12  24
HETATM   24  C14 UNL     1     -29.386   6.935  -4.018  1.00  0.00     0.275 C 
HETATM   25  N11 UNL     1     -28.709   5.979  -3.227  1.00  0.00    -0.059 NA
HETATM   26  O10 UNL     1     -29.474   6.734  -5.255  1.00  0.00    -0.272 OA
ENDBRANCH  12  24
ENDBRANCH  10  12
ENDBRANCH   8  10
ENDBRANCH   1   7
BRANCH   2  27
HETATM   27  O3  UNL     1     -25.807  11.580  -5.137  1.00  0.00    -0.392 OA
ATOM     28  H3  UNL     1     -26.704  11.268  -5.125  1.00  0.00     0.210 HD
ENDBRANCH   2  27
BRANCH   6  29
HETATM   29  O9  UNL     1     -25.571   7.117  -5.568  1.00  0.00    -0.392 OA
ATOM     30  H9  UNL     1     -25.140   7.055  -4.724  1.00  0.00     0.210 HD
ENDBRANCH   6  29
BRANCH   3  31
HETATM   31  O4  UNL     1     -23.088  11.702  -5.891  1.00  0.00    -0.391 OA
ATOM     32  H4  UNL     1     -22.182  11.595  -5.623  1.00  0.00     0.210 HD
ENDBRANCH   3  31
BRANCH   5  33
HETATM   33  O8  UNL     1     -25.724   8.537  -8.193  1.00  0.00    -0.391 OA
ATOM     34  H8  UNL     1     -26.058   9.361  -8.528  1.00  0.00     0.210 HD
ENDBRANCH   5  33
BRANCH   4  35
HETATM   35  N6  UNL     1     -23.608  10.360  -8.195  1.00  0.00    -0.245 N 
HETATM   36  N7  UNL     1     -22.867   9.276  -8.486  1.00  0.00    -0.276 N 
HETATM   37  C9  UNL     1     -22.062   9.588  -9.495  1.00  0.00     0.189 A 
ATOM     38  H7  UNL     1     -22.915   8.373  -8.015  1.00  0.00     0.189 HD
HETATM   39  N9  UNL     1     -22.317  10.873  -9.820  1.00  0.00    -0.303 N 
HETATM   40  C11 UNL     1     -23.282  11.352  -9.008  1.00  0.00     0.269 A 
ATOM     41  H9  UNL     1     -21.855  11.398 -10.562  1.00  0.00     0.171 HD
BRANCH  37  42
HETATM   42  C10 UNL     1     -21.105   8.680 -10.094  1.00  0.00     0.300 C 
HETATM   43  N8  UNL     1     -20.954   7.380  -9.591  1.00  0.00    -0.054 NA
HETATM   44  O5  UNL     1     -20.418   9.061 -11.057  1.00  0.00    -0.268 OA
ENDBRANCH  37  42
BRANCH  40  45
HETATM   45  N10 UNL     1     -23.849  12.654  -9.009  1.00  0.00    -0.077 N 
HETATM   46  O6  UNL     1     -24.000  13.382  -8.024  1.00  0.00    -0.529 OA
HETATM   47  O7  UNL     1     -24.292  13.205 -10.212  1.00  0.00    -0.529 OA
ENDBRANCH  40  45
ENDBRANCH   4  35
TORSDOF 14
ENDMDL
