MODEL 1
REMARK VINA RESULT: -8.231784524      0.000      0.000
REMARK  15 active torsions:
REMARK  status: ('A' for Active; 'I' for Inactive)
REMARK    1  A    between atoms: N2_7  and  C5_8 
REMARK    2  A    between atoms: C6_12  and  O2_13 
REMARK    3  A    between atoms: O2_13  and  N4_14 
REMARK    4  A    between atoms: C7_17  and  C8_18 
REMARK    5  A    between atoms: C8_18  and  O3_19 
REMARK    6  A    between atoms: C8_18  and  N5_21 
REMARK    7  A    between atoms: C9_23  and  C10_24 
REMARK    8  A    between atoms: C10_24  and  O4_25 
REMARK    9  A    between atoms: C10_24  and  C11_27 
REMARK   10  A    between atoms: C11_27  and  O5_28 
REMARK   11  A    between atoms: C11_27  and  C12_30 
REMARK   12  A    between atoms: C12_30  and  O6_31 
REMARK   13  A    between atoms: C13_33  and  O7_34 
REMARK   14  A    between atoms: C14_36  and  O8_37 
REMARK   15  A    between atoms: C15_39  and  O9_40 
ROOT
HETATM    1  C5  UNL     1     -23.946   7.748  -7.660  1.00  0.00     0.340 C 
HETATM    2  N3  UNL     1     -22.822   8.618  -7.535  1.00  0.00    -0.021 N 
ATOM      3  H31 UNL     1     -22.557   8.784  -6.563  1.00  0.00     0.283 HD
ATOM      4  H32 UNL     1     -23.040   9.584  -7.782  1.00  0.00     0.283 HD
HETATM    5  C6  UNL     1     -21.721   8.054  -8.342  1.00  0.00     0.362 C 
HETATM    6  C7  UNL     1     -21.985   8.430  -9.740  1.00  0.00     0.124 C 
HETATM    7  C13 UNL     1     -22.665   7.338 -10.541  1.00  0.00     0.162 C 
HETATM    8  C14 UNL     1     -23.998   6.942 -10.058  1.00  0.00     0.180 C 
HETATM    9  C15 UNL     1     -24.632   7.745  -8.983  1.00  0.00     0.201 C 
ENDROOT
BRANCH   6  10
HETATM   10  C8  UNL     1     -20.762   8.836 -10.504  1.00  0.00     0.228 C 
BRANCH  10  11
HETATM   11  O3  UNL     1     -21.188   8.593 -11.879  1.00  0.00    -0.376 OA
ATOM     12  H3  UNL     1     -20.352   8.479 -12.317  1.00  0.00     0.212 HD
ENDBRANCH  10  11
BRANCH  10  13
HETATM   13  N5  UNL     1     -20.438  10.167 -10.473  1.00  0.00    -0.374 N 
HETATM   14  C9  UNL     1     -21.033  11.271 -11.008  1.00  0.00     0.092 C 
ATOM     15  H5  UNL     1     -19.588  10.371  -9.948  1.00  0.00     0.161 HD
BRANCH  14  16
HETATM   16  C10 UNL     1     -22.353  11.729 -10.469  1.00  0.00     0.187 C 
BRANCH  16  17
HETATM   17  O4  UNL     1     -22.905  12.685 -11.316  1.00  0.00    -0.388 OA
ATOM     18  H4  UNL     1     -23.211  12.272 -12.115  1.00  0.00     0.210 HD
ENDBRANCH  16  17
BRANCH  16  19
HETATM   19  C11 UNL     1     -22.199  12.357  -9.101  1.00  0.00     0.175 C 
BRANCH  19  20
HETATM   20  O5  UNL     1     -22.631  11.441  -8.137  1.00  0.00    -0.391 OA
ATOM     21  H5  UNL     1     -22.491  11.817  -7.276  1.00  0.00     0.210 HD
ENDBRANCH  19  20
BRANCH  19  22
HETATM   22  C12 UNL     1     -23.150  13.562  -9.077  1.00  0.00     0.198 C 
BRANCH  22  23
HETATM   23  O6  UNL     1     -24.455  13.155  -8.811  1.00  0.00    -0.398 OA
ATOM     24  H6  UNL     1     -24.975  13.883  -8.491  1.00  0.00     0.209 HD
ENDBRANCH  22  23
ENDBRANCH  19  22
ENDBRANCH  16  19
ENDBRANCH  14  16
ENDBRANCH  10  13
ENDBRANCH   6  10
BRANCH   5  25
HETATM   25  O2  UNL     1     -21.835   6.645  -8.239  1.00  0.00    -0.253 OA
BRANCH  25  26
HETATM   26  N4  UNL     1     -20.706   6.101  -7.754  1.00  0.00    -0.309 N 
ATOM     27  H42 UNL     1     -20.546   5.921  -6.763  1.00  0.00     0.184 HD
ATOM     28  H41 UNL     1     -20.045   5.897  -8.504  1.00  0.00     0.184 HD
ENDBRANCH  25  26
ENDBRANCH   5  25
BRANCH   7  29
HETATM   29  O7  UNL     1     -21.807   6.241 -10.568  1.00  0.00    -0.392 OA
ATOM     30  H7  UNL     1     -22.197   5.559 -10.032  1.00  0.00     0.210 HD
ENDBRANCH   7  29
BRANCH   8  31
HETATM   31  O8  UNL     1     -24.043   5.582  -9.722  1.00  0.00    -0.390 OA
ATOM     32  H8  UNL     1     -24.780   5.144 -10.131  1.00  0.00     0.210 HD
ENDBRANCH   8  31
BRANCH   1  33
HETATM   33  N2  UNL     1     -24.961   8.073  -6.648  1.00  0.00    -0.267 N 
HETATM   34  C4  UNL     1     -26.107   7.439  -6.387  1.00  0.00     0.133 A 
HETATM   35  C3  UNL     1     -26.720   8.110  -5.365  1.00  0.00     0.095 A 
HETATM   36  C2  UNL     1     -27.908   7.966  -4.649  1.00  0.00     0.266 A 
HETATM   37  C16 UNL     1     -25.911   9.178  -5.006  1.00  0.00     0.143 A 
HETATM   38  N1  UNL     1     -28.191   8.843  -3.682  1.00  0.00    -0.270 N 
HETATM   39  O1  UNL     1     -28.662   6.996  -4.963  1.00  0.00    -0.267 OA
HETATM   40  C1  UNL     1     -29.423   8.692  -2.941  1.00  0.00     0.164 C 
HETATM   41  C18 UNL     1     -27.373   9.870  -3.363  1.00  0.00     0.332 A 
HETATM   42  N7  UNL     1     -26.220  10.045  -4.028  1.00  0.00    -0.288 N 
HETATM   43  O10 UNL     1     -27.645  10.691  -2.454  1.00  0.00    -0.246 OA
HETATM   44  C17 UNL     1     -25.294  11.113  -3.751  1.00  0.00     0.163 C 
HETATM   45  N6  UNL     1     -24.841   9.110  -5.826  1.00  0.00    -0.281 N 
ATOM     46  H6  UNL     1     -24.055   9.760  -5.815  1.00  0.00     0.189 HD
ENDBRANCH   1  33
BRANCH   9  47
HETATM   47  O9  UNL     1     -25.031   9.025  -9.402  1.00  0.00    -0.389 OA
ATOM     48  H9  UNL     1     -25.928   9.054  -9.711  1.00  0.00     0.210 HD
ENDBRANCH   9  47
TORSDOF 15
ENDMDL
MODEL 2
REMARK VINA RESULT: -8.201863676      0.935      1.858
REMARK  15 active torsions:
REMARK  status: ('A' for Active; 'I' for Inactive)
REMARK    1  A    between atoms: N2_7  and  C5_8 
REMARK    2  A    between atoms: C6_12  and  O2_13 
REMARK    3  A    between atoms: O2_13  and  N4_14 
REMARK    4  A    between atoms: C7_17  and  C8_18 
REMARK    5  A    between atoms: C8_18  and  O3_19 
REMARK    6  A    between atoms: C8_18  and  N5_21 
REMARK    7  A    between atoms: C9_23  and  C10_24 
REMARK    8  A    between atoms: C10_24  and  O4_25 
REMARK    9  A    between atoms: C10_24  and  C11_27 
REMARK   10  A    between atoms: C11_27  and  O5_28 
REMARK   11  A    between atoms: C11_27  and  C12_30 
REMARK   12  A    between atoms: C12_30  and  O6_31 
REMARK   13  A    between atoms: C13_33  and  O7_34 
REMARK   14  A    between atoms: C14_36  and  O8_37 
REMARK   15  A    between atoms: C15_39  and  O9_40 
ROOT
HETATM    1  C5  UNL     1     -23.768   7.475  -7.642  1.00  0.00     0.340 C 
HETATM    2  N3  UNL     1     -22.716   8.430  -7.515  1.00  0.00    -0.021 N 
ATOM      3  H31 UNL     1     -22.520   8.677  -6.545  1.00  0.00     0.283 HD
ATOM      4  H32 UNL     1     -22.984   9.359  -7.840  1.00  0.00     0.283 HD
HETATM    5  C6  UNL     1     -21.532   7.896  -8.221  1.00  0.00     0.362 C 
HETATM    6  C7  UNL     1     -21.738   8.161  -9.653  1.00  0.00     0.124 C 
HETATM    7  C13 UNL     1     -22.294   6.974 -10.414  1.00  0.00     0.162 C 
HETATM    8  C14 UNL     1     -23.623   6.515  -9.979  1.00  0.00     0.180 C 
HETATM    9  C15 UNL     1     -24.372   7.337  -8.997  1.00  0.00     0.201 C 
ENDROOT
BRANCH   6  10
HETATM   10  C8  UNL     1     -20.503   8.604 -10.375  1.00  0.00     0.228 C 
BRANCH  10  11
HETATM   11  O3  UNL     1     -20.832   8.251 -11.754  1.00  0.00    -0.376 OA
ATOM     12  H3  UNL     1     -21.540   8.856 -11.939  1.00  0.00     0.212 HD
ENDBRANCH  10  11
BRANCH  10  13
HETATM   13  N5  UNL     1     -20.269   9.954 -10.412  1.00  0.00    -0.374 N 
HETATM   14  C9  UNL     1     -20.884  10.977 -11.070  1.00  0.00     0.092 C 
ATOM     15  H5  UNL     1     -19.482  10.250  -9.834  1.00  0.00     0.161 HD
BRANCH  14  16
HETATM   16  C10 UNL     1     -22.273  11.375 -10.676  1.00  0.00     0.187 C 
BRANCH  16  17
HETATM   17  O4  UNL     1     -22.698  12.448 -11.454  1.00  0.00    -0.388 OA
ATOM     18  H4  UNL     1     -22.526  12.270 -12.372  1.00  0.00     0.210 HD
ENDBRANCH  16  17
BRANCH  16  19
HETATM   19  C11 UNL     1     -22.329  11.804  -9.226  1.00  0.00     0.175 C 
BRANCH  19  20
HETATM   20  O5  UNL     1     -23.244  10.990  -8.553  1.00  0.00    -0.391 OA
ATOM     21  H5  UNL     1     -22.766  10.415  -7.966  1.00  0.00     0.210 HD
ENDBRANCH  19  20
BRANCH  19  22
HETATM   22  C12 UNL     1     -22.878  13.239  -9.229  1.00  0.00     0.198 C 
BRANCH  22  23
HETATM   23  O6  UNL     1     -24.240  13.247  -8.936  1.00  0.00    -0.398 OA
ATOM     24  H6  UNL     1     -24.508  12.415  -8.564  1.00  0.00     0.209 HD
ENDBRANCH  22  23
ENDBRANCH  19  22
ENDBRANCH  16  19
ENDBRANCH  14  16
ENDBRANCH  10  13
ENDBRANCH   6  10
BRANCH   5  25
HETATM   25  O2  UNL     1     -21.556   6.492  -8.028  1.00  0.00    -0.253 OA
BRANCH  25  26
HETATM   26  N4  UNL     1     -20.441   6.068  -7.410  1.00  0.00    -0.309 N 
ATOM     27  H42 UNL     1     -20.257   6.212  -6.416  1.00  0.00     0.184 HD
ATOM     28  H41 UNL     1     -19.817   5.592  -8.062  1.00  0.00     0.184 HD
ENDBRANCH  25  26
ENDBRANCH   5  25
BRANCH   7  29
HETATM   29  O7  UNL     1     -21.363   5.942 -10.319  1.00  0.00    -0.392 OA
ATOM     30  H7  UNL     1     -20.542   6.322 -10.032  1.00  0.00     0.210 HD
ENDBRANCH   7  29
BRANCH   8  31
HETATM   31  O8  UNL     1     -23.595   5.179  -9.553  1.00  0.00    -0.390 OA
ATOM     32  H8  UNL     1     -22.818   4.992  -9.039  1.00  0.00     0.210 HD
ENDBRANCH   8  31
BRANCH   1  33
HETATM   33  N2  UNL     1     -24.861   7.790  -6.711  1.00  0.00    -0.267 N 
HETATM   34  C4  UNL     1     -24.886   8.703  -5.738  1.00  0.00     0.133 A 
HETATM   35  C3  UNL     1     -26.113   8.627  -5.138  1.00  0.00     0.095 A 
HETATM   36  C2  UNL     1     -26.752   9.286  -4.089  1.00  0.00     0.266 A 
HETATM   37  C16 UNL     1     -26.842   7.636  -5.778  1.00  0.00     0.143 A 
HETATM   38  N1  UNL     1     -28.000   8.933  -3.769  1.00  0.00    -0.270 N 
HETATM   39  O1  UNL     1     -26.102  10.195  -3.492  1.00  0.00    -0.267 OA
HETATM   40  C1  UNL     1     -28.661   9.617  -2.679  1.00  0.00     0.164 C 
HETATM   41  C18 UNL     1     -28.677   7.960  -4.418  1.00  0.00     0.332 A 
HETATM   42  N7  UNL     1     -28.097   7.301  -5.434  1.00  0.00    -0.288 N 
HETATM   43  O10 UNL     1     -29.848   7.633  -4.112  1.00  0.00    -0.246 OA
HETATM   44  C17 UNL     1     -28.747   6.252  -6.178  1.00  0.00     0.163 C 
HETATM   45  N6  UNL     1     -26.027   7.152  -6.738  1.00  0.00    -0.281 N 
ATOM     46  H6  UNL     1     -26.270   6.406  -7.389  1.00  0.00     0.189 HD
ENDBRANCH   1  33
BRANCH   9  47
HETATM   47  O9  UNL     1     -24.832   8.556  -9.523  1.00  0.00    -0.389 OA
ATOM     48  H9  UNL     1     -25.772   8.668  -9.439  1.00  0.00     0.210 HD
ENDBRANCH   9  47
TORSDOF 15
ENDMDL
MODEL 3
REMARK VINA RESULT: -8.023239257      1.061      1.462
REMARK  15 active torsions:
REMARK  status: ('A' for Active; 'I' for Inactive)
REMARK    1  A    between atoms: N2_7  and  C5_8 
REMARK    2  A    between atoms: C6_12  and  O2_13 
REMARK    3  A    between atoms: O2_13  and  N4_14 
REMARK    4  A    between atoms: C7_17  and  C8_18 
REMARK    5  A    between atoms: C8_18  and  O3_19 
REMARK    6  A    between atoms: C8_18  and  N5_21 
REMARK    7  A    between atoms: C9_23  and  C10_24 
REMARK    8  A    between atoms: C10_24  and  O4_25 
REMARK    9  A    between atoms: C10_24  and  C11_27 
REMARK   10  A    between atoms: C11_27  and  O5_28 
REMARK   11  A    between atoms: C11_27  and  C12_30 
REMARK   12  A    between atoms: C12_30  and  O6_31 
REMARK   13  A    between atoms: C13_33  and  O7_34 
REMARK   14  A    between atoms: C14_36  and  O8_37 
REMARK   15  A    between atoms: C15_39  and  O9_40 
ROOT
HETATM    1  C5  UNL     1     -24.091   7.444  -7.468  1.00  0.00     0.340 C 
HETATM    2  N3  UNL     1     -22.781   7.922  -7.162  1.00  0.00    -0.021 N 
ATOM      3  H31 UNL     1     -22.566   7.875  -6.165  1.00  0.00     0.283 HD
ATOM      4  H32 UNL     1     -22.694   8.933  -7.272  1.00  0.00     0.283 HD
HETATM    5  C6  UNL     1     -21.819   7.169  -7.993  1.00  0.00     0.362 C 
HETATM    6  C7  UNL     1     -21.842   7.785  -9.329  1.00  0.00     0.124 C 
HETATM    7  C13 UNL     1     -22.731   7.054 -10.315  1.00  0.00     0.162 C 
HETATM    8  C14 UNL     1     -24.159   7.008  -9.959  1.00  0.00     0.180 C 
HETATM    9  C15 UNL     1     -24.630   7.814  -8.807  1.00  0.00     0.201 C 
ENDROOT
BRANCH   6  10
HETATM   10  C8  UNL     1     -20.492   7.909  -9.966  1.00  0.00     0.228 C 
BRANCH  10  11
HETATM   11  O3  UNL     1     -20.083   6.510 -10.051  1.00  0.00    -0.376 OA
ATOM     12  H3  UNL     1     -19.812   6.339  -9.157  1.00  0.00     0.212 HD
ENDBRANCH  10  11
BRANCH  10  13
HETATM   13  N5  UNL     1     -20.469   8.354 -11.262  1.00  0.00    -0.374 N 
HETATM   14  C9  UNL     1     -21.206   9.289 -11.928  1.00  0.00     0.092 C 
ATOM     15  H5  UNL     1     -19.764   7.897 -11.842  1.00  0.00     0.161 HD
BRANCH  14  16
HETATM   16  C10 UNL     1     -21.042  10.737 -11.581  1.00  0.00     0.187 C 
BRANCH  16  17
HETATM   17  O4  UNL     1     -19.927  10.905 -10.765  1.00  0.00    -0.388 OA
ATOM     18  H4  UNL     1     -19.640  11.811 -10.792  1.00  0.00     0.210 HD
ENDBRANCH  16  17
BRANCH  16  19
HETATM   19  C11 UNL     1     -22.248  11.260 -10.832  1.00  0.00     0.175 C 
BRANCH  19  20
HETATM   20  O5  UNL     1     -22.691  12.429 -11.458  1.00  0.00    -0.391 OA
ATOM     21  H5  UNL     1     -23.337  12.197 -12.114  1.00  0.00     0.210 HD
ENDBRANCH  19  20
BRANCH  19  22
HETATM   22  C12 UNL     1     -21.748  11.629  -9.427  1.00  0.00     0.198 C 
BRANCH  22  23
HETATM   23  O6  UNL     1     -22.337  10.813  -8.464  1.00  0.00    -0.398 OA
ATOM     24  H6  UNL     1     -22.672  11.332  -7.744  1.00  0.00     0.209 HD
ENDBRANCH  22  23
ENDBRANCH  19  22
ENDBRANCH  16  19
ENDBRANCH  14  16
ENDBRANCH  10  13
ENDBRANCH   6  10
BRANCH   5  25
HETATM   25  O2  UNL     1     -22.338   5.855  -8.107  1.00  0.00    -0.253 OA
BRANCH  25  26
HETATM   26  N4  UNL     1     -21.468   4.948  -7.629  1.00  0.00    -0.309 N 
ATOM     27  H42 UNL     1     -21.744   4.027  -7.286  1.00  0.00     0.184 HD
ATOM     28  H41 UNL     1     -20.512   5.304  -7.659  1.00  0.00     0.184 HD
ENDBRANCH  25  26
ENDBRANCH   5  25
BRANCH   7  29
HETATM   29  O7  UNL     1     -22.221   5.766 -10.466  1.00  0.00    -0.392 OA
ATOM     30  H7  UNL     1     -22.951   5.191 -10.666  1.00  0.00     0.210 HD
ENDBRANCH   7  29
BRANCH   8  31
HETATM   31  O8  UNL     1     -24.617   5.689  -9.833  1.00  0.00    -0.390 OA
ATOM     32  H8  UNL     1     -25.380   5.529 -10.377  1.00  0.00     0.210 HD
ENDBRANCH   8  31
BRANCH   1  33
HETATM   33  N2  UNL     1     -25.056   7.918  -6.467  1.00  0.00    -0.267 N 
HETATM   34  C4  UNL     1     -26.246   7.402  -6.150  1.00  0.00     0.133 A 
HETATM   35  C3  UNL     1     -26.783   8.187  -5.166  1.00  0.00     0.095 A 
HETATM   36  C2  UNL     1     -27.965   8.190  -4.428  1.00  0.00     0.266 A 
HETATM   37  C16 UNL     1     -25.880   9.203  -4.889  1.00  0.00     0.143 A 
HETATM   38  N1  UNL     1     -28.155   9.149  -3.516  1.00  0.00    -0.270 N 
HETATM   39  O1  UNL     1     -28.802   7.270  -4.666  1.00  0.00    -0.267 OA
HETATM   40  C1  UNL     1     -29.383   9.151  -2.752  1.00  0.00     0.164 C 
HETATM   41  C18 UNL     1     -27.249  10.122  -3.276  1.00  0.00     0.332 A 
HETATM   42  N7  UNL     1     -26.098  10.155  -3.966  1.00  0.00    -0.288 N 
HETATM   43  O10 UNL     1     -27.435  11.020  -2.421  1.00  0.00    -0.246 OA
HETATM   44  C17 UNL     1     -25.081  11.157  -3.773  1.00  0.00     0.163 C 
HETATM   45  N6  UNL     1     -24.835   8.993  -5.716  1.00  0.00    -0.281 N 
ATOM     46  H6  UNL     1     -23.998   9.573  -5.758  1.00  0.00     0.189 HD
ENDBRANCH   1  33
BRANCH   9  47
HETATM   47  O9  UNL     1     -24.611   9.198  -9.047  1.00  0.00    -0.389 OA
ATOM     48  H9  UNL     1     -24.695   9.716  -8.255  1.00  0.00     0.210 HD
ENDBRANCH   9  47
TORSDOF 15
ENDMDL
MODEL 4
REMARK VINA RESULT: -7.990842487      2.278      4.178
REMARK  15 active torsions:
REMARK  status: ('A' for Active; 'I' for Inactive)
REMARK    1  A    between atoms: N2_7  and  C5_8 
REMARK    2  A    between atoms: C6_12  and  O2_13 
REMARK    3  A    between atoms: O2_13  and  N4_14 
REMARK    4  A    between atoms: C7_17  and  C8_18 
REMARK    5  A    between atoms: C8_18  and  O3_19 
REMARK    6  A    between atoms: C8_18  and  N5_21 
REMARK    7  A    between atoms: C9_23  and  C10_24 
REMARK    8  A    between atoms: C10_24  and  O4_25 
REMARK    9  A    between atoms: C10_24  and  C11_27 
REMARK   10  A    between atoms: C11_27  and  O5_28 
REMARK   11  A    between atoms: C11_27  and  C12_30 
REMARK   12  A    between atoms: C12_30  and  O6_31 
REMARK   13  A    between atoms: C13_33  and  O7_34 
REMARK   14  A    between atoms: C14_36  and  O8_37 
REMARK   15  A    between atoms: C15_39  and  O9_40 
ROOT
HETATM    1  C5  UNL     1     -23.934   7.476  -7.663  1.00  0.00     0.340 C 
HETATM    2  N3  UNL     1     -22.568   7.846  -7.474  1.00  0.00    -0.021 N 
ATOM      3  H31 UNL     1     -22.283   7.819  -6.495  1.00  0.00     0.283 HD
ATOM      4  H32 UNL     1     -22.403   8.840  -7.636  1.00  0.00     0.283 HD
HETATM    5  C6  UNL     1     -21.740   6.979  -8.338  1.00  0.00     0.362 C 
HETATM    6  C7  UNL     1     -21.811   7.542  -9.695  1.00  0.00     0.124 C 
HETATM    7  C13 UNL     1     -22.832   6.857 -10.581  1.00  0.00     0.162 C 
HETATM    8  C14 UNL     1     -24.228   6.951 -10.121  1.00  0.00     0.180 C 
HETATM    9  C15 UNL     1     -24.539   7.841  -8.975  1.00  0.00     0.201 C 
ENDROOT
BRANCH   6  10
HETATM   10  C8  UNL     1     -20.508   7.521 -10.433  1.00  0.00     0.228 C 
BRANCH  10  11
HETATM   11  O3  UNL     1     -19.941   6.254  -9.981  1.00  0.00    -0.376 OA
ATOM     12  H3  UNL     1     -20.119   5.691 -10.725  1.00  0.00     0.212 HD
ENDBRANCH  10  11
BRANCH  10  13
HETATM   13  N5  UNL     1     -20.582   7.398 -11.796  1.00  0.00    -0.374 N 
HETATM   14  C9  UNL     1     -19.639   7.464 -12.779  1.00  0.00     0.092 C 
ATOM     15  H5  UNL     1     -21.525   7.223 -12.143  1.00  0.00     0.161 HD
BRANCH  14  16
HETATM   16  C10 UNL     1     -18.609   6.381 -12.882  1.00  0.00     0.187 C 
BRANCH  16  17
HETATM   17  O4  UNL     1     -17.615   6.756 -13.781  1.00  0.00    -0.388 OA
ATOM     18  H4  UNL     1     -17.760   6.333 -14.619  1.00  0.00     0.210 HD
ENDBRANCH  16  17
BRANCH  16  19
HETATM   19  C11 UNL     1     -19.220   5.090 -13.380  1.00  0.00     0.175 C 
BRANCH  19  20
HETATM   20  O5  UNL     1     -20.120   4.620 -12.419  1.00  0.00    -0.391 OA
ATOM     21  H5  UNL     1     -20.428   5.357 -11.905  1.00  0.00     0.210 HD
ENDBRANCH  19  20
BRANCH  19  22
HETATM   22  C12 UNL     1     -18.062   4.085 -13.483  1.00  0.00     0.198 C 
BRANCH  22  23
HETATM   23  O6  UNL     1     -17.069   4.379 -12.552  1.00  0.00    -0.398 OA
ATOM     24  H6  UNL     1     -16.207   4.246 -12.926  1.00  0.00     0.209 HD
ENDBRANCH  22  23
ENDBRANCH  19  22
ENDBRANCH  16  19
ENDBRANCH  14  16
ENDBRANCH  10  13
ENDBRANCH   6  10
BRANCH   5  25
HETATM   25  O2  UNL     1     -22.377   5.713  -8.355  1.00  0.00    -0.253 OA
BRANCH  25  26
HETATM   26  N4  UNL     1     -21.629   4.785  -7.734  1.00  0.00    -0.309 N 
ATOM     27  H42 UNL     1     -21.877   3.797  -7.689  1.00  0.00     0.184 HD
ATOM     28  H41 UNL     1     -20.793   5.202  -7.323  1.00  0.00     0.184 HD
ENDBRANCH  25  26
ENDBRANCH   5  25
BRANCH   7  29
HETATM   29  O7  UNL     1     -22.448   5.523 -10.710  1.00  0.00    -0.392 OA
ATOM     30  H7  UNL     1     -23.240   5.003 -10.781  1.00  0.00     0.210 HD
ENDBRANCH   7  29
BRANCH   8  31
HETATM   31  O8  UNL     1     -24.787   5.685  -9.903  1.00  0.00    -0.390 OA
ATOM     32  H8  UNL     1     -24.809   5.466  -8.978  1.00  0.00     0.210 HD
ENDBRANCH   8  31
BRANCH   1  33
HETATM   33  N2  UNL     1     -24.776   8.072  -6.618  1.00  0.00    -0.267 N 
HETATM   34  C4  UNL     1     -26.016   7.735  -6.256  1.00  0.00     0.133 A 
HETATM   35  C3  UNL     1     -26.389   8.575  -5.243  1.00  0.00     0.095 A 
HETATM   36  C2  UNL     1     -27.527   8.743  -4.455  1.00  0.00     0.266 A 
HETATM   37  C16 UNL     1     -25.334   9.440  -4.993  1.00  0.00     0.143 A 
HETATM   38  N1  UNL     1     -27.534   9.704  -3.527  1.00  0.00    -0.270 N 
HETATM   39  O1  UNL     1     -28.501   7.962  -4.668  1.00  0.00    -0.267 OA
HETATM   40  C1  UNL     1     -28.716   9.877  -2.711  1.00  0.00     0.164 C 
HETATM   41  C18 UNL     1     -26.484  10.527  -3.315  1.00  0.00     0.332 A 
HETATM   42  N7  UNL     1     -25.369  10.399  -4.053  1.00  0.00    -0.288 N 
HETATM   43  O10 UNL     1     -26.497  11.428  -2.443  1.00  0.00    -0.246 OA
HETATM   44  C17 UNL     1     -24.206  11.234  -3.892  1.00  0.00     0.163 C 
HETATM   45  N6  UNL     1     -24.366   9.089  -5.866  1.00  0.00    -0.281 N 
ATOM     46  H6  UNL     1     -23.453   9.538  -5.937  1.00  0.00     0.189 HD
ENDBRANCH   1  33
BRANCH   9  47
HETATM   47  O9  UNL     1     -24.419   9.207  -9.278  1.00  0.00    -0.389 OA
ATOM     48  H9  UNL     1     -24.798   9.438 -10.117  1.00  0.00     0.210 HD
ENDBRANCH   9  47
TORSDOF 15
ENDMDL
MODEL 5
REMARK VINA RESULT: -7.987819318      2.593      4.706
REMARK  15 active torsions:
REMARK  status: ('A' for Active; 'I' for Inactive)
REMARK    1  A    between atoms: N2_7  and  C5_8 
REMARK    2  A    between atoms: C6_12  and  O2_13 
REMARK    3  A    between atoms: O2_13  and  N4_14 
REMARK    4  A    between atoms: C7_17  and  C8_18 
REMARK    5  A    between atoms: C8_18  and  O3_19 
REMARK    6  A    between atoms: C8_18  and  N5_21 
REMARK    7  A    between atoms: C9_23  and  C10_24 
REMARK    8  A    between atoms: C10_24  and  O4_25 
REMARK    9  A    between atoms: C10_24  and  C11_27 
REMARK   10  A    between atoms: C11_27  and  O5_28 
REMARK   11  A    between atoms: C11_27  and  C12_30 
REMARK   12  A    between atoms: C12_30  and  O6_31 
REMARK   13  A    between atoms: C13_33  and  O7_34 
REMARK   14  A    between atoms: C14_36  and  O8_37 
REMARK   15  A    between atoms: C15_39  and  O9_40 
ROOT
HETATM    1  C5  UNL     1     -23.755   7.704  -7.484  1.00  0.00     0.340 C 
HETATM    2  N3  UNL     1     -24.185   7.858  -8.836  1.00  0.00    -0.021 N 
ATOM      3  H31 UNL     1     -24.749   8.697  -8.978  1.00  0.00     0.283 HD
ATOM      4  H32 UNL     1     -24.891   7.173  -9.107  1.00  0.00     0.283 HD
HETATM    5  C6  UNL     1     -22.986   7.820  -9.699  1.00  0.00     0.362 C 
HETATM    6  C7  UNL     1     -22.632   6.402  -9.867  1.00  0.00     0.124 C 
HETATM    7  C13 UNL     1     -21.540   5.936  -8.925  1.00  0.00     0.162 C 
HETATM    8  C14 UNL     1     -21.869   6.016  -7.492  1.00  0.00     0.180 C 
HETATM    9  C15 UNL     1     -23.261   6.351  -7.102  1.00  0.00     0.201 C 
ENDROOT
BRANCH   6  10
HETATM   10  C8  UNL     1     -22.195   6.042 -11.254  1.00  0.00     0.228 C 
BRANCH  10  11
HETATM   11  O3  UNL     1     -21.437   7.231 -11.635  1.00  0.00    -0.376 OA
ATOM     12  H3  UNL     1     -21.974   7.922 -11.267  1.00  0.00     0.212 HD
ENDBRANCH  10  11
BRANCH  10  13
HETATM   13  N5  UNL     1     -21.298   5.012 -11.363  1.00  0.00    -0.374 N 
HETATM   14  C9  UNL     1     -20.681   4.438 -12.434  1.00  0.00     0.092 C 
ATOM     15  H5  UNL     1     -21.041   4.594 -10.468  1.00  0.00     0.161 HD
BRANCH  14  16
HETATM   16  C10 UNL     1     -19.657   5.218 -13.198  1.00  0.00     0.187 C 
BRANCH  16  17
HETATM   17  O4  UNL     1     -19.422   4.615 -14.430  1.00  0.00    -0.388 OA
ATOM     18  H4  UNL     1     -18.586   4.903 -14.778  1.00  0.00     0.210 HD
ENDBRANCH  16  17
BRANCH  16  19
HETATM   19  C11 UNL     1     -18.341   5.273 -12.452  1.00  0.00     0.175 C 
BRANCH  19  20
HETATM   20  O5  UNL     1     -18.572   5.790 -11.174  1.00  0.00    -0.391 OA
ATOM     21  H5  UNL     1     -17.862   6.380 -10.951  1.00  0.00     0.210 HD
ENDBRANCH  19  20
BRANCH  19  22
HETATM   22  C12 UNL     1     -17.459   6.269 -13.219  1.00  0.00     0.198 C 
BRANCH  22  23
HETATM   23  O6  UNL     1     -18.201   7.379 -13.618  1.00  0.00    -0.398 OA
ATOM     24  H6  UNL     1     -17.638   8.135 -13.736  1.00  0.00     0.209 HD
ENDBRANCH  22  23
ENDBRANCH  19  22
ENDBRANCH  16  19
ENDBRANCH  14  16
ENDBRANCH  10  13
ENDBRANCH   6  10
BRANCH   5  25
HETATM   25  O2  UNL     1     -21.949   8.446  -8.965  1.00  0.00    -0.253 OA
BRANCH  25  26
HETATM   26  N4  UNL     1     -21.483   9.529  -9.611  1.00  0.00    -0.309 N 
ATOM     27  H42 UNL     1     -21.800  10.480  -9.420  1.00  0.00     0.184 HD
ATOM     28  H41 UNL     1     -20.782   9.269 -10.305  1.00  0.00     0.184 HD
ENDBRANCH  25  26
ENDBRANCH   5  25
BRANCH   7  29
HETATM   29  O7  UNL     1     -20.396   6.680  -9.208  1.00  0.00    -0.392 OA
ATOM     30  H7  UNL     1     -20.116   7.092  -8.399  1.00  0.00     0.210 HD
ENDBRANCH   7  29
BRANCH   8  31
HETATM   31  O8  UNL     1     -20.972   6.843  -6.801  1.00  0.00    -0.390 OA
ATOM     32  H8  UNL     1     -20.348   7.252  -7.390  1.00  0.00     0.210 HD
ENDBRANCH   8  31
BRANCH   1  33
HETATM   33  N2  UNL     1     -24.844   8.043  -6.558  1.00  0.00    -0.267 N 
HETATM   34  C4  UNL     1     -24.866   8.983  -5.609  1.00  0.00     0.133 A 
HETATM   35  C3  UNL     1     -26.091   8.922  -5.003  1.00  0.00     0.095 A 
HETATM   36  C2  UNL     1     -26.726   9.609  -3.969  1.00  0.00     0.266 A 
HETATM   37  C16 UNL     1     -26.822   7.913  -5.612  1.00  0.00     0.143 A 
HETATM   38  N1  UNL     1     -27.973   9.264  -3.634  1.00  0.00    -0.270 N 
HETATM   39  O1  UNL     1     -26.075  10.535  -3.400  1.00  0.00    -0.267 OA
HETATM   40  C1  UNL     1     -28.630   9.977  -2.562  1.00  0.00     0.164 C 
HETATM   41  C18 UNL     1     -28.651   8.273  -4.254  1.00  0.00     0.332 A 
HETATM   42  N7  UNL     1     -28.074   7.586  -5.254  1.00  0.00    -0.288 N 
HETATM   43  O10 UNL     1     -29.820   7.952  -3.934  1.00  0.00    -0.246 OA
HETATM   44  C17 UNL     1     -28.726   6.517  -5.967  1.00  0.00     0.163 C 
HETATM   45  N6  UNL     1     -26.010   7.403  -6.562  1.00  0.00    -0.281 N 
ATOM     46  H6  UNL     1     -26.254   6.639  -7.191  1.00  0.00     0.189 HD
ENDBRANCH   1  33
BRANCH   9  47
HETATM   47  O9  UNL     1     -24.182   5.327  -7.380  1.00  0.00    -0.389 OA
ATOM     48  H9  UNL     1     -24.778   5.156  -6.661  1.00  0.00     0.210 HD
ENDBRANCH   9  47
TORSDOF 15
ENDMDL
