MODEL 1
REMARK VINA RESULT: -6.461142080      0.000      0.000
REMARK  5 active torsions:
REMARK  status: ('A' for Active; 'I' for Inactive)
REMARK    1  A    between atoms: N1_1  and  C1_4 
REMARK    2  A    between atoms: N4_10  and  C3_11 
REMARK    3  A    between atoms: C3_11  and  C4_12 
REMARK    4  A    between atoms: C4_12  and  N6_14 
REMARK    5  A    between atoms: N6_14  and  N7_16 
ROOT
HETATM    1  C1  UNL     1     -10.923   9.691  50.206  1.00  0.00     0.680 A 
HETATM    2  N2  UNL     1     -10.154  10.536  50.916  1.00  0.00    -0.174 N 
ATOM      3  H2  UNL     1     -10.277  10.569  51.929  1.00  0.00     0.186 HD
HETATM    4  C2  UNL     1      -9.233  11.339  50.361  1.00  0.00     0.152 A 
HETATM    5  N3  UNL     1      -8.342  12.258  50.765  1.00  0.00    -0.282 N 
ATOM      6  H3  UNL     1      -8.202  12.539  51.736  1.00  0.00     0.189 HD
HETATM    7  N4  UNL     1      -7.670  12.750  49.743  1.00  0.00    -0.294 N 
HETATM    8  C5  UNL     1      -8.102  12.162  48.592  1.00  0.00     0.131 A 
HETATM    9  C6  UNL     1      -9.091  11.258  48.908  1.00  0.00     0.095 A 
HETATM   10  C7  UNL     1      -9.887  10.386  48.201  1.00  0.00     0.275 A 
HETATM   11  O1  UNL     1      -9.780  10.300  46.936  1.00  0.00    -0.267 OA
HETATM   12  N8  UNL     1     -10.779   9.629  48.869  1.00  0.00    -0.155 N 
ATOM     13  H8  UNL     1     -11.367   8.984  48.341  1.00  0.00     0.187 HD
ENDROOT
BRANCH   7  14
HETATM   14  C3  UNL     1      -6.621  13.760  49.744  1.00  0.00     0.222 C 
BRANCH  14  15
HETATM   15  C4  UNL     1      -6.650  14.565  50.988  1.00  0.00     0.127 C 
HETATM   16  N5  UNL     1      -7.888  15.021  51.506  1.00  0.00    -0.084 NA
BRANCH  15  17
HETATM   17  N6  UNL     1      -5.571  14.865  51.617  1.00  0.00    -0.296 N 
ATOM     18  H6  UNL     1      -5.628  15.067  52.616  1.00  0.00     0.187 HD
BRANCH  17  19
HETATM   19  N7  UNL     1      -4.321  14.926  50.995  1.00  0.00    -0.344 N 
ATOM     20  H72 UNL     1      -3.699  14.125  51.108  1.00  0.00     0.176 HD
ATOM     21  H71 UNL     1      -4.017  15.727  50.442  1.00  0.00     0.176 HD
ENDBRANCH  17  19
ENDBRANCH  15  17
ENDBRANCH  14  15
ENDBRANCH   7  14
BRANCH   1  22
HETATM   22  N1  UNL     1     -11.812   8.923  50.785  1.00  0.00    -0.234 N 
ATOM     23  H12 UNL     1     -11.503   8.258  51.494  1.00  0.00     0.174 HD
ATOM     24  H11 UNL     1     -12.801   8.974  50.542  1.00  0.00     0.174 HD
ENDBRANCH   1  22
TORSDOF 5
ENDMDL
MODEL 2
REMARK VINA RESULT: -6.263367081      2.305      2.910
REMARK  5 active torsions:
REMARK  status: ('A' for Active; 'I' for Inactive)
REMARK    1  A    between atoms: N1_1  and  C1_4 
REMARK    2  A    between atoms: N4_10  and  C3_11 
REMARK    3  A    between atoms: C3_11  and  C4_12 
REMARK    4  A    between atoms: C4_12  and  N6_14 
REMARK    5  A    between atoms: N6_14  and  N7_16 
ROOT
HETATM    1  C1  UNL     1     -11.232  13.623  47.057  1.00  0.00     0.680 A 
HETATM    2  N2  UNL     1     -10.326  14.353  47.733  1.00  0.00    -0.174 N 
ATOM      3  H2  UNL     1     -10.282  15.357  47.555  1.00  0.00     0.186 HD
HETATM    4  C2  UNL     1      -9.476  13.828  48.629  1.00  0.00     0.152 A 
HETATM    5  N3  UNL     1      -8.494  14.256  49.438  1.00  0.00    -0.282 N 
ATOM      6  H3  UNL     1      -8.187  15.226  49.509  1.00  0.00     0.189 HD
HETATM    7  N4  UNL     1      -7.980  13.258  50.131  1.00  0.00    -0.294 N 
HETATM    8  C5  UNL     1      -8.616  12.101  49.797  1.00  0.00     0.131 A 
HETATM    9  C6  UNL     1      -9.576  12.386  48.852  1.00  0.00     0.095 A 
HETATM   10  C7  UNL     1     -10.510  11.659  48.151  1.00  0.00     0.275 A 
HETATM   11  O1  UNL     1     -10.614  10.404  48.329  1.00  0.00    -0.267 OA
HETATM   12  N8  UNL     1     -11.310  12.297  47.275  1.00  0.00    -0.155 N 
ATOM     13  H8  UNL     1     -12.002  11.755  46.756  1.00  0.00     0.187 HD
ENDROOT
BRANCH   7  14
HETATM   14  C3  UNL     1      -6.906  13.291  51.113  1.00  0.00     0.222 C 
BRANCH  14  15
HETATM   15  C4  UNL     1      -6.707  14.658  51.648  1.00  0.00     0.127 C 
HETATM   16  N5  UNL     1      -7.827  15.444  52.018  1.00  0.00    -0.084 NA
BRANCH  15  17
HETATM   17  N6  UNL     1      -5.531  15.159  51.787  1.00  0.00    -0.296 N 
ATOM     18  H6  UNL     1      -5.377  15.844  52.527  1.00  0.00     0.187 HD
BRANCH  17  19
HETATM   19  N7  UNL     1      -4.454  14.806  50.969  1.00  0.00    -0.344 N 
ATOM     20  H72 UNL     1      -4.224  13.815  50.896  1.00  0.00     0.176 HD
ATOM     21  H71 UNL     1      -3.903  15.491  50.453  1.00  0.00     0.176 HD
ENDBRANCH  17  19
ENDBRANCH  15  17
ENDBRANCH  14  15
ENDBRANCH   7  14
BRANCH   1  22
HETATM   22  N1  UNL     1     -12.044  14.173  46.189  1.00  0.00    -0.234 N 
ATOM     23  H12 UNL     1     -12.703  13.579  45.685  1.00  0.00     0.174 HD
ATOM     24  H11 UNL     1     -12.032  15.176  46.007  1.00  0.00     0.174 HD
ENDBRANCH   1  22
TORSDOF 5
ENDMDL
MODEL 3
REMARK VINA RESULT: -6.240374948      2.311      6.023
REMARK  5 active torsions:
REMARK  status: ('A' for Active; 'I' for Inactive)
REMARK    1  A    between atoms: N1_1  and  C1_4 
REMARK    2  A    between atoms: N4_10  and  C3_11 
REMARK    3  A    between atoms: C3_11  and  C4_12 
REMARK    4  A    between atoms: C4_12  and  N6_14 
REMARK    5  A    between atoms: N6_14  and  N7_16 
ROOT
HETATM    1  C1  UNL     1      -5.505  14.422  50.669  1.00  0.00     0.680 A 
HETATM    2  N2  UNL     1      -5.932  13.710  49.610  1.00  0.00    -0.174 N 
ATOM      3  H2  UNL     1      -5.249  13.433  48.905  1.00  0.00     0.186 HD
HETATM    4  C2  UNL     1      -7.212  13.345  49.434  1.00  0.00     0.152 A 
HETATM    5  N3  UNL     1      -7.936  12.666  48.531  1.00  0.00    -0.282 N 
ATOM      6  H3  UNL     1      -7.555  12.245  47.684  1.00  0.00     0.189 HD
HETATM    7  N4  UNL     1      -9.206  12.614  48.884  1.00  0.00    -0.294 N 
HETATM    8  C5  UNL     1      -9.376  13.275  50.062  1.00  0.00     0.131 A 
HETATM    9  C6  UNL     1      -8.155  13.764  50.470  1.00  0.00     0.095 A 
HETATM   10  C7  UNL     1      -7.697  14.491  51.545  1.00  0.00     0.275 A 
HETATM   11  O1  UNL     1      -8.501  14.865  52.456  1.00  0.00    -0.267 OA
HETATM   12  N8  UNL     1      -6.388  14.799  51.613  1.00  0.00    -0.155 N 
ATOM     13  H8  UNL     1      -6.051  15.338  52.411  1.00  0.00     0.187 HD
ENDROOT
BRANCH   7  14
HETATM   14  C3  UNL     1     -10.317  11.978  48.190  1.00  0.00     0.222 C 
BRANCH  14  15
HETATM   15  C4  UNL     1     -10.005  10.571  47.849  1.00  0.00     0.127 C 
HETATM   16  N5  UNL     1      -9.087  10.282  46.807  1.00  0.00    -0.084 NA
BRANCH  15  17
HETATM   17  N6  UNL     1     -10.549   9.592  48.479  1.00  0.00    -0.296 N 
ATOM     18  H6  UNL     1     -10.798   8.752  47.954  1.00  0.00     0.187 HD
BRANCH  17  19
HETATM   19  N7  UNL     1     -10.815   9.626  49.850  1.00  0.00    -0.344 N 
ATOM     20  H72 UNL     1     -10.017   9.629  50.485  1.00  0.00     0.176 HD
ATOM     21  H71 UNL     1     -11.761   9.648  50.229  1.00  0.00     0.176 HD
ENDBRANCH  17  19
ENDBRANCH  15  17
ENDBRANCH  14  15
ENDBRANCH   7  14
BRANCH   1  22
HETATM   22  N1  UNL     1      -4.247  14.760  50.805  1.00  0.00    -0.234 N 
ATOM     23  H12 UNL     1      -3.565  14.039  51.043  1.00  0.00     0.174 HD
ATOM     24  H11 UNL     1      -3.936  15.723  50.681  1.00  0.00     0.174 HD
ENDBRANCH   1  22
TORSDOF 5
ENDMDL
MODEL 4
REMARK VINA RESULT: -6.164467408      2.089      5.778
REMARK  5 active torsions:
REMARK  status: ('A' for Active; 'I' for Inactive)
REMARK    1  A    between atoms: N1_1  and  C1_4 
REMARK    2  A    between atoms: N4_10  and  C3_11 
REMARK    3  A    between atoms: C3_11  and  C4_12 
REMARK    4  A    between atoms: C4_12  and  N6_14 
REMARK    5  A    between atoms: N6_14  and  N7_16 
ROOT
HETATM    1  C1  UNL     1      -5.945  14.671  51.488  1.00  0.00     0.680 A 
HETATM    2  N2  UNL     1      -7.247  14.345  51.397  1.00  0.00    -0.174 N 
ATOM      3  H2  UNL     1      -7.859  14.573  52.181  1.00  0.00     0.186 HD
HETATM    4  C2  UNL     1      -7.782  13.734  50.329  1.00  0.00     0.152 A 
HETATM    5  N3  UNL     1      -8.987  13.289  49.938  1.00  0.00    -0.282 N 
ATOM      6  H3  UNL     1      -9.837  13.360  50.496  1.00  0.00     0.189 HD
HETATM    7  N4  UNL     1      -8.926  12.747  48.737  1.00  0.00    -0.294 N 
HETATM    8  C5  UNL     1      -7.647  12.814  48.275  1.00  0.00     0.131 A 
HETATM    9  C6  UNL     1      -6.867  13.426  49.230  1.00  0.00     0.095 A 
HETATM   10  C7  UNL     1      -5.539  13.769  49.343  1.00  0.00     0.275 A 
HETATM   11  O1  UNL     1      -4.727  13.510  48.399  1.00  0.00    -0.267 OA
HETATM   12  N8  UNL     1      -5.117  14.380  50.467  1.00  0.00    -0.155 N 
ATOM     13  H8  UNL     1      -4.132  14.633  50.547  1.00  0.00     0.187 HD
ENDROOT
BRANCH   7  14
HETATM   14  C3  UNL     1      -9.998  12.151  47.953  1.00  0.00     0.222 C 
BRANCH  14  15
HETATM   15  C4  UNL     1      -9.866  10.676  47.895  1.00  0.00     0.127 C 
HETATM   16  N5  UNL     1      -9.407  10.051  46.708  1.00  0.00    -0.084 NA
BRANCH  15  17
HETATM   17  N6  UNL     1     -10.160   9.937  48.905  1.00  0.00    -0.296 N 
ATOM     18  H6  UNL     1      -9.594   9.108  49.085  1.00  0.00     0.187 HD
BRANCH  17  19
HETATM   19  N7  UNL     1     -11.221  10.220  49.769  1.00  0.00    -0.344 N 
ATOM     20  H72 UNL     1     -11.691  11.119  49.659  1.00  0.00     0.176 HD
ATOM     21  H71 UNL     1     -11.536   9.571  50.490  1.00  0.00     0.176 HD
ENDBRANCH  17  19
ENDBRANCH  15  17
ENDBRANCH  14  15
ENDBRANCH   7  14
BRANCH   1  22
HETATM   22  N1  UNL     1      -5.460  15.267  52.548  1.00  0.00    -0.234 N 
ATOM     23  H12 UNL     1      -5.233  16.260  52.496  1.00  0.00     0.174 HD
ATOM     24  H11 UNL     1      -5.304  14.762  53.420  1.00  0.00     0.174 HD
ENDBRANCH   1  22
TORSDOF 5
ENDMDL
MODEL 5
REMARK VINA RESULT: -6.155092963      1.438      1.750
REMARK  5 active torsions:
REMARK  status: ('A' for Active; 'I' for Inactive)
REMARK    1  A    between atoms: N1_1  and  C1_4 
REMARK    2  A    between atoms: N4_10  and  C3_11 
REMARK    3  A    between atoms: C3_11  and  C4_12 
REMARK    4  A    between atoms: C4_12  and  N6_14 
REMARK    5  A    between atoms: N6_14  and  N7_16 
ROOT
HETATM    1  C1  UNL     1     -11.184  10.044  52.642  1.00  0.00     0.680 A 
HETATM    2  N2  UNL     1     -10.307  11.021  52.938  1.00  0.00    -0.174 N 
ATOM      3  H2  UNL     1     -10.250  11.345  53.904  1.00  0.00     0.186 HD
HETATM    4  C2  UNL     1      -9.504  11.593  52.027  1.00  0.00     0.152 A 
HETATM    5  N3  UNL     1      -8.562  12.548  51.993  1.00  0.00    -0.282 N 
ATOM      6  H3  UNL     1      -8.256  13.086  52.803  1.00  0.00     0.189 HD
HETATM    7  N4  UNL     1      -8.084  12.700  50.773  1.00  0.00    -0.294 N 
HETATM    8  C5  UNL     1      -8.709  11.830  49.931  1.00  0.00     0.131 A 
HETATM    9  C6  UNL     1      -9.620  11.097  50.656  1.00  0.00     0.095 A 
HETATM   10  C7  UNL     1     -10.522  10.096  50.376  1.00  0.00     0.275 A 
HETATM   11  O1  UNL     1     -10.639   9.651  49.190  1.00  0.00    -0.267 OA
HETATM   12  N8  UNL     1     -11.277   9.600  51.374  1.00  0.00    -0.155 N 
ATOM     13  H8  UNL     1     -11.945   8.858  51.163  1.00  0.00     0.187 HD
ENDROOT
BRANCH   7  14
HETATM   14  C3  UNL     1      -7.058  13.621  50.306  1.00  0.00     0.222 C 
BRANCH  14  15
HETATM   15  C4  UNL     1      -6.744  14.643  51.333  1.00  0.00     0.127 C 
HETATM   16  N5  UNL     1      -7.784  15.423  51.897  1.00  0.00    -0.084 NA
BRANCH  15  17
HETATM   17  N6  UNL     1      -5.539  14.843  51.731  1.00  0.00    -0.296 N 
ATOM     18  H6  UNL     1      -5.375  15.016  52.724  1.00  0.00     0.187 HD
BRANCH  17  19
HETATM   19  N7  UNL     1      -4.442  14.834  50.866  1.00  0.00    -0.344 N 
ATOM     20  H72 UNL     1      -3.697  15.508  51.042  1.00  0.00     0.176 HD
ATOM     21  H71 UNL     1      -4.362  14.189  50.080  1.00  0.00     0.176 HD
ENDBRANCH  17  19
ENDBRANCH  15  17
ENDBRANCH  14  15
ENDBRANCH   7  14
BRANCH   1  22
HETATM   22  N1  UNL     1     -11.952   9.511  53.559  1.00  0.00    -0.234 N 
ATOM     23  H12 UNL     1     -11.819   9.783  54.533  1.00  0.00     0.174 HD
ATOM     24  H11 UNL     1     -12.676   8.833  53.322  1.00  0.00     0.174 HD
ENDBRANCH   1  22
TORSDOF 5
ENDMDL
