MODEL 1
REMARK VINA RESULT: -5.640152896      0.000      0.000
REMARK  3 active torsions:
REMARK  status: ('A' for Active; 'I' for Inactive)
REMARK       I    between atoms: C1_4  and  N3_6 
REMARK       I    between atoms: C2_8  and  N5_10 
REMARK    1  A    between atoms: C3_12  and  N6_13 
REMARK    2  A    between atoms: N6_13  and  N7_14 
REMARK    3  A    between atoms: N6_13  and  O1_17 
ROOT
HETATM    1  N1  UNL     1      76.987  83.516  15.634  1.00  0.00    -0.373 N 
ATOM      2  H11 UNL     1      77.034  83.107  16.568  1.00  0.00     0.158 HD
ATOM      3  H12 UNL     1      77.330  82.968  14.846  1.00  0.00     0.158 HD
HETATM    4  C1  UNL     1      76.496  84.700  15.519  1.00  0.00     0.188 C 
HETATM    5  N2  UNL     1      76.431  85.268  14.223  1.00  0.00    -0.064 NA
HETATM    6  N3  UNL     1      76.019  85.463  16.616  1.00  0.00    -0.305 N 
ATOM      7  H3  UNL     1      75.016  85.547  16.781  1.00  0.00     0.171 HD
HETATM    8  C2  UNL     1      76.846  86.044  17.398  1.00  0.00     0.195 C 
HETATM    9  N4  UNL     1      78.241  85.938  17.184  1.00  0.00    -0.063 NA
HETATM   10  N5  UNL     1      76.382  86.821  18.513  1.00  0.00    -0.323 N 
ATOM     11  H5  UNL     1      75.650  86.461  19.127  1.00  0.00     0.169 HD
HETATM   12  C3  UNL     1      76.903  87.973  18.723  1.00  0.00     0.236 C 
ENDROOT
BRANCH  12  13
HETATM   13  N6  UNL     1      76.480  88.774  19.806  1.00  0.00    -0.166 N 
BRANCH  13  14
HETATM   14  N7  UNL     1      77.189  88.742  21.013  1.00  0.00    -0.318 N 
ATOM     15  H72 UNL     1      77.282  87.840  21.479  1.00  0.00     0.179 HD
ATOM     16  H71 UNL     1      77.586  89.602  21.391  1.00  0.00     0.179 HD
ENDBRANCH  13  14
BRANCH  13  17
HETATM   17  O1  UNL     1      75.413  89.584  19.737  1.00  0.00    -0.268 OA
ATOM     18  H1  UNL     1      74.523  89.258  19.670  1.00  0.00     0.247 HD
ENDBRANCH  13  17
ENDBRANCH  12  13
TORSDOF 3
ENDMDL
MODEL 2
REMARK VINA RESULT: -5.557969470      2.624      5.495
REMARK  3 active torsions:
REMARK  status: ('A' for Active; 'I' for Inactive)
REMARK       I    between atoms: C1_4  and  N3_6 
REMARK       I    between atoms: C2_8  and  N5_10 
REMARK    1  A    between atoms: C3_12  and  N6_13 
REMARK    2  A    between atoms: N6_13  and  N7_14 
REMARK    3  A    between atoms: N6_13  and  O1_17 
ROOT
HETATM    1  N1  UNL     1      77.274  90.033  20.341  1.00  0.00    -0.373 N 
ATOM      2  H11 UNL     1      77.509  90.575  19.509  1.00  0.00     0.158 HD
ATOM      3  H12 UNL     1      77.591  90.374  21.249  1.00  0.00     0.158 HD
HETATM    4  C1  UNL     1      76.592  88.953  20.185  1.00  0.00     0.188 C 
HETATM    5  N2  UNL     1      76.266  88.200  21.340  1.00  0.00    -0.064 NA
HETATM    6  N3  UNL     1      76.151  88.478  18.923  1.00  0.00    -0.305 N 
ATOM      7  H3  UNL     1      75.178  88.602  18.642  1.00  0.00     0.171 HD
HETATM    8  C2  UNL     1      76.973  87.895  18.137  1.00  0.00     0.195 C 
HETATM    9  N4  UNL     1      78.326  87.715  18.509  1.00  0.00    -0.063 NA
HETATM   10  N5  UNL     1      76.545  87.408  16.855  1.00  0.00    -0.323 N 
ATOM     11  H5  UNL     1      75.968  87.988  16.246  1.00  0.00     0.169 HD
HETATM   12  C3  UNL     1      76.902  86.232  16.492  1.00  0.00     0.236 C 
ENDROOT
BRANCH  12  13
HETATM   13  N6  UNL     1      76.506  85.707  15.242  1.00  0.00    -0.166 N 
BRANCH  13  14
HETATM   14  N7  UNL     1      75.673  86.460  14.404  1.00  0.00    -0.318 N 
ATOM     15  H72 UNL     1      74.875  86.928  14.833  1.00  0.00     0.179 HD
ATOM     16  H71 UNL     1      75.879  86.520  13.407  1.00  0.00     0.179 HD
ENDBRANCH  13  14
BRANCH  13  17
HETATM   17  O1  UNL     1      76.895  84.501  14.804  1.00  0.00    -0.268 OA
ATOM     18  H1  UNL     1      76.283  83.842  14.498  1.00  0.00     0.247 HD
ENDBRANCH  13  17
ENDBRANCH  12  13
TORSDOF 3
ENDMDL
MODEL 3
REMARK VINA RESULT: -5.555990728      2.829      5.375
REMARK  3 active torsions:
REMARK  status: ('A' for Active; 'I' for Inactive)
REMARK       I    between atoms: C1_4  and  N3_6 
REMARK       I    between atoms: C2_8  and  N5_10 
REMARK    1  A    between atoms: C3_12  and  N6_13 
REMARK    2  A    between atoms: N6_13  and  N7_14 
REMARK    3  A    between atoms: N6_13  and  O1_17 
ROOT
HETATM    1  N1  UNL     1      78.554  89.215  19.123  1.00  0.00    -0.373 N 
ATOM      2  H11 UNL     1      78.663  89.769  18.273  1.00  0.00     0.158 HD
ATOM      3  H12 UNL     1      79.177  89.403  19.909  1.00  0.00     0.158 HD
HETATM    4  C1  UNL     1      77.634  88.315  19.142  1.00  0.00     0.188 C 
HETATM    5  N2  UNL     1      77.482  87.546  20.322  1.00  0.00    -0.064 NA
HETATM    6  N3  UNL     1      76.767  88.055  18.049  1.00  0.00    -0.305 N 
ATOM      7  H3  UNL     1      75.807  88.400  18.066  1.00  0.00     0.171 HD
HETATM    8  C2  UNL     1      77.189  87.388  17.044  1.00  0.00     0.195 C 
HETATM    9  N4  UNL     1      78.518  86.902  17.004  1.00  0.00    -0.063 NA
HETATM   10  N5  UNL     1      76.327  87.114  15.929  1.00  0.00    -0.323 N 
ATOM     11  H5  UNL     1      75.746  87.852  15.528  1.00  0.00     0.169 HD
HETATM   12  C3  UNL     1      76.300  85.927  15.447  1.00  0.00     0.236 C 
ENDROOT
BRANCH  12  13
HETATM   13  N6  UNL     1      75.468  85.607  14.352  1.00  0.00    -0.166 N 
BRANCH  13  14
HETATM   14  N7  UNL     1      74.093  85.869  14.423  1.00  0.00    -0.318 N 
ATOM     15  H72 UNL     1      73.629  85.702  15.315  1.00  0.00     0.179 HD
ATOM     16  H71 UNL     1      73.600  86.211  13.598  1.00  0.00     0.179 HD
ENDBRANCH  13  14
BRANCH  13  17
HETATM   17  O1  UNL     1      75.934  85.056  13.222  1.00  0.00    -0.268 OA
ATOM     18  H1  UNL     1      76.084  84.122  13.128  1.00  0.00     0.247 HD
ENDBRANCH  13  17
ENDBRANCH  12  13
TORSDOF 3
ENDMDL
MODEL 4
REMARK VINA RESULT: -5.495668527      2.739      3.349
REMARK  3 active torsions:
REMARK  status: ('A' for Active; 'I' for Inactive)
REMARK       I    between atoms: C1_4  and  N3_6 
REMARK       I    between atoms: C2_8  and  N5_10 
REMARK    1  A    between atoms: C3_12  and  N6_13 
REMARK    2  A    between atoms: N6_13  and  N7_14 
REMARK    3  A    between atoms: N6_13  and  O1_17 
ROOT
HETATM    1  N1  UNL     1      79.188  82.521  19.696  1.00  0.00    -0.373 N 
ATOM      2  H11 UNL     1      79.997  83.142  19.715  1.00  0.00     0.158 HD
ATOM      3  H12 UNL     1      79.329  81.546  19.431  1.00  0.00     0.158 HD
HETATM    4  C1  UNL     1      78.042  83.016  20.011  1.00  0.00     0.188 C 
HETATM    5  N2  UNL     1      76.918  82.154  19.985  1.00  0.00    -0.064 NA
HETATM    6  N3  UNL     1      77.846  84.371  20.380  1.00  0.00    -0.305 N 
ATOM      7  H3  UNL     1      77.723  84.620  21.362  1.00  0.00     0.171 HD
HETATM    8  C2  UNL     1      77.825  85.281  19.483  1.00  0.00     0.195 C 
HETATM    9  N4  UNL     1      77.995  84.955  18.117  1.00  0.00    -0.063 NA
HETATM   10  N5  UNL     1      77.628  86.659  19.838  1.00  0.00    -0.323 N 
ATOM     11  H5  UNL     1      78.140  87.072  20.618  1.00  0.00     0.169 HD
HETATM   12  C3  UNL     1      76.797  87.359  19.158  1.00  0.00     0.236 C 
ENDROOT
BRANCH  12  13
HETATM   13  N6  UNL     1      76.567  88.717  19.468  1.00  0.00    -0.166 N 
BRANCH  13  14
HETATM   14  N7  UNL     1      77.595  89.485  20.031  1.00  0.00    -0.318 N 
ATOM     15  H72 UNL     1      77.992  90.229  19.458  1.00  0.00     0.179 HD
ATOM     16  H71 UNL     1      77.914  89.286  20.979  1.00  0.00     0.179 HD
ENDBRANCH  13  14
BRANCH  13  17
HETATM   17  O1  UNL     1      75.392  89.324  19.246  1.00  0.00    -0.268 OA
ATOM     18  H1  UNL     1      75.321  90.248  19.039  1.00  0.00     0.247 HD
ENDBRANCH  13  17
ENDBRANCH  12  13
TORSDOF 3
ENDMDL
MODEL 5
REMARK VINA RESULT: -5.419487523      2.860      3.503
REMARK  3 active torsions:
REMARK  status: ('A' for Active; 'I' for Inactive)
REMARK       I    between atoms: C1_4  and  N3_6 
REMARK       I    between atoms: C2_8  and  N5_10 
REMARK    1  A    between atoms: C3_12  and  N6_13 
REMARK    2  A    between atoms: N6_13  and  N7_14 
REMARK    3  A    between atoms: N6_13  and  O1_17 
ROOT
HETATM    1  N1  UNL     1      79.191  82.456  19.711  1.00  0.00    -0.373 N 
ATOM      2  H11 UNL     1      80.022  83.046  19.748  1.00  0.00     0.158 HD
ATOM      3  H12 UNL     1      79.299  81.482  19.429  1.00  0.00     0.158 HD
HETATM    4  C1  UNL     1      78.061  82.986  20.024  1.00  0.00     0.188 C 
HETATM    5  N2  UNL     1      76.906  82.167  19.973  1.00  0.00    -0.064 NA
HETATM    6  N3  UNL     1      77.911  84.342  20.416  1.00  0.00    -0.305 N 
ATOM      7  H3  UNL     1      77.787  84.577  21.401  1.00  0.00     0.171 HD
HETATM    8  C2  UNL     1      77.931  85.268  19.536  1.00  0.00     0.195 C 
HETATM    9  N4  UNL     1      78.102  84.959  18.165  1.00  0.00    -0.063 NA
HETATM   10  N5  UNL     1      77.781  86.645  19.914  1.00  0.00    -0.323 N 
ATOM     11  H5  UNL     1      78.300  87.026  20.705  1.00  0.00     0.169 HD
HETATM   12  C3  UNL     1      76.982  87.387  19.239  1.00  0.00     0.236 C 
ENDROOT
BRANCH  12  13
HETATM   13  N6  UNL     1      76.800  88.746  19.572  1.00  0.00    -0.166 N 
BRANCH  13  14
HETATM   14  N7  UNL     1      75.560  89.358  19.345  1.00  0.00    -0.318 N 
ATOM     15  H72 UNL     1      75.202  89.354  18.390  1.00  0.00     0.179 HD
ATOM     16  H71 UNL     1      75.055  89.783  20.123  1.00  0.00     0.179 HD
ENDBRANCH  13  14
BRANCH  13  17
HETATM   17  O1  UNL     1      77.772  89.501  20.106  1.00  0.00    -0.268 OA
ATOM     18  H1  UNL     1      77.663  89.982  20.918  1.00  0.00     0.247 HD
ENDBRANCH  13  17
ENDBRANCH  12  13
TORSDOF 3
ENDMDL
