MODEL 1
REMARK VINA RESULT: -5.864352131      0.000      0.000
REMARK  2 active torsions:
REMARK  status: ('A' for Active; 'I' for Inactive)
REMARK       I    between atoms: C1_4  and  N3_6 
REMARK    1  A    between atoms: N3_6  and  N4_8 
REMARK    2  A    between atoms: N4_8  and  N5_9 
ROOT
HETATM    1  N4  UNL     1      79.627  89.211  20.242  1.00  0.00     0.004 NA
ENDROOT
BRANCH   1   2
HETATM    2  N3  UNL     1      78.714  90.180  19.830  1.00  0.00    -0.256 N 
HETATM    3  C1  UNL     1      77.365  90.098  20.240  1.00  0.00     0.199 C 
HETATM    4  N1  UNL     1      76.366  90.503  19.534  1.00  0.00    -0.373 N 
HETATM    5  N2  UNL     1      77.081  89.537  21.506  1.00  0.00    -0.063 NA
ATOM      6  H12 UNL     1      75.392  90.444  19.830  1.00  0.00     0.158 HD
ATOM      7  H11 UNL     1      76.571  90.908  18.620  1.00  0.00     0.158 HD
ATOM      8  H3  UNL     1      79.020  90.949  19.233  1.00  0.00     0.187 HD
ENDBRANCH   1   2
BRANCH   1   9
HETATM    9  N5  UNL     1      79.308  87.982  19.631  1.00  0.00    -0.175 N 
HETATM   10  C2  UNL     1      79.468  87.610  18.349  1.00  0.00     0.225 A 
HETATM   11  N6  UNL     1      79.042  86.349  18.155  1.00  0.00    -0.345 N 
HETATM   12  C3  UNL     1      78.605  85.930  19.355  1.00  0.00     0.200 A 
ATOM     13  H6  UNL     1      79.048  85.823  17.281  1.00  0.00     0.167 HD
HETATM   14  N7  UNL     1      78.775  86.934  20.237  1.00  0.00    -0.276 N 
ATOM     15  H7  UNL     1      78.528  86.892  21.226  1.00  0.00     0.189 HD
ENDBRANCH   1   9
TORSDOF 2
ENDMDL
MODEL 2
REMARK VINA RESULT: -5.452821412      2.165      4.023
REMARK  2 active torsions:
REMARK  status: ('A' for Active; 'I' for Inactive)
REMARK       I    between atoms: C1_4  and  N3_6 
REMARK    1  A    between atoms: N3_6  and  N4_8 
REMARK    2  A    between atoms: N4_8  and  N5_9 
ROOT
HETATM    1  N4  UNL     1      78.641  88.949  17.468  1.00  0.00     0.004 NA
ENDROOT
BRANCH   1   2
HETATM    2  N3  UNL     1      77.421  88.465  17.003  1.00  0.00    -0.256 N 
HETATM    3  C1  UNL     1      77.324  87.142  16.522  1.00  0.00     0.199 C 
HETATM    4  N1  UNL     1      76.523  86.766  15.584  1.00  0.00    -0.373 N 
HETATM    5  N2  UNL     1      78.154  86.154  17.100  1.00  0.00    -0.063 NA
ATOM      6  H12 UNL     1      76.453  85.810  15.237  1.00  0.00     0.158 HD
ATOM      7  H11 UNL     1      75.924  87.478  15.167  1.00  0.00     0.158 HD
ATOM      8  H3  UNL     1      76.597  89.067  17.010  1.00  0.00     0.187 HD
ENDBRANCH   1   2
BRANCH   1   9
HETATM    9  N5  UNL     1      78.523  89.275  18.835  1.00  0.00    -0.175 N 
HETATM   10  C2  UNL     1      79.348  88.967  19.851  1.00  0.00     0.225 A 
HETATM   11  N6  UNL     1      78.888  89.462  21.013  1.00  0.00    -0.345 N 
HETATM   12  C3  UNL     1      77.742  90.094  20.706  1.00  0.00     0.200 A 
ATOM     13  H6  UNL     1      79.318  89.375  21.934  1.00  0.00     0.167 HD
HETATM   14  N7  UNL     1      77.538  89.970  19.380  1.00  0.00    -0.276 N 
ATOM     15  H7  UNL     1      76.741  90.354  18.872  1.00  0.00     0.189 HD
ENDBRANCH   1   9
TORSDOF 2
ENDMDL
MODEL 3
REMARK VINA RESULT: -5.301553908      1.661      2.255
REMARK  2 active torsions:
REMARK  status: ('A' for Active; 'I' for Inactive)
REMARK       I    between atoms: C1_4  and  N3_6 
REMARK    1  A    between atoms: N3_6  and  N4_8 
REMARK    2  A    between atoms: N4_8  and  N5_9 
ROOT
HETATM    1  N4  UNL     1      78.235  88.256  20.491  1.00  0.00     0.004 NA
ENDROOT
BRANCH   1   2
HETATM    2  N3  UNL     1      78.059  89.418  21.240  1.00  0.00    -0.256 N 
HETATM    3  C1  UNL     1      77.294  90.484  20.719  1.00  0.00     0.199 C 
HETATM    4  N1  UNL     1      77.515  91.728  20.970  1.00  0.00    -0.373 N 
HETATM    5  N2  UNL     1      76.210  90.178  19.864  1.00  0.00    -0.063 NA
ATOM      6  H12 UNL     1      76.962  92.499  20.594  1.00  0.00     0.158 HD
ATOM      7  H11 UNL     1      78.297  91.950  21.587  1.00  0.00     0.158 HD
ATOM      8  H3  UNL     1      78.483  89.499  22.164  1.00  0.00     0.187 HD
ENDBRANCH   1   2
BRANCH   1   9
HETATM    9  N5  UNL     1      79.169  88.501  19.464  1.00  0.00    -0.175 N 
HETATM   10  C2  UNL     1      80.511  88.436  19.511  1.00  0.00     0.225 A 
HETATM   11  N6  UNL     1      81.051  88.741  18.317  1.00  0.00    -0.345 N 
HETATM   12  C3  UNL     1      80.009  89.002  17.509  1.00  0.00     0.200 A 
ATOM     13  H6  UNL     1      82.042  88.768  18.077  1.00  0.00     0.167 HD
HETATM   14  N7  UNL     1      78.877  88.852  18.222  1.00  0.00    -0.276 N 
ATOM     15  H7  UNL     1      77.933  88.988  17.859  1.00  0.00     0.189 HD
ENDBRANCH   1   9
TORSDOF 2
ENDMDL
MODEL 4
REMARK VINA RESULT: -5.295645332      1.122      4.037
REMARK  2 active torsions:
REMARK  status: ('A' for Active; 'I' for Inactive)
REMARK       I    between atoms: C1_4  and  N3_6 
REMARK    1  A    between atoms: N3_6  and  N4_8 
REMARK    2  A    between atoms: N4_8  and  N5_9 
ROOT
HETATM    1  N4  UNL     1      79.250  87.731  20.037  1.00  0.00     0.004 NA
ENDROOT
BRANCH   1   2
HETATM    2  N3  UNL     1      78.480  86.570  20.066  1.00  0.00    -0.256 N 
HETATM    3  C1  UNL     1      78.156  85.909  18.862  1.00  0.00     0.199 C 
HETATM    4  N1  UNL     1      77.064  85.254  18.663  1.00  0.00    -0.373 N 
HETATM    5  N2  UNL     1      79.085  85.960  17.796  1.00  0.00    -0.063 NA
ATOM      6  H12 UNL     1      76.830  84.775  17.793  1.00  0.00     0.158 HD
ATOM      7  H11 UNL     1      76.394  85.217  19.431  1.00  0.00     0.158 HD
ATOM      8  H3  UNL     1      78.151  86.198  20.957  1.00  0.00     0.187 HD
ENDBRANCH   1   2
BRANCH   1   9
HETATM    9  N5  UNL     1      78.401  88.854  20.108  1.00  0.00    -0.175 N 
HETATM   10  C2  UNL     1      77.405  89.214  19.279  1.00  0.00     0.225 A 
HETATM   11  N6  UNL     1      76.826  90.357  19.688  1.00  0.00    -0.345 N 
HETATM   12  C3  UNL     1      77.485  90.714  20.803  1.00  0.00     0.200 A 
ATOM     13  H6  UNL     1      76.051  90.848  19.244  1.00  0.00     0.167 HD
HETATM   14  N7  UNL     1      78.436  89.791  21.042  1.00  0.00    -0.276 N 
ATOM     15  H7  UNL     1      79.088  89.811  21.827  1.00  0.00     0.189 HD
ENDBRANCH   1   9
TORSDOF 2
ENDMDL
MODEL 5
REMARK VINA RESULT: -5.284893606      1.682      2.115
REMARK  2 active torsions:
REMARK  status: ('A' for Active; 'I' for Inactive)
REMARK       I    between atoms: C1_4  and  N3_6 
REMARK    1  A    between atoms: N3_6  and  N4_8 
REMARK    2  A    between atoms: N4_8  and  N5_9 
ROOT
HETATM    1  N4  UNL     1      79.944  89.165  17.756  1.00  0.00     0.004 NA
ENDROOT
BRANCH   1   2
HETATM    2  N3  UNL     1      79.501  90.192  18.587  1.00  0.00    -0.256 N 
HETATM    3  C1  UNL     1      79.062  89.900  19.896  1.00  0.00     0.199 C 
HETATM    4  N1  UNL     1      78.140  90.554  20.516  1.00  0.00    -0.373 N 
HETATM    5  N2  UNL     1      79.667  88.822  20.583  1.00  0.00    -0.063 NA
ATOM      6  H12 UNL     1      77.823  90.344  21.463  1.00  0.00     0.158 HD
ATOM      7  H11 UNL     1      77.704  91.332  20.021  1.00  0.00     0.158 HD
ATOM      8  H3  UNL     1      79.493  91.154  18.249  1.00  0.00     0.187 HD
ENDBRANCH   1   2
BRANCH   1   9
HETATM    9  N5  UNL     1      78.953  88.165  17.681  1.00  0.00    -0.175 N 
HETATM   10  C2  UNL     1      77.726  88.233  17.137  1.00  0.00     0.225 A 
HETATM   11  N6  UNL     1      77.076  87.062  17.264  1.00  0.00    -0.345 N 
HETATM   12  C3  UNL     1      77.929  86.247  17.908  1.00  0.00     0.200 A 
ATOM     13  H6  UNL     1      76.134  86.841  16.941  1.00  0.00     0.167 HD
HETATM   14  N7  UNL     1      79.061  86.934  18.152  1.00  0.00    -0.276 N 
ATOM     15  H7  UNL     1      79.882  86.560  18.630  1.00  0.00     0.189 HD
ENDBRANCH   1   9
TORSDOF 2
ENDMDL
