MODEL 1
REMARK VINA RESULT: -5.585007900      0.000      0.000
REMARK  3 active torsions:
REMARK  status: ('A' for Active; 'I' for Inactive)
REMARK    1  A    between atoms: N1_2  and  S1_4 
REMARK    2  A    between atoms: S1_4  and  N2_7 
REMARK       I    between atoms: N2_7  and  C2_9 
REMARK       I    between atoms: C2_9  and  N4_13 
REMARK    3  A    between atoms: N4_13  and  N5_15 
ROOT
HETATM    1  N2  UNL     1      77.726  89.652  17.841  1.00  0.00    -0.099 N 
ATOM      2  H2  UNL     1      77.885  90.430  17.201  1.00  0.00     0.199 HD
HETATM    3  C2  UNL     1      77.370  89.908  19.193  1.00  0.00     0.700 C 
HETATM    4  N3  UNL     1      76.141  89.755  19.535  1.00  0.00    -0.233 N 
ATOM      5  H31 UNL     1      75.886  89.938  20.505  1.00  0.00     0.174 HD
ATOM      6  H32 UNL     1      75.440  89.459  18.856  1.00  0.00     0.174 HD
HETATM    7  N4  UNL     1      78.348  90.321  20.141  1.00  0.00    -0.138 N 
ATOM      8  H4  UNL     1      78.704  91.276  20.087  1.00  0.00     0.205 HD
ENDROOT
BRANCH   1   9
HETATM    9  S1  UNL     1      77.889  88.042  17.288  1.00  0.00     0.332 S 
HETATM   10  O1  UNL     1      79.342  87.680  17.179  1.00  0.00    -0.182 OA
HETATM   11  O2  UNL     1      77.292  87.110  18.333  1.00  0.00    -0.182 OA
BRANCH   9  12
HETATM   12  N1  UNL     1      77.031  87.799  15.837  1.00  0.00    -0.307 N 
HETATM   13  C1  UNL     1      76.828  86.406  15.520  1.00  0.00     0.161 C 
ATOM     14  H1  UNL     1      76.694  88.563  15.250  1.00  0.00     0.173 HD
ENDBRANCH   9  12
ENDBRANCH   1   9
BRANCH   7  15
HETATM   15  N5  UNL     1      78.835  89.495  21.123  1.00  0.00    -0.331 N 
ATOM     16  H52 UNL     1      78.869  88.495  20.922  1.00  0.00     0.177 HD
ATOM     17  H51 UNL     1      79.157  89.836  22.029  1.00  0.00     0.177 HD
ENDBRANCH   7  15
TORSDOF 3
ENDMDL
MODEL 2
REMARK VINA RESULT: -5.496319787      2.376      2.386
REMARK  3 active torsions:
REMARK  status: ('A' for Active; 'I' for Inactive)
REMARK    1  A    between atoms: N1_2  and  S1_4 
REMARK    2  A    between atoms: S1_4  and  N2_7 
REMARK       I    between atoms: N2_7  and  C2_9 
REMARK       I    between atoms: C2_9  and  N4_13 
REMARK    3  A    between atoms: N4_13  and  N5_15 
ROOT
HETATM    1  N2  UNL     1      78.795  89.575  18.083  1.00  0.00    -0.099 N 
ATOM      2  H2  UNL     1      78.878  90.301  17.371  1.00  0.00     0.199 HD
HETATM    3  C2  UNL     1      77.718  89.609  19.010  1.00  0.00     0.700 C 
HETATM    4  N3  UNL     1      76.734  88.805  18.825  1.00  0.00    -0.233 N 
ATOM      5  H31 UNL     1      75.961  88.829  19.490  1.00  0.00     0.174 HD
ATOM      6  H32 UNL     1      76.725  88.160  18.034  1.00  0.00     0.174 HD
HETATM    7  N4  UNL     1      77.731  90.509  20.112  1.00  0.00    -0.138 N 
ATOM      8  H4  UNL     1      77.567  91.500  19.932  1.00  0.00     0.205 HD
ENDROOT
BRANCH   1   9
HETATM    9  S1  UNL     1      79.953  88.318  18.161  1.00  0.00     0.332 S 
HETATM   10  O1  UNL     1      81.032  88.549  17.143  1.00  0.00    -0.182 OA
HETATM   11  O2  UNL     1      80.630  88.370  19.523  1.00  0.00    -0.182 OA
BRANCH   9  12
HETATM   12  N1  UNL     1      79.214  86.790  18.015  1.00  0.00    -0.307 N 
HETATM   13  C1  UNL     1      78.936  86.166  19.287  1.00  0.00     0.161 C 
ATOM     14  H1  UNL     1      78.990  86.359  17.118  1.00  0.00     0.173 HD
ENDBRANCH   9  12
ENDBRANCH   1   9
BRANCH   7  15
HETATM   15  N5  UNL     1      77.955  90.106  21.405  1.00  0.00    -0.331 N 
ATOM     16  H52 UNL     1      77.388  90.537  22.136  1.00  0.00     0.177 HD
ATOM     17  H51 UNL     1      78.653  89.407  21.658  1.00  0.00     0.177 HD
ENDBRANCH   7  15
TORSDOF 3
ENDMDL
MODEL 3
REMARK VINA RESULT: -5.486301369      2.034      2.288
REMARK  3 active torsions:
REMARK  status: ('A' for Active; 'I' for Inactive)
REMARK    1  A    between atoms: N1_2  and  S1_4 
REMARK    2  A    between atoms: S1_4  and  N2_7 
REMARK       I    between atoms: N2_7  and  C2_9 
REMARK       I    between atoms: C2_9  and  N4_13 
REMARK    3  A    between atoms: N4_13  and  N5_15 
ROOT
HETATM    1  N2  UNL     1      79.696  88.082  18.921  1.00  0.00    -0.099 N 
ATOM      2  H2  UNL     1      80.561  87.581  19.125  1.00  0.00     0.199 HD
HETATM    3  C2  UNL     1      79.418  89.312  19.576  1.00  0.00     0.700 C 
HETATM    4  N3  UNL     1      79.587  90.401  18.918  1.00  0.00    -0.233 N 
ATOM      5  H31 UNL     1      79.387  91.284  19.388  1.00  0.00     0.174 HD
ATOM      6  H32 UNL     1      79.914  90.385  17.951  1.00  0.00     0.174 HD
HETATM    7  N4  UNL     1      78.962  89.334  20.924  1.00  0.00    -0.138 N 
ATOM      8  H4  UNL     1      79.631  89.127  21.667  1.00  0.00     0.205 HD
ENDROOT
BRANCH   1   9
HETATM    9  S1  UNL     1      78.581  87.442  17.792  1.00  0.00     0.332 S 
HETATM   10  O1  UNL     1      78.429  88.382  16.631  1.00  0.00    -0.182 OA
HETATM   11  O2  UNL     1      79.155  86.151  17.227  1.00  0.00    -0.182 OA
BRANCH   9  12
HETATM   12  N1  UNL     1      77.099  87.059  18.539  1.00  0.00    -0.307 N 
HETATM   13  C1  UNL     1      76.638  85.723  18.241  1.00  0.00     0.161 C 
ATOM     14  H1  UNL     1      76.588  87.709  19.136  1.00  0.00     0.173 HD
ENDBRANCH   9  12
ENDBRANCH   1   9
BRANCH   7  15
HETATM   15  N5  UNL     1      77.666  89.623  21.273  1.00  0.00    -0.331 N 
ATOM     16  H52 UNL     1      77.373  90.599  21.225  1.00  0.00     0.177 HD
ATOM     17  H51 UNL     1      76.999  88.912  21.573  1.00  0.00     0.177 HD
ENDBRANCH   7  15
TORSDOF 3
ENDMDL
MODEL 4
REMARK VINA RESULT: -5.459960476      2.124      2.556
REMARK  3 active torsions:
REMARK  status: ('A' for Active; 'I' for Inactive)
REMARK    1  A    between atoms: N1_2  and  S1_4 
REMARK    2  A    between atoms: S1_4  and  N2_7 
REMARK       I    between atoms: N2_7  and  C2_9 
REMARK       I    between atoms: C2_9  and  N4_13 
REMARK    3  A    between atoms: N4_13  and  N5_15 
ROOT
HETATM    1  N2  UNL     1      78.992  89.857  18.257  1.00  0.00    -0.099 N 
ATOM      2  H2  UNL     1      79.440  90.662  17.817  1.00  0.00     0.199 HD
HETATM    3  C2  UNL     1      77.888  90.050  19.131  1.00  0.00     0.700 C 
HETATM    4  N3  UNL     1      76.711  89.797  18.684  1.00  0.00    -0.233 N 
ATOM      5  H31 UNL     1      75.918  89.935  19.311  1.00  0.00     0.174 HD
ATOM      6  H32 UNL     1      76.571  89.469  17.728  1.00  0.00     0.174 HD
HETATM    7  N4  UNL     1      78.082  90.508  20.464  1.00  0.00    -0.138 N 
ATOM      8  H4  UNL     1      78.328  91.487  20.610  1.00  0.00     0.205 HD
ENDROOT
BRANCH   1   9
HETATM    9  S1  UNL     1      79.571  88.278  17.943  1.00  0.00     0.332 S 
HETATM   10  O1  UNL     1      78.667  87.584  16.965  1.00  0.00    -0.182 OA
HETATM   11  O2  UNL     1      80.930  88.388  17.268  1.00  0.00    -0.182 OA
BRANCH   9  12
HETATM   12  N1  UNL     1      79.787  87.403  19.388  1.00  0.00    -0.307 N 
HETATM   13  C1  UNL     1      78.700  86.495  19.674  1.00  0.00     0.161 C 
ATOM     14  H1  UNL     1      80.602  87.509  19.992  1.00  0.00     0.173 HD
ENDBRANCH   9  12
ENDBRANCH   1   9
BRANCH   7  15
HETATM   15  N5  UNL     1      77.955  89.694  21.562  1.00  0.00    -0.331 N 
ATOM     16  H52 UNL     1      78.403  88.779  21.523  1.00  0.00     0.177 HD
ATOM     17  H51 UNL     1      77.439  89.965  22.399  1.00  0.00     0.177 HD
ENDBRANCH   7  15
TORSDOF 3
ENDMDL
MODEL 5
REMARK VINA RESULT: -5.405914780      2.375      4.231
REMARK  3 active torsions:
REMARK  status: ('A' for Active; 'I' for Inactive)
REMARK    1  A    between atoms: N1_2  and  S1_4 
REMARK    2  A    between atoms: S1_4  and  N2_7 
REMARK       I    between atoms: N2_7  and  C2_9 
REMARK       I    between atoms: C2_9  and  N4_13 
REMARK    3  A    between atoms: N4_13  and  N5_15 
ROOT
HETATM    1  N2  UNL     1      79.004  87.011  17.794  1.00  0.00    -0.099 N 
ATOM      2  H2  UNL     1      79.396  86.073  17.889  1.00  0.00     0.199 HD
HETATM    3  C2  UNL     1      77.628  87.175  17.479  1.00  0.00     0.700 C 
HETATM    4  N3  UNL     1      76.825  87.505  18.425  1.00  0.00    -0.233 N 
ATOM      5  H31 UNL     1      75.838  87.624  18.198  1.00  0.00     0.174 HD
ATOM      6  H32 UNL     1      77.165  87.645  19.377  1.00  0.00     0.174 HD
HETATM    7  N4  UNL     1      77.155  86.981  16.151  1.00  0.00    -0.138 N 
ATOM      8  H4  UNL     1      77.090  86.027  15.792  1.00  0.00     0.205 HD
ENDROOT
BRANCH   1   9
HETATM    9  S1  UNL     1      80.003  88.382  18.012  1.00  0.00     0.332 S 
HETATM   10  O1  UNL     1      81.205  88.290  17.118  1.00  0.00    -0.182 OA
HETATM   11  O2  UNL     1      79.231  89.616  17.569  1.00  0.00    -0.182 OA
BRANCH   9  12
HETATM   12  N1  UNL     1      80.408  88.594  19.653  1.00  0.00    -0.307 N 
HETATM   13  C1  UNL     1      79.367  89.238  20.419  1.00  0.00     0.161 C 
ATOM     14  H1  UNL     1      81.297  88.296  20.054  1.00  0.00     0.173 HD
ENDBRANCH   9  12
ENDBRANCH   1   9
BRANCH   7  15
HETATM   15  N5  UNL     1      76.781  88.015  15.329  1.00  0.00    -0.331 N 
ATOM     16  H52 UNL     1      76.261  88.785  15.750  1.00  0.00     0.177 HD
ATOM     17  H51 UNL     1      77.000  88.042  14.333  1.00  0.00     0.177 HD
ENDBRANCH   7  15
TORSDOF 3
ENDMDL
