MODEL 1
REMARK VINA RESULT: -6.197216233      0.000      0.000
REMARK  1 active torsions:
REMARK  status: ('A' for Active; 'I' for Inactive)
REMARK    1  A    between atoms: N3_4  and  N4_6 
ROOT
HETATM    1  N4  UNL     1      77.856  87.867  16.518  1.00  0.00    -0.279 N 
ATOM      2  H4  UNL     1      78.823  87.662  16.266  1.00  0.00     0.189 HD
HETATM    3  C2  UNL     1      77.635  88.375  17.678  1.00  0.00     0.193 A 
HETATM    4  N5  UNL     1      76.373  88.736  18.231  1.00  0.00    -0.289 N 
ATOM      5  H5  UNL     1      75.465  88.640  17.778  1.00  0.00     0.172 HD
HETATM    6  C3  UNL     1      76.617  89.256  19.539  1.00  0.00     0.328 A 
HETATM    7  O1  UNL     1      75.727  89.678  20.331  1.00  0.00    -0.247 OA
HETATM    8  N6  UNL     1      78.018  89.221  19.803  1.00  0.00    -0.272 N 
ATOM      9  H6  UNL     1      78.475  89.532  20.660  1.00  0.00     0.174 HD
HETATM   10  C4  UNL     1      78.662  88.681  18.666  1.00  0.00     0.295 A 
HETATM   11  O2  UNL     1      79.893  88.484  18.496  1.00  0.00    -0.264 OA
ENDROOT
BRANCH   1  12
HETATM   12  N3  UNL     1      76.875  87.581  15.588  1.00  0.00    -0.274 N 
HETATM   13  C1  UNL     1      76.651  86.358  15.229  1.00  0.00     0.215 C 
HETATM   14  N1  UNL     1      77.423  85.301  15.797  1.00  0.00    -0.065 NA
HETATM   15  N2  UNL     1      75.632  86.087  14.266  1.00  0.00    -0.065 NA
ATOM     16  H3  UNL     1      76.325  88.337  15.183  1.00  0.00     0.189 HD
ENDBRANCH   1  12
TORSDOF 1
ENDMDL
MODEL 2
REMARK VINA RESULT: -6.142678952      1.102      1.102
REMARK  1 active torsions:
REMARK  status: ('A' for Active; 'I' for Inactive)
REMARK    1  A    between atoms: N3_4  and  N4_6 
ROOT
HETATM    1  N4  UNL     1      77.459  87.087  17.063  1.00  0.00    -0.279 N 
ATOM      2  H4  UNL     1      78.136  86.325  17.091  1.00  0.00     0.189 HD
HETATM    3  C2  UNL     1      77.227  87.720  18.157  1.00  0.00     0.193 A 
HETATM    4  N5  UNL     1      76.326  88.808  18.345  1.00  0.00    -0.289 N 
ATOM      5  H5  UNL     1      75.738  89.237  17.631  1.00  0.00     0.172 HD
HETATM    6  C3  UNL     1      76.401  89.187  19.720  1.00  0.00     0.328 A 
HETATM    7  O1  UNL     1      75.738  90.121  20.254  1.00  0.00    -0.247 OA
HETATM    8  N6  UNL     1      77.339  88.344  20.388  1.00  0.00    -0.272 N 
ATOM      9  H6  UNL     1      77.590  88.391  21.375  1.00  0.00     0.174 HD
HETATM   10  C4  UNL     1      77.858  87.434  19.439  1.00  0.00     0.295 A 
HETATM   11  O2  UNL     1      78.711  86.528  19.625  1.00  0.00    -0.264 OA
ENDROOT
BRANCH   1  12
HETATM   12  N3  UNL     1      76.855  87.366  15.852  1.00  0.00    -0.274 N 
HETATM   13  C1  UNL     1      76.681  86.431  14.976  1.00  0.00     0.215 C 
HETATM   14  N1  UNL     1      77.117  85.103  15.264  1.00  0.00    -0.065 NA
HETATM   15  N2  UNL     1      76.054  86.744  13.732  1.00  0.00    -0.065 NA
ATOM     16  H3  UNL     1      76.544  88.316  15.648  1.00  0.00     0.189 HD
ENDBRANCH   1  12
TORSDOF 1
ENDMDL
MODEL 3
REMARK VINA RESULT: -6.127568269      2.515      2.819
REMARK  1 active torsions:
REMARK  status: ('A' for Active; 'I' for Inactive)
REMARK    1  A    between atoms: N3_4  and  N4_6 
ROOT
HETATM    1  N4  UNL     1      78.956  86.034  17.757  1.00  0.00    -0.279 N 
ATOM      2  H4  UNL     1      79.483  85.877  16.898  1.00  0.00     0.189 HD
HETATM    3  C2  UNL     1      78.981  87.215  18.266  1.00  0.00     0.193 A 
HETATM    4  N5  UNL     1      78.323  87.653  19.451  1.00  0.00    -0.289 N 
ATOM      5  H5  UNL     1      77.737  87.085  20.062  1.00  0.00     0.172 HD
HETATM    6  C3  UNL     1      78.636  89.035  19.623  1.00  0.00     0.328 A 
HETATM    7  O1  UNL     1      78.226  89.761  20.573  1.00  0.00    -0.247 OA
HETATM    8  N6  UNL     1      79.484  89.460  18.557  1.00  0.00    -0.272 N 
ATOM      9  H6  UNL     1      79.862  90.398  18.428  1.00  0.00     0.174 HD
HETATM   10  C4  UNL     1      79.707  88.350  17.710  1.00  0.00     0.295 A 
HETATM   11  O2  UNL     1      80.397  88.306  16.659  1.00  0.00    -0.264 OA
ENDROOT
BRANCH   1  12
HETATM   12  N3  UNL     1      78.265  84.964  18.292  1.00  0.00    -0.274 N 
HETATM   13  C1  UNL     1      77.933  83.960  17.546  1.00  0.00     0.215 C 
HETATM   14  N1  UNL     1      78.284  83.961  16.163  1.00  0.00    -0.065 NA
HETATM   15  N2  UNL     1      77.219  82.866  18.123  1.00  0.00    -0.065 NA
ATOM     16  H3  UNL     1      78.014  84.966  19.280  1.00  0.00     0.189 HD
ENDBRANCH   1  12
TORSDOF 1
ENDMDL
MODEL 4
REMARK VINA RESULT: -6.112775869      2.937      4.103
REMARK  1 active torsions:
REMARK  status: ('A' for Active; 'I' for Inactive)
REMARK    1  A    between atoms: N3_4  and  N4_6 
ROOT
HETATM    1  N4  UNL     1      78.292  86.678  20.381  1.00  0.00    -0.279 N 
ATOM      2  H4  UNL     1      77.800  87.105  21.165  1.00  0.00     0.189 HD
HETATM    3  C2  UNL     1      78.802  87.460  19.498  1.00  0.00     0.193 A 
HETATM    4  N5  UNL     1      79.525  87.081  18.330  1.00  0.00    -0.289 N 
ATOM      5  H5  UNL     1      79.739  86.129  18.034  1.00  0.00     0.172 HD
HETATM    6  C3  UNL     1      79.894  88.282  17.652  1.00  0.00     0.328 A 
HETATM    7  O1  UNL     1      80.548  88.336  16.572  1.00  0.00    -0.247 OA
HETATM    8  N6  UNL     1      79.406  89.404  18.387  1.00  0.00    -0.272 N 
ATOM      9  H6  UNL     1      79.524  90.385  18.134  1.00  0.00     0.174 HD
HETATM   10  C4  UNL     1      78.730  88.916  19.529  1.00  0.00     0.295 A 
HETATM   11  O2  UNL     1      78.158  89.580  20.431  1.00  0.00    -0.264 OA
ENDROOT
BRANCH   1  12
HETATM   12  N3  UNL     1      78.365  85.298  20.343  1.00  0.00    -0.274 N 
HETATM   13  C1  UNL     1      77.663  84.629  19.487  1.00  0.00     0.215 C 
HETATM   14  N1  UNL     1      76.808  85.322  18.579  1.00  0.00    -0.065 NA
HETATM   15  N2  UNL     1      77.755  83.204  19.467  1.00  0.00    -0.065 NA
ATOM     16  H3  UNL     1      78.976  84.805  20.993  1.00  0.00     0.189 HD
ENDBRANCH   1  12
TORSDOF 1
ENDMDL
MODEL 5
REMARK VINA RESULT: -5.960054802      3.027      5.161
REMARK  1 active torsions:
REMARK  status: ('A' for Active; 'I' for Inactive)
REMARK    1  A    between atoms: N3_4  and  N4_6 
ROOT
HETATM    1  N4  UNL     1      77.950  88.010  20.492  1.00  0.00    -0.279 N 
ATOM      2  H4  UNL     1      77.417  87.284  20.971  1.00  0.00     0.189 HD
HETATM    3  C2  UNL     1      78.560  87.686  19.408  1.00  0.00     0.193 A 
HETATM    4  N5  UNL     1      79.356  88.534  18.585  1.00  0.00    -0.289 N 
ATOM      5  H5  UNL     1      79.552  89.521  18.744  1.00  0.00     0.172 HD
HETATM    6  C3  UNL     1      79.829  87.742  17.494  1.00  0.00     0.328 A 
HETATM    7  O1  UNL     1      80.568  88.161  16.559  1.00  0.00    -0.247 OA
HETATM    8  N6  UNL     1      79.335  86.411  17.633  1.00  0.00    -0.272 N 
ATOM      9  H6  UNL     1      79.516  85.635  16.997  1.00  0.00     0.174 HD
HETATM   10  C4  UNL     1      78.550  86.358  18.808  1.00  0.00     0.295 A 
HETATM   11  O2  UNL     1      77.938  85.368  19.284  1.00  0.00    -0.264 OA
ENDROOT
BRANCH   1  12
HETATM   12  N3  UNL     1      77.966  89.272  21.054  1.00  0.00    -0.274 N 
HETATM   13  C1  UNL     1      77.007  90.107  20.815  1.00  0.00     0.215 C 
HETATM   14  N1  UNL     1      75.927  89.719  19.966  1.00  0.00    -0.065 NA
HETATM   15  N2  UNL     1      77.046  91.406  21.407  1.00  0.00    -0.065 NA
ATOM     16  H3  UNL     1      78.739  89.547  21.660  1.00  0.00     0.189 HD
ENDBRANCH   1  12
TORSDOF 1
ENDMDL
