MODEL 1
REMARK VINA RESULT: -6.659027610      0.000      0.000
REMARK  3 active torsions:
REMARK  status: ('A' for Active; 'I' for Inactive)
REMARK       I    between atoms: C1_2  and  N2_4 
REMARK    1  A    between atoms: N2_4  and  N3_6 
REMARK    2  A    between atoms: N3_6  and  C2_8 
REMARK    3  A    between atoms: N7_15  and  O2_16 
ROOT
HETATM    1  C2  UNL     1      77.852  88.682  19.989  1.00  0.00     0.755 A 
HETATM    2  N4  UNL     1      77.903  89.827  20.664  1.00  0.00    -0.112 N 
ATOM      3  H4  UNL     1      78.658  90.114  21.286  1.00  0.00     0.207 HD
HETATM    4  N5  UNL     1      76.823  90.527  20.400  1.00  0.00    -0.211 N 
ATOM      5  H5  UNL     1      76.588  91.446  20.774  1.00  0.00     0.210 HD
HETATM    6  N6  UNL     1      76.101  89.812  19.558  1.00  0.00    -0.186 N 
ATOM      7  H6  UNL     1      75.202  90.096  19.169  1.00  0.00     0.213 HD
HETATM    8  N7  UNL     1      76.714  88.677  19.294  1.00  0.00     0.035 N 
ENDROOT
BRANCH   1   9
HETATM    9  N3  UNL     1      78.704  87.714  19.963  1.00  0.00    -0.123 N 
ATOM     10  H3  UNL     1      78.868  87.194  20.825  1.00  0.00     0.206 HD
BRANCH   9  11
HETATM   11  N2  UNL     1      79.414  87.336  18.821  1.00  0.00    -0.239 N 
HETATM   12  C1  UNL     1      80.068  88.226  17.959  1.00  0.00     0.347 C 
HETATM   13  N1  UNL     1      80.757  87.720  16.829  1.00  0.00    -0.038 NA
HETATM   14  O1  UNL     1      80.086  89.472  18.122  1.00  0.00    -0.249 OA
ATOM     15  H2  UNL     1      79.460  86.342  18.600  1.00  0.00     0.192 HD
ENDBRANCH   9  11
ENDBRANCH   1   9
BRANCH   8  16
HETATM   16  O2  UNL     1      76.286  87.783  18.531  1.00  0.00    -0.253 OA
ATOM     17  H2  UNL     1      75.389  87.489  18.423  1.00  0.00     0.247 HD
ENDBRANCH   8  16
TORSDOF 3
ENDMDL
MODEL 2
REMARK VINA RESULT: -6.605741677      1.559      1.885
REMARK  3 active torsions:
REMARK  status: ('A' for Active; 'I' for Inactive)
REMARK       I    between atoms: C1_2  and  N2_4 
REMARK    1  A    between atoms: N2_4  and  N3_6 
REMARK    2  A    between atoms: N3_6  and  C2_8 
REMARK    3  A    between atoms: N7_15  and  O2_16 
ROOT
HETATM    1  C2  UNL     1      77.015  88.505  19.236  1.00  0.00     0.755 A 
HETATM    2  N4  UNL     1      76.281  88.902  18.202  1.00  0.00    -0.112 N 
ATOM      3  H4  UNL     1      76.300  88.491  17.269  1.00  0.00     0.207 HD
HETATM    4  N5  UNL     1      75.526  89.910  18.575  1.00  0.00    -0.211 N 
ATOM      5  H5  UNL     1      74.861  90.420  17.994  1.00  0.00     0.210 HD
HETATM    6  N6  UNL     1      75.796  90.137  19.847  1.00  0.00    -0.186 N 
ATOM      7  H6  UNL     1      75.363  90.863  20.418  1.00  0.00     0.213 HD
HETATM    8  N7  UNL     1      76.707  89.287  20.271  1.00  0.00     0.035 N 
ENDROOT
BRANCH   1   9
HETATM    9  N3  UNL     1      77.883  87.552  19.300  1.00  0.00    -0.123 N 
ATOM     10  H3  UNL     1      77.614  86.688  19.772  1.00  0.00     0.206 HD
BRANCH   9  11
HETATM   11  N2  UNL     1      79.168  87.636  18.761  1.00  0.00    -0.239 N 
HETATM   12  C1  UNL     1      79.452  87.761  17.395  1.00  0.00     0.347 C 
HETATM   13  N1  UNL     1      80.802  87.837  16.970  1.00  0.00    -0.038 NA
HETATM   14  O1  UNL     1      78.573  87.812  16.500  1.00  0.00    -0.249 OA
ATOM     15  H2  UNL     1      79.956  87.604  19.408  1.00  0.00     0.192 HD
ENDBRANCH   9  11
ENDBRANCH   1   9
BRANCH   8  16
HETATM   16  O2  UNL     1      77.175  89.244  21.430  1.00  0.00    -0.253 OA
ATOM     17  H2  UNL     1      76.960  88.630  22.123  1.00  0.00     0.247 HD
ENDBRANCH   8  16
TORSDOF 3
ENDMDL
MODEL 3
REMARK VINA RESULT: -6.496192970      2.026      2.453
REMARK  3 active torsions:
REMARK  status: ('A' for Active; 'I' for Inactive)
REMARK       I    between atoms: C1_2  and  N2_4 
REMARK    1  A    between atoms: N2_4  and  N3_6 
REMARK    2  A    between atoms: N3_6  and  C2_8 
REMARK    3  A    between atoms: N7_15  and  O2_16 
ROOT
HETATM    1  C2  UNL     1      77.020  88.510  19.489  1.00  0.00     0.755 A 
HETATM    2  N4  UNL     1      78.110  88.132  20.151  1.00  0.00    -0.112 N 
ATOM      3  H4  UNL     1      78.682  87.317  19.933  1.00  0.00     0.207 HD
HETATM    4  N5  UNL     1      78.330  88.978  21.131  1.00  0.00    -0.211 N 
ATOM      5  H5  UNL     1      79.094  88.942  21.806  1.00  0.00     0.210 HD
HETATM    6  N6  UNL     1      77.371  89.884  21.075  1.00  0.00    -0.186 N 
ATOM      7  H6  UNL     1      77.276  90.676  21.711  1.00  0.00     0.213 HD
HETATM    8  N7  UNL     1      76.558  89.615  20.076  1.00  0.00     0.035 N 
ENDROOT
BRANCH   1   9
HETATM    9  N3  UNL     1      76.458  87.962  18.466  1.00  0.00    -0.123 N 
ATOM     10  H3  UNL     1      75.691  88.460  18.014  1.00  0.00     0.206 HD
BRANCH   9  11
HETATM   11  N2  UNL     1      76.839  86.726  17.941  1.00  0.00    -0.239 N 
HETATM   12  C1  UNL     1      77.985  86.509  17.165  1.00  0.00     0.347 C 
HETATM   13  N1  UNL     1      78.266  85.205  16.689  1.00  0.00    -0.038 NA
HETATM   14  O1  UNL     1      78.800  87.412  16.854  1.00  0.00    -0.249 OA
ATOM     15  H2  UNL     1      76.242  85.923  18.138  1.00  0.00     0.192 HD
ENDBRANCH   9  11
ENDBRANCH   1   9
BRANCH   8  16
HETATM   16  O2  UNL     1      75.551  90.286  19.761  1.00  0.00    -0.253 OA
ATOM     17  H2  UNL     1      74.790  90.482  20.295  1.00  0.00     0.247 HD
ENDBRANCH   8  16
TORSDOF 3
ENDMDL
MODEL 4
REMARK VINA RESULT: -6.375879470      2.168      2.469
REMARK  3 active torsions:
REMARK  status: ('A' for Active; 'I' for Inactive)
REMARK       I    between atoms: C1_2  and  N2_4 
REMARK    1  A    between atoms: N2_4  and  N3_6 
REMARK    2  A    between atoms: N3_6  and  C2_8 
REMARK    3  A    between atoms: N7_15  and  O2_16 
ROOT
HETATM    1  C2  UNL     1      77.015  88.688  19.462  1.00  0.00     0.755 A 
HETATM    2  N4  UNL     1      76.056  89.582  19.241  1.00  0.00    -0.112 N 
ATOM      3  H4  UNL     1      75.319  89.499  18.542  1.00  0.00     0.207 HD
HETATM    4  N5  UNL     1      76.214  90.591  20.067  1.00  0.00    -0.211 N 
ATOM      5  H5  UNL     1      75.629  91.424  20.128  1.00  0.00     0.210 HD
HETATM    6  N6  UNL     1      77.275  90.318  20.803  1.00  0.00    -0.186 N 
ATOM      7  H6  UNL     1      77.648  90.918  21.539  1.00  0.00     0.213 HD
HETATM    8  N7  UNL     1      77.782  89.157  20.447  1.00  0.00     0.035 N 
ENDROOT
BRANCH   1   9
HETATM    9  N3  UNL     1      77.227  87.559  18.874  1.00  0.00    -0.123 N 
ATOM     10  H3  UNL     1      77.674  86.814  19.409  1.00  0.00     0.206 HD
BRANCH   9  11
HETATM   11  N2  UNL     1      76.880  87.299  17.547  1.00  0.00    -0.239 N 
HETATM   12  C1  UNL     1      77.669  87.631  16.438  1.00  0.00     0.347 C 
HETATM   13  N1  UNL     1      77.206  87.315  15.136  1.00  0.00    -0.038 NA
HETATM   14  O1  UNL     1      78.784  88.203  16.518  1.00  0.00    -0.249 OA
ATOM     15  H2  UNL     1      75.989  86.835  17.372  1.00  0.00     0.192 HD
ENDBRANCH   9  11
ENDBRANCH   1   9
BRANCH   8  16
HETATM   16  O2  UNL     1      78.790  88.620  20.956  1.00  0.00    -0.253 OA
ATOM     17  H2  UNL     1      79.104  87.732  20.829  1.00  0.00     0.247 HD
ENDBRANCH   8  16
TORSDOF 3
ENDMDL
MODEL 5
REMARK VINA RESULT: -6.242516245      2.162      2.515
REMARK  3 active torsions:
REMARK  status: ('A' for Active; 'I' for Inactive)
REMARK       I    between atoms: C1_2  and  N2_4 
REMARK    1  A    between atoms: N2_4  and  N3_6 
REMARK    2  A    between atoms: N3_6  and  C2_8 
REMARK    3  A    between atoms: N7_15  and  O2_16 
ROOT
HETATM    1  C2  UNL     1      76.778  88.767  19.450  1.00  0.00     0.755 A 
HETATM    2  N4  UNL     1      76.560  90.026  19.817  1.00  0.00    -0.112 N 
ATOM      3  H4  UNL     1      75.900  90.666  19.376  1.00  0.00     0.207 HD
HETATM    4  N5  UNL     1      77.333  90.314  20.839  1.00  0.00    -0.211 N 
ATOM      5  H5  UNL     1      77.383  91.205  21.332  1.00  0.00     0.210 HD
HETATM    6  N6  UNL     1      78.032  89.226  21.106  1.00  0.00    -0.186 N 
ATOM      7  H6  UNL     1      78.722  89.142  21.853  1.00  0.00     0.213 HD
HETATM    8  N7  UNL     1      77.708  88.267  20.265  1.00  0.00     0.035 N 
ENDROOT
BRANCH   1   9
HETATM    9  N3  UNL     1      76.232  88.091  18.497  1.00  0.00    -0.123 N 
ATOM     10  H3  UNL     1      75.380  88.457  18.074  1.00  0.00     0.206 HD
BRANCH   9  11
HETATM   11  N2  UNL     1      76.742  86.885  18.011  1.00  0.00    -0.239 N 
HETATM   12  C1  UNL     1      77.584  86.767  16.898  1.00  0.00     0.347 C 
HETATM   13  N1  UNL     1      78.037  85.484  16.501  1.00  0.00    -0.038 NA
HETATM   14  O1  UNL     1      77.974  87.742  16.209  1.00  0.00    -0.249 OA
ATOM     15  H2  UNL     1      76.484  86.029  18.502  1.00  0.00     0.192 HD
ENDBRANCH   9  11
ENDBRANCH   1   9
BRANCH   8  16
HETATM   16  O2  UNL     1      78.195  87.115  20.257  1.00  0.00    -0.253 OA
ATOM     17  H2  UNL     1      78.666  86.686  19.552  1.00  0.00     0.247 HD
ENDBRANCH   8  16
TORSDOF 3
ENDMDL
