MODEL 1
REMARK VINA RESULT: -7.031710052      0.000      0.000
REMARK  5 active torsions:
REMARK  status: ('A' for Active; 'I' for Inactive)
REMARK    1  A    between atoms: C2_2  and  C4_4 
REMARK    2  A    between atoms: C4_4  and  C5_5 
REMARK    3  A    between atoms: C5_5  and  N1_6 
REMARK    4  A    between atoms: C5_5  and  C6_10 
REMARK       I    between atoms: C6_10  and  N2_12 
REMARK       I    between atoms: N3_19  and  C13_20 
REMARK       I    between atoms: C13_20  and  N4_22 
REMARK    5  A    between atoms: N4_22  and  C14_24 
ROOT
HETATM    1  C6  UNL     1       4.476  -7.175 -54.237  1.00  0.00     0.251 C 
HETATM    2  O1  UNL     1       4.156  -6.930 -55.453  1.00  0.00    -0.271 OA
HETATM    3  N2  UNL     1       5.793  -7.678 -54.055  1.00  0.00    -0.339 N 
HETATM    4  C7  UNL     1       6.308  -8.015 -52.717  1.00  0.00     0.127 C 
HETATM    5  C8  UNL     1       7.172  -9.235 -52.964  1.00  0.00     0.022 C 
HETATM    6  C9  UNL     1       7.833  -8.865 -54.258  1.00  0.00     0.034 C 
HETATM    7  C10 UNL     1       6.841  -7.964 -54.957  1.00  0.00     0.053 C 
HETATM    8  C11 UNL     1       7.612  -6.769 -55.471  1.00  0.00     0.053 C 
HETATM    9  C12 UNL     1       8.518  -7.457 -56.507  1.00  0.00     0.130 C 
HETATM   10  N3  UNL     1       7.770  -8.630 -56.922  1.00  0.00    -0.332 N 
HETATM   11  C13 UNL     1       8.238  -9.611 -57.830  1.00  0.00     0.318 C 
HETATM   12  O2  UNL     1       7.496 -10.590 -58.118  1.00  0.00    -0.247 OA
HETATM   13  N4  UNL     1       9.510  -9.561 -58.443  1.00  0.00    -0.339 N 
ATOM     14  H4  UNL     1      10.116  -8.773 -58.215  1.00  0.00     0.164 HD
HETATM   15  C17 UNL     1       6.457  -8.629 -56.248  1.00  0.00     0.158 C 
ENDROOT
BRANCH   1  16
HETATM   16  C5  UNL     1       3.519  -6.940 -53.131  1.00  0.00     0.275 C 
BRANCH  16  17
HETATM   17  C4  UNL     1       2.618  -5.761 -53.391  1.00  0.00     0.046 C 
BRANCH  17  18
HETATM   18  C2  UNL     1       2.097  -5.138 -52.124  1.00  0.00    -0.020 C 
HETATM   19  C1  UNL     1       2.067  -3.650 -52.151  1.00  0.00     0.009 C 
HETATM   20  C3  UNL     1       0.714  -5.646 -51.783  1.00  0.00     0.009 C 
ENDBRANCH  17  18
ENDBRANCH  16  17
BRANCH  16  21
HETATM   21  N1  UNL     1       2.694  -8.159 -53.017  1.00  0.00    -0.066 N 
ATOM     22  H13 UNL     1       2.576  -8.457 -52.049  1.00  0.00     0.275 HD
ATOM     23  H12 UNL     1       1.712  -7.986 -53.234  1.00  0.00     0.275 HD
ATOM     24  H11 UNL     1       3.099  -8.890 -53.602  1.00  0.00     0.275 HD
ENDBRANCH  16  21
ENDBRANCH   1  16
BRANCH  13  25
HETATM   25  C14 UNL     1      10.007 -10.536 -59.361  1.00  0.00     0.078 C 
HETATM   26  C15 UNL     1       9.795 -10.115 -60.814  1.00  0.00     0.032 C 
HETATM   27  C16 UNL     1      11.449 -10.894 -59.179  1.00  0.00     0.032 C 
ENDBRANCH  13  25
TORSDOF 5
ENDMDL
MODEL 2
REMARK VINA RESULT: -6.418741923      3.156      3.782
REMARK  5 active torsions:
REMARK  status: ('A' for Active; 'I' for Inactive)
REMARK    1  A    between atoms: C2_2  and  C4_4 
REMARK    2  A    between atoms: C4_4  and  C5_5 
REMARK    3  A    between atoms: C5_5  and  N1_6 
REMARK    4  A    between atoms: C5_5  and  C6_10 
REMARK       I    between atoms: C6_10  and  N2_12 
REMARK       I    between atoms: N3_19  and  C13_20 
REMARK       I    between atoms: C13_20  and  N4_22 
REMARK    5  A    between atoms: N4_22  and  C14_24 
ROOT
HETATM    1  C6  UNL     1       4.196  -7.522 -52.598  1.00  0.00     0.251 C 
HETATM    2  O1  UNL     1       4.874  -7.952 -51.599  1.00  0.00    -0.271 OA
HETATM    3  N2  UNL     1       4.916  -7.442 -53.820  1.00  0.00    -0.339 N 
HETATM    4  C7  UNL     1       4.278  -6.959 -55.057  1.00  0.00     0.127 C 
HETATM    5  C8  UNL     1       5.384  -6.191 -55.753  1.00  0.00     0.022 C 
HETATM    6  C9  UNL     1       6.566  -7.073 -55.480  1.00  0.00     0.034 C 
HETATM    7  C10 UNL     1       6.250  -7.751 -54.167  1.00  0.00     0.053 C 
HETATM    8  C11 UNL     1       6.562  -9.220 -54.340  1.00  0.00     0.053 C 
HETATM    9  C12 UNL     1       8.086  -9.151 -54.543  1.00  0.00     0.130 C 
HETATM   10  N3  UNL     1       8.491  -7.947 -53.841  1.00  0.00    -0.332 N 
HETATM   11  C13 UNL     1       9.812  -7.436 -53.803  1.00  0.00     0.318 C 
HETATM   12  O2  UNL     1      10.046  -6.378 -53.157  1.00  0.00    -0.247 OA
HETATM   13  N4  UNL     1      10.904  -8.050 -54.458  1.00  0.00    -0.339 N 
ATOM     14  H4  UNL     1      10.721  -8.905 -54.983  1.00  0.00     0.164 HD
HETATM   15  C17 UNL     1       7.313  -7.351 -53.183  1.00  0.00     0.158 C 
ENDROOT
BRANCH   1  16
HETATM   16  C5  UNL     1       2.772  -7.144 -52.449  1.00  0.00     0.275 C 
BRANCH  16  17
HETATM   17  C4  UNL     1       2.431  -5.879 -53.192  1.00  0.00     0.046 C 
BRANCH  17  18
HETATM   18  C2  UNL     1       1.411  -5.039 -52.473  1.00  0.00    -0.020 C 
HETATM   19  C1  UNL     1       0.612  -5.791 -51.466  1.00  0.00     0.009 C 
HETATM   20  C3  UNL     1       2.049  -3.847 -51.796  1.00  0.00     0.009 C 
ENDBRANCH  17  18
ENDBRANCH  16  17
BRANCH  16  21
HETATM   21  N1  UNL     1       1.976  -8.256 -53.004  1.00  0.00    -0.066 N 
ATOM     22  H13 UNL     1       2.541  -8.897 -53.562  1.00  0.00     0.275 HD
ATOM     23  H12 UNL     1       1.678  -8.917 -52.287  1.00  0.00     0.275 HD
ATOM     24  H11 UNL     1       1.190  -7.873 -53.530  1.00  0.00     0.275 HD
ENDBRANCH  16  21
ENDBRANCH   1  16
BRANCH  13  25
HETATM   25  C14 UNL     1      12.244  -7.557 -54.436  1.00  0.00     0.078 C 
HETATM   26  C15 UNL     1      13.268  -8.686 -54.344  1.00  0.00     0.032 C 
HETATM   27  C16 UNL     1      12.610  -6.681 -55.593  1.00  0.00     0.032 C 
ENDBRANCH  13  25
TORSDOF 5
ENDMDL
MODEL 3
REMARK VINA RESULT: -6.239111304      2.691      7.987
REMARK  5 active torsions:
REMARK  status: ('A' for Active; 'I' for Inactive)
REMARK    1  A    between atoms: C2_2  and  C4_4 
REMARK    2  A    between atoms: C4_4  and  C5_5 
REMARK    3  A    between atoms: C5_5  and  N1_6 
REMARK    4  A    between atoms: C5_5  and  C6_10 
REMARK       I    between atoms: C6_10  and  N2_12 
REMARK       I    between atoms: N3_19  and  C13_20 
REMARK       I    between atoms: C13_20  and  N4_22 
REMARK    5  A    between atoms: N4_22  and  C14_24 
ROOT
HETATM    1  C6  UNL     1       9.859  -7.732 -56.145  1.00  0.00     0.251 C 
HETATM    2  O1  UNL     1       9.000  -8.286 -56.916  1.00  0.00    -0.271 OA
HETATM    3  N2  UNL     1       9.401  -7.478 -54.824  1.00  0.00    -0.339 N 
HETATM    4  C7  UNL     1      10.269  -6.838 -53.820  1.00  0.00     0.127 C 
HETATM    5  C8  UNL     1       9.315  -5.968 -53.026  1.00  0.00     0.022 C 
HETATM    6  C9  UNL     1       8.117  -6.866 -52.929  1.00  0.00     0.034 C 
HETATM    7  C10 UNL     1       8.171  -7.720 -54.174  1.00  0.00     0.053 C 
HETATM    8  C11 UNL     1       7.925  -9.149 -53.743  1.00  0.00     0.053 C 
HETATM    9  C12 UNL     1       6.473  -9.035 -53.246  1.00  0.00     0.130 C 
HETATM   10  N3  UNL     1       5.914  -7.934 -54.008  1.00  0.00    -0.332 N 
HETATM   11  C13 UNL     1       4.605  -7.417 -53.845  1.00  0.00     0.318 C 
HETATM   12  O2  UNL     1       4.226  -6.455 -54.568  1.00  0.00    -0.247 OA
HETATM   13  N4  UNL     1       3.679  -7.924 -52.905  1.00  0.00    -0.339 N 
ATOM     14  H4  UNL     1       3.978  -8.701 -52.317  1.00  0.00     0.164 HD
HETATM   15  C17 UNL     1       6.924  -7.447 -54.966  1.00  0.00     0.158 C 
ENDROOT
BRANCH   1  16
HETATM   16  C5  UNL     1      11.217  -7.394 -56.630  1.00  0.00     0.275 C 
BRANCH  16  17
HETATM   17  C4  UNL     1      12.172  -8.554 -56.523  1.00  0.00     0.046 C 
BRANCH  17  18
HETATM   18  C2  UNL     1      13.304  -8.289 -55.568  1.00  0.00    -0.020 C 
HETATM   19  C1  UNL     1      13.594  -6.842 -55.363  1.00  0.00     0.009 C 
HETATM   20  C3  UNL     1      13.056  -8.930 -54.221  1.00  0.00     0.009 C 
ENDBRANCH  17  18
ENDBRANCH  16  17
BRANCH  16  21
HETATM   21  N1  UNL     1      11.079  -7.015 -58.050  1.00  0.00    -0.066 N 
ATOM     22  H13 UNL     1      10.777  -7.795 -58.633  1.00  0.00     0.275 HD
ATOM     23  H12 UNL     1      10.283  -6.398 -58.213  1.00  0.00     0.275 HD
ATOM     24  H11 UNL     1      11.958  -6.608 -58.372  1.00  0.00     0.275 HD
ENDBRANCH  16  21
ENDBRANCH   1  16
BRANCH  13  25
HETATM   25  C14 UNL     1       2.354  -7.422 -52.721  1.00  0.00     0.078 C 
HETATM   26  C15 UNL     1       1.434  -8.458 -52.077  1.00  0.00     0.032 C 
HETATM   27  C16 UNL     1       2.266  -6.156 -51.928  1.00  0.00     0.032 C 
ENDBRANCH  13  25
TORSDOF 5
ENDMDL
MODEL 4
REMARK VINA RESULT: -6.228033299      1.911      8.218
REMARK  5 active torsions:
REMARK  status: ('A' for Active; 'I' for Inactive)
REMARK    1  A    between atoms: C2_2  and  C4_4 
REMARK    2  A    between atoms: C4_4  and  C5_5 
REMARK    3  A    between atoms: C5_5  and  N1_6 
REMARK    4  A    between atoms: C5_5  and  C6_10 
REMARK       I    between atoms: C6_10  and  N2_12 
REMARK       I    between atoms: N3_19  and  C13_20 
REMARK       I    between atoms: C13_20  and  N4_22 
REMARK    5  A    between atoms: N4_22  and  C14_24 
ROOT
HETATM    1  C6  UNL     1       9.790  -8.202 -56.199  1.00  0.00     0.251 C 
HETATM    2  O1  UNL     1       8.904  -8.820 -56.889  1.00  0.00    -0.271 OA
HETATM    3  N2  UNL     1       9.364  -7.793 -54.907  1.00  0.00    -0.339 N 
HETATM    4  C7  UNL     1      10.265  -7.064 -53.997  1.00  0.00     0.127 C 
HETATM    5  C8  UNL     1       9.345  -6.091 -53.288  1.00  0.00     0.022 C 
HETATM    6  C9  UNL     1       8.131  -6.944 -53.071  1.00  0.00     0.034 C 
HETATM    7  C10 UNL     1       8.142  -7.933 -54.213  1.00  0.00     0.053 C 
HETATM    8  C11 UNL     1       7.876  -9.299 -53.620  1.00  0.00     0.053 C 
HETATM    9  C12 UNL     1       6.437  -9.098 -53.114  1.00  0.00     0.130 C 
HETATM   10  N3  UNL     1       5.885  -8.076 -53.984  1.00  0.00    -0.332 N 
HETATM   11  C13 UNL     1       4.590  -7.515 -53.857  1.00  0.00     0.318 C 
HETATM   12  O2  UNL     1       4.217  -6.630 -54.676  1.00  0.00    -0.247 OA
HETATM   13  N4  UNL     1       3.674  -7.892 -52.849  1.00  0.00    -0.339 N 
ATOM     14  H4  UNL     1       3.968  -8.606 -52.184  1.00  0.00     0.164 HD
HETATM   15  C17 UNL     1       6.886  -7.721 -55.008  1.00  0.00     0.158 C 
ENDROOT
BRANCH   1  16
HETATM   16  C5  UNL     1      11.145  -7.952 -56.743  1.00  0.00     0.275 C 
BRANCH  16  17
HETATM   17  C4  UNL     1      11.845  -9.221 -57.151  1.00  0.00     0.046 C 
BRANCH  17  18
HETATM   18  C2  UNL     1      11.954  -9.371 -58.644  1.00  0.00    -0.020 C 
HETATM   19  C1  UNL     1      13.346  -9.573 -59.131  1.00  0.00     0.009 C 
HETATM   20  C3  UNL     1      11.091 -10.504 -59.153  1.00  0.00     0.009 C 
ENDBRANCH  17  18
ENDBRANCH  16  17
BRANCH  16  21
HETATM   21  N1  UNL     1      10.974  -7.094 -57.933  1.00  0.00    -0.066 N 
ATOM     22  H13 UNL     1      10.781  -7.634 -58.776  1.00  0.00     0.275 HD
ATOM     23  H12 UNL     1      10.105  -6.559 -57.905  1.00  0.00     0.275 HD
ATOM     24  H11 UNL     1      11.795  -6.497 -58.032  1.00  0.00     0.275 HD
ENDBRANCH  16  21
ENDBRANCH   1  16
BRANCH  13  25
HETATM   25  C14 UNL     1       2.363  -7.343 -52.699  1.00  0.00     0.078 C 
HETATM   26  C15 UNL     1       1.420  -8.304 -51.978  1.00  0.00     0.032 C 
HETATM   27  C16 UNL     1       2.313  -6.019 -52.003  1.00  0.00     0.032 C 
ENDBRANCH  13  25
TORSDOF 5
ENDMDL
MODEL 5
REMARK VINA RESULT: -6.146620410      1.361      1.506
REMARK  5 active torsions:
REMARK  status: ('A' for Active; 'I' for Inactive)
REMARK    1  A    between atoms: C2_2  and  C4_4 
REMARK    2  A    between atoms: C4_4  and  C5_5 
REMARK    3  A    between atoms: C5_5  and  N1_6 
REMARK    4  A    between atoms: C5_5  and  C6_10 
REMARK       I    between atoms: C6_10  and  N2_12 
REMARK       I    between atoms: N3_19  and  C13_20 
REMARK       I    between atoms: C13_20  and  N4_22 
REMARK    5  A    between atoms: N4_22  and  C14_24 
ROOT
HETATM    1  C6  UNL     1       5.411  -6.892 -55.393  1.00  0.00     0.251 C 
HETATM    2  O1  UNL     1       5.316  -6.557 -56.626  1.00  0.00    -0.271 OA
HETATM    3  N2  UNL     1       6.531  -7.707 -55.079  1.00  0.00    -0.339 N 
HETATM    4  C7  UNL     1       6.775  -8.181 -53.705  1.00  0.00     0.127 C 
HETATM    5  C8  UNL     1       7.342  -9.573 -53.903  1.00  0.00     0.022 C 
HETATM    6  C9  UNL     1       8.231  -9.357 -55.091  1.00  0.00     0.034 C 
HETATM    7  C10 UNL     1       7.585  -8.230 -55.861  1.00  0.00     0.053 C 
HETATM    8  C11 UNL     1       8.681  -7.254 -56.225  1.00  0.00     0.053 C 
HETATM    9  C12 UNL     1       9.517  -8.129 -57.176  1.00  0.00     0.130 C 
HETATM   10  N3  UNL     1       8.565  -9.074 -57.731  1.00  0.00    -0.332 N 
HETATM   11  C13 UNL     1       8.892 -10.128 -58.620  1.00  0.00     0.318 C 
HETATM   12  O2  UNL     1       7.977 -10.889 -59.039  1.00  0.00    -0.247 OA
HETATM   13  N4  UNL     1      10.206 -10.383 -59.074  1.00  0.00    -0.339 N 
ATOM     14  H4  UNL     1      10.950  -9.773 -58.739  1.00  0.00     0.164 HD
HETATM   15  C17 UNL     1       7.218  -8.760 -57.218  1.00  0.00     0.158 C 
ENDROOT
BRANCH   1  16
HETATM   16  C5  UNL     1       4.407  -6.445 -54.400  1.00  0.00     0.275 C 
BRANCH  16  17
HETATM   17  C4  UNL     1       3.503  -5.368 -54.940  1.00  0.00     0.046 C 
BRANCH  17  18
HETATM   18  C2  UNL     1       3.180  -4.313 -53.917  1.00  0.00    -0.020 C 
HETATM   19  C1  UNL     1       2.871  -2.979 -54.503  1.00  0.00     0.009 C 
HETATM   20  C3  UNL     1       2.030  -4.733 -53.029  1.00  0.00     0.009 C 
ENDBRANCH  17  18
ENDBRANCH  16  17
BRANCH  16  21
HETATM   21  N1  UNL     1       3.593  -7.627 -54.055  1.00  0.00    -0.066 N 
ATOM     22  H13 UNL     1       3.797  -7.979 -53.120  1.00  0.00     0.275 HD
ATOM     23  H12 UNL     1       2.611  -7.394 -53.909  1.00  0.00     0.275 HD
ATOM     24  H11 UNL     1       3.721  -8.339 -54.775  1.00  0.00     0.275 HD
ENDBRANCH  16  21
ENDBRANCH   1  16
BRANCH  13  25
HETATM   25  C14 UNL     1      10.562 -11.437 -59.970  1.00  0.00     0.078 C 
HETATM   26  C15 UNL     1      10.884 -10.915 -61.369  1.00  0.00     0.032 C 
HETATM   27  C16 UNL     1      11.702 -12.293 -59.512  1.00  0.00     0.032 C 
ENDBRANCH  13  25
TORSDOF 5
ENDMDL
