MODEL 1
REMARK VINA RESULT: -8.065068984      0.000      0.000
REMARK  5 active torsions:
REMARK  status: ('A' for Active; 'I' for Inactive)
REMARK       I    between atoms: C2_2  and  N1_4 
REMARK    1  A    between atoms: C7_10  and  C8_11 
REMARK    2  A    between atoms: C8_11  and  N3_12 
REMARK    3  A    between atoms: N3_12  and  C9_14 
REMARK    4  A    between atoms: C9_14  and  N4_16 
REMARK    5  A    between atoms: N4_16  and  C10_18 
ROOT
HETATM    1  C8  UNL     1     -22.222   8.602   1.556  1.00  0.00     0.159 C 
ENDROOT
BRANCH   1   2
HETATM    2  C7  UNL     1     -22.626   9.386   0.296  1.00  0.00     0.258 C 
HETATM    3  N2  UNL     1     -21.642   9.062  -0.709  1.00  0.00     0.098 N 
HETATM    4  C4  UNL     1     -20.541   9.968  -0.619  1.00  0.00     0.237 C 
HETATM    5  C6  UNL     1     -22.318   9.119  -1.996  1.00  0.00     0.311 C 
HETATM    6  C3  UNL     1     -21.019  11.301  -1.146  1.00  0.00     0.161 C 
HETATM    7  C5  UNL     1     -19.351   9.466  -1.423  1.00  0.00     0.044 C 
HETATM    8  N1  UNL     1     -22.114  11.739  -0.315  1.00  0.00    -0.348 N 
HETATM    9  C2  UNL     1     -22.580  13.098  -0.473  1.00  0.00     0.215 C 
HETATM   10  C16 UNL     1     -22.704  10.853   0.628  1.00  0.00     0.163 C 
HETATM   11  C1  UNL     1     -23.709  13.593   0.361  1.00  0.00     0.117 C 
HETATM   12  O1  UNL     1     -22.065  13.886  -1.292  1.00  0.00    -0.274 OA
ENDBRANCH   1   2
BRANCH   1  13
HETATM   13  N3  UNL     1     -23.376   7.836   1.972  1.00  0.00    -0.365 N 
ATOM     14  H3  UNL     1     -23.902   7.366   1.236  1.00  0.00     0.161 HD
BRANCH  13  15
HETATM   15  C9  UNL     1     -23.843   7.673   3.277  1.00  0.00     0.167 C 
HETATM   16  S1  UNL     1     -22.717   7.593   4.491  1.00  0.00    -0.041 SA
BRANCH  15  17
HETATM   17  N4  UNL     1     -25.200   7.598   3.631  1.00  0.00    -0.363 N 
ATOM     18  H4  UNL     1     -25.517   6.812   4.200  1.00  0.00     0.162 HD
BRANCH  17  19
HETATM   19  C10 UNL     1     -26.177   8.607   3.213  1.00  0.00     0.083 C 
HETATM   20  C11 UNL     1     -27.542   8.094   3.571  1.00  0.00     0.025 C 
HETATM   21  C12 UNL     1     -28.591   9.139   3.765  1.00  0.00     0.002 C 
HETATM   22  C13 UNL     1     -28.147  10.300   4.609  1.00  0.00     0.000 C 
HETATM   23  C14 UNL     1     -26.749  10.179   5.101  1.00  0.00     0.002 C 
HETATM   24  C15 UNL     1     -25.836   9.889   3.930  1.00  0.00     0.025 C 
ENDBRANCH  17  19
ENDBRANCH  15  17
ENDBRANCH  13  15
ENDBRANCH   1  13
TORSDOF 5
ENDMDL
MODEL 2
REMARK VINA RESULT: -8.013537218      2.400      3.131
REMARK  5 active torsions:
REMARK  status: ('A' for Active; 'I' for Inactive)
REMARK       I    between atoms: C2_2  and  N1_4 
REMARK    1  A    between atoms: C7_10  and  C8_11 
REMARK    2  A    between atoms: C8_11  and  N3_12 
REMARK    3  A    between atoms: N3_12  and  C9_14 
REMARK    4  A    between atoms: C9_14  and  N4_16 
REMARK    5  A    between atoms: N4_16  and  C10_18 
ROOT
HETATM    1  C8  UNL     1     -22.533   8.596   1.306  1.00  0.00     0.159 C 
ENDROOT
BRANCH   1   2
HETATM    2  C7  UNL     1     -21.533   7.841   0.415  1.00  0.00     0.258 C 
HETATM    3  N2  UNL     1     -20.248   8.457   0.645  1.00  0.00     0.098 N 
HETATM    4  C4  UNL     1     -20.068   9.552  -0.256  1.00  0.00     0.237 C 
HETATM    5  C6  UNL     1     -19.245   7.416   0.477  1.00  0.00     0.311 C 
HETATM    6  C3  UNL     1     -19.832   8.966  -1.627  1.00  0.00     0.161 C 
HETATM    7  C5  UNL     1     -18.894  10.423   0.168  1.00  0.00     0.044 C 
HETATM    8  N1  UNL     1     -20.997   8.192  -1.986  1.00  0.00    -0.348 N 
HETATM    9  C2  UNL     1     -21.108   7.732  -3.351  1.00  0.00     0.215 C 
HETATM   10  C16 UNL     1     -21.996   7.903  -1.016  1.00  0.00     0.163 C 
HETATM   11  C1  UNL     1     -22.290   6.929  -3.765  1.00  0.00     0.117 C 
HETATM   12  O1  UNL     1     -20.240   7.985  -4.210  1.00  0.00    -0.274 OA
ENDBRANCH   1   2
BRANCH   1  13
HETATM   13  N3  UNL     1     -23.339   7.605   1.982  1.00  0.00    -0.365 N 
ATOM     14  H3  UNL     1     -23.608   6.785   1.437  1.00  0.00     0.161 HD
BRANCH  13  15
HETATM   15  C9  UNL     1     -23.788   7.653   3.303  1.00  0.00     0.167 C 
HETATM   16  S1  UNL     1     -22.645   7.798   4.495  1.00  0.00    -0.041 SA
BRANCH  15  17
HETATM   17  N4  UNL     1     -25.138   7.611   3.686  1.00  0.00    -0.363 N 
ATOM     18  H4  UNL     1     -25.447   6.871   4.317  1.00  0.00     0.162 HD
BRANCH  17  19
HETATM   19  C10 UNL     1     -26.118   8.591   3.211  1.00  0.00     0.083 C 
HETATM   20  C11 UNL     1     -27.484   8.078   3.569  1.00  0.00     0.025 C 
HETATM   21  C12 UNL     1     -28.546   9.119   3.702  1.00  0.00     0.002 C 
HETATM   22  C13 UNL     1     -28.128  10.319   4.505  1.00  0.00     0.000 C 
HETATM   23  C14 UNL     1     -26.737  10.233   5.023  1.00  0.00     0.002 C 
HETATM   24  C15 UNL     1     -25.802   9.905   3.879  1.00  0.00     0.025 C 
ENDBRANCH  17  19
ENDBRANCH  15  17
ENDBRANCH  13  15
ENDBRANCH   1  13
TORSDOF 5
ENDMDL
MODEL 3
REMARK VINA RESULT: -7.948370174      1.845      2.284
REMARK  5 active torsions:
REMARK  status: ('A' for Active; 'I' for Inactive)
REMARK       I    between atoms: C2_2  and  N1_4 
REMARK    1  A    between atoms: C7_10  and  C8_11 
REMARK    2  A    between atoms: C8_11  and  N3_12 
REMARK    3  A    between atoms: N3_12  and  C9_14 
REMARK    4  A    between atoms: C9_14  and  N4_16 
REMARK    5  A    between atoms: N4_16  and  C10_18 
ROOT
HETATM    1  C8  UNL     1     -22.738   9.103   1.751  1.00  0.00     0.159 C 
ENDROOT
BRANCH   1   2
HETATM    2  C7  UNL     1     -22.020   8.714   0.448  1.00  0.00     0.258 C 
HETATM    3  N2  UNL     1     -20.961   7.810   0.829  1.00  0.00     0.098 N 
HETATM    4  C4  UNL     1     -19.779   8.552   1.140  1.00  0.00     0.237 C 
HETATM    5  C6  UNL     1     -20.773   6.888  -0.280  1.00  0.00     0.311 C 
HETATM    6  C3  UNL     1     -19.222   9.068  -0.166  1.00  0.00     0.161 C 
HETATM    7  C5  UNL     1     -18.758   7.681   1.856  1.00  0.00     0.044 C 
HETATM    8  N1  UNL     1     -20.219   9.919  -0.769  1.00  0.00    -0.348 N 
HETATM    9  C2  UNL     1     -19.826  10.719  -1.906  1.00  0.00     0.215 C 
HETATM   10  C16 UNL     1     -21.542   9.961  -0.248  1.00  0.00     0.163 C 
HETATM   11  C1  UNL     1     -20.822  11.609  -2.562  1.00  0.00     0.117 C 
HETATM   12  O1  UNL     1     -18.667  10.694  -2.367  1.00  0.00    -0.274 OA
ENDBRANCH   1   2
BRANCH   1  13
HETATM   13  N3  UNL     1     -23.507   7.956   2.176  1.00  0.00    -0.365 N 
ATOM     14  H3  UNL     1     -23.776   7.291   1.450  1.00  0.00     0.161 HD
BRANCH  13  15
HETATM   15  C9  UNL     1     -23.920   7.663   3.477  1.00  0.00     0.167 C 
HETATM   16  S1  UNL     1     -22.744   7.337   4.599  1.00  0.00    -0.041 SA
BRANCH  15  17
HETATM   17  N4  UNL     1     -25.258   7.650   3.902  1.00  0.00    -0.363 N 
ATOM     18  H4  UNL     1     -25.549   6.954   4.589  1.00  0.00     0.162 HD
BRANCH  17  19
HETATM   19  C10 UNL     1     -26.252   8.599   3.393  1.00  0.00     0.083 C 
HETATM   20  C11 UNL     1     -27.609   8.088   3.781  1.00  0.00     0.025 C 
HETATM   21  C12 UNL     1     -28.682   9.123   3.878  1.00  0.00     0.002 C 
HETATM   22  C13 UNL     1     -28.271  10.359   4.627  1.00  0.00     0.000 C 
HETATM   23  C14 UNL     1     -26.876  10.309   5.139  1.00  0.00     0.002 C 
HETATM   24  C15 UNL     1     -25.945   9.943   4.003  1.00  0.00     0.025 C 
ENDBRANCH  17  19
ENDBRANCH  15  17
ENDBRANCH  13  15
ENDBRANCH   1  13
TORSDOF 5
ENDMDL
MODEL 4
REMARK VINA RESULT: -7.947972143      1.544      2.827
REMARK  5 active torsions:
REMARK  status: ('A' for Active; 'I' for Inactive)
REMARK       I    between atoms: C2_2  and  N1_4 
REMARK    1  A    between atoms: C7_10  and  C8_11 
REMARK    2  A    between atoms: C8_11  and  N3_12 
REMARK    3  A    between atoms: N3_12  and  C9_14 
REMARK    4  A    between atoms: C9_14  and  N4_16 
REMARK    5  A    between atoms: N4_16  and  C10_18 
ROOT
HETATM    1  C8  UNL     1     -22.857  10.239   2.658  1.00  0.00     0.159 C 
ENDROOT
BRANCH   1   2
HETATM    2  C7  UNL     1     -21.979  10.479   1.418  1.00  0.00     0.258 C 
HETATM    3  N2  UNL     1     -22.054  11.894   1.143  1.00  0.00     0.098 N 
HETATM    4  C4  UNL     1     -23.164  12.162   0.284  1.00  0.00     0.237 C 
HETATM    5  C6  UNL     1     -20.779  12.277   0.556  1.00  0.00     0.311 C 
HETATM    6  C3  UNL     1     -22.797  11.650  -1.089  1.00  0.00     0.161 C 
HETATM    7  C5  UNL     1     -23.475  13.651   0.240  1.00  0.00     0.044 C 
HETATM    8  N1  UNL     1     -22.559  10.231  -0.985  1.00  0.00    -0.348 N 
HETATM    9  C2  UNL     1     -22.429   9.476  -2.210  1.00  0.00     0.215 C 
HETATM   10  C16 UNL     1     -22.463   9.607   0.290  1.00  0.00     0.163 C 
HETATM   11  C1  UNL     1     -22.180   8.010  -2.151  1.00  0.00     0.117 C 
HETATM   12  O1  UNL     1     -22.517  10.012  -3.333  1.00  0.00    -0.274 OA
ENDBRANCH   1   2
BRANCH   1  13
HETATM   13  N3  UNL     1     -23.610   9.027   2.422  1.00  0.00    -0.365 N 
ATOM     14  H3  UNL     1     -23.837   8.811   1.451  1.00  0.00     0.161 HD
BRANCH  13  15
HETATM   15  C9  UNL     1     -24.057   8.121   3.385  1.00  0.00     0.167 C 
HETATM   16  S1  UNL     1     -22.915   7.219   4.178  1.00  0.00    -0.041 SA
BRANCH  15  17
HETATM   17  N4  UNL     1     -25.403   7.942   3.743  1.00  0.00    -0.363 N 
ATOM     18  H4  UNL     1     -25.674   7.084   4.226  1.00  0.00     0.162 HD
BRANCH  17  19
HETATM   19  C10 UNL     1     -26.432   8.942   3.449  1.00  0.00     0.083 C 
HETATM   20  C11 UNL     1     -27.753   8.230   3.383  1.00  0.00     0.025 C 
HETATM   21  C12 UNL     1     -28.953   9.074   3.660  1.00  0.00     0.002 C 
HETATM   22  C13 UNL     1     -28.810   9.960   4.865  1.00  0.00     0.000 C 
HETATM   23  C14 UNL     1     -27.502   9.817   5.558  1.00  0.00     0.002 C 
HETATM   24  C15 UNL     1     -26.387   9.973   4.548  1.00  0.00     0.025 C 
ENDBRANCH  17  19
ENDBRANCH  15  17
ENDBRANCH  13  15
ENDBRANCH   1  13
TORSDOF 5
ENDMDL
MODEL 5
REMARK VINA RESULT: -7.869682338      3.379      7.367
REMARK  5 active torsions:
REMARK  status: ('A' for Active; 'I' for Inactive)
REMARK       I    between atoms: C2_2  and  N1_4 
REMARK    1  A    between atoms: C7_10  and  C8_11 
REMARK    2  A    between atoms: C8_11  and  N3_12 
REMARK    3  A    between atoms: N3_12  and  C9_14 
REMARK    4  A    between atoms: C9_14  and  N4_16 
REMARK    5  A    between atoms: N4_16  and  C10_18 
ROOT
HETATM    1  C8  UNL     1     -22.341   8.078   0.989  1.00  0.00     0.159 C 
ENDROOT
BRANCH   1   2
HETATM    2  C7  UNL     1     -22.692   8.005   2.484  1.00  0.00     0.258 C 
HETATM    3  N2  UNL     1     -24.009   8.581   2.615  1.00  0.00     0.098 N 
HETATM    4  C4  UNL     1     -23.903   9.992   2.812  1.00  0.00     0.237 C 
HETATM    5  C6  UNL     1     -24.658   7.902   3.726  1.00  0.00     0.311 C 
HETATM    6  C3  UNL     1     -23.387  10.207   4.215  1.00  0.00     0.161 C 
HETATM    7  C5  UNL     1     -25.250  10.674   2.622  1.00  0.00     0.044 C 
HETATM    8  N1  UNL     1     -22.093   9.576   4.313  1.00  0.00    -0.348 N 
HETATM    9  C2  UNL     1     -21.294   9.852   5.485  1.00  0.00     0.215 C 
HETATM   10  C16 UNL     1     -21.629   8.716   3.280  1.00  0.00     0.163 C 
HETATM   11  C1  UNL     1     -19.954   9.221   5.631  1.00  0.00     0.117 C 
HETATM   12  O1  UNL     1     -21.688  10.610   6.395  1.00  0.00    -0.274 OA
ENDBRANCH   1   2
BRANCH   1  13
HETATM   13  N3  UNL     1     -21.354   7.054   0.729  1.00  0.00    -0.365 N 
ATOM     14  H3  UNL     1     -21.576   6.112   1.053  1.00  0.00     0.161 HD
BRANCH  13  15
HETATM   15  C9  UNL     1     -20.129   7.220   0.082  1.00  0.00     0.167 C 
HETATM   16  S1  UNL     1     -18.786   7.443   1.027  1.00  0.00    -0.041 SA
BRANCH  15  17
HETATM   17  N4  UNL     1     -19.955   7.186  -1.311  1.00  0.00    -0.363 N 
ATOM     18  H4  UNL     1     -19.596   6.333  -1.742  1.00  0.00     0.162 HD
BRANCH  17  19
HETATM   19  C10 UNL     1     -20.272   8.331  -2.169  1.00  0.00     0.083 C 
HETATM   20  C11 UNL     1     -19.032   8.677  -2.942  1.00  0.00     0.025 C 
HETATM   21  C12 UNL     1     -19.258   9.393  -4.232  1.00  0.00     0.002 C 
HETATM   22  C13 UNL     1     -20.344   8.793  -5.081  1.00  0.00     0.000 C 
HETATM   23  C14 UNL     1     -20.978   7.592  -4.475  1.00  0.00     0.002 C 
HETATM   24  C15 UNL     1     -21.414   7.921  -3.064  1.00  0.00     0.025 C 
ENDBRANCH  17  19
ENDBRANCH  15  17
ENDBRANCH  13  15
ENDBRANCH   1  13
TORSDOF 5
ENDMDL
