MODEL 1
REMARK VINA RESULT: -10.414009771      0.000      0.000
REMARK  4 active torsions:
REMARK  status: ('A' for Active; 'I' for Inactive)
REMARK    1  A    between atoms: N1_7  and  C5_8 
REMARK    2  A    between atoms: C5_8  and  C6_9 
REMARK    3  A    between atoms: C9_12  and  O3_13 
REMARK    4  A    between atoms: C12_17  and  N2_18 
REMARK       I    between atoms: N2_18  and  C13_20 
REMARK       I    between atoms: C13_20  and  N3_22 
ROOT
HETATM    1  C6  UNL     1     -22.014   8.731  -1.162  1.00  0.00    -0.023 C 
HETATM    2  C7  UNL     1     -20.840   9.724  -1.256  1.00  0.00     0.014 C 
HETATM    3  C8  UNL     1     -20.120   9.685   0.049  1.00  0.00     0.039 C 
HETATM    4  C9  UNL     1     -20.951   9.106   1.141  1.00  0.00     0.067 C 
HETATM    5  C10 UNL     1     -21.218   7.614   0.896  1.00  0.00     0.023 C 
HETATM    6  C11 UNL     1     -22.555   7.336   1.583  1.00  0.00     0.033 C 
HETATM    7  C12 UNL     1     -22.980   8.662   2.172  1.00  0.00     0.093 C 
HETATM    8  C19 UNL     1     -22.390   9.621   1.145  1.00  0.00     0.044 C 
HETATM    9  C20 UNL     1     -22.997   9.328  -0.185  1.00  0.00     0.021 C 
HETATM   10  C21 UNL     1     -21.385   7.466  -0.610  1.00  0.00     0.019 C 
ENDROOT
BRANCH   7  11
HETATM   11  N2  UNL     1     -24.394   8.789   2.325  1.00  0.00    -0.338 N 
HETATM   12  C13 UNL     1     -24.927   9.706   3.289  1.00  0.00     0.318 C 
HETATM   13  O4  UNL     1     -24.118  10.374   3.971  1.00  0.00    -0.247 OA
HETATM   14  N3  UNL     1     -26.320   9.871   3.481  1.00  0.00    -0.334 N 
HETATM   15  C14 UNL     1     -26.797  10.800   4.456  1.00  0.00     0.130 C 
HETATM   16  C18 UNL     1     -27.208   9.061   2.651  1.00  0.00     0.130 C 
HETATM   17  C15 UNL     1     -28.040  10.354   5.173  1.00  0.00     0.057 C 
HETATM   18  C16 UNL     1     -28.678   9.141   4.588  1.00  0.00     0.173 C 
HETATM   19  F1  UNL     1     -30.006   9.101   4.978  1.00  0.00    -0.249 F 
HETATM   20  C17 UNL     1     -28.625   9.246   3.079  1.00  0.00     0.057 C 
ATOM     21  H2  UNL     1     -25.024   8.228   1.751  1.00  0.00     0.164 HD
ENDBRANCH   7  11
BRANCH   4  22
HETATM   22  O3  UNL     1     -20.430   9.342   2.388  1.00  0.00    -0.389 OA
ATOM     23  H3  UNL     1     -21.060   9.731   2.982  1.00  0.00     0.210 HD
ENDBRANCH   4  22
BRANCH   1  24
HETATM   24  C5  UNL     1     -22.623   8.542  -2.509  1.00  0.00     0.138 C 
BRANCH  24  25
HETATM   25  N1  UNL     1     -21.819   8.915  -3.636  1.00  0.00    -0.321 N 
HETATM   26  C2  UNL     1     -20.845   8.192  -4.419  1.00  0.00     0.109 C 
HETATM   27  C1  UNL     1     -19.992   7.265  -3.630  1.00  0.00     0.034 C 
HETATM   28  C3  UNL     1     -19.967   9.340  -4.939  1.00  0.00     0.205 C 
HETATM   29  O1  UNL     1     -21.022  10.233  -5.347  1.00  0.00    -0.302 OA
HETATM   30  C4  UNL     1     -21.870  10.225  -4.223  1.00  0.00     0.363 C 
HETATM   31  O2  UNL     1     -22.530  11.242  -3.857  1.00  0.00    -0.238 OA
ENDBRANCH  24  25
ENDBRANCH   1  24
TORSDOF 4
ENDMDL
MODEL 2
REMARK VINA RESULT: -10.206113049      1.794      2.328
REMARK  4 active torsions:
REMARK  status: ('A' for Active; 'I' for Inactive)
REMARK    1  A    between atoms: N1_7  and  C5_8 
REMARK    2  A    between atoms: C5_8  and  C6_9 
REMARK    3  A    between atoms: C9_12  and  O3_13 
REMARK    4  A    between atoms: C12_17  and  N2_18 
REMARK       I    between atoms: N2_18  and  C13_20 
REMARK       I    between atoms: C13_20  and  N3_22 
ROOT
HETATM    1  C6  UNL     1     -19.624   9.591  -0.643  1.00  0.00    -0.023 C 
HETATM    2  C7  UNL     1     -18.213   9.679  -0.031  1.00  0.00     0.014 C 
HETATM    3  C8  UNL     1     -18.027   8.478   0.833  1.00  0.00     0.039 C 
HETATM    4  C9  UNL     1     -19.319   7.838   1.204  1.00  0.00     0.067 C 
HETATM    5  C10 UNL     1     -20.003   7.225  -0.027  1.00  0.00     0.023 C 
HETATM    6  C11 UNL     1     -21.498   7.269   0.292  1.00  0.00     0.033 C 
HETATM    7  C12 UNL     1     -21.592   7.898   1.663  1.00  0.00     0.093 C 
HETATM    8  C19 UNL     1     -20.396   8.842   1.615  1.00  0.00     0.044 C 
HETATM    9  C20 UNL     1     -20.593   9.804   0.494  1.00  0.00     0.021 C 
HETATM   10  C21 UNL     1     -19.706   8.174  -1.179  1.00  0.00     0.019 C 
ENDROOT
BRANCH   7  11
HETATM   11  N2  UNL     1     -22.834   8.561   1.901  1.00  0.00    -0.338 N 
HETATM   12  C13 UNL     1     -23.752   8.031   2.865  1.00  0.00     0.318 C 
HETATM   13  O4  UNL     1     -23.424   6.989   3.474  1.00  0.00    -0.247 OA
HETATM   14  N3  UNL     1     -24.995   8.649   3.139  1.00  0.00    -0.334 N 
HETATM   15  C14 UNL     1     -25.873   8.078   4.111  1.00  0.00     0.130 C 
HETATM   16  C18 UNL     1     -25.315   9.863   2.393  1.00  0.00     0.130 C 
HETATM   17  C15 UNL     1     -27.332   8.200   3.770  1.00  0.00     0.057 C 
HETATM   18  C16 UNL     1     -27.612   9.086   2.605  1.00  0.00     0.173 C 
HETATM   19  F1  UNL     1     -28.927   9.511   2.671  1.00  0.00    -0.249 F 
HETATM   20  C17 UNL     1     -26.711  10.299   2.691  1.00  0.00     0.057 C 
ATOM     21  H2  UNL     1     -23.068   9.410   1.385  1.00  0.00     0.164 HD
ENDBRANCH   7  11
BRANCH   4  22
HETATM   22  O3  UNL     1     -19.191   6.936   2.229  1.00  0.00    -0.389 OA
ATOM     23  H3  UNL     1     -19.765   6.186   2.133  1.00  0.00     0.210 HD
ENDBRANCH   4  22
BRANCH   1  24
HETATM   24  C5  UNL     1     -19.780  10.628  -1.702  1.00  0.00     0.138 C 
BRANCH  24  25
HETATM   25  N1  UNL     1     -20.723  10.344  -2.744  1.00  0.00    -0.321 N 
HETATM   26  C2  UNL     1     -20.631   9.558  -3.952  1.00  0.00     0.109 C 
HETATM   27  C1  UNL     1     -19.315   9.642  -4.638  1.00  0.00     0.034 C 
HETATM   28  C3  UNL     1     -21.687  10.241  -4.834  1.00  0.00     0.205 C 
HETATM   29  O1  UNL     1     -22.740  10.335  -3.855  1.00  0.00    -0.302 OA
HETATM   30  C4  UNL     1     -22.062  10.864  -2.740  1.00  0.00     0.363 C 
HETATM   31  O2  UNL     1     -22.609  11.658  -1.919  1.00  0.00    -0.238 OA
ENDBRANCH  24  25
ENDBRANCH   1  24
TORSDOF 4
ENDMDL
MODEL 3
REMARK VINA RESULT: -9.995518209      1.880      2.557
REMARK  4 active torsions:
REMARK  status: ('A' for Active; 'I' for Inactive)
REMARK    1  A    between atoms: N1_7  and  C5_8 
REMARK    2  A    between atoms: C5_8  and  C6_9 
REMARK    3  A    between atoms: C9_12  and  O3_13 
REMARK    4  A    between atoms: C12_17  and  N2_18 
REMARK       I    between atoms: N2_18  and  C13_20 
REMARK       I    between atoms: C13_20  and  N3_22 
ROOT
HETATM    1  C6  UNL     1     -19.629   9.617  -0.649  1.00  0.00    -0.023 C 
HETATM    2  C7  UNL     1     -18.218   9.699  -0.037  1.00  0.00     0.014 C 
HETATM    3  C8  UNL     1     -18.031   8.488   0.813  1.00  0.00     0.039 C 
HETATM    4  C9  UNL     1     -19.323   7.846   1.179  1.00  0.00     0.067 C 
HETATM    5  C10 UNL     1     -20.008   7.246  -0.057  1.00  0.00     0.023 C 
HETATM    6  C11 UNL     1     -21.503   7.287   0.263  1.00  0.00     0.033 C 
HETATM    7  C12 UNL     1     -21.595   7.901   1.641  1.00  0.00     0.093 C 
HETATM    8  C19 UNL     1     -20.400   8.845   1.602  1.00  0.00     0.044 C 
HETATM    9  C20 UNL     1     -20.597   9.819   0.491  1.00  0.00     0.021 C 
HETATM   10  C21 UNL     1     -19.712   8.206  -1.200  1.00  0.00     0.019 C 
ENDROOT
BRANCH   7  11
HETATM   11  N2  UNL     1     -22.837   8.562   1.887  1.00  0.00    -0.338 N 
HETATM   12  C13 UNL     1     -23.752   8.024   2.849  1.00  0.00     0.318 C 
HETATM   13  O4  UNL     1     -23.423   6.977   3.449  1.00  0.00    -0.247 OA
HETATM   14  N3  UNL     1     -24.996   8.640   3.131  1.00  0.00    -0.334 N 
HETATM   15  C14 UNL     1     -25.870   8.061   4.100  1.00  0.00     0.130 C 
HETATM   16  C18 UNL     1     -25.317   9.860   2.396  1.00  0.00     0.130 C 
HETATM   17  C15 UNL     1     -27.330   8.185   3.764  1.00  0.00     0.057 C 
HETATM   18  C16 UNL     1     -27.613   9.081   2.606  1.00  0.00     0.173 C 
HETATM   19  F1  UNL     1     -28.929   9.505   2.679  1.00  0.00    -0.249 F 
HETATM   20  C17 UNL     1     -26.713  10.294   2.700  1.00  0.00     0.057 C 
ATOM     21  H2  UNL     1     -23.072   9.415   1.379  1.00  0.00     0.164 HD
ENDBRANCH   7  11
BRANCH   4  22
HETATM   22  O3  UNL     1     -19.194   6.932   2.194  1.00  0.00    -0.389 OA
ATOM     23  H3  UNL     1     -18.304   6.866   2.520  1.00  0.00     0.210 HD
ENDBRANCH   4  22
BRANCH   1  24
HETATM   24  C5  UNL     1     -19.786  10.666  -1.697  1.00  0.00     0.138 C 
BRANCH  24  25
HETATM   25  N1  UNL     1     -19.876  10.210  -3.053  1.00  0.00    -0.321 N 
HETATM   26  C2  UNL     1     -20.999   9.983  -3.931  1.00  0.00     0.109 C 
HETATM   27  C1  UNL     1     -22.199   9.419  -3.258  1.00  0.00     0.034 C 
HETATM   28  C3  UNL     1     -20.427   8.918  -4.880  1.00  0.00     0.205 C 
HETATM   29  O1  UNL     1     -19.150   9.537  -5.132  1.00  0.00    -0.302 OA
HETATM   30  C4  UNL     1     -18.719   9.869  -3.833  1.00  0.00     0.363 C 
HETATM   31  O2  UNL     1     -17.500   9.846  -3.489  1.00  0.00    -0.238 OA
ENDBRANCH  24  25
ENDBRANCH   1  24
TORSDOF 4
ENDMDL
MODEL 4
REMARK VINA RESULT: -9.951588563      1.044      1.530
REMARK  4 active torsions:
REMARK  status: ('A' for Active; 'I' for Inactive)
REMARK    1  A    between atoms: N1_7  and  C5_8 
REMARK    2  A    between atoms: C5_8  and  C6_9 
REMARK    3  A    between atoms: C9_12  and  O3_13 
REMARK    4  A    between atoms: C12_17  and  N2_18 
REMARK       I    between atoms: N2_18  and  C13_20 
REMARK       I    between atoms: C13_20  and  N3_22 
ROOT
HETATM    1  C6  UNL     1     -21.821   8.386  -0.827  1.00  0.00    -0.023 C 
HETATM    2  C7  UNL     1     -20.492   9.163  -0.890  1.00  0.00     0.014 C 
HETATM    3  C8  UNL     1     -19.891   9.126   0.474  1.00  0.00     0.039 C 
HETATM    4  C9  UNL     1     -20.890   8.792   1.527  1.00  0.00     0.067 C 
HETATM    5  C10 UNL     1     -21.385   7.347   1.375  1.00  0.00     0.023 C 
HETATM    6  C11 UNL     1     -22.799   7.353   1.957  1.00  0.00     0.033 C 
HETATM    7  C12 UNL     1     -23.038   8.778   2.401  1.00  0.00     0.093 C 
HETATM    8  C19 UNL     1     -22.217   9.531   1.361  1.00  0.00     0.044 C 
HETATM    9  C20 UNL     1     -22.761   9.220   0.008  1.00  0.00     0.021 C 
HETATM   10  C21 UNL     1     -21.459   7.091  -0.124  1.00  0.00     0.019 C 
ENDROOT
BRANCH   7  11
HETATM   11  N2  UNL     1     -24.417   9.146   2.416  1.00  0.00    -0.338 N 
HETATM   12  C13 UNL     1     -25.047   9.500   3.653  1.00  0.00     0.318 C 
HETATM   13  O4  UNL     1     -24.352   9.474   4.692  1.00  0.00    -0.247 OA
HETATM   14  N3  UNL     1     -26.412   9.873   3.723  1.00  0.00    -0.334 N 
HETATM   15  C14 UNL     1     -26.989  10.216   4.983  1.00  0.00     0.130 C 
HETATM   16  C18 UNL     1     -27.165   9.883   2.472  1.00  0.00     0.130 C 
HETATM   17  C15 UNL     1     -28.418   9.778   5.145  1.00  0.00     0.057 C 
HETATM   18  C16 UNL     1     -29.044   9.269   3.892  1.00  0.00     0.173 C 
HETATM   19  F1  UNL     1     -30.420   9.355   4.012  1.00  0.00    -0.249 F 
HETATM   20  C17 UNL     1     -28.608  10.151   2.741  1.00  0.00     0.057 C 
ATOM     21  H2  UNL     1     -24.954   9.156   1.548  1.00  0.00     0.164 HD
ENDBRANCH   7  11
BRANCH   4  22
HETATM   22  O3  UNL     1     -20.434   9.053   2.794  1.00  0.00    -0.389 OA
ATOM     23  H3  UNL     1     -19.595   8.646   2.975  1.00  0.00     0.210 HD
ENDBRANCH   4  22
BRANCH   1  24
HETATM   24  C5  UNL     1     -22.349   8.176  -2.205  1.00  0.00     0.138 C 
BRANCH  24  25
HETATM   25  N1  UNL     1     -21.541   8.666  -3.283  1.00  0.00    -0.321 N 
HETATM   26  C2  UNL     1     -21.072   9.989  -3.625  1.00  0.00     0.109 C 
HETATM   27  C1  UNL     1     -22.053  11.073  -3.358  1.00  0.00     0.034 C 
HETATM   28  C3  UNL     1     -20.891   9.858  -5.145  1.00  0.00     0.205 C 
HETATM   29  O1  UNL     1     -20.208   8.589  -5.160  1.00  0.00    -0.302 OA
HETATM   30  C4  UNL     1     -21.014   7.808  -4.308  1.00  0.00     0.363 C 
HETATM   31  O2  UNL     1     -21.193   6.567  -4.483  1.00  0.00    -0.238 OA
ENDBRANCH  24  25
ENDBRANCH   1  24
TORSDOF 4
ENDMDL
MODEL 5
REMARK VINA RESULT: -9.740219739      1.309      1.475
REMARK  4 active torsions:
REMARK  status: ('A' for Active; 'I' for Inactive)
REMARK    1  A    between atoms: N1_7  and  C5_8 
REMARK    2  A    between atoms: C5_8  and  C6_9 
REMARK    3  A    between atoms: C9_12  and  O3_13 
REMARK    4  A    between atoms: C12_17  and  N2_18 
REMARK       I    between atoms: N2_18  and  C13_20 
REMARK       I    between atoms: C13_20  and  N3_22 
ROOT
HETATM    1  C6  UNL     1     -21.186   9.286  -0.302  1.00  0.00    -0.023 C 
HETATM    2  C7  UNL     1     -19.904   9.951   0.235  1.00  0.00     0.014 C 
HETATM    3  C8  UNL     1     -19.617   9.350   1.569  1.00  0.00     0.039 C 
HETATM    4  C9  UNL     1     -20.810   8.685   2.163  1.00  0.00     0.067 C 
HETATM    5  C10 UNL     1     -21.209   7.445   1.350  1.00  0.00     0.023 C 
HETATM    6  C11 UNL     1     -22.715   7.301   1.567  1.00  0.00     0.033 C 
HETATM    7  C12 UNL     1     -23.096   8.449   2.474  1.00  0.00     0.093 C 
HETATM    8  C19 UNL     1     -22.094   9.503   2.019  1.00  0.00     0.044 C 
HETATM    9  C20 UNL     1     -22.315   9.777   0.571  1.00  0.00     0.021 C 
HETATM   10  C21 UNL     1     -20.942   7.802  -0.106  1.00  0.00     0.019 C 
ENDROOT
BRANCH   7  11
HETATM   11  N2  UNL     1     -24.457   8.857   2.335  1.00  0.00    -0.338 N 
HETATM   12  C13 UNL     1     -25.140   9.453   3.445  1.00  0.00     0.318 C 
HETATM   13  O4  UNL     1     -24.506   9.596   4.514  1.00  0.00    -0.247 OA
HETATM   14  N3  UNL     1     -26.488   9.875   3.360  1.00  0.00    -0.334 N 
HETATM   15  C14 UNL     1     -27.120  10.463   4.498  1.00  0.00     0.130 C 
HETATM   16  C18 UNL     1     -27.169   9.679   2.083  1.00  0.00     0.130 C 
HETATM   17  C15 UNL     1     -28.574  10.108   4.646  1.00  0.00     0.057 C 
HETATM   18  C16 UNL     1     -29.149   9.398   3.469  1.00  0.00     0.173 C 
HETATM   19  F1  UNL     1     -30.525   9.548   3.485  1.00  0.00    -0.249 F 
HETATM   20  C17 UNL     1     -28.612  10.038   2.207  1.00  0.00     0.057 C 
ATOM     21  H2  UNL     1     -24.943   8.724   1.447  1.00  0.00     0.164 HD
ENDBRANCH   7  11
BRANCH   4  22
HETATM   22  O3  UNL     1     -20.653   8.402   3.496  1.00  0.00    -0.389 OA
ATOM     23  H3  UNL     1     -20.608   7.470   3.672  1.00  0.00     0.210 HD
ENDBRANCH   4  22
BRANCH   1  24
HETATM   24  C5  UNL     1     -21.390   9.663  -1.729  1.00  0.00     0.138 C 
BRANCH  24  25
HETATM   25  N1  UNL     1     -21.477   8.586  -2.671  1.00  0.00    -0.321 N 
HETATM   26  C2  UNL     1     -20.499   7.650  -3.173  1.00  0.00     0.109 C 
HETATM   27  C1  UNL     1     -19.146   8.232  -3.380  1.00  0.00     0.034 C 
HETATM   28  C3  UNL     1     -21.095   7.301  -4.545  1.00  0.00     0.205 C 
HETATM   29  O1  UNL     1     -22.459   7.097  -4.127  1.00  0.00    -0.302 OA
HETATM   30  C4  UNL     1     -22.702   8.237  -3.337  1.00  0.00     0.363 C 
HETATM   31  O2  UNL     1     -23.834   8.800  -3.276  1.00  0.00    -0.238 OA
ENDBRANCH  24  25
ENDBRANCH   1  24
TORSDOF 4
ENDMDL
