MODEL 1
REMARK VINA RESULT: -6.497087860      0.000      0.000
REMARK  10 active torsions:
REMARK  status: ('A' for Active; 'I' for Inactive)
REMARK    1  A    between atoms: N1_2  and  N2_3 
REMARK    2  A    between atoms: N1_2  and  C6_17 
REMARK    3  A    between atoms: N2_3  and  C2_5 
REMARK    4  A    between atoms: C2_5  and  N3_7 
REMARK    5  A    between atoms: N3_7  and  N4_9 
REMARK    6  A    between atoms: N4_9  and  C3_11 
REMARK    7  A    between atoms: C3_11  and  O1_13 
REMARK    8  A    between atoms: O1_13  and  C4_14 
REMARK    9  A    between atoms: C4_14  and  C5_15 
REMARK   10  A    between atoms: C6_17  and  N5_19 
ROOT
HETATM    1  C2  UNL     1     -22.457   7.160   2.423  1.00  0.00     0.205 C 
HETATM    2  S1  UNL     1     -21.264   7.974   3.178  1.00  0.00    -0.038 SA
ENDROOT
BRANCH   1   3
HETATM    3  N2  UNL     1     -22.334   6.863   1.041  1.00  0.00    -0.271 N 
ATOM      4  H2  UNL     1     -22.495   5.916   0.698  1.00  0.00     0.189 HD
BRANCH   3   5
HETATM    5  N1  UNL     1     -21.991   7.885   0.160  1.00  0.00    -0.270 N 
HETATM    6  C1  UNL     1     -22.851   9.092   0.204  1.00  0.00     0.180 C 
BRANCH   5   7
HETATM    7  C6  UNL     1     -20.916   7.885  -0.753  1.00  0.00     0.190 C 
HETATM    8  S3  UNL     1     -19.434   7.364  -0.149  1.00  0.00    -0.039 SA
BRANCH   7   9
HETATM    9  N5  UNL     1     -20.993   8.279  -2.096  1.00  0.00    -0.357 N 
HETATM   10  C7  UNL     1     -21.684   7.470  -3.129  1.00  0.00     0.125 C 
HETATM   11  C8  UNL     1     -20.897   7.714  -4.398  1.00  0.00     0.021 C 
HETATM   12  C9  UNL     1     -19.829   8.718  -4.020  1.00  0.00     0.021 C 
HETATM   13  C10 UNL     1     -20.515   9.405  -2.814  1.00  0.00     0.125 C 
ENDBRANCH   7   9
ENDBRANCH   5   7
ENDBRANCH   3   5
ENDBRANCH   1   3
BRANCH   1  14
HETATM   14  N3  UNL     1     -23.606   6.755   3.149  1.00  0.00    -0.272 N 
ATOM     15  H3  UNL     1     -23.971   5.811   3.017  1.00  0.00     0.189 HD
BRANCH  14  16
HETATM   16  N4  UNL     1     -24.247   7.616   4.040  1.00  0.00    -0.268 N 
ATOM     17  H4  UNL     1     -24.124   7.485   5.044  1.00  0.00     0.190 HD
BRANCH  16  18
HETATM   18  C3  UNL     1     -25.060   8.661   3.572  1.00  0.00     0.229 C 
HETATM   19  S2  UNL     1     -24.512  10.187   3.597  1.00  0.00    -0.032 SA
BRANCH  18  20
HETATM   20  O1  UNL     1     -26.322   8.408   3.089  1.00  0.00    -0.324 OA
BRANCH  20  21
HETATM   21  C4  UNL     1     -27.345   7.774   3.795  1.00  0.00     0.209 C 
BRANCH  21  22
HETATM   22  C5  UNL     1     -28.150   8.743   4.647  1.00  0.00     0.248 C 
HETATM   23  F1  UNL     1     -28.217   8.337   5.955  1.00  0.00    -0.253 F 
ENDBRANCH  21  22
ENDBRANCH  20  21
ENDBRANCH  18  20
ENDBRANCH  16  18
ENDBRANCH  14  16
ENDBRANCH   1  14
TORSDOF 10
ENDMDL
MODEL 2
REMARK VINA RESULT: -6.476520373      3.092      4.233
REMARK  10 active torsions:
REMARK  status: ('A' for Active; 'I' for Inactive)
REMARK    1  A    between atoms: N1_2  and  N2_3 
REMARK    2  A    between atoms: N1_2  and  C6_17 
REMARK    3  A    between atoms: N2_3  and  C2_5 
REMARK    4  A    between atoms: C2_5  and  N3_7 
REMARK    5  A    between atoms: N3_7  and  N4_9 
REMARK    6  A    between atoms: N4_9  and  C3_11 
REMARK    7  A    between atoms: C3_11  and  O1_13 
REMARK    8  A    between atoms: O1_13  and  C4_14 
REMARK    9  A    between atoms: C4_14  and  C5_15 
REMARK   10  A    between atoms: C6_17  and  N5_19 
ROOT
HETATM    1  C2  UNL     1     -24.489   8.597   3.272  1.00  0.00     0.205 C 
HETATM    2  S1  UNL     1     -23.830   9.457   4.489  1.00  0.00    -0.038 SA
ENDROOT
BRANCH   1   3
HETATM    3  N2  UNL     1     -24.311   9.032   1.933  1.00  0.00    -0.271 N 
ATOM      4  H2  UNL     1     -25.117   9.253   1.348  1.00  0.00     0.189 HD
BRANCH   3   5
HETATM    5  N1  UNL     1     -23.018   9.153   1.431  1.00  0.00    -0.270 N 
HETATM    6  C1  UNL     1     -22.633  10.504   0.956  1.00  0.00     0.180 C 
BRANCH   5   7
HETATM    7  C6  UNL     1     -22.052   8.130   1.336  1.00  0.00     0.190 C 
HETATM    8  S3  UNL     1     -22.009   7.288  -0.122  1.00  0.00    -0.039 SA
BRANCH   7   9
HETATM    9  N5  UNL     1     -21.146   7.773   2.344  1.00  0.00    -0.357 N 
HETATM   10  C7  UNL     1     -21.282   6.530   3.139  1.00  0.00     0.125 C 
HETATM   11  C8  UNL     1     -20.744   6.886   4.507  1.00  0.00     0.021 C 
HETATM   12  C9  UNL     1     -20.261   8.317   4.387  1.00  0.00     0.021 C 
HETATM   13  C10 UNL     1     -19.976   8.381   2.867  1.00  0.00     0.125 C 
ENDBRANCH   7   9
ENDBRANCH   5   7
ENDBRANCH   3   5
ENDBRANCH   1   3
BRANCH   1  14
HETATM   14  N3  UNL     1     -25.233   7.423   3.556  1.00  0.00    -0.272 N 
ATOM     15  H3  UNL     1     -24.877   6.520   3.243  1.00  0.00     0.189 HD
BRANCH  14  16
HETATM   16  N4  UNL     1     -26.439   7.476   4.255  1.00  0.00    -0.268 N 
ATOM     17  H4  UNL     1     -26.645   6.765   4.957  1.00  0.00     0.190 HD
BRANCH  16  18
HETATM   18  C3  UNL     1     -27.372   8.494   4.005  1.00  0.00     0.229 C 
HETATM   19  S2  UNL     1     -27.769   9.538   5.182  1.00  0.00    -0.032 SA
BRANCH  18  20
HETATM   20  O1  UNL     1     -27.960   8.621   2.769  1.00  0.00    -0.324 OA
BRANCH  20  21
HETATM   21  C4  UNL     1     -28.278   9.827   2.145  1.00  0.00     0.209 C 
BRANCH  21  22
HETATM   22  C5  UNL     1     -29.777  10.005   1.953  1.00  0.00     0.248 C 
HETATM   23  F1  UNL     1     -30.366  10.572   3.054  1.00  0.00    -0.253 F 
ENDBRANCH  21  22
ENDBRANCH  20  21
ENDBRANCH  18  20
ENDBRANCH  16  18
ENDBRANCH  14  16
ENDBRANCH   1  14
TORSDOF 10
ENDMDL
MODEL 3
REMARK VINA RESULT: -6.425856875      3.549      7.676
REMARK  10 active torsions:
REMARK  status: ('A' for Active; 'I' for Inactive)
REMARK    1  A    between atoms: N1_2  and  N2_3 
REMARK    2  A    between atoms: N1_2  and  C6_17 
REMARK    3  A    between atoms: N2_3  and  C2_5 
REMARK    4  A    between atoms: C2_5  and  N3_7 
REMARK    5  A    between atoms: N3_7  and  N4_9 
REMARK    6  A    between atoms: N4_9  and  C3_11 
REMARK    7  A    between atoms: C3_11  and  O1_13 
REMARK    8  A    between atoms: O1_13  and  C4_14 
REMARK    9  A    between atoms: C4_14  and  C5_15 
REMARK   10  A    between atoms: C6_17  and  N5_19 
ROOT
HETATM    1  C2  UNL     1     -22.344   6.867   2.393  1.00  0.00     0.205 C 
HETATM    2  S1  UNL     1     -20.923   6.504   3.101  1.00  0.00    -0.038 SA
ENDROOT
BRANCH   1   3
HETATM    3  N2  UNL     1     -23.518   6.953   3.186  1.00  0.00    -0.271 N 
ATOM      4  H2  UNL     1     -24.037   6.112   3.437  1.00  0.00     0.189 HD
BRANCH   3   5
HETATM    5  N1  UNL     1     -23.950   8.205   3.615  1.00  0.00    -0.270 N 
HETATM    6  C1  UNL     1     -23.251   8.759   4.800  1.00  0.00     0.180 C 
BRANCH   5   7
HETATM    7  C6  UNL     1     -24.971   8.989   3.038  1.00  0.00     0.190 C 
HETATM    8  S3  UNL     1     -24.461  10.261   2.060  1.00  0.00    -0.039 SA
BRANCH   7   9
HETATM    9  N5  UNL     1     -26.347   8.787   3.215  1.00  0.00    -0.357 N 
HETATM   10  C7  UNL     1     -27.365   9.747   2.727  1.00  0.00     0.125 C 
HETATM   11  C8  UNL     1     -28.487   9.664   3.738  1.00  0.00     0.021 C 
HETATM   12  C9  UNL     1     -28.063   8.594   4.721  1.00  0.00     0.021 C 
HETATM   13  C10 UNL     1     -27.114   7.762   3.824  1.00  0.00     0.125 C 
ENDBRANCH   7   9
ENDBRANCH   5   7
ENDBRANCH   3   5
ENDBRANCH   1   3
BRANCH   1  14
HETATM   14  N3  UNL     1     -22.400   7.096   0.994  1.00  0.00    -0.272 N 
ATOM     15  H3  UNL     1     -23.089   7.752   0.624  1.00  0.00     0.189 HD
BRANCH  14  16
HETATM   16  N4  UNL     1     -21.536   6.445   0.114  1.00  0.00    -0.268 N 
ATOM     17  H4  UNL     1     -21.551   5.427   0.054  1.00  0.00     0.190 HD
BRANCH  16  18
HETATM   18  C3  UNL     1     -20.645   7.174  -0.691  1.00  0.00     0.229 C 
HETATM   19  S2  UNL     1     -19.190   7.596  -0.114  1.00  0.00    -0.032 SA
BRANCH  18  20
HETATM   20  O1  UNL     1     -20.992   7.537  -1.971  1.00  0.00    -0.324 OA
BRANCH  20  21
HETATM   21  C4  UNL     1     -20.144   7.509  -3.078  1.00  0.00     0.209 C 
BRANCH  21  22
HETATM   22  C5  UNL     1     -20.895   7.661  -4.391  1.00  0.00     0.248 C 
HETATM   23  F1  UNL     1     -21.530   6.500  -4.751  1.00  0.00    -0.253 F 
ENDBRANCH  21  22
ENDBRANCH  20  21
ENDBRANCH  18  20
ENDBRANCH  16  18
ENDBRANCH  14  16
ENDBRANCH   1  14
TORSDOF 10
ENDMDL
MODEL 4
REMARK VINA RESULT: -6.356960083      3.075      4.017
REMARK  10 active torsions:
REMARK  status: ('A' for Active; 'I' for Inactive)
REMARK    1  A    between atoms: N1_2  and  N2_3 
REMARK    2  A    between atoms: N1_2  and  C6_17 
REMARK    3  A    between atoms: N2_3  and  C2_5 
REMARK    4  A    between atoms: C2_5  and  N3_7 
REMARK    5  A    between atoms: N3_7  and  N4_9 
REMARK    6  A    between atoms: N4_9  and  C3_11 
REMARK    7  A    between atoms: C3_11  and  O1_13 
REMARK    8  A    between atoms: O1_13  and  C4_14 
REMARK    9  A    between atoms: C4_14  and  C5_15 
REMARK   10  A    between atoms: C6_17  and  N5_19 
ROOT
HETATM    1  C2  UNL     1     -24.612   8.630   3.305  1.00  0.00     0.205 C 
HETATM    2  S1  UNL     1     -23.949   9.453   4.545  1.00  0.00    -0.038 SA
ENDROOT
BRANCH   1   3
HETATM    3  N2  UNL     1     -24.410   9.086   1.976  1.00  0.00    -0.271 N 
ATOM      4  H2  UNL     1     -25.191   9.438   1.424  1.00  0.00     0.189 HD
BRANCH   3   5
HETATM    5  N1  UNL     1     -23.126   9.046   1.439  1.00  0.00    -0.270 N 
HETATM    6  C1  UNL     1     -22.381   7.780   1.639  1.00  0.00     0.180 C 
BRANCH   5   7
HETATM    7  C6  UNL     1     -22.477  10.077   0.728  1.00  0.00     0.190 C 
HETATM    8  S3  UNL     1     -20.865   9.798   0.329  1.00  0.00    -0.039 SA
BRANCH   7   9
HETATM    9  N5  UNL     1     -23.065  11.289   0.339  1.00  0.00    -0.357 N 
HETATM   10  C7  UNL     1     -22.504  12.143  -0.734  1.00  0.00     0.125 C 
HETATM   11  C8  UNL     1     -22.828  13.558  -0.309  1.00  0.00     0.021 C 
HETATM   12  C9  UNL     1     -23.628  13.419   0.969  1.00  0.00     0.021 C 
HETATM   13  C10 UNL     1     -24.214  12.000   0.770  1.00  0.00     0.125 C 
ENDBRANCH   7   9
ENDBRANCH   5   7
ENDBRANCH   3   5
ENDBRANCH   1   3
BRANCH   1  14
HETATM   14  N3  UNL     1     -25.383   7.467   3.558  1.00  0.00    -0.272 N 
ATOM     15  H3  UNL     1     -25.081   6.574   3.168  1.00  0.00     0.189 HD
BRANCH  14  16
HETATM   16  N4  UNL     1     -26.545   7.516   4.329  1.00  0.00    -0.268 N 
ATOM     17  H4  UNL     1     -26.697   6.817   5.056  1.00  0.00     0.190 HD
BRANCH  16  18
HETATM   18  C3  UNL     1     -27.508   8.515   4.116  1.00  0.00     0.229 C 
HETATM   19  S2  UNL     1     -27.893   9.539   5.313  1.00  0.00    -0.032 SA
BRANCH  18  20
HETATM   20  O1  UNL     1     -28.136   8.639   2.899  1.00  0.00    -0.324 OA
BRANCH  20  21
HETATM   21  C4  UNL     1     -28.204   9.807   2.140  1.00  0.00     0.209 C 
BRANCH  21  22
HETATM   22  C5  UNL     1     -29.636  10.244   1.874  1.00  0.00     0.248 C 
HETATM   23  F1  UNL     1     -30.321  10.482   3.038  1.00  0.00    -0.253 F 
ENDBRANCH  21  22
ENDBRANCH  20  21
ENDBRANCH  18  20
ENDBRANCH  16  18
ENDBRANCH  14  16
ENDBRANCH   1  14
TORSDOF 10
ENDMDL
MODEL 5
REMARK VINA RESULT: -6.339845544      3.542      7.514
REMARK  10 active torsions:
REMARK  status: ('A' for Active; 'I' for Inactive)
REMARK    1  A    between atoms: N1_2  and  N2_3 
REMARK    2  A    between atoms: N1_2  and  C6_17 
REMARK    3  A    between atoms: N2_3  and  C2_5 
REMARK    4  A    between atoms: C2_5  and  N3_7 
REMARK    5  A    between atoms: N3_7  and  N4_9 
REMARK    6  A    between atoms: N4_9  and  C3_11 
REMARK    7  A    between atoms: C3_11  and  O1_13 
REMARK    8  A    between atoms: O1_13  and  C4_14 
REMARK    9  A    between atoms: C4_14  and  C5_15 
REMARK   10  A    between atoms: C6_17  and  N5_19 
ROOT
HETATM    1  C2  UNL     1     -22.642   7.158   3.225  1.00  0.00     0.205 C 
HETATM    2  S1  UNL     1     -21.096   6.786   3.581  1.00  0.00    -0.038 SA
ENDROOT
BRANCH   1   3
HETATM    3  N2  UNL     1     -23.560   7.407   4.277  1.00  0.00    -0.271 N 
ATOM      4  H2  UNL     1     -23.979   6.635   4.794  1.00  0.00     0.189 HD
BRANCH   3   5
HETATM    5  N1  UNL     1     -23.881   8.725   4.593  1.00  0.00    -0.270 N 
HETATM    6  C1  UNL     1     -23.029   9.370   5.620  1.00  0.00     0.180 C 
BRANCH   5   7
HETATM    7  C6  UNL     1     -24.921   9.496   4.033  1.00  0.00     0.190 C 
HETATM    8  S3  UNL     1     -24.450  10.702   2.956  1.00  0.00    -0.039 SA
BRANCH   7   9
HETATM    9  N5  UNL     1     -26.287   9.334   4.303  1.00  0.00    -0.357 N 
HETATM   10  C7  UNL     1     -27.101   8.255   3.695  1.00  0.00     0.125 C 
HETATM   11  C8  UNL     1     -28.479   8.857   3.531  1.00  0.00     0.021 C 
HETATM   12  C9  UNL     1     -28.383  10.245   4.129  1.00  0.00     0.021 C 
HETATM   13  C10 UNL     1     -27.212  10.033   5.120  1.00  0.00     0.125 C 
ENDBRANCH   7   9
ENDBRANCH   5   7
ENDBRANCH   3   5
ENDBRANCH   1   3
BRANCH   1  14
HETATM   14  N3  UNL     1     -23.058   7.232   1.871  1.00  0.00    -0.272 N 
ATOM     15  H3  UNL     1     -23.994   7.578   1.656  1.00  0.00     0.189 HD
BRANCH  14  16
HETATM   16  N4  UNL     1     -22.218   6.843   0.827  1.00  0.00    -0.268 N 
ATOM     17  H4  UNL     1     -21.644   6.006   0.929  1.00  0.00     0.190 HD
BRANCH  16  18
HETATM   18  C3  UNL     1     -22.153   7.589  -0.360  1.00  0.00     0.229 C 
HETATM   19  S2  UNL     1     -22.084   9.208  -0.299  1.00  0.00    -0.032 SA
BRANCH  18  20
HETATM   20  O1  UNL     1     -22.147   6.962  -1.584  1.00  0.00    -0.324 OA
BRANCH  20  21
HETATM   21  C4  UNL     1     -22.405   7.577  -2.809  1.00  0.00     0.209 C 
BRANCH  21  22
HETATM   22  C5  UNL     1     -21.315   7.310  -3.835  1.00  0.00     0.248 C 
HETATM   23  F1  UNL     1     -21.707   6.381  -4.764  1.00  0.00    -0.253 F 
ENDBRANCH  21  22
ENDBRANCH  20  21
ENDBRANCH  18  20
ENDBRANCH  16  18
ENDBRANCH  14  16
ENDBRANCH   1  14
TORSDOF 10
ENDMDL
