MODEL 1
REMARK VINA RESULT: -5.233962431      0.000      0.000
REMARK  5 active torsions:
REMARK  status: ('A' for Active; 'I' for Inactive)
REMARK    1  A    between atoms: C1_4  and  C2_5 
REMARK    2  A    between atoms: C2_5  and  C3_6 
REMARK    3  A    between atoms: C3_6  and  N2_7 
REMARK    4  A    between atoms: C5_11  and  N4_12 
REMARK    5  A    between atoms: C6_17  and  N6_18 
ROOT
HETATM    1  N2  UNL     1      46.314 -29.840   0.142  1.00  0.00    -0.178 N 
HETATM    2  C4  UNL     1      47.237 -28.896  -0.118  1.00  0.00     0.218 A 
HETATM    3  N3  UNL     1      48.023 -28.366   0.838  1.00  0.00    -0.187 N 
ATOM      4  H3  UNL     1      48.711 -27.651   0.603  1.00  0.00     0.185 HD
HETATM    5  C5  UNL     1      47.890 -28.792   2.107  1.00  0.00     0.691 A 
HETATM    6  N5  UNL     1      46.978 -29.732   2.394  1.00  0.00    -0.023 N 
ATOM      7  H5  UNL     1      46.873 -30.058   3.354  1.00  0.00     0.203 HD
HETATM    8  C6  UNL     1      46.192 -30.256   1.412  1.00  0.00     0.693 A 
ENDROOT
BRANCH   1   9
HETATM    9  C3  UNL     1      45.485 -30.394  -0.876  1.00  0.00     0.153 C 
BRANCH   9  10
HETATM   10  C2  UNL     1      46.024 -30.128  -2.279  1.00  0.00     0.065 C 
BRANCH  10  11
HETATM   11  C1  UNL     1      44.906 -29.595  -3.120  1.00  0.00     0.054 C 
HETATM   12  N1  UNL     1      44.631 -28.349  -3.118  1.00  0.00    -0.411 N 
ATOM     13  H12 UNL     1      45.187 -27.725  -2.534  1.00  0.00     0.155 HD
ATOM     14  H11 UNL     1      43.870 -27.986  -3.692  1.00  0.00     0.155 HD
ENDBRANCH  10  11
ENDBRANCH   9  10
ENDBRANCH   1   9
BRANCH   8  15
HETATM   15  N6  UNL     1      45.358 -31.145   1.783  1.00  0.00    -0.234 N 
ATOM     16  H62 UNL     1      45.263 -31.951   1.165  1.00  0.00     0.174 HD
ATOM     17  H61 UNL     1      44.808 -31.077   2.640  1.00  0.00     0.174 HD
ENDBRANCH   8  15
BRANCH   5  18
HETATM   18  N4  UNL     1      48.665 -28.262   3.016  1.00  0.00    -0.234 N 
ATOM     19  H42 UNL     1      49.257 -27.452   2.830  1.00  0.00     0.174 HD
ATOM     20  H41 UNL     1      48.671 -28.683   3.945  1.00  0.00     0.174 HD
ENDBRANCH   5  18
TORSDOF 5
ENDMDL
MODEL 2
REMARK VINA RESULT: -5.226992619      2.114      3.152
REMARK  5 active torsions:
REMARK  status: ('A' for Active; 'I' for Inactive)
REMARK    1  A    between atoms: C1_4  and  C2_5 
REMARK    2  A    between atoms: C2_5  and  C3_6 
REMARK    3  A    between atoms: C3_6  and  N2_7 
REMARK    4  A    between atoms: C5_11  and  N4_12 
REMARK    5  A    between atoms: C6_17  and  N6_18 
ROOT
HETATM    1  N2  UNL     1      46.313 -29.993   1.479  1.00  0.00    -0.178 N 
HETATM    2  C4  UNL     1      46.668 -30.066   2.776  1.00  0.00     0.218 A 
HETATM    3  N3  UNL     1      47.808 -29.526   3.247  1.00  0.00    -0.187 N 
ATOM      4  H3  UNL     1      48.044 -29.603   4.237  1.00  0.00     0.185 HD
HETATM    5  C5  UNL     1      48.632 -28.886   2.398  1.00  0.00     0.691 A 
HETATM    6  N5  UNL     1      48.301 -28.798   1.102  1.00  0.00    -0.023 N 
ATOM      7  H5  UNL     1      48.922 -28.314   0.454  1.00  0.00     0.203 HD
HETATM    8  C6  UNL     1      47.143 -29.351   0.644  1.00  0.00     0.693 A 
ENDROOT
BRANCH   1   9
HETATM    9  C3  UNL     1      45.106 -30.569   0.988  1.00  0.00     0.153 C 
BRANCH   9  10
HETATM   10  C2  UNL     1      44.235 -31.143   2.103  1.00  0.00     0.065 C 
BRANCH  10  11
HETATM   11  C1  UNL     1      42.800 -30.992   1.705  1.00  0.00     0.054 C 
HETATM   12  N1  UNL     1      42.490 -30.656   0.514  1.00  0.00    -0.411 N 
ATOM     13  H12 UNL     1      43.237 -30.494  -0.161  1.00  0.00     0.155 HD
ATOM     14  H11 UNL     1      41.512 -30.554   0.243  1.00  0.00     0.155 HD
ENDBRANCH  10  11
ENDBRANCH   9  10
ENDBRANCH   1   9
BRANCH   8  15
HETATM   15  N6  UNL     1      46.917 -29.213  -0.603  1.00  0.00    -0.234 N 
ATOM     16  H62 UNL     1      47.709 -29.394  -1.221  1.00  0.00     0.174 HD
ATOM     17  H61 UNL     1      46.011 -28.940  -0.983  1.00  0.00     0.174 HD
ENDBRANCH   8  15
BRANCH   5  18
HETATM   18  N4  UNL     1      49.731 -28.371   2.882  1.00  0.00    -0.234 N 
ATOM     19  H42 UNL     1      50.323 -28.865   3.549  1.00  0.00     0.174 HD
ATOM     20  H41 UNL     1      49.997 -27.436   2.573  1.00  0.00     0.174 HD
ENDBRANCH   5  18
TORSDOF 5
ENDMDL
MODEL 3
REMARK VINA RESULT: -4.934686231      6.887      9.308
REMARK  5 active torsions:
REMARK  status: ('A' for Active; 'I' for Inactive)
REMARK    1  A    between atoms: C1_4  and  C2_5 
REMARK    2  A    between atoms: C2_5  and  C3_6 
REMARK    3  A    between atoms: C3_6  and  N2_7 
REMARK    4  A    between atoms: C5_11  and  N4_12 
REMARK    5  A    between atoms: C6_17  and  N6_18 
ROOT
HETATM    1  N2  UNL     1      44.758 -23.183  -5.249  1.00  0.00    -0.178 N 
HETATM    2  C4  UNL     1      45.251 -22.522  -4.185  1.00  0.00     0.218 A 
HETATM    3  N3  UNL     1      45.964 -21.386  -4.303  1.00  0.00    -0.187 N 
ATOM      4  H3  UNL     1      46.322 -20.913  -3.473  1.00  0.00     0.185 HD
HETATM    5  C5  UNL     1      46.200 -20.883  -5.528  1.00  0.00     0.691 A 
HETATM    6  N5  UNL     1      45.721 -21.521  -6.605  1.00  0.00    -0.023 N 
ATOM      7  H5  UNL     1      45.896 -21.145  -7.536  1.00  0.00     0.203 HD
HETATM    8  C6  UNL     1      45.001 -22.669  -6.465  1.00  0.00     0.693 A 
ENDROOT
BRANCH   1   9
HETATM    9  C3  UNL     1      44.005 -24.385  -5.116  1.00  0.00     0.153 C 
BRANCH   9  10
HETATM   10  C2  UNL     1      43.792 -24.783  -3.658  1.00  0.00     0.065 C 
BRANCH  10  11
HETATM   11  C1  UNL     1      42.406 -25.330  -3.517  1.00  0.00     0.054 C 
HETATM   12  N1  UNL     1      42.093 -26.050  -2.511  1.00  0.00    -0.411 N 
ATOM     13  H12 UNL     1      42.805 -26.245  -1.807  1.00  0.00     0.155 HD
ATOM     14  H11 UNL     1      41.149 -26.422  -2.414  1.00  0.00     0.155 HD
ENDBRANCH  10  11
ENDBRANCH   9  10
ENDBRANCH   1   9
BRANCH   8  15
HETATM   15  N6  UNL     1      44.587 -23.201  -7.547  1.00  0.00    -0.234 N 
ATOM     16  H62 UNL     1      44.633 -24.219  -7.588  1.00  0.00     0.174 HD
ATOM     17  H61 UNL     1      44.228 -22.663  -8.336  1.00  0.00     0.174 HD
ENDBRANCH   8  15
BRANCH   5  18
HETATM   18  N4  UNL     1      46.895 -19.780  -5.614  1.00  0.00    -0.234 N 
ATOM     19  H42 UNL     1      47.324 -19.335  -4.803  1.00  0.00     0.174 HD
ATOM     20  H41 UNL     1      47.006 -19.355  -6.535  1.00  0.00     0.174 HD
ENDBRANCH   5  18
TORSDOF 5
ENDMDL
MODEL 4
REMARK VINA RESULT: -4.859666674      6.848      9.088
REMARK  5 active torsions:
REMARK  status: ('A' for Active; 'I' for Inactive)
REMARK    1  A    between atoms: C1_4  and  C2_5 
REMARK    2  A    between atoms: C2_5  and  C3_6 
REMARK    3  A    between atoms: C3_6  and  N2_7 
REMARK    4  A    between atoms: C5_11  and  N4_12 
REMARK    5  A    between atoms: C6_17  and  N6_18 
ROOT
HETATM    1  N2  UNL     1      45.031 -23.607  -5.266  1.00  0.00    -0.178 N 
HETATM    2  C4  UNL     1      45.291 -23.430  -6.575  1.00  0.00     0.218 A 
HETATM    3  N3  UNL     1      45.679 -22.246  -7.084  1.00  0.00    -0.187 N 
ATOM      4  H3  UNL     1      45.867 -22.150  -8.082  1.00  0.00     0.185 HD
HETATM    5  C5  UNL     1      45.817 -21.191  -6.261  1.00  0.00     0.691 A 
HETATM    6  N5  UNL     1      45.565 -21.339  -4.953  1.00  0.00    -0.023 N 
ATOM      7  H5  UNL     1      45.668 -20.543  -4.324  1.00  0.00     0.203 HD
HETATM    8  C6  UNL     1      45.173 -22.546  -4.457  1.00  0.00     0.693 A 
ENDROOT
BRANCH   1   9
HETATM    9  C3  UNL     1      44.618 -24.863  -4.736  1.00  0.00     0.153 C 
BRANCH   9  10
HETATM   10  C2  UNL     1      43.118 -25.098  -4.886  1.00  0.00     0.065 C 
BRANCH  10  11
HETATM   11  C1  UNL     1      42.532 -25.289  -3.522  1.00  0.00     0.054 C 
HETATM   12  N1  UNL     1      42.525 -26.442  -2.976  1.00  0.00    -0.411 N 
ATOM     13  H12 UNL     1      42.927 -27.229  -3.485  1.00  0.00     0.155 HD
ATOM     14  H11 UNL     1      42.126 -26.572  -2.046  1.00  0.00     0.155 HD
ENDBRANCH  10  11
ENDBRANCH   9  10
ENDBRANCH   1   9
BRANCH   8  15
HETATM   15  N6  UNL     1      44.959 -22.587  -3.201  1.00  0.00    -0.234 N 
ATOM     16  H62 UNL     1      45.539 -23.238  -2.672  1.00  0.00     0.174 HD
ATOM     17  H61 UNL     1      44.258 -22.014  -2.731  1.00  0.00     0.174 HD
ENDBRANCH   8  15
BRANCH   5  18
HETATM   18  N4  UNL     1      46.196 -20.053  -6.781  1.00  0.00    -0.234 N 
ATOM     19  H42 UNL     1      45.964 -19.780  -7.736  1.00  0.00     0.174 HD
ATOM     20  H41 UNL     1      46.745 -19.421  -6.199  1.00  0.00     0.174 HD
ENDBRANCH   5  18
TORSDOF 5
ENDMDL
MODEL 5
REMARK VINA RESULT: -4.844724177      6.765      8.562
REMARK  5 active torsions:
REMARK  status: ('A' for Active; 'I' for Inactive)
REMARK    1  A    between atoms: C1_4  and  C2_5 
REMARK    2  A    between atoms: C2_5  and  C3_6 
REMARK    3  A    between atoms: C3_6  and  N2_7 
REMARK    4  A    between atoms: C5_11  and  N4_12 
REMARK    5  A    between atoms: C6_17  and  N6_18 
ROOT
HETATM    1  N2  UNL     1      44.643 -24.194  -4.787  1.00  0.00    -0.178 N 
HETATM    2  C4  UNL     1      44.008 -23.035  -4.531  1.00  0.00     0.218 A 
HETATM    3  N3  UNL     1      44.463 -21.846  -4.968  1.00  0.00    -0.187 N 
ATOM      4  H3  UNL     1      43.955 -20.988  -4.754  1.00  0.00     0.185 HD
HETATM    5  C5  UNL     1      45.597 -21.802  -5.691  1.00  0.00     0.691 A 
HETATM    6  N5  UNL     1      46.249 -22.942  -5.961  1.00  0.00    -0.023 N 
ATOM      7  H5  UNL     1      47.109 -22.915  -6.508  1.00  0.00     0.203 HD
HETATM    8  C6  UNL     1      45.772 -24.136  -5.510  1.00  0.00     0.693 A 
ENDROOT
BRANCH   1   9
HETATM    9  C3  UNL     1      44.155 -25.448  -4.319  1.00  0.00     0.153 C 
BRANCH   9  10
HETATM   10  C2  UNL     1      42.746 -25.751  -4.819  1.00  0.00     0.065 C 
BRANCH  10  11
HETATM   11  C1  UNL     1      41.918 -26.198  -3.655  1.00  0.00     0.054 C 
HETATM   12  N1  UNL     1      42.231 -25.853  -2.467  1.00  0.00    -0.411 N 
ATOM     13  H12 UNL     1      43.054 -25.267  -2.327  1.00  0.00     0.155 HD
ATOM     14  H11 UNL     1      41.667 -26.158  -1.674  1.00  0.00     0.155 HD
ENDBRANCH  10  11
ENDBRANCH   9  10
ENDBRANCH   1   9
BRANCH   8  15
HETATM   15  N6  UNL     1      46.462 -25.162  -5.819  1.00  0.00    -0.234 N 
ATOM     16  H62 UNL     1      47.424 -25.170  -5.480  1.00  0.00     0.174 HD
ATOM     17  H61 UNL     1      46.097 -25.939  -6.369  1.00  0.00     0.174 HD
ENDBRANCH   8  15
BRANCH   5  18
HETATM   18  N4  UNL     1      46.016 -20.636  -6.103  1.00  0.00    -0.234 N 
ATOM     19  H42 UNL     1      45.431 -19.800  -6.080  1.00  0.00     0.174 HD
ATOM     20  H41 UNL     1      46.969 -20.569  -6.461  1.00  0.00     0.174 HD
ENDBRANCH   5  18
TORSDOF 5
ENDMDL
