MODEL 1
REMARK VINA RESULT: -7.468618928      0.000      0.000
REMARK  12 active torsions:
REMARK  status: ('A' for Active; 'I' for Inactive)
REMARK    1  A    between atoms: C1_4  and  O1_5 
REMARK    2  A    between atoms: C1_4  and  O2_7 
REMARK    3  A    between atoms: O2_7  and  C2_8 
REMARK    4  A    between atoms: C2_8  and  C3_10 
REMARK    5  A    between atoms: C4_11  and  C5_12 
REMARK    6  A    between atoms: C4_11  and  S1_37 
REMARK    7  A    between atoms: C9_23  and  N5_24 
REMARK    8  A    between atoms: N6_27  and  N7_28 
REMARK    9  A    between atoms: N7_28  and  O4_30 
REMARK   10  A    between atoms: N8_32  and  C10_33 
REMARK   11  A    between atoms: C10_33  and  C11_34 
REMARK   12  A    between atoms: C11_34  and  O5_35 
ROOT
HETATM    1  C5  UNL     1       8.539 -55.307   5.814  1.00  0.00     0.134 A 
HETATM    2  N2  UNL     1       9.591 -55.256   6.706  1.00  0.00    -0.323 N 
ATOM      3  H2  UNL     1       9.544 -55.508   7.694  1.00  0.00     0.169 HD
HETATM    4  C6  UNL     1      10.667 -54.827   6.074  1.00  0.00     0.180 A 
HETATM    5  C7  UNL     1      10.322 -54.598   4.765  1.00  0.00     0.128 A 
HETATM    6  C8  UNL     1      11.315 -54.146   3.919  1.00  0.00     0.145 A 
HETATM    7  N3  UNL     1      11.102 -53.910   2.679  1.00  0.00    -0.383 N 
ATOM      8  H31 UNL     1      11.836 -53.576   2.054  1.00  0.00     0.157 HD
ATOM      9  H32 UNL     1      10.161 -54.059   2.316  1.00  0.00     0.157 HD
HETATM   10  N4  UNL     1      12.578 -53.946   4.406  1.00  0.00    -0.173 N 
ATOM     11  H4  UNL     1      13.313 -53.611   3.782  1.00  0.00     0.186 HD
HETATM   12  C9  UNL     1      12.858 -54.184   5.689  1.00  0.00     0.702 A 
HETATM   13  N6  UNL     1      11.935 -54.625   6.554  1.00  0.00    -0.048 N 
HETATM   14  N8  UNL     1       8.978 -54.905   4.623  1.00  0.00    -0.324 N 
ENDROOT
BRANCH   1  15
HETATM   15  C4  UNL     1       7.230 -55.779   6.276  1.00  0.00     0.130 C 
HETATM   16  C3  UNL     1       6.496 -56.686   5.724  1.00  0.00     0.113 C 
BRANCH  16  17
HETATM   17  C2  UNL     1       5.212 -57.181   6.164  1.00  0.00     0.292 C 
HETATM   18  O3  UNL     1       4.156 -56.559   6.068  1.00  0.00    -0.260 OA
BRANCH  17  19
HETATM   19  O2  UNL     1       5.093 -58.463   6.753  1.00  0.00    -0.237 OA
BRANCH  19  20
HETATM   20  C1  UNL     1       4.520 -59.500   6.059  1.00  0.00     0.263 C 
HETATM   21  N1  UNL     1       4.331 -60.619   6.654  1.00  0.00    -0.359 N 
ATOM     22  H12 UNL     1       3.905 -61.389   6.138  1.00  0.00     0.160 HD
ATOM     23  H11 UNL     1       4.616 -60.696   7.630  1.00  0.00     0.160 HD
BRANCH  20  24
HETATM   24  O1  UNL     1       4.131 -59.394   4.724  1.00  0.00    -0.327 OA
ATOM     25  H1  UNL     1       4.353 -58.598   4.256  1.00  0.00     0.221 HD
ENDBRANCH  20  24
ENDBRANCH  19  20
ENDBRANCH  17  19
ENDBRANCH  16  17
BRANCH  15  26
HETATM   26  S1  UNL     1       6.583 -55.000   7.739  1.00  0.00     0.141 S 
HETATM   27  O6  UNL     1       5.303 -54.303   7.521  1.00  0.00    -0.591 OA
HETATM   28  O7  UNL     1       7.629 -53.914   8.115  1.00  0.00    -0.591 OA
HETATM   29  O8  UNL     1       6.568 -56.028   9.020  1.00  0.00    -0.591 OA
ENDBRANCH  15  26
ENDBRANCH   1  15
BRANCH  14  30
HETATM   30  C10 UNL     1       8.339 -54.743   3.355  1.00  0.00     0.157 C 
BRANCH  30  31
HETATM   31  C11 UNL     1       8.256 -55.939   2.474  1.00  0.00     0.184 C 
BRANCH  31  32
HETATM   32  O5  UNL     1       9.236 -56.100   1.532  1.00  0.00    -0.399 OA
ATOM     33  H5  UNL     1       9.565 -55.319   1.104  1.00  0.00     0.209 HD
ENDBRANCH  31  32
ENDBRANCH  30  31
ENDBRANCH  14  30
BRANCH  13  34
HETATM   34  N7  UNL     1      12.247 -54.869   7.894  1.00  0.00    -0.187 N 
ATOM     35  H7  UNL     1      12.985 -55.519   8.165  1.00  0.00     0.217 HD
BRANCH  34  36
HETATM   36  O4  UNL     1      11.571 -54.246   8.746  1.00  0.00    -0.273 OA
ATOM     37  H4  UNL     1      11.923 -53.413   9.037  1.00  0.00     0.246 HD
ENDBRANCH  34  36
ENDBRANCH  13  34
BRANCH  12  38
HETATM   38  N5  UNL     1      14.061 -53.992   6.144  1.00  0.00    -0.233 N 
ATOM     39  H52 UNL     1      14.839 -54.264   5.543  1.00  0.00     0.174 HD
ATOM     40  H51 UNL     1      14.202 -53.585   7.068  1.00  0.00     0.174 HD
ENDBRANCH  12  38
TORSDOF 12
ENDMDL
MODEL 2
REMARK VINA RESULT: -7.377993437      2.407      4.478
REMARK  12 active torsions:
REMARK  status: ('A' for Active; 'I' for Inactive)
REMARK    1  A    between atoms: C1_4  and  O1_5 
REMARK    2  A    between atoms: C1_4  and  O2_7 
REMARK    3  A    between atoms: O2_7  and  C2_8 
REMARK    4  A    between atoms: C2_8  and  C3_10 
REMARK    5  A    between atoms: C4_11  and  C5_12 
REMARK    6  A    between atoms: C4_11  and  S1_37 
REMARK    7  A    between atoms: C9_23  and  N5_24 
REMARK    8  A    between atoms: N6_27  and  N7_28 
REMARK    9  A    between atoms: N7_28  and  O4_30 
REMARK   10  A    between atoms: N8_32  and  C10_33 
REMARK   11  A    between atoms: C10_33  and  C11_34 
REMARK   12  A    between atoms: C11_34  and  O5_35 
ROOT
HETATM    1  C5  UNL     1      10.209 -54.706   5.619  1.00  0.00     0.134 A 
HETATM    2  N2  UNL     1      10.332 -54.113   4.378  1.00  0.00    -0.323 N 
ATOM      3  H2  UNL     1       9.559 -53.862   3.761  1.00  0.00     0.169 HD
HETATM    4  C6  UNL     1      11.612 -53.923   4.120  1.00  0.00     0.180 A 
HETATM    5  C7  UNL     1      12.331 -54.391   5.193  1.00  0.00     0.128 A 
HETATM    6  C8  UNL     1      13.705 -54.282   5.130  1.00  0.00     0.145 A 
HETATM    7  N3  UNL     1      14.468 -54.678   6.078  1.00  0.00    -0.383 N 
ATOM      8  H31 UNL     1      15.483 -54.596   6.031  1.00  0.00     0.157 HD
ATOM      9  H32 UNL     1      14.033 -55.093   6.902  1.00  0.00     0.157 HD
HETATM   10  N4  UNL     1      14.288 -53.724   4.024  1.00  0.00    -0.173 N 
ATOM     11  H4  UNL     1      15.304 -53.643   3.975  1.00  0.00     0.186 HD
HETATM   12  C9  UNL     1      13.541 -53.286   3.009  1.00  0.00     0.702 A 
HETATM   13  N6  UNL     1      12.203 -53.366   3.017  1.00  0.00    -0.048 N 
HETATM   14  N8  UNL     1      11.428 -54.880   6.124  1.00  0.00    -0.324 N 
ENDROOT
BRANCH   1  15
HETATM   15  C4  UNL     1       8.871 -54.998   6.144  1.00  0.00     0.130 C 
HETATM   16  C3  UNL     1       8.461 -54.824   7.355  1.00  0.00     0.113 C 
BRANCH  16  17
HETATM   17  C2  UNL     1       7.148 -55.088   7.897  1.00  0.00     0.292 C 
HETATM   18  O3  UNL     1       6.862 -56.068   8.583  1.00  0.00    -0.260 OA
BRANCH  17  19
HETATM   19  O2  UNL     1       6.073 -54.197   7.660  1.00  0.00    -0.237 OA
BRANCH  19  20
HETATM   20  C1  UNL     1       4.786 -54.664   7.577  1.00  0.00     0.263 C 
HETATM   21  N1  UNL     1       4.516 -55.603   6.747  1.00  0.00    -0.359 N 
ATOM     22  H12 UNL     1       3.559 -55.951   6.685  1.00  0.00     0.160 HD
ATOM     23  H11 UNL     1       5.278 -55.969   6.176  1.00  0.00     0.160 HD
BRANCH  20  24
HETATM   24  O1  UNL     1       3.745 -54.162   8.358  1.00  0.00    -0.327 OA
ATOM     25  H1  UNL     1       3.970 -53.648   9.124  1.00  0.00     0.221 HD
ENDBRANCH  20  24
ENDBRANCH  19  20
ENDBRANCH  17  19
ENDBRANCH  16  17
BRANCH  15  26
HETATM   26  S1  UNL     1       7.704 -55.683   4.990  1.00  0.00     0.141 S 
HETATM   27  O6  UNL     1       7.124 -56.966   5.427  1.00  0.00    -0.591 OA
HETATM   28  O7  UNL     1       8.529 -55.977   3.707  1.00  0.00    -0.591 OA
HETATM   29  O8  UNL     1       6.586 -54.574   4.523  1.00  0.00    -0.591 OA
ENDBRANCH  15  26
ENDBRANCH   1  15
BRANCH  14  30
HETATM   30  C10 UNL     1      11.902 -55.451   7.346  1.00  0.00     0.157 C 
BRANCH  30  31
HETATM   31  C11 UNL     1      12.151 -54.522   8.481  1.00  0.00     0.184 C 
BRANCH  31  32
HETATM   32  O5  UNL     1      11.089 -53.797   8.950  1.00  0.00    -0.399 OA
ATOM     33  H5  UNL     1      10.880 -53.871   9.873  1.00  0.00     0.209 HD
ENDBRANCH  31  32
ENDBRANCH  30  31
ENDBRANCH  14  30
BRANCH  13  34
HETATM   34  N7  UNL     1      11.437 -52.901   1.944  1.00  0.00    -0.187 N 
ATOM     35  H7  UNL     1      11.364 -53.421   1.070  1.00  0.00     0.217 HD
BRANCH  34  36
HETATM   36  O4  UNL     1      10.843 -51.810   2.115  1.00  0.00    -0.273 OA
ATOM     37  H4  UNL     1      10.698 -51.283   1.339  1.00  0.00     0.246 HD
ENDBRANCH  34  36
ENDBRANCH  13  34
BRANCH  12  38
HETATM   38  N5  UNL     1      14.102 -52.757   1.962  1.00  0.00    -0.233 N 
ATOM     39  H52 UNL     1      15.060 -52.421   2.062  1.00  0.00     0.174 HD
ATOM     40  H51 UNL     1      13.589 -52.689   1.082  1.00  0.00     0.174 HD
ENDBRANCH  12  38
TORSDOF 12
ENDMDL
MODEL 3
REMARK VINA RESULT: -7.320828437      2.429      6.983
REMARK  12 active torsions:
REMARK  status: ('A' for Active; 'I' for Inactive)
REMARK    1  A    between atoms: C1_4  and  O1_5 
REMARK    2  A    between atoms: C1_4  and  O2_7 
REMARK    3  A    between atoms: O2_7  and  C2_8 
REMARK    4  A    between atoms: C2_8  and  C3_10 
REMARK    5  A    between atoms: C4_11  and  C5_12 
REMARK    6  A    between atoms: C4_11  and  S1_37 
REMARK    7  A    between atoms: C9_23  and  N5_24 
REMARK    8  A    between atoms: N6_27  and  N7_28 
REMARK    9  A    between atoms: N7_28  and  O4_30 
REMARK   10  A    between atoms: N8_32  and  C10_33 
REMARK   11  A    between atoms: C10_33  and  C11_34 
REMARK   12  A    between atoms: C11_34  and  O5_35 
ROOT
HETATM    1  C5  UNL     1       6.543 -57.026   5.241  1.00  0.00     0.134 A 
HETATM    2  N2  UNL     1       6.197 -58.268   5.734  1.00  0.00    -0.323 N 
ATOM      3  H2  UNL     1       6.398 -58.611   6.674  1.00  0.00     0.169 HD
HETATM    4  C6  UNL     1       5.564 -58.941   4.791  1.00  0.00     0.180 A 
HETATM    5  C7  UNL     1       5.493 -58.139   3.678  1.00  0.00     0.128 A 
HETATM    6  C8  UNL     1       4.857 -58.654   2.567  1.00  0.00     0.145 A 
HETATM    7  N3  UNL     1       4.728 -57.988   1.482  1.00  0.00    -0.383 N 
ATOM      8  H31 UNL     1       4.258 -58.369   0.661  1.00  0.00     0.157 HD
ATOM      9  H32 UNL     1       5.118 -57.046   1.447  1.00  0.00     0.157 HD
HETATM   10  N4  UNL     1       4.334 -59.918   2.613  1.00  0.00    -0.173 N 
ATOM     11  H4  UNL     1       3.864 -60.301   1.793  1.00  0.00     0.186 HD
HETATM   12  C9  UNL     1       4.431 -60.655   3.722  1.00  0.00     0.702 A 
HETATM   13  N6  UNL     1       5.036 -60.205   4.829  1.00  0.00    -0.048 N 
HETATM   14  N8  UNL     1       6.116 -56.939   3.983  1.00  0.00    -0.324 N 
ENDROOT
BRANCH   1  15
HETATM   15  C4  UNL     1       7.240 -56.078   6.115  1.00  0.00     0.130 C 
HETATM   16  C3  UNL     1       8.478 -55.722   6.037  1.00  0.00     0.113 C 
BRANCH  16  17
HETATM   17  C2  UNL     1       9.189 -54.781   6.872  1.00  0.00     0.292 C 
HETATM   18  O3  UNL     1       9.076 -53.559   6.797  1.00  0.00    -0.260 OA
BRANCH  17  19
HETATM   19  O2  UNL     1      10.092 -55.232   7.866  1.00  0.00    -0.237 OA
BRANCH  19  20
HETATM   20  C1  UNL     1      11.214 -54.503   8.171  1.00  0.00     0.263 C 
HETATM   21  N1  UNL     1      12.042 -54.213   7.237  1.00  0.00    -0.359 N 
ATOM     22  H12 UNL     1      12.875 -53.670   7.464  1.00  0.00     0.160 HD
ATOM     23  H11 UNL     1      11.831 -54.539   6.294  1.00  0.00     0.160 HD
BRANCH  20  24
HETATM   24  O1  UNL     1      11.501 -54.057   9.461  1.00  0.00    -0.327 OA
ATOM     25  H1  UNL     1      12.238 -54.449   9.915  1.00  0.00     0.221 HD
ENDBRANCH  20  24
ENDBRANCH  19  20
ENDBRANCH  17  19
ENDBRANCH  16  17
BRANCH  15  26
HETATM   26  S1  UNL     1       6.280 -55.366   7.431  1.00  0.00     0.141 S 
HETATM   27  O6  UNL     1       6.670 -55.839   8.772  1.00  0.00    -0.591 OA
HETATM   28  O7  UNL     1       4.828 -55.860   7.186  1.00  0.00    -0.591 OA
HETATM   29  O8  UNL     1       6.192 -53.730   7.306  1.00  0.00    -0.591 OA
ENDBRANCH  15  26
ENDBRANCH   1  15
BRANCH  14  30
HETATM   30  C10 UNL     1       6.207 -55.911   2.994  1.00  0.00     0.157 C 
BRANCH  30  31
HETATM   31  C11 UNL     1       5.318 -54.729   3.156  1.00  0.00     0.184 C 
BRANCH  31  32
HETATM   32  O5  UNL     1       4.349 -54.793   4.120  1.00  0.00    -0.399 OA
ATOM     33  H5  UNL     1       3.457 -54.955   3.836  1.00  0.00     0.209 HD
ENDBRANCH  31  32
ENDBRANCH  30  31
ENDBRANCH  14  30
BRANCH  13  34
HETATM   34  N7  UNL     1       5.129 -60.991   5.982  1.00  0.00    -0.187 N 
ATOM     35  H7  UNL     1       5.838 -61.717   6.082  1.00  0.00     0.217 HD
BRANCH  34  36
HETATM   36  O4  UNL     1       4.293 -60.755   6.886  1.00  0.00    -0.273 OA
ATOM     37  H4  UNL     1       4.382 -61.261   7.685  1.00  0.00     0.246 HD
ENDBRANCH  34  36
ENDBRANCH  13  34
BRANCH  12  38
HETATM   38  N5  UNL     1       3.931 -61.854   3.759  1.00  0.00    -0.233 N 
ATOM     39  H52 UNL     1       4.337 -62.551   3.134  1.00  0.00     0.174 HD
ATOM     40  H51 UNL     1       3.162 -62.072   4.394  1.00  0.00     0.174 HD
ENDBRANCH  12  38
TORSDOF 12
ENDMDL
MODEL 4
REMARK VINA RESULT: -7.117739675      2.384      6.872
REMARK  12 active torsions:
REMARK  status: ('A' for Active; 'I' for Inactive)
REMARK    1  A    between atoms: C1_4  and  O1_5 
REMARK    2  A    between atoms: C1_4  and  O2_7 
REMARK    3  A    between atoms: O2_7  and  C2_8 
REMARK    4  A    between atoms: C2_8  and  C3_10 
REMARK    5  A    between atoms: C4_11  and  C5_12 
REMARK    6  A    between atoms: C4_11  and  S1_37 
REMARK    7  A    between atoms: C9_23  and  N5_24 
REMARK    8  A    between atoms: N6_27  and  N7_28 
REMARK    9  A    between atoms: N7_28  and  O4_30 
REMARK   10  A    between atoms: N8_32  and  C10_33 
REMARK   11  A    between atoms: C10_33  and  C11_34 
REMARK   12  A    between atoms: C11_34  and  O5_35 
ROOT
HETATM    1  C5  UNL     1       6.632 -57.001   5.137  1.00  0.00     0.134 A 
HETATM    2  N2  UNL     1       6.205 -58.219   5.628  1.00  0.00    -0.323 N 
ATOM      3  H2  UNL     1       6.347 -58.558   6.580  1.00  0.00     0.169 HD
HETATM    4  C6  UNL     1       5.582 -58.873   4.666  1.00  0.00     0.180 A 
HETATM    5  C7  UNL     1       5.599 -58.084   3.542  1.00  0.00     0.128 A 
HETATM    6  C8  UNL     1       4.988 -58.583   2.409  1.00  0.00     0.145 A 
HETATM    7  N3  UNL     1       4.939 -57.926   1.312  1.00  0.00    -0.383 N 
ATOM      8  H31 UNL     1       4.488 -58.295   0.475  1.00  0.00     0.157 HD
ATOM      9  H32 UNL     1       5.376 -57.004   1.284  1.00  0.00     0.157 HD
HETATM   10  N4  UNL     1       4.403 -59.820   2.447  1.00  0.00    -0.173 N 
ATOM     11  H4  UNL     1       3.951 -60.190   1.610  1.00  0.00     0.186 HD
HETATM   12  C9  UNL     1       4.416 -60.545   3.567  1.00  0.00     0.702 A 
HETATM   13  N6  UNL     1       4.993 -60.110   4.695  1.00  0.00    -0.048 N 
HETATM   14  N8  UNL     1       6.265 -56.911   3.861  1.00  0.00    -0.324 N 
ENDROOT
BRANCH   1  15
HETATM   15  C4  UNL     1       7.335 -56.076   6.031  1.00  0.00     0.130 C 
HETATM   16  C3  UNL     1       8.559 -55.681   5.926  1.00  0.00     0.113 C 
BRANCH  16  17
HETATM   17  C2  UNL     1       9.274 -54.760   6.780  1.00  0.00     0.292 C 
HETATM   18  O3  UNL     1       9.200 -53.536   6.701  1.00  0.00    -0.260 OA
BRANCH  17  19
HETATM   19  O2  UNL     1      10.136 -55.237   7.798  1.00  0.00    -0.237 OA
BRANCH  19  20
HETATM   20  C1  UNL     1      11.258 -54.529   8.150  1.00  0.00     0.263 C 
HETATM   21  N1  UNL     1      12.121 -54.241   7.247  1.00  0.00    -0.359 N 
ATOM     22  H12 UNL     1      12.954 -53.714   7.508  1.00  0.00     0.160 HD
ATOM     23  H11 UNL     1      11.937 -54.552   6.293  1.00  0.00     0.160 HD
BRANCH  20  24
HETATM   24  O1  UNL     1      11.509 -54.103   9.454  1.00  0.00    -0.327 OA
ATOM     25  H1  UNL     1      11.578 -54.764  10.133  1.00  0.00     0.221 HD
ENDBRANCH  20  24
ENDBRANCH  19  20
ENDBRANCH  17  19
ENDBRANCH  16  17
BRANCH  15  26
HETATM   26  S1  UNL     1       6.405 -55.455   7.413  1.00  0.00     0.141 S 
HETATM   27  O6  UNL     1       6.855 -55.983   8.714  1.00  0.00    -0.591 OA
HETATM   28  O7  UNL     1       4.958 -55.976   7.194  1.00  0.00    -0.591 OA
HETATM   29  O8  UNL     1       6.271 -53.818   7.373  1.00  0.00    -0.591 OA
ENDBRANCH  15  26
ENDBRANCH   1  15
BRANCH  14  30
HETATM   30  C10 UNL     1       6.449 -55.902   2.866  1.00  0.00     0.157 C 
BRANCH  30  31
HETATM   31  C11 UNL     1       7.729 -55.917   2.107  1.00  0.00     0.184 C 
BRANCH  31  32
HETATM   32  O5  UNL     1       7.723 -56.494   0.866  1.00  0.00    -0.399 OA
ATOM     33  H5  UNL     1       7.413 -55.967   0.139  1.00  0.00     0.209 HD
ENDBRANCH  31  32
ENDBRANCH  30  31
ENDBRANCH  14  30
BRANCH  13  34
HETATM   34  N7  UNL     1       4.997 -60.884   5.859  1.00  0.00    -0.187 N 
ATOM     35  H7  UNL     1       5.695 -61.609   6.021  1.00  0.00     0.217 HD
BRANCH  34  36
HETATM   36  O4  UNL     1       4.094 -60.638   6.695  1.00  0.00    -0.273 OA
ATOM     37  H4  UNL     1       3.787 -61.373   7.212  1.00  0.00     0.246 HD
ENDBRANCH  34  36
ENDBRANCH  13  34
BRANCH  12  38
HETATM   38  N5  UNL     1       3.857 -61.719   3.595  1.00  0.00    -0.233 N 
ATOM     39  H52 UNL     1       3.510 -62.051   4.494  1.00  0.00     0.174 HD
ATOM     40  H51 UNL     1       3.777 -62.271   2.741  1.00  0.00     0.174 HD
ENDBRANCH  12  38
TORSDOF 12
ENDMDL
MODEL 5
REMARK VINA RESULT: -7.114843644      2.410      2.814
REMARK  12 active torsions:
REMARK  status: ('A' for Active; 'I' for Inactive)
REMARK    1  A    between atoms: C1_4  and  O1_5 
REMARK    2  A    between atoms: C1_4  and  O2_7 
REMARK    3  A    between atoms: O2_7  and  C2_8 
REMARK    4  A    between atoms: C2_8  and  C3_10 
REMARK    5  A    between atoms: C4_11  and  C5_12 
REMARK    6  A    between atoms: C4_11  and  S1_37 
REMARK    7  A    between atoms: C9_23  and  N5_24 
REMARK    8  A    between atoms: N6_27  and  N7_28 
REMARK    9  A    between atoms: N7_28  and  O4_30 
REMARK   10  A    between atoms: N8_32  and  C10_33 
REMARK   11  A    between atoms: C10_33  and  C11_34 
REMARK   12  A    between atoms: C11_34  and  O5_35 
ROOT
HETATM    1  C5  UNL     1       9.004 -54.354   6.526  1.00  0.00     0.134 A 
HETATM    2  N2  UNL     1       9.772 -54.520   7.661  1.00  0.00    -0.323 N 
ATOM      3  H2  UNL     1       9.414 -54.594   8.614  1.00  0.00     0.169 HD
HETATM    4  C6  UNL     1      11.044 -54.567   7.314  1.00  0.00     0.180 A 
HETATM    5  C7  UNL     1      11.112 -54.433   5.949  1.00  0.00     0.128 A 
HETATM    6  C8  UNL     1      12.366 -54.462   5.372  1.00  0.00     0.145 A 
HETATM    7  N3  UNL     1      12.541 -54.355   4.109  1.00  0.00    -0.383 N 
ATOM      8  H31 UNL     1      13.467 -54.377   3.683  1.00  0.00     0.157 HD
ATOM      9  H32 UNL     1      11.718 -54.238   3.518  1.00  0.00     0.157 HD
HETATM   10  N4  UNL     1      13.471 -54.619   6.165  1.00  0.00    -0.173 N 
ATOM     11  H4  UNL     1      14.398 -54.640   5.741  1.00  0.00     0.186 HD
HETATM   12  C9  UNL     1      13.346 -54.744   7.488  1.00  0.00     0.702 A 
HETATM   13  N6  UNL     1      12.155 -54.724   8.101  1.00  0.00    -0.048 N 
HETATM   14  N8  UNL     1       9.817 -54.299   5.473  1.00  0.00    -0.324 N 
ENDROOT
BRANCH   1  15
HETATM   15  C4  UNL     1       7.544 -54.295   6.651  1.00  0.00     0.130 C 
HETATM   16  C3  UNL     1       6.747 -53.497   6.025  1.00  0.00     0.113 C 
BRANCH  16  17
HETATM   17  C2  UNL     1       5.306 -53.425   6.115  1.00  0.00     0.292 C 
HETATM   18  O3  UNL     1       4.693 -52.759   6.947  1.00  0.00    -0.260 OA
BRANCH  17  19
HETATM   19  O2  UNL     1       4.486 -54.147   5.214  1.00  0.00    -0.237 OA
BRANCH  19  20
HETATM   20  C1  UNL     1       5.018 -54.693   4.073  1.00  0.00     0.263 C 
HETATM   21  N1  UNL     1       5.030 -53.997   2.997  1.00  0.00    -0.359 N 
ATOM     22  H12 UNL     1       5.426 -54.403   2.148  1.00  0.00     0.160 HD
ATOM     23  H11 UNL     1       4.641 -53.055   3.032  1.00  0.00     0.160 HD
BRANCH  20  24
HETATM   24  O1  UNL     1       5.550 -55.982   4.025  1.00  0.00    -0.327 OA
ATOM     25  H1  UNL     1       4.948 -56.715   4.077  1.00  0.00     0.221 HD
ENDBRANCH  20  24
ENDBRANCH  19  20
ENDBRANCH  17  19
ENDBRANCH  16  17
BRANCH  15  26
HETATM   26  S1  UNL     1       6.806 -55.431   7.802  1.00  0.00     0.141 S 
HETATM   27  O6  UNL     1       6.214 -54.775   8.983  1.00  0.00    -0.591 OA
HETATM   28  O7  UNL     1       7.981 -56.307   8.317  1.00  0.00    -0.591 OA
HETATM   29  O8  UNL     1       5.794 -56.486   7.054  1.00  0.00    -0.591 OA
ENDBRANCH  15  26
ENDBRANCH   1  15
BRANCH  14  30
HETATM   30  C10 UNL     1       9.586 -54.124   4.074  1.00  0.00     0.157 C 
BRANCH  30  31
HETATM   31  C11 UNL     1       9.008 -55.275   3.329  1.00  0.00     0.184 C 
BRANCH  31  32
HETATM   32  O5  UNL     1       7.972 -55.019   2.472  1.00  0.00    -0.399 OA
ATOM     33  H5  UNL     1       8.071 -54.293   1.869  1.00  0.00     0.209 HD
ENDBRANCH  31  32
ENDBRANCH  30  31
ENDBRANCH  14  30
BRANCH  13  34
HETATM   34  N7  UNL     1      12.044 -54.857   9.488  1.00  0.00    -0.187 N 
ATOM     35  H7  UNL     1      12.163 -55.757   9.953  1.00  0.00     0.217 HD
BRANCH  34  36
HETATM   36  O4  UNL     1      11.792 -53.810  10.130  1.00  0.00    -0.273 OA
ATOM     37  H4  UNL     1      12.502 -53.452  10.649  1.00  0.00     0.246 HD
ENDBRANCH  34  36
ENDBRANCH  13  34
BRANCH  12  38
HETATM   38  N5  UNL     1      14.401 -54.894   8.235  1.00  0.00    -0.233 N 
ATOM     39  H52 UNL     1      15.140 -54.197   8.146  1.00  0.00     0.174 HD
ATOM     40  H51 UNL     1      14.468 -55.683   8.878  1.00  0.00     0.174 HD
ENDBRANCH  12  38
TORSDOF 12
ENDMDL
