MODEL 1
REMARK VINA RESULT: -7.511390373      0.000      0.000
REMARK  9 active torsions:
REMARK  status: ('A' for Active; 'I' for Inactive)
REMARK    1  A    between atoms: N1_1  and  C1_4 
REMARK    2  A    between atoms: C2_7  and  C3_8 
REMARK    3  A    between atoms: C3_8  and  O1_9 
REMARK    4  A    between atoms: C6_14  and  N4_15 
REMARK    5  A    between atoms: C8_23  and  C9_24 
REMARK    6  A    between atoms: C9_24  and  N7_25 
REMARK    7  A    between atoms: C9_24  and  C10_29 
REMARK    8  A    between atoms: C11_36  and  N12_37 
REMARK    9  A    between atoms: N12_37  and  N13_39 
REMARK       I    between atoms: N14_41  and  C12_43 
ROOT
HETATM    1  C1  UNL     1       7.132 -14.685   2.726  1.00  0.00     0.677 A 
HETATM    2  N2  UNL     1       7.033 -13.777   3.695  1.00  0.00    -0.190 N 
ATOM      3  H2  UNL     1       6.211 -13.173   3.692  1.00  0.00     0.184 HD
HETATM    4  C2  UNL     1       7.961 -13.589   4.708  1.00  0.00     0.096 A 
HETATM    5  C8  UNL     1       9.025 -14.437   4.627  1.00  0.00     0.054 A 
HETATM    6  C11 UNL     1       9.118 -15.406   3.585  1.00  0.00     0.147 A 
HETATM    7  N16 UNL     1       8.177 -15.516   2.656  1.00  0.00    -0.175 N 
ATOM      8  H16 UNL     1       8.249 -16.211   1.913  1.00  0.00     0.186 HD
ENDROOT
BRANCH   4   9
HETATM    9  C3  UNL     1       7.698 -12.647   5.732  1.00  0.00     0.196 C 
HETATM   10  C4  UNL     1       6.802 -11.479   5.549  1.00  0.00     0.199 C 
HETATM   11  N3  UNL     1       6.933 -10.828   6.860  1.00  0.00    -0.320 N 
HETATM   12  C5  UNL     1       6.743  -9.654   7.521  1.00  0.00     0.149 A 
HETATM   13  C7  UNL     1       7.415 -11.699   7.749  1.00  0.00     0.186 A 
HETATM   14  C6  UNL     1       7.111  -9.799   8.837  1.00  0.00     0.192 A 
HETATM   15  N5  UNL     1       7.519 -11.070   8.938  1.00  0.00    -0.308 N 
ATOM     16  H5  UNL     1       7.861 -11.503   9.797  1.00  0.00     0.170 HD
HETATM   17  N6  UNL     1       7.648 -12.980   7.108  1.00  0.00    -0.323 N 
ATOM     18  H6  UNL     1       7.750 -13.897   7.543  1.00  0.00     0.166 HD
BRANCH   9  19
HETATM   19  O1  UNL     1       8.952 -11.851   5.772  1.00  0.00    -0.364 OA
ATOM     20  H1  UNL     1       9.133 -11.794   6.703  1.00  0.00     0.213 HD
ENDBRANCH   9  19
BRANCH  14  21
HETATM   21  N4  UNL     1       7.069  -8.814   9.855  1.00  0.00    -0.096 N 
HETATM   22  O2  UNL     1       6.707  -9.121  11.006  1.00  0.00    -0.530 OA
HETATM   23  O3  UNL     1       7.419  -7.506   9.629  1.00  0.00    -0.530 OA
ENDBRANCH  14  21
ENDBRANCH   4   9
BRANCH   5  24
HETATM   24  C9  UNL     1      10.172 -14.370   5.500  1.00  0.00     0.291 C 
BRANCH  24  25
HETATM   25  N7  UNL     1      11.496 -14.433   5.096  1.00  0.00    -0.064 N 
ATOM     26  H73 UNL     1      11.796 -13.471   4.934  1.00  0.00     0.275 HD
ATOM     27  H72 UNL     1      12.037 -14.708   5.915  1.00  0.00     0.275 HD
ATOM     28  H71 UNL     1      11.850 -14.984   4.314  1.00  0.00     0.275 HD
ENDBRANCH  24  25
BRANCH  24  29
HETATM   29  C10 UNL     1      10.051 -15.596   6.399  1.00  0.00     0.142 A 
HETATM   30  N8  UNL     1       8.947 -16.250   6.743  1.00  0.00    -0.272 N 
HETATM   31  N9  UNL     1       9.322 -17.243   7.537  1.00  0.00    -0.007 NA
ATOM     32  H8  UNL     1       7.994 -16.030   6.453  1.00  0.00     0.185 HD
HETATM   33  N10 UNL     1      10.638 -17.242   7.710  1.00  0.00    -0.007 NA
HETATM   34  N11 UNL     1      11.076 -16.208   6.994  1.00  0.00    -0.272 N 
ATOM     35  H11 UNL     1      12.052 -15.926   6.911  1.00  0.00     0.185 HD
ENDBRANCH  24  29
ENDBRANCH   5  24
BRANCH   1  36
HETATM   36  N1  UNL     1       6.227 -14.811   1.807  1.00  0.00    -0.234 N 
ATOM     37  H12 UNL     1       5.933 -15.761   1.582  1.00  0.00     0.174 HD
ATOM     38  H11 UNL     1       5.826 -14.004   1.330  1.00  0.00     0.174 HD
ENDBRANCH   1  36
BRANCH   6  39
HETATM   39  N12 UNL     1      10.271 -16.275   3.568  1.00  0.00    -0.270 N 
ATOM     40  H12 UNL     1      11.219 -15.911   3.467  1.00  0.00     0.190 HD
BRANCH  39  41
HETATM   41  N13 UNL     1      10.012 -17.655   3.698  1.00  0.00    -0.237 N 
HETATM   42  N14 UNL     1      10.526 -18.330   4.643  1.00  0.00    -0.239 N 
HETATM   43  C12 UNL     1      10.310 -19.711   4.835  1.00  0.00     0.348 C 
ATOM     44  H14 UNL     1      11.132 -17.844   5.303  1.00  0.00     0.193 HD
HETATM   45  N15 UNL     1      10.427 -20.228   6.153  1.00  0.00    -0.038 NA
HETATM   46  O4  UNL     1      10.024 -20.515   3.917  1.00  0.00    -0.249 OA
ATOM     47  H13 UNL     1       9.403 -18.119   3.023  1.00  0.00     0.208 HD
ENDBRANCH  39  41
ENDBRANCH   6  39
TORSDOF 9
ENDMDL
MODEL 2
REMARK VINA RESULT: -7.047908634      1.506      1.866
REMARK  9 active torsions:
REMARK  status: ('A' for Active; 'I' for Inactive)
REMARK    1  A    between atoms: N1_1  and  C1_4 
REMARK    2  A    between atoms: C2_7  and  C3_8 
REMARK    3  A    between atoms: C3_8  and  O1_9 
REMARK    4  A    between atoms: C6_14  and  N4_15 
REMARK    5  A    between atoms: C8_23  and  C9_24 
REMARK    6  A    between atoms: C9_24  and  N7_25 
REMARK    7  A    between atoms: C9_24  and  C10_29 
REMARK    8  A    between atoms: C11_36  and  N12_37 
REMARK    9  A    between atoms: N12_37  and  N13_39 
REMARK       I    between atoms: N14_41  and  C12_43 
ROOT
HETATM    1  C1  UNL     1       8.511 -16.348   2.156  1.00  0.00     0.677 A 
HETATM    2  N2  UNL     1       8.239 -15.373   3.021  1.00  0.00    -0.190 N 
ATOM      3  H2  UNL     1       7.442 -14.771   2.816  1.00  0.00     0.184 HD
HETATM    4  C2  UNL     1       8.956 -15.114   4.179  1.00  0.00     0.096 A 
HETATM    5  C8  UNL     1      10.004 -15.965   4.366  1.00  0.00     0.054 A 
HETATM    6  C11 UNL     1      10.283 -17.007   3.433  1.00  0.00     0.147 A 
HETATM    7  N16 UNL     1       9.538 -17.183   2.348  1.00  0.00    -0.175 N 
ATOM      8  H16 UNL     1       9.742 -17.929   1.684  1.00  0.00     0.186 HD
ENDROOT
BRANCH   4   9
HETATM    9  C3  UNL     1       8.514 -14.100   5.064  1.00  0.00     0.196 C 
HETATM   10  C4  UNL     1       7.615 -12.996   4.648  1.00  0.00     0.199 C 
HETATM   11  N3  UNL     1       7.529 -12.230   5.899  1.00  0.00    -0.320 N 
HETATM   12  C5  UNL     1       7.204 -11.014   6.416  1.00  0.00     0.149 A 
HETATM   13  C7  UNL     1       7.904 -12.998   6.924  1.00  0.00     0.186 A 
HETATM   14  C6  UNL     1       7.379 -11.028   7.779  1.00  0.00     0.192 A 
HETATM   15  N5  UNL     1       7.810 -12.265   8.053  1.00  0.00    -0.308 N 
ATOM     16  H5  UNL     1       8.036 -12.607   8.988  1.00  0.00     0.170 HD
HETATM   17  N6  UNL     1       8.272 -14.317   6.444  1.00  0.00    -0.323 N 
ATOM     18  H6  UNL     1       8.340 -15.188   6.971  1.00  0.00     0.166 HD
BRANCH   9  19
HETATM   19  O1  UNL     1       9.720 -13.247   5.211  1.00  0.00    -0.364 OA
ATOM     20  H1  UNL     1       9.443 -12.601   5.851  1.00  0.00     0.213 HD
ENDBRANCH   9  19
BRANCH  14  21
HETATM   21  N4  UNL     1       7.154  -9.963   8.686  1.00  0.00    -0.096 N 
HETATM   22  O2  UNL     1       6.615  -8.912   8.294  1.00  0.00    -0.530 OA
HETATM   23  O3  UNL     1       7.507 -10.038  10.010  1.00  0.00    -0.530 OA
ENDBRANCH  14  21
ENDBRANCH   4   9
BRANCH   5  24
HETATM   24  C9  UNL     1      10.961 -15.837   5.439  1.00  0.00     0.291 C 
BRANCH  24  25
HETATM   25  N7  UNL     1      12.313 -16.124   5.349  1.00  0.00    -0.064 N 
ATOM     26  H73 UNL     1      12.631 -16.327   6.297  1.00  0.00     0.275 HD
ATOM     27  H72 UNL     1      12.387 -17.029   4.883  1.00  0.00     0.275 HD
ATOM     28  H71 UNL     1      13.020 -15.522   4.927  1.00  0.00     0.275 HD
ENDBRANCH  24  25
BRANCH  24  29
HETATM   29  C10 UNL     1      10.490 -16.823   6.502  1.00  0.00     0.142 A 
HETATM   30  N8  UNL     1       9.260 -17.281   6.704  1.00  0.00    -0.272 N 
HETATM   31  N9  UNL     1       9.325 -18.111   7.736  1.00  0.00    -0.007 NA
ATOM     32  H8  UNL     1       8.426 -17.040   6.169  1.00  0.00     0.185 HD
HETATM   33  N10 UNL     1      10.566 -18.196   8.200  1.00  0.00    -0.007 NA
HETATM   34  N11 UNL     1      11.278 -17.387   7.419  1.00  0.00    -0.272 N 
ATOM     35  H11 UNL     1      12.281 -17.223   7.508  1.00  0.00     0.185 HD
ENDBRANCH  24  29
ENDBRANCH   5  24
BRANCH   1  36
HETATM   36  N1  UNL     1       7.800 -16.539   1.090  1.00  0.00    -0.234 N 
ATOM     37  H12 UNL     1       8.085 -16.031   0.253  1.00  0.00     0.174 HD
ATOM     38  H11 UNL     1       6.995 -17.165   1.082  1.00  0.00     0.174 HD
ENDBRANCH   1  36
BRANCH   6  39
HETATM   39  N12 UNL     1      11.405 -17.875   3.700  1.00  0.00    -0.270 N 
ATOM     40  H12 UNL     1      12.327 -17.704   3.300  1.00  0.00     0.190 HD
BRANCH  39  41
HETATM   41  N13 UNL     1      11.153 -18.974   4.547  1.00  0.00    -0.237 N 
HETATM   42  N14 UNL     1      10.072 -19.634   4.457  1.00  0.00    -0.239 N 
HETATM   43  C12 UNL     1       9.753 -20.743   5.269  1.00  0.00     0.348 C 
ATOM     44  H14 UNL     1       9.392 -19.344   3.754  1.00  0.00     0.193 HD
HETATM   45  N15 UNL     1       8.862 -21.718   4.746  1.00  0.00    -0.038 NA
HETATM   46  O4  UNL     1      10.204 -20.925   6.424  1.00  0.00    -0.249 OA
ATOM     47  H13 UNL     1      11.849 -19.243   5.243  1.00  0.00     0.208 HD
ENDBRANCH  39  41
ENDBRANCH   6  39
TORSDOF 9
ENDMDL
MODEL 3
REMARK VINA RESULT: -6.969832696      2.435      8.202
REMARK  9 active torsions:
REMARK  status: ('A' for Active; 'I' for Inactive)
REMARK    1  A    between atoms: N1_1  and  C1_4 
REMARK    2  A    between atoms: C2_7  and  C3_8 
REMARK    3  A    between atoms: C3_8  and  O1_9 
REMARK    4  A    between atoms: C6_14  and  N4_15 
REMARK    5  A    between atoms: C8_23  and  C9_24 
REMARK    6  A    between atoms: C9_24  and  N7_25 
REMARK    7  A    between atoms: C9_24  and  C10_29 
REMARK    8  A    between atoms: C11_36  and  N12_37 
REMARK    9  A    between atoms: N12_37  and  N13_39 
REMARK       I    between atoms: N14_41  and  C12_43 
ROOT
HETATM    1  C1  UNL     1       6.748 -13.638   3.424  1.00  0.00     0.677 A 
HETATM    2  N2  UNL     1       7.608 -14.556   2.988  1.00  0.00    -0.190 N 
ATOM      3  H2  UNL     1       7.355 -15.077   2.149  1.00  0.00     0.184 HD
HETATM    4  C2  UNL     1       8.822 -14.858   3.587  1.00  0.00     0.096 A 
HETATM    5  C8  UNL     1       9.072 -14.116   4.702  1.00  0.00     0.054 A 
HETATM    6  C11 UNL     1       8.143 -13.134   5.158  1.00  0.00     0.147 A 
HETATM    7  N16 UNL     1       7.002 -12.910   4.517  1.00  0.00    -0.175 N 
ATOM      8  H16 UNL     1       6.341 -12.207   4.847  1.00  0.00     0.186 HD
ENDROOT
BRANCH   4   9
HETATM    9  C3  UNL     1       9.689 -15.796   2.976  1.00  0.00     0.196 C 
HETATM   10  C4  UNL     1      10.856 -15.403   2.149  1.00  0.00     0.199 C 
HETATM   11  N3  UNL     1      11.351 -16.722   1.732  1.00  0.00    -0.320 N 
HETATM   12  C5  UNL     1      12.135 -17.357   0.819  1.00  0.00     0.149 A 
HETATM   13  C7  UNL     1      10.861 -17.663   2.543  1.00  0.00     0.186 A 
HETATM   14  C6  UNL     1      12.132 -18.709   1.066  1.00  0.00     0.192 A 
HETATM   15  N5  UNL     1      11.338 -18.858   2.133  1.00  0.00    -0.308 N 
ATOM     16  H5  UNL     1      11.123 -19.751   2.576  1.00  0.00     0.170 HD
HETATM   17  N6  UNL     1      10.007 -17.055   3.545  1.00  0.00    -0.323 N 
ATOM     18  H6  UNL     1       9.707 -17.440   4.441  1.00  0.00     0.166 HD
BRANCH   9  19
HETATM   19  O1  UNL     1       8.878 -16.298   1.838  1.00  0.00    -0.364 OA
ATOM     20  H1  UNL     1       9.465 -16.915   1.419  1.00  0.00     0.213 HD
ENDBRANCH   9  19
BRANCH  14  21
HETATM   21  N4  UNL     1      12.818 -19.716   0.344  1.00  0.00    -0.096 N 
HETATM   22  O2  UNL     1      12.557 -20.916   0.544  1.00  0.00    -0.530 OA
HETATM   23  O3  UNL     1      13.780 -19.426  -0.592  1.00  0.00    -0.530 OA
ENDBRANCH  14  21
ENDBRANCH   4   9
BRANCH   5  24
HETATM   24  C9  UNL     1      10.216 -14.315   5.559  1.00  0.00     0.291 C 
BRANCH  24  25
HETATM   25  N7  UNL     1      11.518 -14.512   5.130  1.00  0.00    -0.064 N 
ATOM     26  H73 UNL     1      11.471 -15.174   4.355  1.00  0.00     0.275 HD
ATOM     27  H72 UNL     1      11.808 -13.646   4.675  1.00  0.00     0.275 HD
ATOM     28  H71 UNL     1      12.297 -14.807   5.718  1.00  0.00     0.275 HD
ENDBRANCH  24  25
BRANCH  24  29
HETATM   29  C10 UNL     1       9.922 -15.611   6.307  1.00  0.00     0.142 A 
HETATM   30  N8  UNL     1       8.737 -16.131   6.606  1.00  0.00    -0.272 N 
HETATM   31  N9  UNL     1       8.968 -17.260   7.262  1.00  0.00    -0.007 NA
ATOM     32  H8  UNL     1       7.825 -15.737   6.375  1.00  0.00     0.185 HD
HETATM   33  N10 UNL     1      10.272 -17.476   7.391  1.00  0.00    -0.007 NA
HETATM   34  N11 UNL     1      10.851 -16.438   6.790  1.00  0.00    -0.272 N 
ATOM     35  H11 UNL     1      11.858 -16.296   6.710  1.00  0.00     0.185 HD
ENDBRANCH  24  29
ENDBRANCH   5  24
BRANCH   1  36
HETATM   36  N1  UNL     1       5.628 -13.402   2.817  1.00  0.00    -0.234 N 
ATOM     37  H12 UNL     1       5.688 -13.138   1.834  1.00  0.00     0.174 HD
ATOM     38  H11 UNL     1       4.729 -13.477   3.293  1.00  0.00     0.174 HD
ENDBRANCH   1  36
BRANCH   6  39
HETATM   39  N12 UNL     1       8.478 -12.380   6.343  1.00  0.00    -0.270 N 
ATOM     40  H12 UNL     1       9.104 -12.751   7.058  1.00  0.00     0.190 HD
BRANCH  39  41
HETATM   41  N13 UNL     1       7.891 -11.103   6.455  1.00  0.00    -0.237 N 
HETATM   42  N14 UNL     1       7.723 -10.558   7.589  1.00  0.00    -0.239 N 
HETATM   43  C12 UNL     1       7.145  -9.285   7.777  1.00  0.00     0.348 C 
ATOM     44  H14 UNL     1       8.025 -11.073   8.416  1.00  0.00     0.193 HD
HETATM   45  N15 UNL     1       7.511  -8.550   8.935  1.00  0.00    -0.038 NA
HETATM   46  O4  UNL     1       6.326  -8.759   6.986  1.00  0.00    -0.249 OA
ATOM     47  H13 UNL     1       7.597 -10.609   5.612  1.00  0.00     0.208 HD
ENDBRANCH  39  41
ENDBRANCH   6  39
TORSDOF 9
ENDMDL
MODEL 4
REMARK VINA RESULT: -6.808215020      1.234      1.383
REMARK  9 active torsions:
REMARK  status: ('A' for Active; 'I' for Inactive)
REMARK    1  A    between atoms: N1_1  and  C1_4 
REMARK    2  A    between atoms: C2_7  and  C3_8 
REMARK    3  A    between atoms: C3_8  and  O1_9 
REMARK    4  A    between atoms: C6_14  and  N4_15 
REMARK    5  A    between atoms: C8_23  and  C9_24 
REMARK    6  A    between atoms: C9_24  and  N7_25 
REMARK    7  A    between atoms: C9_24  and  C10_29 
REMARK    8  A    between atoms: C11_36  and  N12_37 
REMARK    9  A    between atoms: N12_37  and  N13_39 
REMARK       I    between atoms: N14_41  and  C12_43 
ROOT
HETATM    1  C1  UNL     1       7.486 -15.019   2.541  1.00  0.00     0.677 A 
HETATM    2  N2  UNL     1       7.356 -14.102   3.497  1.00  0.00    -0.190 N 
ATOM      3  H2  UNL     1       6.563 -13.463   3.432  1.00  0.00     0.184 HD
HETATM    4  C2  UNL     1       8.214 -13.948   4.575  1.00  0.00     0.096 A 
HETATM    5  C8  UNL     1       9.244 -14.841   4.575  1.00  0.00     0.054 A 
HETATM    6  C11 UNL     1       9.371 -15.820   3.545  1.00  0.00     0.147 A 
HETATM    7  N16 UNL     1       8.496 -15.895   2.550  1.00  0.00    -0.175 N 
ATOM      8  H16 UNL     1       8.592 -16.597   1.816  1.00  0.00     0.186 HD
ENDROOT
BRANCH   4   9
HETATM    9  C3  UNL     1       7.918 -12.989   5.574  1.00  0.00     0.196 C 
HETATM   10  C4  UNL     1       7.041 -11.816   5.339  1.00  0.00     0.199 C 
HETATM   11  N3  UNL     1       7.124 -11.149   6.645  1.00  0.00    -0.320 N 
HETATM   12  C5  UNL     1       6.917  -9.964   7.281  1.00  0.00     0.149 A 
HETATM   13  C7  UNL     1       7.561 -12.011   7.564  1.00  0.00     0.186 A 
HETATM   14  C6  UNL     1       7.230 -10.093   8.613  1.00  0.00     0.192 A 
HETATM   15  N5  UNL     1       7.621 -11.366   8.749  1.00  0.00    -0.308 N 
ATOM     16  H5  UNL     1       7.923 -11.790   9.626  1.00  0.00     0.170 HD
HETATM   17  N6  UNL     1       7.808 -13.303   6.952  1.00  0.00    -0.323 N 
ATOM     18  H6  UNL     1       7.884 -14.214   7.403  1.00  0.00     0.166 HD
BRANCH   9  19
HETATM   19  O1  UNL     1       9.177 -12.204   5.656  1.00  0.00    -0.364 OA
ATOM     20  H1  UNL     1       8.862 -11.317   5.781  1.00  0.00     0.213 HD
ENDBRANCH   9  19
BRANCH  14  21
HETATM   21  N4  UNL     1       7.155  -9.094   9.616  1.00  0.00    -0.096 N 
HETATM   22  O2  UNL     1       6.851  -9.401  10.782  1.00  0.00    -0.530 OA
HETATM   23  O3  UNL     1       7.409  -7.770   9.355  1.00  0.00    -0.530 OA
ENDBRANCH  14  21
ENDBRANCH   4   9
BRANCH   5  24
HETATM   24  C9  UNL     1      10.326 -14.818   5.530  1.00  0.00     0.291 C 
BRANCH  24  25
HETATM   25  N7  UNL     1      11.674 -14.897   5.220  1.00  0.00    -0.064 N 
ATOM     26  H73 UNL     1      11.743 -15.437   4.357  1.00  0.00     0.275 HD
ATOM     27  H72 UNL     1      11.960 -13.963   4.930  1.00  0.00     0.275 HD
ATOM     28  H71 UNL     1      12.405 -15.246   5.841  1.00  0.00     0.275 HD
ENDBRANCH  24  25
BRANCH  24  29
HETATM   29  C10 UNL     1      10.117 -16.063   6.386  1.00  0.00     0.142 A 
HETATM   30  N8  UNL     1       8.971 -16.659   6.695  1.00  0.00    -0.272 N 
HETATM   31  N9  UNL     1       9.274 -17.698   7.460  1.00  0.00    -0.007 NA
ATOM     32  H8  UNL     1       8.038 -16.371   6.400  1.00  0.00     0.185 HD
HETATM   33  N10 UNL     1      10.585 -17.783   7.649  1.00  0.00    -0.007 NA
HETATM   34  N11 UNL     1      11.095 -16.756   6.972  1.00  0.00    -0.272 N 
ATOM     35  H11 UNL     1      12.088 -16.532   6.911  1.00  0.00     0.185 HD
ENDBRANCH  24  29
ENDBRANCH   5  24
BRANCH   1  36
HETATM   36  N1  UNL     1       6.647 -15.111   1.558  1.00  0.00    -0.234 N 
ATOM     37  H12 UNL     1       7.021 -14.958   0.621  1.00  0.00     0.174 HD
ATOM     38  H11 UNL     1       5.662 -15.327   1.707  1.00  0.00     0.174 HD
ENDBRANCH   1  36
BRANCH   6  39
HETATM   39  N12 UNL     1      10.484 -16.738   3.615  1.00  0.00    -0.270 N 
ATOM     40  H12 UNL     1      11.350 -16.498   4.097  1.00  0.00     0.190 HD
BRANCH  39  41
HETATM   41  N13 UNL     1      10.304 -17.983   2.979  1.00  0.00    -0.237 N 
HETATM   42  N14 UNL     1      11.165 -18.428   2.158  1.00  0.00    -0.239 N 
HETATM   43  C12 UNL     1      11.051 -19.663   1.486  1.00  0.00     0.348 C 
ATOM     44  H14 UNL     1      11.989 -17.856   1.974  1.00  0.00     0.193 HD
HETATM   45  N15 UNL     1      12.246 -20.313   1.077  1.00  0.00    -0.038 NA
HETATM   46  O4  UNL     1       9.962 -20.227   1.225  1.00  0.00    -0.249 OA
ATOM     47  H13 UNL     1       9.470 -18.535   3.180  1.00  0.00     0.208 HD
ENDBRANCH  39  41
ENDBRANCH   6  39
TORSDOF 9
ENDMDL
MODEL 5
REMARK VINA RESULT: -6.591508641      1.868      2.145
REMARK  9 active torsions:
REMARK  status: ('A' for Active; 'I' for Inactive)
REMARK    1  A    between atoms: N1_1  and  C1_4 
REMARK    2  A    between atoms: C2_7  and  C3_8 
REMARK    3  A    between atoms: C3_8  and  O1_9 
REMARK    4  A    between atoms: C6_14  and  N4_15 
REMARK    5  A    between atoms: C8_23  and  C9_24 
REMARK    6  A    between atoms: C9_24  and  N7_25 
REMARK    7  A    between atoms: C9_24  and  C10_29 
REMARK    8  A    between atoms: C11_36  and  N12_37 
REMARK    9  A    between atoms: N12_37  and  N13_39 
REMARK       I    between atoms: N14_41  and  C12_43 
ROOT
HETATM    1  C1  UNL     1       7.822 -15.307   2.453  1.00  0.00     0.677 A 
HETATM    2  N2  UNL     1       7.650 -14.389   3.402  1.00  0.00    -0.190 N 
ATOM      3  H2  UNL     1       6.867 -13.744   3.296  1.00  0.00     0.184 HD
HETATM    4  C2  UNL     1       8.453 -14.242   4.522  1.00  0.00     0.096 A 
HETATM    5  C8  UNL     1       9.474 -15.145   4.575  1.00  0.00     0.054 A 
HETATM    6  C11 UNL     1       9.645 -16.124   3.553  1.00  0.00     0.147 A 
HETATM    7  N16 UNL     1       8.823 -16.192   2.514  1.00  0.00    -0.175 N 
ATOM      8  H16 UNL     1       8.950 -16.894   1.785  1.00  0.00     0.186 HD
ENDROOT
BRANCH   4   9
HETATM    9  C3  UNL     1       8.114 -13.281   5.506  1.00  0.00     0.196 C 
HETATM   10  C4  UNL     1       7.266 -12.097   5.224  1.00  0.00     0.199 C 
HETATM   11  N3  UNL     1       7.285 -11.432   6.534  1.00  0.00    -0.320 N 
HETATM   12  C5  UNL     1       7.058 -10.246   7.161  1.00  0.00     0.149 A 
HETATM   13  C7  UNL     1       7.659 -12.302   7.475  1.00  0.00     0.186 A 
HETATM   14  C6  UNL     1       7.295 -10.380   8.508  1.00  0.00     0.192 A 
HETATM   15  N5  UNL     1       7.662 -11.659   8.662  1.00  0.00    -0.308 N 
ATOM     16  H5  UNL     1       7.909 -12.088   9.554  1.00  0.00     0.170 HD
HETATM   17  N6  UNL     1       7.923 -13.595   6.875  1.00  0.00    -0.323 N 
ATOM     18  H6  UNL     1       7.962 -14.509   7.327  1.00  0.00     0.166 HD
BRANCH   9  19
HETATM   19  O1  UNL     1       9.376 -12.513   5.659  1.00  0.00    -0.364 OA
ATOM     20  H1  UNL     1       9.521 -12.174   4.783  1.00  0.00     0.213 HD
ENDBRANCH   9  19
BRANCH  14  21
HETATM   21  N4  UNL     1       7.177  -9.382   9.506  1.00  0.00    -0.096 N 
HETATM   22  O2  UNL     1       6.854  -9.694  10.667  1.00  0.00    -0.530 OA
HETATM   23  O3  UNL     1       7.409  -8.054   9.249  1.00  0.00    -0.530 OA
ENDBRANCH  14  21
ENDBRANCH   4   9
BRANCH   5  24
HETATM   24  C9  UNL     1      10.505 -15.131   5.585  1.00  0.00     0.291 C 
BRANCH  24  25
HETATM   25  N7  UNL     1      11.864 -15.256   5.348  1.00  0.00    -0.064 N 
ATOM     26  H73 UNL     1      12.338 -14.801   6.129  1.00  0.00     0.275 HD
ATOM     27  H72 UNL     1      12.093 -16.240   5.482  1.00  0.00     0.275 HD
ATOM     28  H71 UNL     1      12.347 -14.957   4.500  1.00  0.00     0.275 HD
ENDBRANCH  24  25
BRANCH  24  29
HETATM   29  C10 UNL     1      10.215 -16.350   6.455  1.00  0.00     0.142 A 
HETATM   30  N8  UNL     1       9.038 -16.908   6.712  1.00  0.00    -0.272 N 
HETATM   31  N9  UNL     1       9.270 -17.938   7.515  1.00  0.00    -0.007 NA
ATOM     32  H8  UNL     1       8.130 -16.603   6.360  1.00  0.00     0.185 HD
HETATM   33  N10 UNL     1      10.566 -18.053   7.778  1.00  0.00    -0.007 NA
HETATM   34  N11 UNL     1      11.140 -17.055   7.109  1.00  0.00    -0.272 N 
ATOM     35  H11 UNL     1      12.141 -16.859   7.098  1.00  0.00     0.185 HD
ENDBRANCH  24  29
ENDBRANCH   5  24
BRANCH   1  36
HETATM   36  N1  UNL     1       7.034 -15.392   1.428  1.00  0.00    -0.234 N 
ATOM     37  H12 UNL     1       6.228 -14.767   1.418  1.00  0.00     0.174 HD
ATOM     38  H11 UNL     1       7.205 -16.048   0.667  1.00  0.00     0.174 HD
ENDBRANCH   1  36
BRANCH   6  39
HETATM   39  N12 UNL     1      10.745 -17.052   3.680  1.00  0.00    -0.270 N 
ATOM     40  H12 UNL     1      11.056 -17.398   4.587  1.00  0.00     0.190 HD
BRANCH  39  41
HETATM   41  N13 UNL     1      11.364 -17.450   2.477  1.00  0.00    -0.237 N 
HETATM   42  N14 UNL     1      12.468 -16.940   2.111  1.00  0.00    -0.239 N 
HETATM   43  C12 UNL     1      13.144 -17.290   0.923  1.00  0.00     0.348 C 
ATOM     44  H14 UNL     1      12.891 -16.234   2.712  1.00  0.00     0.193 HD
HETATM   45  N15 UNL     1      14.554 -17.127   0.885  1.00  0.00    -0.038 NA
HETATM   46  O4  UNL     1      12.580 -17.736  -0.105  1.00  0.00    -0.249 OA
ATOM     47  H13 UNL     1      10.919 -18.158   1.893  1.00  0.00     0.208 HD
ENDBRANCH  39  41
ENDBRANCH   6  39
TORSDOF 9
ENDMDL
