MODEL 1
REMARK VINA RESULT: -8.071945063      0.000      0.000
REMARK  8 active torsions:
REMARK  status: ('A' for Active; 'I' for Inactive)
REMARK    1  A    between atoms: N1_1  and  C1_4 
REMARK    2  A    between atoms: N3_8  and  C3_9 
REMARK    3  A    between atoms: C3_9  and  N4_10 
REMARK    4  A    between atoms: N4_10  and  C4_12 
REMARK    5  A    between atoms: C5_17  and  C6_18 
REMARK       I    between atoms: C6_18  and  N7_20 
REMARK    6  A    between atoms: N7_20  and  C7_22 
REMARK    7  A    between atoms: C7_22  and  C8_23 
REMARK    8  A    between atoms: N8_25  and  C10_26 
ROOT
HETATM    1  C4  UNL     1       4.977  -6.328   5.709  1.00  0.00     0.152 C 
HETATM    2  N5  UNL     1       4.240  -7.435   5.596  1.00  0.00    -0.283 N 
ATOM      3  H5  UNL     1       4.017  -7.825   6.511  1.00  0.00     0.188 HD
HETATM    4  N6  UNL     1       3.713  -8.177   4.608  1.00  0.00    -0.293 N 
ATOM      5  H6  UNL     1       3.033  -8.870   4.922  1.00  0.00     0.187 HD
HETATM    6  C5  UNL     1       3.922  -8.169   3.267  1.00  0.00     0.131 C 
HETATM    7  C13 UNL     1       4.106  -7.143   2.360  1.00  0.00     0.126 C 
HETATM    8  N14 UNL     1       4.822  -5.980   2.362  1.00  0.00    -0.348 N 
ATOM      9  H14 UNL     1       5.072  -5.656   1.427  1.00  0.00     0.167 HD
HETATM   10  C14 UNL     1       5.263  -5.177   3.339  1.00  0.00     0.137 A 
HETATM   11  N15 UNL     1       5.766  -4.209   4.193  1.00  0.00    -0.334 N 
ATOM     12  H15 UNL     1       6.181  -3.283   4.296  1.00  0.00     0.168 HD
HETATM   13  C15 UNL     1       5.320  -5.353   4.803  1.00  0.00     0.124 A 
ENDROOT
BRANCH   6  14
HETATM   14  C6  UNL     1       3.943  -9.484   2.671  1.00  0.00     0.271 C 
HETATM   15  O1  UNL     1       3.220  -9.710   1.672  1.00  0.00    -0.266 OA
HETATM   16  N7  UNL     1       4.746 -10.510   3.182  1.00  0.00    -0.350 N 
ATOM     17  H7  UNL     1       5.333 -10.330   3.997  1.00  0.00     0.163 HD
BRANCH  16  18
HETATM   18  C7  UNL     1       4.757 -11.835   2.569  1.00  0.00     0.183 C 
BRANCH  18  19
HETATM   19  C8  UNL     1       5.846 -12.605   3.206  1.00  0.00     0.062 A 
HETATM   20  C9  UNL     1       6.339 -12.412   4.466  1.00  0.00     0.142 A 
HETATM   21  N8  UNL     1       7.311 -13.325   4.631  1.00  0.00    -0.262 N 
HETATM   22  N12 UNL     1       7.432 -14.059   3.541  1.00  0.00    -0.239 N 
HETATM   23  N13 UNL     1       6.539 -13.629   2.656  1.00  0.00    -0.287 N 
ATOM     24  H12 UNL     1       8.095 -14.822   3.402  1.00  0.00     0.208 HD
ATOM     25  H13 UNL     1       6.398 -14.008   1.719  1.00  0.00     0.188 HD
BRANCH  21  26
HETATM   26  C10 UNL     1       8.133 -13.517   5.814  1.00  0.00     0.223 C 
HETATM   27  C11 UNL     1       9.605 -13.556   5.461  1.00  0.00     0.183 C 
HETATM   28  N9  UNL     1       9.952 -14.892   5.091  1.00  0.00    -0.137 NA
HETATM   29  N10 UNL     1       9.685 -15.795   6.127  1.00  0.00    -0.300 N 
HETATM   30  C12 UNL     1       8.371 -15.750   6.677  1.00  0.00     0.191 C 
ATOM     31  H10 UNL     1      10.391 -16.448   6.468  1.00  0.00     0.183 HD
HETATM   32  N11 UNL     1       7.682 -14.682   6.513  1.00  0.00    -0.361 N 
ATOM     33  H11 UNL     1       6.743 -14.660   6.911  1.00  0.00     0.162 HD
ENDBRANCH  21  26
ENDBRANCH  18  19
ENDBRANCH  16  18
ENDBRANCH   6  14
BRANCH   1  34
HETATM   34  N4  UNL     1       5.481  -6.136   7.006  1.00  0.00    -0.333 N 
ATOM     35  H4  UNL     1       4.819  -5.770   7.690  1.00  0.00     0.168 HD
BRANCH  34  36
HETATM   36  C3  UNL     1       6.796  -6.386   7.489  1.00  0.00     0.228 C 
BRANCH  36  37
HETATM   37  N3  UNL     1       7.091  -7.749   7.844  1.00  0.00    -0.191 N 
HETATM   38  N2  UNL     1       7.433  -8.735   7.053  1.00  0.00    -0.286 N 
HETATM   39  C2  UNL     1       7.631  -9.866   7.735  1.00  0.00     0.158 A 
ATOM     40  H2  UNL     1       7.535  -8.650   6.041  1.00  0.00     0.188 HD
HETATM   41  C1  UNL     1       7.391  -9.546   9.054  1.00  0.00     0.132 A 
HETATM   42  N16 UNL     1       7.067  -8.251   9.071  1.00  0.00    -0.263 N 
ATOM     43  H16 UNL     1       6.835  -7.721   9.910  1.00  0.00     0.191 HD
BRANCH  41  44
HETATM   44  N1  UNL     1       7.456 -10.309  10.095  1.00  0.00    -0.383 N 
ATOM     45  H12 UNL     1       6.679 -10.846  10.478  1.00  0.00     0.157 HD
ATOM     46  H11 UNL     1       8.258 -10.500  10.696  1.00  0.00     0.157 HD
ENDBRANCH  41  44
ENDBRANCH  36  37
ENDBRANCH  34  36
ENDBRANCH   1  34
TORSDOF 8
ENDMDL
MODEL 2
REMARK VINA RESULT: -7.969096933      3.950      6.752
REMARK  8 active torsions:
REMARK  status: ('A' for Active; 'I' for Inactive)
REMARK    1  A    between atoms: N1_1  and  C1_4 
REMARK    2  A    between atoms: N3_8  and  C3_9 
REMARK    3  A    between atoms: C3_9  and  N4_10 
REMARK    4  A    between atoms: N4_10  and  C4_12 
REMARK    5  A    between atoms: C5_17  and  C6_18 
REMARK       I    between atoms: C6_18  and  N7_20 
REMARK    6  A    between atoms: N7_20  and  C7_22 
REMARK    7  A    between atoms: C7_22  and  C8_23 
REMARK    8  A    between atoms: N8_25  and  C10_26 
ROOT
HETATM    1  C4  UNL     1       6.836 -11.426   7.097  1.00  0.00     0.152 C 
HETATM    2  N5  UNL     1       7.398 -12.447   7.748  1.00  0.00    -0.283 N 
ATOM      3  H5  UNL     1       7.510 -12.236   8.740  1.00  0.00     0.188 HD
HETATM    4  N6  UNL     1       7.856 -13.676   7.457  1.00  0.00    -0.293 N 
ATOM      5  H6  UNL     1       8.051 -14.255   8.274  1.00  0.00     0.187 HD
HETATM    6  C5  UNL     1       8.106 -14.285   6.270  1.00  0.00     0.131 C 
HETATM    7  C13 UNL     1       7.435 -14.279   5.062  1.00  0.00     0.126 C 
HETATM    8  N14 UNL     1       6.827 -13.316   4.309  1.00  0.00    -0.348 N 
ATOM      9  H14 UNL     1       6.787 -13.545   3.315  1.00  0.00     0.167 HD
HETATM   10  C14 UNL     1       6.273 -12.134   4.606  1.00  0.00     0.137 A 
HETATM   11  N15 UNL     1       5.625 -10.914   4.714  1.00  0.00    -0.334 N 
ATOM     12  H15 UNL     1       5.049 -10.202   4.264  1.00  0.00     0.168 HD
HETATM   13  C15 UNL     1       6.292 -11.324   5.840  1.00  0.00     0.124 A 
ENDROOT
BRANCH   6  14
HETATM   14  C6  UNL     1       9.293 -15.106   6.273  1.00  0.00     0.271 C 
HETATM   15  O1  UNL     1      10.410 -14.561   6.117  1.00  0.00    -0.266 OA
HETATM   16  N7  UNL     1       9.225 -16.495   6.442  1.00  0.00    -0.350 N 
ATOM     17  H7  UNL     1       8.316 -16.941   6.567  1.00  0.00     0.163 HD
BRANCH  16  18
HETATM   18  C7  UNL     1      10.433 -17.314   6.443  1.00  0.00     0.183 C 
BRANCH  18  19
HETATM   19  C8  UNL     1      10.515 -17.980   5.127  1.00  0.00     0.062 A 
HETATM   20  C9  UNL     1      10.940 -17.408   3.960  1.00  0.00     0.142 A 
HETATM   21  N8  UNL     1      10.852 -18.366   3.021  1.00  0.00    -0.262 N 
HETATM   22  N12 UNL     1      10.397 -19.484   3.556  1.00  0.00    -0.239 N 
HETATM   23  N13 UNL     1      10.185 -19.263   4.849  1.00  0.00    -0.287 N 
ATOM     24  H12 UNL     1      10.237 -20.362   3.063  1.00  0.00     0.208 HD
ATOM     25  H13 UNL     1       9.834 -19.946   5.520  1.00  0.00     0.188 HD
BRANCH  21  26
HETATM   26  C10 UNL     1      11.195 -18.240   1.615  1.00  0.00     0.223 C 
HETATM   27  C11 UNL     1      11.162 -19.583   0.917  1.00  0.00     0.183 C 
HETATM   28  N9  UNL     1      12.428 -20.223   1.095  1.00  0.00    -0.137 NA
HETATM   29  N10 UNL     1      13.471 -19.444   0.581  1.00  0.00    -0.300 N 
HETATM   30  C12 UNL     1      13.523 -18.091   1.026  1.00  0.00     0.191 C 
ATOM     31  H10 UNL     1      14.154 -19.822  -0.075  1.00  0.00     0.183 HD
HETATM   32  N11 UNL     1      12.453 -17.566   1.498  1.00  0.00    -0.361 N 
ATOM     33  H11 UNL     1      12.501 -16.598   1.814  1.00  0.00     0.162 HD
ENDBRANCH  21  26
ENDBRANCH  18  19
ENDBRANCH  16  18
ENDBRANCH   6  14
BRANCH   1  34
HETATM   34  N4  UNL     1       6.795 -10.247   7.859  1.00  0.00    -0.333 N 
ATOM     35  H4  UNL     1       6.148 -10.249   8.647  1.00  0.00     0.168 HD
BRANCH  34  36
HETATM   36  C3  UNL     1       7.541  -9.049   7.673  1.00  0.00     0.228 C 
BRANCH  36  37
HETATM   37  N3  UNL     1       6.811  -7.923   7.154  1.00  0.00    -0.191 N 
HETATM   38  N2  UNL     1       7.213  -6.682   7.039  1.00  0.00    -0.286 N 
HETATM   39  C2  UNL     1       6.262  -5.905   6.512  1.00  0.00     0.158 A 
ATOM     40  H2  UNL     1       8.137  -6.350   7.316  1.00  0.00     0.188 HD
HETATM   41  C1  UNL     1       5.188  -6.739   6.287  1.00  0.00     0.132 A 
HETATM   42  N16 UNL     1       5.569  -7.954   6.692  1.00  0.00    -0.263 N 
ATOM     43  H16 UNL     1       4.985  -8.789   6.650  1.00  0.00     0.191 HD
BRANCH  41  44
HETATM   44  N1  UNL     1       4.033  -6.452   5.786  1.00  0.00    -0.383 N 
ATOM     45  H12 UNL     1       3.511  -7.043   5.139  1.00  0.00     0.157 HD
ATOM     46  H11 UNL     1       3.461  -5.620   5.936  1.00  0.00     0.157 HD
ENDBRANCH  41  44
ENDBRANCH  36  37
ENDBRANCH  34  36
ENDBRANCH   1  34
TORSDOF 8
ENDMDL
MODEL 3
REMARK VINA RESULT: -7.914780447      2.318      5.187
REMARK  8 active torsions:
REMARK  status: ('A' for Active; 'I' for Inactive)
REMARK    1  A    between atoms: N1_1  and  C1_4 
REMARK    2  A    between atoms: N3_8  and  C3_9 
REMARK    3  A    between atoms: C3_9  and  N4_10 
REMARK    4  A    between atoms: N4_10  and  C4_12 
REMARK    5  A    between atoms: C5_17  and  C6_18 
REMARK       I    between atoms: C6_18  and  N7_20 
REMARK    6  A    between atoms: N7_20  and  C7_22 
REMARK    7  A    between atoms: C7_22  and  C8_23 
REMARK    8  A    between atoms: N8_25  and  C10_26 
ROOT
HETATM    1  C4  UNL     1       7.066  -7.355   8.144  1.00  0.00     0.152 C 
HETATM    2  N5  UNL     1       7.412  -8.011   7.034  1.00  0.00    -0.283 N 
ATOM      3  H5  UNL     1       7.485  -7.379   6.238  1.00  0.00     0.188 HD
HETATM    4  N6  UNL     1       7.690  -9.277   6.679  1.00  0.00    -0.293 N 
ATOM      5  H6  UNL     1       8.108  -9.369   5.752  1.00  0.00     0.187 HD
HETATM    6  C5  UNL     1       7.514 -10.454   7.330  1.00  0.00     0.131 C 
HETATM    7  C13 UNL     1       7.681 -10.819   8.653  1.00  0.00     0.126 C 
HETATM    8  N14 UNL     1       7.375 -10.241   9.852  1.00  0.00    -0.348 N 
ATOM      9  H14 UNL     1       7.256 -10.916  10.608  1.00  0.00     0.167 HD
HETATM   10  C14 UNL     1       7.199  -8.972  10.239  1.00  0.00     0.137 A 
HETATM   11  N15 UNL     1       7.019  -7.736  10.838  1.00  0.00    -0.334 N 
ATOM     12  H15 UNL     1       6.919  -7.204  11.703  1.00  0.00     0.168 HD
HETATM   13  C15 UNL     1       7.066  -7.720   9.468  1.00  0.00     0.124 A 
ENDROOT
BRANCH   6  14
HETATM   14  C6  UNL     1       7.084 -11.536   6.478  1.00  0.00     0.271 C 
HETATM   15  O1  UNL     1       5.859 -11.685   6.256  1.00  0.00    -0.266 OA
HETATM   16  N7  UNL     1       7.998 -12.424   5.898  1.00  0.00    -0.350 N 
ATOM     17  H7  UNL     1       8.995 -12.306   6.079  1.00  0.00     0.163 HD
BRANCH  16  18
HETATM   18  C7  UNL     1       7.549 -13.514   5.038  1.00  0.00     0.183 C 
BRANCH  18  19
HETATM   19  C8  UNL     1       8.488 -14.639   5.226  1.00  0.00     0.062 A 
HETATM   20  C9  UNL     1       8.504 -15.507   6.281  1.00  0.00     0.142 A 
HETATM   21  N8  UNL     1       9.513 -16.363   6.046  1.00  0.00    -0.262 N 
HETATM   22  N12 UNL     1      10.107 -16.061   4.907  1.00  0.00    -0.239 N 
HETATM   23  N13 UNL     1       9.489 -15.003   4.390  1.00  0.00    -0.287 N 
ATOM     24  H12 UNL     1      10.901 -16.552   4.496  1.00  0.00     0.208 HD
ATOM     25  H13 UNL     1       9.728 -14.544   3.511  1.00  0.00     0.188 HD
BRANCH  21  26
HETATM   26  C10 UNL     1       9.926 -17.474   6.887  1.00  0.00     0.223 C 
HETATM   27  C11 UNL     1      11.392 -17.372   7.252  1.00  0.00     0.183 C 
HETATM   28  N9  UNL     1      12.165 -17.970   6.208  1.00  0.00    -0.137 NA
HETATM   29  N10 UNL     1      11.812 -19.310   6.014  1.00  0.00    -0.300 N 
HETATM   30  C12 UNL     1      10.424 -19.574   5.827  1.00  0.00     0.191 C 
ATOM     31  H10 UNL     1      12.509 -20.056   6.007  1.00  0.00     0.183 HD
HETATM   32  N11 UNL     1       9.580 -18.704   6.242  1.00  0.00    -0.361 N 
ATOM     33  H11 UNL     1       8.590 -18.903   6.104  1.00  0.00     0.162 HD
ENDBRANCH  21  26
ENDBRANCH  18  19
ENDBRANCH  16  18
ENDBRANCH   6  14
BRANCH   1  34
HETATM   34  N4  UNL     1       6.630  -6.044   7.890  1.00  0.00    -0.333 N 
ATOM     35  H4  UNL     1       6.422  -5.478   8.712  1.00  0.00     0.168 HD
BRANCH  34  36
HETATM   36  C3  UNL     1       6.441  -5.403   6.633  1.00  0.00     0.228 C 
BRANCH  36  37
HETATM   37  N3  UNL     1       5.260  -5.779   5.903  1.00  0.00    -0.191 N 
HETATM   38  N2  UNL     1       5.022  -5.642   4.622  1.00  0.00    -0.286 N 
HETATM   39  C2  UNL     1       3.813  -6.105   4.294  1.00  0.00     0.158 A 
ATOM     40  H2  UNL     1       5.679  -5.231   3.957  1.00  0.00     0.188 HD
HETATM   41  C1  UNL     1       3.264  -6.565   5.472  1.00  0.00     0.132 A 
HETATM   42  N16 UNL     1       4.179  -6.347   6.420  1.00  0.00    -0.263 N 
ATOM     43  H16 UNL     1       4.062  -6.584   7.404  1.00  0.00     0.191 HD
BRANCH  41  44
HETATM   44  N1  UNL     1       2.107  -7.107   5.666  1.00  0.00    -0.383 N 
ATOM     45  H12 UNL     1       1.256  -6.601   5.909  1.00  0.00     0.157 HD
ATOM     46  H11 UNL     1       1.849  -8.093   5.618  1.00  0.00     0.157 HD
ENDBRANCH  41  44
ENDBRANCH  36  37
ENDBRANCH  34  36
ENDBRANCH   1  34
TORSDOF 8
ENDMDL
MODEL 4
REMARK VINA RESULT: -7.884154591      4.004      6.814
REMARK  8 active torsions:
REMARK  status: ('A' for Active; 'I' for Inactive)
REMARK    1  A    between atoms: N1_1  and  C1_4 
REMARK    2  A    between atoms: N3_8  and  C3_9 
REMARK    3  A    between atoms: C3_9  and  N4_10 
REMARK    4  A    between atoms: N4_10  and  C4_12 
REMARK    5  A    between atoms: C5_17  and  C6_18 
REMARK       I    between atoms: C6_18  and  N7_20 
REMARK    6  A    between atoms: N7_20  and  C7_22 
REMARK    7  A    between atoms: C7_22  and  C8_23 
REMARK    8  A    between atoms: N8_25  and  C10_26 
ROOT
HETATM    1  C4  UNL     1       7.019 -11.703   7.819  1.00  0.00     0.152 C 
HETATM    2  N5  UNL     1       7.516 -12.835   8.321  1.00  0.00    -0.283 N 
ATOM      3  H5  UNL     1       7.573 -12.796   9.338  1.00  0.00     0.188 HD
HETATM    4  N6  UNL     1       7.963 -14.013   7.853  1.00  0.00    -0.293 N 
ATOM      5  H6  UNL     1       8.094 -14.726   8.571  1.00  0.00     0.187 HD
HETATM    6  C5  UNL     1       8.271 -14.425   6.597  1.00  0.00     0.131 C 
HETATM    7  C13 UNL     1       7.675 -14.196   5.371  1.00  0.00     0.126 C 
HETATM    8  N14 UNL     1       7.137 -13.101   4.757  1.00  0.00    -0.348 N 
ATOM      9  H14 UNL     1       7.152 -13.159   3.739  1.00  0.00     0.167 HD
HETATM   10  C14 UNL     1       6.593 -11.967   5.217  1.00  0.00     0.137 A 
HETATM   11  N15 UNL     1       5.969 -10.761   5.492  1.00  0.00    -0.334 N 
ATOM     12  H15 UNL     1       5.438  -9.965   5.137  1.00  0.00     0.168 HD
HETATM   13  C15 UNL     1       6.556 -11.374   6.569  1.00  0.00     0.124 A 
ENDROOT
BRANCH   6  14
HETATM   14  C6  UNL     1       9.435 -15.274   6.528  1.00  0.00     0.271 C 
HETATM   15  O1  UNL     1      10.565 -14.748   6.395  1.00  0.00    -0.266 OA
HETATM   16  N7  UNL     1       9.333 -16.669   6.603  1.00  0.00    -0.350 N 
ATOM     17  H7  UNL     1       8.414 -17.100   6.708  1.00  0.00     0.163 HD
BRANCH  16  18
HETATM   18  C7  UNL     1      10.519 -17.516   6.532  1.00  0.00     0.183 C 
BRANCH  18  19
HETATM   19  C8  UNL     1      10.548 -18.121   5.185  1.00  0.00     0.062 A 
HETATM   20  C9  UNL     1      10.993 -17.519   4.041  1.00  0.00     0.142 A 
HETATM   21  N8  UNL     1      10.841 -18.424   3.058  1.00  0.00    -0.262 N 
HETATM   22  N12 UNL     1      10.328 -19.539   3.545  1.00  0.00    -0.239 N 
HETATM   23  N13 UNL     1      10.143 -19.369   4.850  1.00  0.00    -0.287 N 
ATOM     24  H12 UNL     1      10.113 -20.382   3.013  1.00  0.00     0.208 HD
ATOM     25  H13 UNL     1       9.760 -20.063   5.493  1.00  0.00     0.188 HD
BRANCH  21  26
HETATM   26  C10 UNL     1      11.176 -18.249   1.655  1.00  0.00     0.223 C 
HETATM   27  C11 UNL     1      11.091 -19.560   0.902  1.00  0.00     0.183 C 
HETATM   28  N9  UNL     1      12.336 -20.249   1.040  1.00  0.00    -0.137 NA
HETATM   29  N10 UNL     1      13.400 -19.484   0.549  1.00  0.00    -0.300 N 
HETATM   30  C12 UNL     1      13.502 -18.154   1.051  1.00  0.00     0.191 C 
ATOM     31  H10 UNL     1      14.065 -19.857  -0.129  1.00  0.00     0.183 HD
HETATM   32  N11 UNL     1      12.455 -17.614   1.555  1.00  0.00    -0.361 N 
ATOM     33  H11 UNL     1      12.539 -16.662   1.911  1.00  0.00     0.162 HD
ENDBRANCH  21  26
ENDBRANCH  18  19
ENDBRANCH  16  18
ENDBRANCH   6  14
BRANCH   1  34
HETATM   34  N4  UNL     1       6.960 -10.666   8.765  1.00  0.00    -0.333 N 
ATOM     35  H4  UNL     1       6.186 -10.712   9.427  1.00  0.00     0.168 HD
BRANCH  34  36
HETATM   36  C3  UNL     1       7.842  -9.559   8.919  1.00  0.00     0.228 C 
BRANCH  36  37
HETATM   37  N3  UNL     1       7.371  -8.299   8.410  1.00  0.00    -0.191 N 
HETATM   38  N2  UNL     1       7.245  -7.927   7.160  1.00  0.00    -0.286 N 
HETATM   39  C2  UNL     1       6.774  -6.681   7.064  1.00  0.00     0.158 A 
ATOM     40  H2  UNL     1       7.477  -8.516   6.360  1.00  0.00     0.188 HD
HETATM   41  C1  UNL     1       6.597  -6.253   8.362  1.00  0.00     0.132 A 
HETATM   42  N16 UNL     1       6.972  -7.269   9.143  1.00  0.00    -0.263 N 
ATOM     43  H16 UNL     1       6.953  -7.255  10.163  1.00  0.00     0.191 HD
BRANCH  41  44
HETATM   44  N1  UNL     1       6.158  -5.114   8.784  1.00  0.00    -0.383 N 
ATOM     45  H12 UNL     1       5.240  -4.957   9.201  1.00  0.00     0.157 HD
ATOM     46  H11 UNL     1       6.625  -4.207   8.775  1.00  0.00     0.157 HD
ENDBRANCH  41  44
ENDBRANCH  36  37
ENDBRANCH  34  36
ENDBRANCH   1  34
TORSDOF 8
ENDMDL
MODEL 5
REMARK VINA RESULT: -7.814000770      3.310      5.373
REMARK  8 active torsions:
REMARK  status: ('A' for Active; 'I' for Inactive)
REMARK    1  A    between atoms: N1_1  and  C1_4 
REMARK    2  A    between atoms: N3_8  and  C3_9 
REMARK    3  A    between atoms: C3_9  and  N4_10 
REMARK    4  A    between atoms: N4_10  and  C4_12 
REMARK    5  A    between atoms: C5_17  and  C6_18 
REMARK       I    between atoms: C6_18  and  N7_20 
REMARK    6  A    between atoms: N7_20  and  C7_22 
REMARK    7  A    between atoms: C7_22  and  C8_23 
REMARK    8  A    between atoms: N8_25  and  C10_26 
ROOT
HETATM    1  C4  UNL     1       6.101 -11.672   4.929  1.00  0.00     0.152 C 
HETATM    2  N5  UNL     1       6.719 -12.855   4.930  1.00  0.00    -0.283 N 
ATOM      3  H5  UNL     1       7.145 -13.050   5.836  1.00  0.00     0.188 HD
HETATM    4  N6  UNL     1       6.935 -13.860   4.064  1.00  0.00    -0.293 N 
ATOM      5  H6  UNL     1       7.302 -14.710   4.493  1.00  0.00     0.187 HD
HETATM    6  C5  UNL     1       6.752 -13.947   2.722  1.00  0.00     0.131 C 
HETATM    7  C13 UNL     1       5.755 -13.479   1.887  1.00  0.00     0.126 C 
HETATM    8  N14 UNL     1       5.057 -12.309   1.791  1.00  0.00    -0.348 N 
ATOM      9  H14 UNL     1       4.697 -12.128   0.854  1.00  0.00     0.167 HD
HETATM   10  C14 UNL     1       4.747 -11.352   2.674  1.00  0.00     0.137 A 
HETATM   11  N15 UNL     1       4.296 -10.286   3.436  1.00  0.00    -0.334 N 
ATOM     12  H15 UNL     1       3.692  -9.466   3.499  1.00  0.00     0.168 HD
HETATM   13  C15 UNL     1       5.221 -11.093   4.048  1.00  0.00     0.124 A 
ENDROOT
BRANCH   6  14
HETATM   14  C6  UNL     1       7.789 -14.679   2.037  1.00  0.00     0.271 C 
HETATM   15  O1  UNL     1       7.523 -15.230   0.943  1.00  0.00    -0.266 OA
HETATM   16  N7  UNL     1       9.081 -14.791   2.565  1.00  0.00    -0.350 N 
ATOM     17  H7  UNL     1       9.300 -14.346   3.456  1.00  0.00     0.163 HD
BRANCH  16  18
HETATM   18  C7  UNL     1      10.121 -15.535   1.860  1.00  0.00     0.183 C 
BRANCH  18  19
HETATM   19  C8  UNL     1      10.253 -16.847   2.528  1.00  0.00     0.062 A 
HETATM   20  C9  UNL     1      10.660 -17.058   3.815  1.00  0.00     0.142 A 
HETATM   21  N8  UNL     1      10.633 -18.389   4.002  1.00  0.00    -0.262 N 
HETATM   22  N12 UNL     1      10.232 -18.993   2.899  1.00  0.00    -0.239 N 
HETATM   23  N13 UNL     1       9.995 -18.059   1.984  1.00  0.00    -0.287 N 
ATOM     24  H12 UNL     1      10.124 -19.999   2.772  1.00  0.00     0.208 HD
ATOM     25  H13 UNL     1       9.671 -18.228   1.031  1.00  0.00     0.188 HD
BRANCH  21  26
HETATM   26  C10 UNL     1      10.982 -19.103   5.219  1.00  0.00     0.223 C 
HETATM   27  C11 UNL     1       9.762 -19.736   5.854  1.00  0.00     0.183 C 
HETATM   28  N9  UNL     1       9.127 -18.766   6.691  1.00  0.00    -0.137 NA
HETATM   29  N10 UNL     1       9.997 -18.302   7.685  1.00  0.00    -0.300 N 
HETATM   30  C12 UNL     1      11.266 -17.830   7.239  1.00  0.00     0.191 C 
ATOM     31  H10 UNL     1       9.738 -18.301   8.671  1.00  0.00     0.183 HD
HETATM   32  N11 UNL     1      11.690 -18.220   6.095  1.00  0.00    -0.361 N 
ATOM     33  H11 UNL     1      12.598 -17.876   5.785  1.00  0.00     0.162 HD
ENDBRANCH  21  26
ENDBRANCH  18  19
ENDBRANCH  16  18
ENDBRANCH   6  14
BRANCH   1  34
HETATM   34  N4  UNL     1       6.418 -10.890   6.052  1.00  0.00    -0.333 N 
ATOM     35  H4  UNL     1       5.693 -10.242   6.360  1.00  0.00     0.168 HD
BRANCH  34  36
HETATM   36  C3  UNL     1       7.619 -10.884   6.815  1.00  0.00     0.228 C 
BRANCH  36  37
HETATM   37  N3  UNL     1       7.560 -10.207   8.083  1.00  0.00    -0.191 N 
HETATM   38  N2  UNL     1       7.667 -10.723   9.282  1.00  0.00    -0.286 N 
HETATM   39  C2  UNL     1       7.563  -9.788  10.230  1.00  0.00     0.158 A 
ATOM     40  H2  UNL     1       7.812 -11.715   9.469  1.00  0.00     0.188 HD
HETATM   41  C1  UNL     1       7.377  -8.600   9.557  1.00  0.00     0.132 A 
HETATM   42  N16 UNL     1       7.383  -8.904   8.256  1.00  0.00    -0.263 N 
ATOM     43  H16 UNL     1       7.267  -8.228   7.502  1.00  0.00     0.191 HD
BRANCH  41  44
HETATM   44  N1  UNL     1       7.226  -7.412  10.041  1.00  0.00    -0.383 N 
ATOM     45  H12 UNL     1       7.676  -7.062  10.887  1.00  0.00     0.157 HD
ATOM     46  H11 UNL     1       6.655  -6.645   9.684  1.00  0.00     0.157 HD
ENDBRANCH  41  44
ENDBRANCH  36  37
ENDBRANCH  34  36
ENDBRANCH   1  34
TORSDOF 8
ENDMDL
