MODEL 1
REMARK VINA RESULT: -4.527355125      0.000      0.000
REMARK  2 active torsions:
REMARK  status: ('A' for Active; 'I' for Inactive)
REMARK    1  A    between atoms: O1_1  and  C1_3 
REMARK    2  A    between atoms: N2_8  and  C4_9 
ROOT
HETATM    1  C1  UNL     1     -19.730   9.828  -4.480  1.00  0.00     0.159 A 
HETATM    2  C2  UNL     1     -19.419   8.545  -4.927  1.00  0.00     0.145 A 
HETATM    3  N1  UNL     1     -20.594   7.968  -5.173  1.00  0.00    -0.358 N 
ATOM      4  H1  UNL     1     -20.711   7.015  -5.517  1.00  0.00     0.166 HD
HETATM    5  C3  UNL     1     -21.601   8.812  -4.905  1.00  0.00     0.185 A 
HETATM    6  N2  UNL     1     -21.073   9.972  -4.473  1.00  0.00    -0.318 N 
ENDROOT
BRANCH   6   7
HETATM    7  C4  UNL     1     -21.860  11.100  -4.095  1.00  0.00     0.097 C 
HETATM    8  C5  UNL     1     -23.333  10.887  -4.417  1.00  0.00     0.031 C 
HETATM    9  C6  UNL     1     -23.812  12.163  -5.071  1.00  0.00    -0.012 C 
HETATM   10  C7  UNL     1     -23.348  12.148  -6.491  1.00  0.00     0.005 C 
HETATM   11  C10 UNL     1     -22.810  13.166  -4.474  1.00  0.00     0.011 C 
HETATM   12  C8  UNL     1     -21.828  12.160  -6.335  1.00  0.00     0.007 C 
HETATM   13  C9  UNL     1     -21.559  12.351  -4.856  1.00  0.00     0.009 C 
ENDBRANCH   6   7
BRANCH   1  14
HETATM   14  O1  UNL     1     -18.855  10.823  -4.095  1.00  0.00    -0.345 OA
ATOM     15  H1  UNL     1     -17.913  10.848  -4.218  1.00  0.00     0.219 HD
ENDBRANCH   1  14
TORSDOF 2
ENDMDL
MODEL 2
REMARK VINA RESULT: -4.169976810      1.168      1.219
REMARK  2 active torsions:
REMARK  status: ('A' for Active; 'I' for Inactive)
REMARK    1  A    between atoms: O1_1  and  C1_3 
REMARK    2  A    between atoms: N2_8  and  C4_9 
ROOT
HETATM    1  C1  UNL     1     -21.030   8.866  -4.432  1.00  0.00     0.159 A 
HETATM    2  C2  UNL     1     -20.887   7.811  -5.333  1.00  0.00     0.145 A 
HETATM    3  N1  UNL     1     -21.809   8.026  -6.268  1.00  0.00    -0.358 N 
ATOM      4  H1  UNL     1     -21.964   7.426  -7.078  1.00  0.00     0.166 HD
HETATM    5  C3  UNL     1     -22.507   9.140  -6.000  1.00  0.00     0.185 A 
HETATM    6  N2  UNL     1     -22.028   9.669  -4.858  1.00  0.00    -0.318 N 
ENDROOT
BRANCH   6   7
HETATM    7  C4  UNL     1     -22.540  10.865  -4.273  1.00  0.00     0.097 C 
HETATM    8  C5  UNL     1     -24.017  11.055  -4.590  1.00  0.00     0.031 C 
HETATM    9  C6  UNL     1     -24.179  12.500  -5.002  1.00  0.00    -0.012 C 
HETATM   10  C7  UNL     1     -23.708  12.626  -6.415  1.00  0.00     0.005 C 
HETATM   11  C10 UNL     1     -22.982  13.128  -4.266  1.00  0.00     0.011 C 
HETATM   12  C8  UNL     1     -22.229  12.261  -6.296  1.00  0.00     0.007 C 
HETATM   13  C9  UNL     1     -21.947  12.125  -4.814  1.00  0.00     0.009 C 
ENDBRANCH   6   7
BRANCH   1  14
HETATM   14  O1  UNL     1     -20.304   9.098  -3.282  1.00  0.00    -0.345 OA
ATOM     15  H1  UNL     1     -19.672   9.790  -3.123  1.00  0.00     0.219 HD
ENDBRANCH   1  14
TORSDOF 2
ENDMDL
MODEL 3
REMARK VINA RESULT: -4.163617592      1.631      2.448
REMARK  2 active torsions:
REMARK  status: ('A' for Active; 'I' for Inactive)
REMARK    1  A    between atoms: O1_1  and  C1_3 
REMARK    2  A    between atoms: N2_8  and  C4_9 
ROOT
HETATM    1  C1  UNL     1     -20.912   9.130  -4.691  1.00  0.00     0.159 A 
HETATM    2  C2  UNL     1     -19.674   9.328  -4.080  1.00  0.00     0.145 A 
HETATM    3  N1  UNL     1     -19.413  10.624  -4.239  1.00  0.00    -0.358 N 
ATOM      4  H1  UNL     1     -18.572  11.092  -3.900  1.00  0.00     0.166 HD
HETATM    5  C3  UNL     1     -20.406  11.230  -4.906  1.00  0.00     0.185 A 
HETATM    6  N2  UNL     1     -21.344  10.307  -5.192  1.00  0.00    -0.318 N 
ENDROOT
BRANCH   6   7
HETATM    7  C4  UNL     1     -22.546  10.604  -5.899  1.00  0.00     0.097 C 
HETATM    8  C5  UNL     1     -22.480  11.970  -6.567  1.00  0.00     0.031 C 
HETATM    9  C6  UNL     1     -23.795  12.652  -6.265  1.00  0.00    -0.012 C 
HETATM   10  C7  UNL     1     -23.729  13.169  -4.865  1.00  0.00     0.005 C 
HETATM   11  C10 UNL     1     -24.696  11.423  -6.052  1.00  0.00     0.011 C 
HETATM   12  C8  UNL     1     -23.589  11.883  -4.051  1.00  0.00     0.007 C 
HETATM   13  C9  UNL     1     -23.758  10.743  -5.035  1.00  0.00     0.009 C 
ENDBRANCH   6   7
BRANCH   1  14
HETATM   14  O1  UNL     1     -21.621   7.951  -4.797  1.00  0.00    -0.345 OA
ATOM     15  H1  UNL     1     -22.537   7.804  -4.595  1.00  0.00     0.219 HD
ENDBRANCH   1  14
TORSDOF 2
ENDMDL
MODEL 4
REMARK VINA RESULT: -4.137502626      1.584      2.000
REMARK  2 active torsions:
REMARK  status: ('A' for Active; 'I' for Inactive)
REMARK    1  A    between atoms: O1_1  and  C1_3 
REMARK    2  A    between atoms: N2_8  and  C4_9 
ROOT
HETATM    1  C1  UNL     1     -19.877   8.609  -4.863  1.00  0.00     0.159 A 
HETATM    2  C2  UNL     1     -18.507   8.854  -4.798  1.00  0.00     0.145 A 
HETATM    3  N1  UNL     1     -18.399  10.154  -4.529  1.00  0.00    -0.358 N 
ATOM      4  H1  UNL     1     -17.516  10.652  -4.417  1.00  0.00     0.166 HD
HETATM    5  C3  UNL     1     -19.611  10.719  -4.426  1.00  0.00     0.185 A 
HETATM    6  N2  UNL     1     -20.538   9.764  -4.633  1.00  0.00    -0.318 N 
ENDROOT
BRANCH   6   7
HETATM    7  C4  UNL     1     -21.942  10.013  -4.597  1.00  0.00     0.097 C 
HETATM    8  C5  UNL     1     -22.581   9.805  -5.963  1.00  0.00     0.031 C 
HETATM    9  C6  UNL     1     -23.496  10.987  -6.186  1.00  0.00    -0.012 C 
HETATM   10  C7  UNL     1     -22.647  12.147  -6.597  1.00  0.00     0.005 C 
HETATM   11  C10 UNL     1     -23.794  11.379  -4.729  1.00  0.00     0.011 C 
HETATM   12  C8  UNL     1     -21.777  12.365  -5.360  1.00  0.00     0.007 C 
HETATM   13  C9  UNL     1     -22.315  11.429  -4.297  1.00  0.00     0.009 C 
ENDBRANCH   6   7
BRANCH   1  14
HETATM   14  O1  UNL     1     -20.509   7.408  -5.117  1.00  0.00    -0.345 OA
ATOM     15  H1  UNL     1     -21.334   7.100  -4.764  1.00  0.00     0.219 HD
ENDBRANCH   1  14
TORSDOF 2
ENDMDL
MODEL 5
REMARK VINA RESULT: -3.962564809      1.434      1.714
REMARK  2 active torsions:
REMARK  status: ('A' for Active; 'I' for Inactive)
REMARK    1  A    between atoms: O1_1  and  C1_3 
REMARK    2  A    between atoms: N2_8  and  C4_9 
ROOT
HETATM    1  C1  UNL     1     -21.380   8.554  -5.204  1.00  0.00     0.159 A 
HETATM    2  C2  UNL     1     -22.056   7.403  -5.606  1.00  0.00     0.145 A 
HETATM    3  N1  UNL     1     -23.349   7.708  -5.507  1.00  0.00    -0.358 N 
ATOM      4  H1  UNL     1     -24.114   7.072  -5.731  1.00  0.00     0.166 HD
HETATM    5  C3  UNL     1     -23.507   8.967  -5.071  1.00  0.00     0.185 A 
HETATM    6  N2  UNL     1     -22.286   9.501  -4.880  1.00  0.00    -0.318 N 
ENDROOT
BRANCH   6   7
HETATM    7  C4  UNL     1     -22.077  10.834  -4.416  1.00  0.00     0.097 C 
HETATM    8  C5  UNL     1     -23.390  11.511  -4.051  1.00  0.00     0.031 C 
HETATM    9  C6  UNL     1     -23.337  12.893  -4.661  1.00  0.00    -0.012 C 
HETATM   10  C7  UNL     1     -23.642  12.759  -6.117  1.00  0.00     0.005 C 
HETATM   11  C10 UNL     1     -21.814  13.103  -4.726  1.00  0.00     0.011 C 
HETATM   12  C8  UNL     1     -22.476  11.905  -6.615  1.00  0.00     0.007 C 
HETATM   13  C9  UNL     1     -21.525  11.769  -5.443  1.00  0.00     0.009 C 
ENDBRANCH   6   7
BRANCH   1  14
HETATM   14  O1  UNL     1     -20.015   8.747  -5.129  1.00  0.00    -0.345 OA
ATOM     15  H1  UNL     1     -19.478   8.802  -4.347  1.00  0.00     0.219 HD
ENDBRANCH   1  14
TORSDOF 2
ENDMDL
