MODEL 1
REMARK VINA RESULT: -5.584013757      0.000      0.000
REMARK  8 active torsions:
REMARK  status: ('A' for Active; 'I' for Inactive)
REMARK    1  A    between atoms: C2_2  and  C3_3 
REMARK    2  A    between atoms: C4_4  and  O1_5 
REMARK    3  A    between atoms: C5_8  and  O2_9 
REMARK    4  A    between atoms: C9_18  and  O3_19 
REMARK    5  A    between atoms: C10_21  and  C11_22 
REMARK    6  A    between atoms: C11_22  and  C12_23 
REMARK    7  A    between atoms: C15_28  and  O4_29 
REMARK    8  A    between atoms: C18_33  and  C19_34 
ROOT
HETATM    1  C3  UNL     1      85.627   5.716  27.034  1.00  0.00     0.117 C 
HETATM    2  C4  UNL     1      86.466   6.950  26.934  1.00  0.00     0.130 C 
HETATM    3  N1  UNL     1      87.687   6.787  26.181  1.00  0.00    -0.302 N 
HETATM    4  C5  UNL     1      87.947   7.312  24.916  1.00  0.00     0.136 C 
HETATM    5  C6  UNL     1      87.178   7.589  23.746  1.00  0.00     0.154 C 
HETATM    6 BR1  UNL     1      87.642   9.379  23.038  1.00  0.00    -0.081 Br
HETATM    7  C7  UNL     1      85.741   7.475  23.612  1.00  0.00     0.142 C 
HETATM    8 CL1  UNL     1      85.479   7.937  21.842  1.00  0.00    -0.120 Cl
HETATM    9  C8  UNL     1      85.039   6.218  23.808  1.00  0.00     0.208 C 
HETATM   10 CL2  UNL     1      83.409   6.496  24.472  1.00  0.00    -0.100 Cl
HETATM   11  N2  UNL     1      85.746   5.159  24.537  1.00  0.00    -0.306 N 
HETATM   12  C9  UNL     1      86.758   4.517  23.760  1.00  0.00     0.143 C 
HETATM   13  C10 UNL     1      88.069   4.039  24.027  1.00  0.00     0.158 C 
HETATM   14  N3  UNL     1      88.608   3.963  25.323  1.00  0.00    -0.361 N 
ATOM     15  H3  UNL     1      88.525   3.021  25.707  1.00  0.00     0.162 HD
HETATM   16  C15 UNL     1      89.225   4.827  26.220  1.00  0.00     0.135 C 
HETATM   17  C16 UNL     1      88.716   6.034  26.887  1.00  0.00     0.163 C 
HETATM   18  C17 UNL     1      89.810   7.044  27.199  1.00  0.00     0.041 C 
HETATM   19  C18 UNL     1      85.339   4.891  25.883  1.00  0.00     0.104 C 
ENDROOT
BRANCH  13  20
HETATM   20  C11 UNL     1      88.357   2.734  23.321  1.00  0.00     0.037 C 
BRANCH  20  21
HETATM   21  C12 UNL     1      87.982   1.464  23.957  1.00  0.00    -0.020 C 
HETATM   22  C13 UNL     1      86.908   0.694  23.218  1.00  0.00     0.009 C 
HETATM   23  C14 UNL     1      89.269   0.573  23.759  1.00  0.00     0.009 C 
ENDBRANCH  20  21
ENDBRANCH  13  20
BRANCH  12  24
HETATM   24  O3  UNL     1      86.431   4.312  22.517  1.00  0.00    -0.348 OA
ATOM     25  H3  UNL     1      86.569   3.422  22.216  1.00  0.00     0.219 HD
ENDBRANCH  12  24
BRANCH  16  26
HETATM   26  O4  UNL     1      90.464   4.597  26.588  1.00  0.00    -0.348 OA
ATOM     27  H4  UNL     1      91.072   5.323  26.656  1.00  0.00     0.219 HD
ENDBRANCH  16  26
BRANCH  19  28
HETATM   28  C19 UNL     1      85.459   3.417  26.215  1.00  0.00     0.223 C 
HETATM   29  O5  UNL     1      84.736   2.538  25.691  1.00  0.00    -0.643 OA
HETATM   30  O6  UNL     1      86.391   2.962  27.122  1.00  0.00    -0.643 OA
ENDBRANCH  19  28
BRANCH   1  31
HETATM   31  C2  UNL     1      84.448   6.161  27.898  1.00  0.00     0.015 C 
HETATM   32  C1  UNL     1      84.287   5.344  29.102  1.00  0.00     0.006 C 
ENDBRANCH   1  31
BRANCH   2  33
HETATM   33  O1  UNL     1      85.785   8.133  26.704  1.00  0.00    -0.349 OA
ATOM     34  H1  UNL     1      86.100   8.895  27.176  1.00  0.00     0.219 HD
ENDBRANCH   2  33
BRANCH   4  35
HETATM   35  O2  UNL     1      89.212   7.627  24.764  1.00  0.00    -0.348 OA
ATOM     36  H2  UNL     1      89.645   7.067  24.130  1.00  0.00     0.219 HD
ENDBRANCH   4  35
TORSDOF 8
ENDMDL
MODEL 2
REMARK VINA RESULT: -5.563657830      2.481      5.226
REMARK  8 active torsions:
REMARK  status: ('A' for Active; 'I' for Inactive)
REMARK    1  A    between atoms: C2_2  and  C3_3 
REMARK    2  A    between atoms: C4_4  and  O1_5 
REMARK    3  A    between atoms: C5_8  and  O2_9 
REMARK    4  A    between atoms: C9_18  and  O3_19 
REMARK    5  A    between atoms: C10_21  and  C11_22 
REMARK    6  A    between atoms: C11_22  and  C12_23 
REMARK    7  A    between atoms: C15_28  and  O4_29 
REMARK    8  A    between atoms: C18_33  and  C19_34 
ROOT
HETATM    1  C3  UNL     1      87.668   7.857  24.324  1.00  0.00     0.117 C 
HETATM    2  C4  UNL     1      86.653   6.933  23.730  1.00  0.00     0.130 C 
HETATM    3  N1  UNL     1      86.644   5.606  24.297  1.00  0.00    -0.302 N 
HETATM    4  C5  UNL     1      85.662   5.076  25.131  1.00  0.00     0.136 C 
HETATM    5  C6  UNL     1      84.789   5.588  26.138  1.00  0.00     0.154 C 
HETATM    6 BR1  UNL     1      82.960   4.880  25.874  1.00  0.00    -0.081 Br
HETATM    7  C7  UNL     1      84.622   6.979  26.506  1.00  0.00     0.142 C 
HETATM    8 CL1  UNL     1      83.396   6.869  27.884  1.00  0.00    -0.120 Cl
HETATM    9  C8  UNL     1      85.719   7.788  27.008  1.00  0.00     0.208 C 
HETATM   10 CL2  UNL     1      85.527   9.491  26.523  1.00  0.00    -0.100 Cl
HETATM   11  N2  UNL     1      87.082   7.305  26.755  1.00  0.00    -0.306 N 
HETATM   12  C9  UNL     1      87.457   6.209  27.592  1.00  0.00     0.143 C 
HETATM   13  C10 UNL     1      88.189   5.008  27.394  1.00  0.00     0.158 C 
HETATM   14  N3  UNL     1      88.905   4.731  26.217  1.00  0.00    -0.361 N 
ATOM     15  H3  UNL     1      89.896   4.948  26.323  1.00  0.00     0.162 HD
HETATM   16  C15 UNL     1      88.623   4.239  24.947  1.00  0.00     0.135 C 
HETATM   17  C16 UNL     1      87.773   4.782  23.880  1.00  0.00     0.163 C 
HETATM   18  C17 UNL     1      87.174   3.702  22.991  1.00  0.00     0.041 C 
HETATM   19  C18 UNL     1      87.851   7.977  25.753  1.00  0.00     0.104 C 
ENDROOT
BRANCH  13  20
HETATM   20  C11 UNL     1      89.077   4.680  28.573  1.00  0.00     0.037 C 
BRANCH  20  21
HETATM   21  C12 UNL     1      90.462   5.166  28.597  1.00  0.00    -0.020 C 
HETATM   22  C13 UNL     1      90.678   6.378  29.479  1.00  0.00     0.009 C 
HETATM   23  C14 UNL     1      91.230   4.020  29.363  1.00  0.00     0.009 C 
ENDBRANCH  20  21
ENDBRANCH  13  20
BRANCH  12  24
HETATM   24  O3  UNL     1      87.044   6.308  28.821  1.00  0.00    -0.348 OA
ATOM     25  H3  UNL     1      87.582   5.845  29.454  1.00  0.00     0.219 HD
ENDBRANCH  12  24
BRANCH  16  26
HETATM   26  O4  UNL     1      89.170   3.110  24.558  1.00  0.00    -0.348 OA
ATOM     27  H4  UNL     1      89.992   2.833  24.945  1.00  0.00     0.219 HD
ENDBRANCH  16  26
BRANCH  19  28
HETATM   28  C19 UNL     1      89.321   8.021  26.120  1.00  0.00     0.223 C 
HETATM   29  O5  UNL     1      90.168   7.231  25.641  1.00  0.00    -0.643 OA
HETATM   30  O6  UNL     1      89.808   8.952  27.011  1.00  0.00    -0.643 OA
ENDBRANCH  19  28
BRANCH   1  31
HETATM   31  C2  UNL     1      87.482   9.147  23.525  1.00  0.00     0.015 C 
HETATM   32  C1  UNL     1      88.303   9.187  22.314  1.00  0.00     0.006 C 
ENDBRANCH   1  31
BRANCH   2  33
HETATM   33  O1  UNL     1      85.405   7.478  23.484  1.00  0.00    -0.349 OA
ATOM     34  H1  UNL     1      85.036   7.305  22.626  1.00  0.00     0.219 HD
ENDBRANCH   2  33
BRANCH   4  35
HETATM   35  O2  UNL     1      85.500   3.787  24.945  1.00  0.00    -0.348 OA
ATOM     36  H2  UNL     1      84.591   3.562  24.785  1.00  0.00     0.219 HD
ENDBRANCH   4  35
TORSDOF 8
ENDMDL
MODEL 3
REMARK VINA RESULT: -5.543385917      2.271      4.179
REMARK  8 active torsions:
REMARK  status: ('A' for Active; 'I' for Inactive)
REMARK    1  A    between atoms: C2_2  and  C3_3 
REMARK    2  A    between atoms: C4_4  and  O1_5 
REMARK    3  A    between atoms: C5_8  and  O2_9 
REMARK    4  A    between atoms: C9_18  and  O3_19 
REMARK    5  A    between atoms: C10_21  and  C11_22 
REMARK    6  A    between atoms: C11_22  and  C12_23 
REMARK    7  A    between atoms: C15_28  and  O4_29 
REMARK    8  A    between atoms: C18_33  and  C19_34 
ROOT
HETATM    1  C3  UNL     1      87.861   7.379  24.851  1.00  0.00     0.117 C 
HETATM    2  C4  UNL     1      86.915   7.865  23.800  1.00  0.00     0.130 C 
HETATM    3  N1  UNL     1      86.126   6.830  23.177  1.00  0.00    -0.302 N 
HETATM    4  C5  UNL     1      84.761   6.615  23.362  1.00  0.00     0.136 C 
HETATM    5  C6  UNL     1      83.838   6.768  24.441  1.00  0.00     0.154 C 
HETATM    6 BR1  UNL     1      82.182   7.640  23.797  1.00  0.00    -0.081 Br
HETATM    7  C7  UNL     1      84.115   7.359  25.733  1.00  0.00     0.142 C 
HETATM    8 CL1  UNL     1      82.495   7.166  26.601  1.00  0.00    -0.120 Cl
HETATM    9  C8  UNL     1      85.120   6.822  26.635  1.00  0.00     0.208 C 
HETATM   10 CL2  UNL     1      85.867   8.119  27.601  1.00  0.00    -0.100 Cl
HETATM   11  N2  UNL     1      86.132   5.927  26.059  1.00  0.00    -0.306 N 
HETATM   12  C9  UNL     1      85.632   4.619  25.775  1.00  0.00     0.143 C 
HETATM   13  C10 UNL     1      85.817   3.689  24.718  1.00  0.00     0.158 C 
HETATM   14  N3  UNL     1      86.781   3.855  23.709  1.00  0.00    -0.361 N 
ATOM     15  H3  UNL     1      87.626   3.320  23.908  1.00  0.00     0.162 HD
HETATM   16  C15 UNL     1      86.890   4.554  22.512  1.00  0.00     0.135 C 
HETATM   17  C16 UNL     1      86.877   5.999  22.245  1.00  0.00     0.163 C 
HETATM   18  C17 UNL     1      86.329   6.342  20.868  1.00  0.00     0.041 C 
HETATM   19  C18 UNL     1      87.453   6.446  25.877  1.00  0.00     0.104 C 
ENDROOT
BRANCH  13  20
HETATM   20  C11 UNL     1      85.900   2.265  25.218  1.00  0.00     0.037 C 
BRANCH  20  21
HETATM   21  C12 UNL     1      85.926   1.156  24.254  1.00  0.00    -0.020 C 
HETATM   22  C13 UNL     1      86.931   0.073  24.582  1.00  0.00     0.009 C 
HETATM   23  C14 UNL     1      84.537   0.446  24.491  1.00  0.00     0.009 C 
ENDBRANCH  20  21
ENDBRANCH  13  20
BRANCH  12  24
HETATM   24  O3  UNL     1      84.817   4.149  26.674  1.00  0.00    -0.348 OA
ATOM     25  H3  UNL     1      83.955   3.927  26.343  1.00  0.00     0.219 HD
ENDBRANCH  12  24
BRANCH  16  26
HETATM   26  O4  UNL     1      87.036   3.889  21.389  1.00  0.00    -0.348 OA
ATOM     27  H4  UNL     1      86.815   4.310  20.566  1.00  0.00     0.219 HD
ENDBRANCH  16  26
BRANCH  19  28
HETATM   28  C19 UNL     1      88.503   5.377  26.102  1.00  0.00     0.223 C 
HETATM   29  O5  UNL     1      89.155   4.854  25.168  1.00  0.00    -0.643 OA
HETATM   30  O6  UNL     1      88.801   4.922  27.368  1.00  0.00    -0.643 OA
ENDBRANCH  19  28
BRANCH   1  31
HETATM   31  C2  UNL     1      88.577   8.653  25.299  1.00  0.00     0.015 C 
HETATM   32  C1  UNL     1      89.129   8.549  26.650  1.00  0.00     0.006 C 
ENDBRANCH   1  31
BRANCH   2  33
HETATM   33  O1  UNL     1      86.233   9.034  24.089  1.00  0.00    -0.349 OA
ATOM     34  H1  UNL     1      85.436   8.938  24.597  1.00  0.00     0.219 HD
ENDBRANCH   2  33
BRANCH   4  35
HETATM   35  O2  UNL     1      84.183   6.157  22.277  1.00  0.00    -0.348 OA
ATOM     36  H2  UNL     1      84.636   6.433  21.489  1.00  0.00     0.219 HD
ENDBRANCH   4  35
TORSDOF 8
ENDMDL
MODEL 4
REMARK VINA RESULT: -5.502483763      2.708      4.974
REMARK  8 active torsions:
REMARK  status: ('A' for Active; 'I' for Inactive)
REMARK    1  A    between atoms: C2_2  and  C3_3 
REMARK    2  A    between atoms: C4_4  and  O1_5 
REMARK    3  A    between atoms: C5_8  and  O2_9 
REMARK    4  A    between atoms: C9_18  and  O3_19 
REMARK    5  A    between atoms: C10_21  and  C11_22 
REMARK    6  A    between atoms: C11_22  and  C12_23 
REMARK    7  A    between atoms: C15_28  and  O4_29 
REMARK    8  A    between atoms: C18_33  and  C19_34 
ROOT
HETATM    1  C3  UNL     1      87.046   4.345  28.173  1.00  0.00     0.117 C 
HETATM    2  C4  UNL     1      87.715   4.118  26.855  1.00  0.00     0.130 C 
HETATM    3  N1  UNL     1      86.812   4.009  25.734  1.00  0.00    -0.302 N 
HETATM    4  C5  UNL     1      86.633   4.957  24.728  1.00  0.00     0.136 C 
HETATM    5  C6  UNL     1      86.676   6.381  24.646  1.00  0.00     0.154 C 
HETATM    6 BR1  UNL     1      87.701   6.937  23.046  1.00  0.00    -0.081 Br
HETATM    7  C7  UNL     1      87.069   7.293  25.700  1.00  0.00     0.142 C 
HETATM    8 CL1  UNL     1      86.830   8.940  24.895  1.00  0.00    -0.120 Cl
HETATM    9  C8  UNL     1      86.369   7.362  26.971  1.00  0.00     0.208 C 
HETATM   10 CL2  UNL     1      87.485   7.792  28.290  1.00  0.00    -0.100 Cl
HETATM   11  N2  UNL     1      85.519   6.221  27.333  1.00  0.00    -0.306 N 
HETATM   12  C9  UNL     1      84.286   6.184  26.612  1.00  0.00     0.143 C 
HETATM   13  C10 UNL     1      83.504   5.153  26.026  1.00  0.00     0.158 C 
HETATM   14  N3  UNL     1      83.766   3.786  26.220  1.00  0.00    -0.361 N 
ATOM     15  H3  UNL     1      83.172   3.392  26.949  1.00  0.00     0.162 HD
HETATM   16  C15 UNL     1      84.619   2.827  25.684  1.00  0.00     0.135 C 
HETATM   17  C16 UNL     1      86.086   2.746  25.687  1.00  0.00     0.163 C 
HETATM   18  C17 UNL     1      86.641   2.009  24.476  1.00  0.00     0.041 C 
HETATM   19  C18 UNL     1      85.999   5.327  28.342  1.00  0.00     0.104 C 
ENDROOT
BRANCH  13  20
HETATM   20  C11 UNL     1      82.022   5.380  26.219  1.00  0.00     0.037 C 
BRANCH  20  21
HETATM   21  C12 UNL     1      81.101   5.164  25.095  1.00  0.00    -0.020 C 
HETATM   22  C13 UNL     1      79.729   5.771  25.293  1.00  0.00     0.009 C 
HETATM   23  C14 UNL     1      81.726   6.047  23.947  1.00  0.00     0.009 C 
ENDBRANCH  20  21
ENDBRANCH  13  20
BRANCH  12  24
HETATM   24  O3  UNL     1      83.732   7.348  26.435  1.00  0.00    -0.348 OA
ATOM     25  H3  UNL     1      84.347   8.056  26.283  1.00  0.00     0.219 HD
ENDBRANCH  12  24
BRANCH  16  26
HETATM   26  O4  UNL     1      84.110   1.791  25.058  1.00  0.00    -0.348 OA
ATOM     27  H4  UNL     1      84.692   1.130  24.701  1.00  0.00     0.219 HD
ENDBRANCH  16  26
BRANCH  19  28
HETATM   28  C19 UNL     1      84.864   4.785  29.187  1.00  0.00     0.223 C 
HETATM   29  O5  UNL     1      84.257   5.476  30.038  1.00  0.00    -0.643 OA
HETATM   30  O6  UNL     1      84.432   3.483  29.055  1.00  0.00    -0.643 OA
ENDBRANCH  19  28
BRANCH   1  31
HETATM   31  C2  UNL     1      88.214   4.380  29.159  1.00  0.00     0.015 C 
HETATM   32  C1  UNL     1      87.991   3.534  30.332  1.00  0.00     0.006 C 
ENDBRANCH   1  31
BRANCH   2  33
HETATM   33  O1  UNL     1      88.861   4.857  26.619  1.00  0.00    -0.349 OA
ATOM     34  H1  UNL     1      89.198   4.834  25.731  1.00  0.00     0.219 HD
ENDBRANCH   2  33
BRANCH   4  35
HETATM   35  O2  UNL     1      86.357   4.402  23.572  1.00  0.00    -0.348 OA
ATOM     36  H2  UNL     1      85.666   4.863  23.111  1.00  0.00     0.219 HD
ENDBRANCH   4  35
TORSDOF 8
ENDMDL
MODEL 5
REMARK VINA RESULT: -5.474031962      2.446      4.196
REMARK  8 active torsions:
REMARK  status: ('A' for Active; 'I' for Inactive)
REMARK    1  A    between atoms: C2_2  and  C3_3 
REMARK    2  A    between atoms: C4_4  and  O1_5 
REMARK    3  A    between atoms: C5_8  and  O2_9 
REMARK    4  A    between atoms: C9_18  and  O3_19 
REMARK    5  A    between atoms: C10_21  and  C11_22 
REMARK    6  A    between atoms: C11_22  and  C12_23 
REMARK    7  A    between atoms: C15_28  and  O4_29 
REMARK    8  A    between atoms: C18_33  and  C19_34 
ROOT
HETATM    1  C3  UNL     1      87.610   7.502  26.683  1.00  0.00     0.117 C 
HETATM    2  C4  UNL     1      86.294   7.892  26.091  1.00  0.00     0.130 C 
HETATM    3  N1  UNL     1      85.891   7.105  24.950  1.00  0.00    -0.302 N 
HETATM    4  C5  UNL     1      84.868   6.158  24.925  1.00  0.00     0.136 C 
HETATM    5  C6  UNL     1      84.316   5.225  25.854  1.00  0.00     0.154 C 
HETATM    6 BR1  UNL     1      82.339   5.298  25.793  1.00  0.00    -0.081 Br
HETATM    7  C7  UNL     1      84.661   5.097  27.254  1.00  0.00     0.142 C 
HETATM    8 CL1  UNL     1      83.602   3.678  27.785  1.00  0.00    -0.120 Cl
HETATM    9  C8  UNL     1      86.008   4.781  27.698  1.00  0.00     0.208 C 
HETATM   10 CL2  UNL     1      86.356   5.545  29.269  1.00  0.00    -0.100 Cl
HETATM   11  N2  UNL     1      87.099   4.994  26.740  1.00  0.00    -0.306 N 
HETATM   12  C9  UNL     1      87.159   3.994  25.721  1.00  0.00     0.143 C 
HETATM   13  C10 UNL     1      87.423   4.007  24.325  1.00  0.00     0.158 C 
HETATM   14  N3  UNL     1      87.892   5.142  23.644  1.00  0.00    -0.361 N 
ATOM     15  H3  UNL     1      88.904   5.110  23.516  1.00  0.00     0.162 HD
HETATM   16  C15 UNL     1      87.346   6.297  23.095  1.00  0.00     0.135 C 
HETATM   17  C16 UNL     1      86.633   7.412  23.733  1.00  0.00     0.163 C 
HETATM   18  C17 UNL     1      85.627   8.080  22.807  1.00  0.00     0.041 C 
HETATM   19  C18 UNL     1      87.954   6.123  26.944  1.00  0.00     0.104 C 
ENDROOT
BRANCH  13  20
HETATM   20  C11 UNL     1      88.253   2.821  23.890  1.00  0.00     0.037 C 
BRANCH  20  21
HETATM   21  C12 UNL     1      87.720   1.889  22.888  1.00  0.00    -0.020 C 
HETATM   22  C13 UNL     1      88.635   1.661  21.704  1.00  0.00     0.009 C 
HETATM   23  C14 UNL     1      87.747   0.502  23.639  1.00  0.00     0.009 C 
ENDBRANCH  20  21
ENDBRANCH  13  20
BRANCH  12  24
HETATM   24  O3  UNL     1      86.918   2.786  26.140  1.00  0.00    -0.348 OA
ATOM     25  H3  UNL     1      87.445   2.516  26.884  1.00  0.00     0.219 HD
ENDBRANCH  12  24
BRANCH  16  26
HETATM   26  O4  UNL     1      87.442   6.504  21.802  1.00  0.00    -0.348 OA
ATOM     27  H4  UNL     1      86.734   6.230  21.232  1.00  0.00     0.219 HD
ENDBRANCH  16  26
BRANCH  19  28
HETATM   28  C19 UNL     1      89.380   5.820  26.530  1.00  0.00     0.223 C 
HETATM   29  O5  UNL     1      89.985   6.467  25.644  1.00  0.00    -0.643 OA
HETATM   30  O6  UNL     1      90.096   4.803  27.122  1.00  0.00    -0.643 OA
ENDBRANCH  19  28
BRANCH   1  31
HETATM   31  C2  UNL     1      87.796   8.505  27.821  1.00  0.00     0.015 C 
HETATM   32  C1  UNL     1      89.035   9.275  27.702  1.00  0.00     0.006 C 
ENDBRANCH   1  31
BRANCH   2  33
HETATM   33  O1  UNL     1      85.284   8.185  26.991  1.00  0.00    -0.349 OA
ATOM     34  H1  UNL     1      84.743   7.454  27.265  1.00  0.00     0.219 HD
ENDBRANCH   2  33
BRANCH   4  35
HETATM   35  O2  UNL     1      84.266   6.113  23.761  1.00  0.00    -0.348 OA
ATOM     36  H2  UNL     1      83.752   5.321  23.655  1.00  0.00     0.219 HD
ENDBRANCH   4  35
TORSDOF 8
ENDMDL
