MODEL 1
REMARK VINA RESULT: -10.432367617      0.000      0.000
REMARK  9 active torsions:
REMARK  status: ('A' for Active; 'I' for Inactive)
REMARK    1  A    between atoms: O1_2  and  C2_3 
REMARK    2  A    between atoms: C5_6  and  N1_7 
REMARK       I    between atoms: N1_7  and  C6_9 
REMARK    3  A    between atoms: C6_9  and  C7_11 
REMARK    4  A    between atoms: C7_11  and  C8_12 
REMARK    5  A    between atoms: C7_11  and  N2_16 
REMARK    6  A    between atoms: C8_12  and  C9_13 
REMARK       I    between atoms: N2_16  and  C12_18 
REMARK    7  A    between atoms: C12_18  and  C13_20 
REMARK    8  A    between atoms: C13_20  and  C14_21 
REMARK    9  A    between atoms: C13_20  and  N3_24 
ROOT
HETATM    1  C7  UNL     1     -26.112  10.207 -17.536  1.00  0.00     0.177 C 
ENDROOT
BRANCH   1   2
HETATM    2  C6  UNL     1     -25.304   9.951 -16.317  1.00  0.00     0.240 C 
HETATM    3  N1  UNL     1     -25.222   8.609 -15.858  1.00  0.00    -0.354 N 
ATOM      4  H1  UNL     1     -25.705   7.867 -16.365  1.00  0.00     0.162 HD
HETATM    5  O2  UNL     1     -24.706  10.861 -15.690  1.00  0.00    -0.271 OA
BRANCH   3   6
HETATM    6  C5  UNL     1     -24.464   8.297 -14.687  1.00  0.00     0.088 C 
HETATM    7  C4  UNL     1     -25.308   8.512 -13.432  1.00  0.00     0.028 C 
HETATM    8  C3  UNL     1     -24.619   7.893 -12.235  1.00  0.00     0.040 C 
HETATM    9  C2  UNL     1     -24.058   6.552 -12.604  1.00  0.00     0.061 C 
HETATM   10  C25 UNL     1     -24.840   5.981 -13.770  1.00  0.00     0.044 C 
HETATM   11  C26 UNL     1     -22.912   6.787 -13.572  1.00  0.00     0.044 C 
HETATM   12  C24 UNL     1     -23.986   6.872 -14.666  1.00  0.00     0.014 C 
BRANCH   9  13
HETATM   13  O1  UNL     1     -23.842   5.648 -11.607  1.00  0.00    -0.385 OA
HETATM   14  C1  UNL     1     -23.031   6.114 -10.602  1.00  0.00     0.202 C 
ENDBRANCH   9  13
ENDBRANCH   3   6
ENDBRANCH   1   2
BRANCH   1  15
HETATM   15  C8  UNL     1     -25.358  10.573 -18.741  1.00  0.00     0.038 C 
BRANCH  15  16
HETATM   16  C9  UNL     1     -25.871  10.252 -20.076  1.00  0.00    -0.020 C 
HETATM   17  C10 UNL     1     -24.952  10.979 -21.081  1.00  0.00     0.009 C 
HETATM   18  C11 UNL     1     -27.250  10.689 -20.420  1.00  0.00     0.009 C 
ENDBRANCH  15  16
ENDBRANCH   1  15
BRANCH   1  19
HETATM   19  N2  UNL     1     -27.154  11.133 -17.155  1.00  0.00    -0.346 N 
HETATM   20  C12 UNL     1     -27.135  12.512 -17.369  1.00  0.00     0.241 C 
HETATM   21  O3  UNL     1     -26.184  13.127 -17.932  1.00  0.00    -0.271 OA
ATOM     22  H2  UNL     1     -27.974  10.745 -16.689  1.00  0.00     0.163 HD
BRANCH  20  23
HETATM   23  C13 UNL     1     -28.271  13.347 -16.927  1.00  0.00     0.182 C 
BRANCH  23  24
HETATM   24  C14 UNL     1     -28.188  14.768 -17.493  1.00  0.00     0.009 C 
HETATM   25  C15 UNL     1     -27.946  15.810 -16.448  1.00  0.00     0.012 C 
HETATM   26  C16 UNL     1     -29.409  15.071 -18.333  1.00  0.00     0.012 C 
ENDBRANCH  23  24
BRANCH  23  27
HETATM   27  N3  UNL     1     -28.481  13.325 -15.518  1.00  0.00    -0.338 N 
HETATM   28  C17 UNL     1     -27.510  13.035 -14.495  1.00  0.00     0.127 C 
HETATM   29  C18 UNL     1     -27.455  14.130 -13.448  1.00  0.00     0.029 C 
HETATM   30  C19 UNL     1     -28.838  14.481 -12.948  1.00  0.00    -0.038 C 
HETATM   31  C20 UNL     1     -29.194  15.933 -13.155  1.00  0.00     0.015 C 
HETATM   32  C21 UNL     1     -28.846  14.263 -11.432  1.00  0.00     0.015 C 
HETATM   33  C22 UNL     1     -29.921  13.631 -13.524  1.00  0.00     0.111 C 
HETATM   34  C23 UNL     1     -29.812  13.604 -15.006  1.00  0.00     0.221 C 
HETATM   35  O4  UNL     1     -30.780  13.804 -15.766  1.00  0.00    -0.273 OA
ENDBRANCH  23  27
ENDBRANCH  20  23
ENDBRANCH   1  19
TORSDOF 9
ENDMDL
MODEL 2
REMARK VINA RESULT: -9.481852749      0.836      1.052
REMARK  9 active torsions:
REMARK  status: ('A' for Active; 'I' for Inactive)
REMARK    1  A    between atoms: O1_2  and  C2_3 
REMARK    2  A    between atoms: C5_6  and  N1_7 
REMARK       I    between atoms: N1_7  and  C6_9 
REMARK    3  A    between atoms: C6_9  and  C7_11 
REMARK    4  A    between atoms: C7_11  and  C8_12 
REMARK    5  A    between atoms: C7_11  and  N2_16 
REMARK    6  A    between atoms: C8_12  and  C9_13 
REMARK       I    between atoms: N2_16  and  C12_18 
REMARK    7  A    between atoms: C12_18  and  C13_20 
REMARK    8  A    between atoms: C13_20  and  C14_21 
REMARK    9  A    between atoms: C13_20  and  N3_24 
ROOT
HETATM    1  C7  UNL     1     -26.273  10.028 -17.930  1.00  0.00     0.177 C 
ENDROOT
BRANCH   1   2
HETATM    2  C6  UNL     1     -25.788   9.330 -16.712  1.00  0.00     0.240 C 
HETATM    3  N1  UNL     1     -24.780   9.977 -15.948  1.00  0.00    -0.354 N 
ATOM      4  H1  UNL     1     -24.422  10.886 -16.243  1.00  0.00     0.162 HD
HETATM    5  O2  UNL     1     -26.226   8.212 -16.344  1.00  0.00    -0.271 OA
BRANCH   3   6
HETATM    6  C5  UNL     1     -24.267   9.357 -14.768  1.00  0.00     0.088 C 
HETATM    7  C4  UNL     1     -25.379   9.170 -13.736  1.00  0.00     0.028 C 
HETATM    8  C3  UNL     1     -24.909   8.247 -12.633  1.00  0.00     0.040 C 
HETATM    9  C2  UNL     1     -24.158   7.089 -13.219  1.00  0.00     0.061 C 
HETATM   10  C25 UNL     1     -24.612   6.864 -14.647  1.00  0.00     0.044 C 
HETATM   11  C26 UNL     1     -22.858   7.629 -13.787  1.00  0.00     0.044 C 
HETATM   12  C24 UNL     1     -23.672   8.002 -15.033  1.00  0.00     0.014 C 
BRANCH   9  13
HETATM   13  O1  UNL     1     -24.078   5.939 -12.492  1.00  0.00    -0.385 OA
HETATM   14  C1  UNL     1     -23.427   6.085 -11.293  1.00  0.00     0.202 C 
ENDBRANCH   9  13
ENDBRANCH   3   6
ENDBRANCH   1   2
BRANCH   1  15
HETATM   15  C8  UNL     1     -25.236  10.565 -18.819  1.00  0.00     0.038 C 
BRANCH  15  16
HETATM   16  C9  UNL     1     -25.590  11.168 -20.108  1.00  0.00    -0.020 C 
HETATM   17  C10 UNL     1     -26.965  10.585 -20.497  1.00  0.00     0.009 C 
HETATM   18  C11 UNL     1     -24.706  10.899 -21.273  1.00  0.00     0.009 C 
ENDBRANCH  15  16
ENDBRANCH   1  15
BRANCH   1  19
HETATM   19  N2  UNL     1     -27.265  10.983 -17.491  1.00  0.00    -0.346 N 
HETATM   20  C12 UNL     1     -27.013  12.303 -17.116  1.00  0.00     0.241 C 
HETATM   21  O3  UNL     1     -25.864  12.832 -17.116  1.00  0.00    -0.271 OA
ATOM     22  H2  UNL     1     -28.233  10.664 -17.451  1.00  0.00     0.163 HD
BRANCH  20  23
HETATM   23  C13 UNL     1     -28.124  13.178 -16.685  1.00  0.00     0.182 C 
BRANCH  23  24
HETATM   24  C14 UNL     1     -27.964  14.606 -17.215  1.00  0.00     0.009 C 
HETATM   25  C15 UNL     1     -27.736  15.617 -16.136  1.00  0.00     0.012 C 
HETATM   26  C16 UNL     1     -29.132  14.971 -18.104  1.00  0.00     0.012 C 
ENDBRANCH  23  24
BRANCH  23  27
HETATM   27  N3  UNL     1     -28.374  13.133 -15.283  1.00  0.00    -0.338 N 
HETATM   28  C17 UNL     1     -27.451  12.756 -14.243  1.00  0.00     0.127 C 
HETATM   29  C18 UNL     1     -27.357  13.818 -13.166  1.00  0.00     0.029 C 
HETATM   30  C19 UNL     1     -28.729  14.242 -12.693  1.00  0.00    -0.038 C 
HETATM   31  C20 UNL     1     -28.989  15.719 -12.870  1.00  0.00     0.015 C 
HETATM   32  C21 UNL     1     -28.792  13.987 -11.185  1.00  0.00     0.015 C 
HETATM   33  C22 UNL     1     -29.846  13.477 -13.320  1.00  0.00     0.111 C 
HETATM   34  C23 UNL     1     -29.699  13.482 -14.798  1.00  0.00     0.221 C 
HETATM   35  O4  UNL     1     -30.630  13.761 -15.578  1.00  0.00    -0.273 OA
ENDBRANCH  23  27
ENDBRANCH  20  23
ENDBRANCH   1  19
TORSDOF 9
ENDMDL
MODEL 3
REMARK VINA RESULT: -9.392596956      0.998      1.381
REMARK  9 active torsions:
REMARK  status: ('A' for Active; 'I' for Inactive)
REMARK    1  A    between atoms: O1_2  and  C2_3 
REMARK    2  A    between atoms: C5_6  and  N1_7 
REMARK       I    between atoms: N1_7  and  C6_9 
REMARK    3  A    between atoms: C6_9  and  C7_11 
REMARK    4  A    between atoms: C7_11  and  C8_12 
REMARK    5  A    between atoms: C7_11  and  N2_16 
REMARK    6  A    between atoms: C8_12  and  C9_13 
REMARK       I    between atoms: N2_16  and  C12_18 
REMARK    7  A    between atoms: C12_18  and  C13_20 
REMARK    8  A    between atoms: C13_20  and  C14_21 
REMARK    9  A    between atoms: C13_20  and  N3_24 
ROOT
HETATM    1  C7  UNL     1     -25.754  10.049 -17.616  1.00  0.00     0.177 C 
ENDROOT
BRANCH   1   2
HETATM    2  C6  UNL     1     -25.094   9.421 -16.443  1.00  0.00     0.240 C 
HETATM    3  N1  UNL     1     -24.930   8.011 -16.464  1.00  0.00    -0.354 N 
ATOM      4  H1  UNL     1     -25.258   7.472 -17.265  1.00  0.00     0.162 HD
HETATM    5  O2  UNL     1     -24.687  10.081 -15.454  1.00  0.00    -0.271 OA
BRANCH   3   6
HETATM    6  C5  UNL     1     -24.307   7.345 -15.364  1.00  0.00     0.088 C 
HETATM    7  C4  UNL     1     -23.202   8.217 -14.769  1.00  0.00     0.028 C 
HETATM    8  C3  UNL     1     -22.764   7.655 -13.434  1.00  0.00     0.040 C 
HETATM    9  C2  UNL     1     -23.962   7.228 -12.640  1.00  0.00     0.061 C 
HETATM   10  C25 UNL     1     -25.175   8.013 -13.095  1.00  0.00     0.044 C 
HETATM   11  C26 UNL     1     -24.563   6.020 -13.336  1.00  0.00     0.044 C 
HETATM   12  C24 UNL     1     -25.271   7.026 -14.255  1.00  0.00     0.014 C 
BRANCH   9  13
HETATM   13  O1  UNL     1     -23.844   7.156 -11.284  1.00  0.00    -0.385 OA
HETATM   14  C1  UNL     1     -23.216   6.019 -10.841  1.00  0.00     0.202 C 
ENDBRANCH   9  13
ENDBRANCH   3   6
ENDBRANCH   1   2
BRANCH   1  15
HETATM   15  C8  UNL     1     -24.953  10.114 -18.845  1.00  0.00     0.038 C 
BRANCH  15  16
HETATM   16  C9  UNL     1     -25.324  11.019 -19.937  1.00  0.00    -0.020 C 
HETATM   17  C10 UNL     1     -26.695  10.534 -20.455  1.00  0.00     0.009 C 
HETATM   18  C11 UNL     1     -24.447  11.067 -21.136  1.00  0.00     0.009 C 
ENDBRANCH  15  16
ENDBRANCH   1  15
BRANCH   1  19
HETATM   19  N2  UNL     1     -26.291  11.311 -17.162  1.00  0.00    -0.346 N 
HETATM   20  C12 UNL     1     -27.615  11.730 -17.301  1.00  0.00     0.241 C 
HETATM   21  O3  UNL     1     -28.520  11.040 -17.853  1.00  0.00    -0.271 OA
ATOM     22  H2  UNL     1     -25.646  11.952 -16.699  1.00  0.00     0.163 HD
BRANCH  20  23
HETATM   23  C13 UNL     1     -28.033  13.051 -16.789  1.00  0.00     0.182 C 
BRANCH  23  24
HETATM   24  C14 UNL     1     -27.054  14.157 -17.195  1.00  0.00     0.009 C 
HETATM   25  C15 UNL     1     -27.434  15.507 -16.674  1.00  0.00     0.012 C 
HETATM   26  C16 UNL     1     -26.852  14.157 -18.693  1.00  0.00     0.012 C 
ENDBRANCH  23  24
BRANCH  23  27
HETATM   27  N3  UNL     1     -28.325  13.057 -15.394  1.00  0.00    -0.338 N 
HETATM   28  C17 UNL     1     -27.442  12.692 -14.316  1.00  0.00     0.127 C 
HETATM   29  C18 UNL     1     -27.354  13.785 -13.270  1.00  0.00     0.029 C 
HETATM   30  C19 UNL     1     -28.730  14.255 -12.851  1.00  0.00    -0.038 C 
HETATM   31  C20 UNL     1     -28.949  15.730 -13.081  1.00  0.00     0.015 C 
HETATM   32  C21 UNL     1     -28.843  14.049 -11.338  1.00  0.00     0.015 C 
HETATM   33  C22 UNL     1     -29.846  13.496 -13.487  1.00  0.00     0.111 C 
HETATM   34  C23 UNL     1     -29.655  13.450 -14.960  1.00  0.00     0.221 C 
HETATM   35  O4  UNL     1     -30.557  13.726 -15.775  1.00  0.00    -0.273 OA
ENDBRANCH  23  27
ENDBRANCH  20  23
ENDBRANCH   1  19
TORSDOF 9
ENDMDL
MODEL 4
REMARK VINA RESULT: -9.300147137      1.020      1.137
REMARK  9 active torsions:
REMARK  status: ('A' for Active; 'I' for Inactive)
REMARK    1  A    between atoms: O1_2  and  C2_3 
REMARK    2  A    between atoms: C5_6  and  N1_7 
REMARK       I    between atoms: N1_7  and  C6_9 
REMARK    3  A    between atoms: C6_9  and  C7_11 
REMARK    4  A    between atoms: C7_11  and  C8_12 
REMARK    5  A    between atoms: C7_11  and  N2_16 
REMARK    6  A    between atoms: C8_12  and  C9_13 
REMARK       I    between atoms: N2_16  and  C12_18 
REMARK    7  A    between atoms: C12_18  and  C13_20 
REMARK    8  A    between atoms: C13_20  and  C14_21 
REMARK    9  A    between atoms: C13_20  and  N3_24 
ROOT
HETATM    1  C7  UNL     1     -25.945  10.601 -17.922  1.00  0.00     0.177 C 
ENDROOT
BRANCH   1   2
HETATM    2  C6  UNL     1     -25.182   9.837 -16.902  1.00  0.00     0.240 C 
HETATM    3  N1  UNL     1     -25.435  10.137 -15.537  1.00  0.00    -0.354 N 
ATOM      4  H1  UNL     1     -26.120  10.851 -15.291  1.00  0.00     0.162 HD
HETATM    5  O2  UNL     1     -24.337   8.955 -17.200  1.00  0.00    -0.271 OA
BRANCH   3   6
HETATM    6  C5  UNL     1     -24.730   9.440 -14.508  1.00  0.00     0.088 C 
HETATM    7  C4  UNL     1     -25.653   9.165 -13.321  1.00  0.00     0.028 C 
HETATM    8  C3  UNL     1     -25.004   8.171 -12.383  1.00  0.00     0.040 C 
HETATM    9  C2  UNL     1     -24.361   7.068 -13.170  1.00  0.00     0.061 C 
HETATM   10  C25 UNL     1     -25.048   6.941 -14.515  1.00  0.00     0.044 C 
HETATM   11  C26 UNL     1     -23.174   7.665 -13.905  1.00  0.00     0.044 C 
HETATM   12  C24 UNL     1     -24.187   8.116 -14.968  1.00  0.00     0.014 C 
BRANCH   9  13
HETATM   13  O1  UNL     1     -24.158   5.870 -12.553  1.00  0.00    -0.385 OA
HETATM   14  C1  UNL     1     -23.557   5.973 -11.323  1.00  0.00     0.202 C 
ENDBRANCH   9  13
ENDBRANCH   3   6
ENDBRANCH   1   2
BRANCH   1  15
HETATM   15  C8  UNL     1     -25.236  10.886 -19.175  1.00  0.00     0.038 C 
BRANCH  15  16
HETATM   16  C9  UNL     1     -25.684  10.302 -20.442  1.00  0.00    -0.020 C 
HETATM   17  C10 UNL     1     -24.793  10.916 -21.542  1.00  0.00     0.009 C 
HETATM   18  C11 UNL     1     -27.081  10.563 -20.878  1.00  0.00     0.009 C 
ENDBRANCH  15  16
ENDBRANCH   1  15
BRANCH   1  19
HETATM   19  N2  UNL     1     -26.493  11.756 -17.246  1.00  0.00    -0.346 N 
HETATM   20  C12 UNL     1     -27.641  12.452 -17.627  1.00  0.00     0.241 C 
HETATM   21  O3  UNL     1     -28.352  12.150 -18.629  1.00  0.00    -0.271 OA
ATOM     22  H2  UNL     1     -25.998  12.090 -16.420  1.00  0.00     0.163 HD
BRANCH  20  23
HETATM   23  C13 UNL     1     -28.095  13.621 -16.845  1.00  0.00     0.182 C 
BRANCH  23  24
HETATM   24  C14 UNL     1     -27.165  14.825 -17.027  1.00  0.00     0.009 C 
HETATM   25  C15 UNL     1     -25.811  14.625 -16.423  1.00  0.00     0.012 C 
HETATM   26  C16 UNL     1     -27.834  16.086 -16.529  1.00  0.00     0.012 C 
ENDBRANCH  23  24
BRANCH  23  27
HETATM   27  N3  UNL     1     -28.355  13.325 -15.476  1.00  0.00    -0.338 N 
HETATM   28  C17 UNL     1     -27.435  12.779 -14.511  1.00  0.00     0.127 C 
HETATM   29  C18 UNL     1     -27.361  13.633 -13.261  1.00  0.00     0.029 C 
HETATM   30  C19 UNL     1     -28.742  13.952 -12.733  1.00  0.00    -0.038 C 
HETATM   31  C20 UNL     1     -29.017  15.434 -12.647  1.00  0.00     0.015 C 
HETATM   32  C21 UNL     1     -28.813  13.433 -11.295  1.00  0.00     0.015 C 
HETATM   33  C22 UNL     1     -29.845  13.299 -13.497  1.00  0.00     0.111 C 
HETATM   34  C23 UNL     1     -29.687  13.568 -14.949  1.00  0.00     0.221 C 
HETATM   35  O4  UNL     1     -30.616  13.972 -15.675  1.00  0.00    -0.273 OA
ENDBRANCH  23  27
ENDBRANCH  20  23
ENDBRANCH   1  19
TORSDOF 9
ENDMDL
MODEL 5
REMARK VINA RESULT: -9.248130746      1.175      1.667
REMARK  9 active torsions:
REMARK  status: ('A' for Active; 'I' for Inactive)
REMARK    1  A    between atoms: O1_2  and  C2_3 
REMARK    2  A    between atoms: C5_6  and  N1_7 
REMARK       I    between atoms: N1_7  and  C6_9 
REMARK    3  A    between atoms: C6_9  and  C7_11 
REMARK    4  A    between atoms: C7_11  and  C8_12 
REMARK    5  A    between atoms: C7_11  and  N2_16 
REMARK    6  A    between atoms: C8_12  and  C9_13 
REMARK       I    between atoms: N2_16  and  C12_18 
REMARK    7  A    between atoms: C12_18  and  C13_20 
REMARK    8  A    between atoms: C13_20  and  C14_21 
REMARK    9  A    between atoms: C13_20  and  N3_24 
ROOT
HETATM    1  C7  UNL     1     -25.968  10.521 -18.021  1.00  0.00     0.177 C 
ENDROOT
BRANCH   1   2
HETATM    2  C6  UNL     1     -25.520   9.594 -16.950  1.00  0.00     0.240 C 
HETATM    3  N1  UNL     1     -26.030   9.813 -15.642  1.00  0.00    -0.354 N 
ATOM      4  H1  UNL     1     -26.679  10.582 -15.471  1.00  0.00     0.162 HD
HETATM    5  O2  UNL     1     -24.723   8.645 -17.156  1.00  0.00    -0.271 OA
BRANCH   3   6
HETATM    6  C5  UNL     1     -25.635   8.959 -14.567  1.00  0.00     0.088 C 
HETATM    7  C4  UNL     1     -25.305   7.562 -15.088  1.00  0.00     0.028 C 
HETATM    8  C3  UNL     1     -24.599   6.764 -14.014  1.00  0.00     0.040 C 
HETATM    9  C2  UNL     1     -23.582   7.622 -13.323  1.00  0.00     0.061 C 
HETATM   10  C25 UNL     1     -23.145   8.736 -14.254  1.00  0.00     0.044 C 
HETATM   11  C26 UNL     1     -24.336   8.672 -12.526  1.00  0.00     0.044 C 
HETATM   12  C24 UNL     1     -24.420   9.464 -13.839  1.00  0.00     0.014 C 
BRANCH   9  13
HETATM   13  O1  UNL     1     -22.541   7.008 -12.693  1.00  0.00    -0.385 OA
HETATM   14  C1  UNL     1     -22.632   7.026 -11.324  1.00  0.00     0.202 C 
ENDBRANCH   9  13
ENDBRANCH   3   6
ENDBRANCH   1   2
BRANCH   1  15
HETATM   15  C8  UNL     1     -25.004  10.768 -19.100  1.00  0.00     0.038 C 
BRANCH  15  16
HETATM   16  C9  UNL     1     -25.455  11.213 -20.422  1.00  0.00    -0.020 C 
HETATM   17  C10 UNL     1     -26.763  10.448 -20.714  1.00  0.00     0.009 C 
HETATM   18  C11 UNL     1     -24.575  10.944 -21.590  1.00  0.00     0.009 C 
ENDBRANCH  15  16
ENDBRANCH   1  15
BRANCH   1  19
HETATM   19  N2  UNL     1     -26.471  11.703 -17.359  1.00  0.00    -0.346 N 
HETATM   20  C12 UNL     1     -27.640  12.387 -17.694  1.00  0.00     0.241 C 
HETATM   21  O3  UNL     1     -28.414  12.047 -18.635  1.00  0.00    -0.271 OA
ATOM     22  H2  UNL     1     -25.924  12.069 -16.580  1.00  0.00     0.163 HD
BRANCH  20  23
HETATM   23  C13 UNL     1     -28.042  13.588 -16.932  1.00  0.00     0.182 C 
BRANCH  23  24
HETATM   24  C14 UNL     1     -27.054  14.743 -17.126  1.00  0.00     0.009 C 
HETATM   25  C15 UNL     1     -25.703  14.471 -16.545  1.00  0.00     0.012 C 
HETATM   26  C16 UNL     1     -27.649  16.036 -16.613  1.00  0.00     0.012 C 
ENDBRANCH  23  24
BRANCH  23  27
HETATM   27  N3  UNL     1     -28.324  13.327 -15.561  1.00  0.00    -0.338 N 
HETATM   28  C17 UNL     1     -27.420  12.805 -14.568  1.00  0.00     0.127 C 
HETATM   29  C18 UNL     1     -27.367  13.690 -13.339  1.00  0.00     0.029 C 
HETATM   30  C19 UNL     1     -28.757  14.021 -12.841  1.00  0.00    -0.038 C 
HETATM   31  C20 UNL     1     -29.034  15.504 -12.797  1.00  0.00     0.015 C 
HETATM   32  C21 UNL     1     -28.851  13.537 -11.392  1.00  0.00     0.015 C 
HETATM   33  C22 UNL     1     -29.847  13.349 -13.606  1.00  0.00     0.111 C 
HETATM   34  C23 UNL     1     -29.665  13.582 -15.062  1.00  0.00     0.221 C 
HETATM   35  O4  UNL     1     -30.582  13.967 -15.813  1.00  0.00    -0.273 OA
ENDBRANCH  23  27
ENDBRANCH  20  23
ENDBRANCH   1  19
TORSDOF 9
ENDMDL
