MODEL 1
REMARK VINA RESULT: -7.956444607      0.000      0.000
REMARK  7 active torsions:
REMARK  status: ('A' for Active; 'I' for Inactive)
REMARK    1  A    between atoms: N1_1  and  N2_4 
REMARK    2  A    between atoms: N2_4  and  N3_6 
REMARK       I    between atoms: N3_6  and  C1_7 
REMARK    3  A    between atoms: C1_7  and  C2_9 
REMARK    4  A    between atoms: C2_9  and  C3_10 
REMARK    5  A    between atoms: C3_10  and  N4_11 
REMARK    6  A    between atoms: C3_10  and  C10_29 
REMARK    7  A    between atoms: N4_11  and  C4_13 
REMARK       I    between atoms: C10_29  and  N9_30 
ROOT
HETATM    1  N4  UNL     1      23.166   4.166  -2.526  1.00  0.00    -0.209 N 
ATOM      2  H4  UNL     1      23.761   4.000  -1.716  1.00  0.00     0.179 HD
ENDROOT
BRANCH   1   3
HETATM    3  C3  UNL     1      23.526   3.807  -3.867  1.00  0.00     0.221 C 
BRANCH   3   4
HETATM    4  C2  UNL     1      23.252   4.501  -5.058  1.00  0.00     0.100 C 
BRANCH   4   5
HETATM    5  C1  UNL     1      22.116   4.220  -6.040  1.00  0.00     0.336 C 
HETATM    6  N3  UNL     1      22.094   5.135  -7.069  1.00  0.00    -0.267 NA
HETATM    7  O1  UNL     1      21.476   3.255  -5.703  1.00  0.00    -0.250 OA
BRANCH   6   8
HETATM    8  N2  UNL     1      21.997   5.951  -8.080  1.00  0.00    -0.179 N 
ATOM      9  H2  UNL     1      21.952   5.622  -9.044  1.00  0.00     0.223 HD
BRANCH   8  10
HETATM   10  N1  UNL     1      21.960   7.345  -7.742  1.00  0.00    -0.320 N 
ATOM     11  H12 UNL     1      21.996   7.658  -6.772  1.00  0.00     0.179 HD
ATOM     12  H11 UNL     1      21.897   7.984  -8.534  1.00  0.00     0.179 HD
ENDBRANCH   8  10
ENDBRANCH   6   8
ENDBRANCH   4   5
ENDBRANCH   3   4
BRANCH   3  13
HETATM   13  C10 UNL     1      25.102   4.081  -3.720  1.00  0.00     0.242 C 
HETATM   14  N9  UNL     1      25.894   3.012  -3.396  1.00  0.00    -0.368 N 
ATOM     15  H92 UNL     1      25.608   2.046  -3.237  1.00  0.00     0.159 HD
ATOM     16  H91 UNL     1      26.895   3.186  -3.303  1.00  0.00     0.159 HD
HETATM   17  O4  UNL     1      25.450   5.260  -3.914  1.00  0.00    -0.271 OA
ENDBRANCH   3  13
ENDBRANCH   1   3
BRANCH   1  18
HETATM   18  C4  UNL     1      21.960   4.744  -2.458  1.00  0.00     0.682 A 
HETATM   19  N5  UNL     1      20.849   4.125  -2.758  1.00  0.00    -0.154 N 
HETATM   20  C5  UNL     1      19.611   4.652  -2.409  1.00  0.00     0.288 A 
ATOM     21  H5  UNL     1      20.891   3.237  -3.257  1.00  0.00     0.187 HD
HETATM   22  O2  UNL     1      18.562   4.043  -2.705  1.00  0.00    -0.265 OA
HETATM   23  C6  UNL     1      19.539   5.833  -1.738  1.00  0.00     0.135 A 
HETATM   24  N6  UNL     1      18.400   6.408  -1.373  1.00  0.00    -0.346 N 
HETATM   25  C9  UNL     1      20.746   6.443  -1.432  1.00  0.00     0.149 A 
HETATM   26  C7  UNL     1      18.386   7.551  -0.716  1.00  0.00     0.184 A 
ATOM     27  H6  UNL     1      17.516   5.955  -1.606  1.00  0.00     0.167 HD
HETATM   28  N7  UNL     1      19.577   8.167  -0.400  1.00  0.00    -0.318 N 
HETATM   29  C8  UNL     1      20.718   7.649  -0.734  1.00  0.00     0.276 A 
ATOM     30  H7  UNL     1      19.561   9.051   0.107  1.00  0.00     0.169 HD
HETATM   31  O3  UNL     1      21.850   8.138  -0.491  1.00  0.00    -0.266 OA
HETATM   32  N8  UNL     1      21.904   5.888  -1.799  1.00  0.00    -0.184 N 
ATOM     33  H8  UNL     1      22.776   6.363  -1.561  1.00  0.00     0.184 HD
ENDBRANCH   1  18
TORSDOF 7
ENDMDL
MODEL 2
REMARK VINA RESULT: -7.840644244      2.335      6.631
REMARK  7 active torsions:
REMARK  status: ('A' for Active; 'I' for Inactive)
REMARK    1  A    between atoms: N1_1  and  N2_4 
REMARK    2  A    between atoms: N2_4  and  N3_6 
REMARK       I    between atoms: N3_6  and  C1_7 
REMARK    3  A    between atoms: C1_7  and  C2_9 
REMARK    4  A    between atoms: C2_9  and  C3_10 
REMARK    5  A    between atoms: C3_10  and  N4_11 
REMARK    6  A    between atoms: C3_10  and  C10_29 
REMARK    7  A    between atoms: N4_11  and  C4_13 
REMARK       I    between atoms: C10_29  and  N9_30 
ROOT
HETATM    1  N4  UNL     1      21.133   5.431  -1.479  1.00  0.00    -0.209 N 
ATOM      2  H4  UNL     1      21.654   5.866  -0.719  1.00  0.00     0.179 HD
ENDROOT
BRANCH   1   3
HETATM    3  C3  UNL     1      19.704   5.464  -1.585  1.00  0.00     0.221 C 
BRANCH   3   4
HETATM    4  C2  UNL     1      18.750   5.224  -0.580  1.00  0.00     0.100 C 
BRANCH   4   5
HETATM    5  C1  UNL     1      17.787   4.041  -0.496  1.00  0.00     0.336 C 
HETATM    6  N3  UNL     1      18.404   2.916   0.006  1.00  0.00    -0.267 NA
HETATM    7  O1  UNL     1      16.689   4.344  -0.891  1.00  0.00    -0.250 OA
BRANCH   6   8
HETATM    8  N2  UNL     1      18.900   1.807   0.473  1.00  0.00    -0.179 N 
ATOM      9  H2  UNL     1      19.520   1.213  -0.078  1.00  0.00     0.223 HD
BRANCH   8  10
HETATM   10  N1  UNL     1      18.515   1.478   1.814  1.00  0.00    -0.320 N 
ATOM     11  H12 UNL     1      17.569   1.652   2.154  1.00  0.00     0.179 HD
ATOM     12  H11 UNL     1      19.248   1.064   2.390  1.00  0.00     0.179 HD
ENDBRANCH   8  10
ENDBRANCH   6   8
ENDBRANCH   4   5
ENDBRANCH   3   4
BRANCH   3  13
HETATM   13  C10 UNL     1      19.562   7.055  -1.754  1.00  0.00     0.242 C 
HETATM   14  N9  UNL     1      20.419   7.839  -1.027  1.00  0.00    -0.368 N 
ATOM     15  H92 UNL     1      21.151   7.537  -0.385  1.00  0.00     0.159 HD
ATOM     16  H91 UNL     1      20.328   8.849  -1.135  1.00  0.00     0.159 HD
HETATM   17  O4  UNL     1      18.668   7.423  -2.538  1.00  0.00    -0.271 OA
ENDBRANCH   3  13
ENDBRANCH   1   3
BRANCH   1  18
HETATM   18  C4  UNL     1      21.706   4.766  -2.490  1.00  0.00     0.682 A 
HETATM   19  N5  UNL     1      21.246   4.783  -3.713  1.00  0.00    -0.154 N 
HETATM   20  C5  UNL     1      22.010   4.324  -4.779  1.00  0.00     0.288 A 
ATOM     21  H5  UNL     1      20.307   5.140  -3.889  1.00  0.00     0.187 HD
HETATM   22  O2  UNL     1      21.551   4.349  -5.940  1.00  0.00    -0.265 OA
HETATM   23  C6  UNL     1      23.267   3.849  -4.561  1.00  0.00     0.135 A 
HETATM   24  N6  UNL     1      24.059   3.387  -5.520  1.00  0.00    -0.346 N 
HETATM   25  C9  UNL     1      23.712   3.865  -3.248  1.00  0.00     0.149 A 
HETATM   26  C7  UNL     1      25.273   2.944  -5.255  1.00  0.00     0.184 A 
ATOM     27  H6  UNL     1      23.722   3.374  -6.483  1.00  0.00     0.167 HD
HETATM   28  N7  UNL     1      25.733   2.959  -3.957  1.00  0.00    -0.318 N 
HETATM   29  C8  UNL     1      24.999   3.399  -2.982  1.00  0.00     0.276 A 
ATOM     30  H7  UNL     1      26.672   2.615  -3.758  1.00  0.00     0.169 HD
HETATM   31  O3  UNL     1      25.332   3.448  -1.772  1.00  0.00    -0.266 OA
HETATM   32  N8  UNL     1      22.928   4.315  -2.265  1.00  0.00    -0.184 N 
ATOM     33  H8  UNL     1      23.285   4.311  -1.309  1.00  0.00     0.184 HD
ENDBRANCH   1  18
TORSDOF 7
ENDMDL
MODEL 3
REMARK VINA RESULT: -7.687054036      1.235      2.608
REMARK  7 active torsions:
REMARK  status: ('A' for Active; 'I' for Inactive)
REMARK    1  A    between atoms: N1_1  and  N2_4 
REMARK    2  A    between atoms: N2_4  and  N3_6 
REMARK       I    between atoms: N3_6  and  C1_7 
REMARK    3  A    between atoms: C1_7  and  C2_9 
REMARK    4  A    between atoms: C2_9  and  C3_10 
REMARK    5  A    between atoms: C3_10  and  N4_11 
REMARK    6  A    between atoms: C3_10  and  C10_29 
REMARK    7  A    between atoms: N4_11  and  C4_13 
REMARK       I    between atoms: C10_29  and  N9_30 
ROOT
HETATM    1  N4  UNL     1      23.148   4.982  -3.154  1.00  0.00    -0.209 N 
ATOM      2  H4  UNL     1      23.782   5.662  -3.572  1.00  0.00     0.179 HD
ENDROOT
BRANCH   1   3
HETATM    3  C3  UNL     1      23.394   3.570  -3.138  1.00  0.00     0.221 C 
BRANCH   3   4
HETATM    4  C2  UNL     1      23.278   2.654  -4.199  1.00  0.00     0.100 C 
BRANCH   4   5
HETATM    5  C1  UNL     1      22.433   2.818  -5.461  1.00  0.00     0.336 C 
HETATM    6  N3  UNL     1      22.458   4.114  -5.927  1.00  0.00    -0.267 NA
HETATM    7  O1  UNL     1      21.920   1.774  -5.781  1.00  0.00    -0.250 OA
BRANCH   6   8
HETATM    8  N2  UNL     1      22.425   5.309  -6.442  1.00  0.00    -0.179 N 
ATOM      9  H2  UNL     1      22.269   6.143  -5.874  1.00  0.00     0.223 HD
BRANCH   8  10
HETATM   10  N1  UNL     1      22.621   5.373  -7.861  1.00  0.00    -0.320 N 
ATOM     11  H12 UNL     1      22.982   4.576  -8.384  1.00  0.00     0.179 HD
ATOM     12  H11 UNL     1      22.376   6.262  -8.296  1.00  0.00     0.179 HD
ENDBRANCH   8  10
ENDBRANCH   6   8
ENDBRANCH   4   5
ENDBRANCH   3   4
BRANCH   3  13
HETATM   13  C10 UNL     1      24.991   3.656  -2.994  1.00  0.00     0.242 C 
HETATM   14  N9  UNL     1      25.624   2.590  -2.409  1.00  0.00    -0.368 N 
ATOM     15  H92 UNL     1      25.204   1.733  -2.051  1.00  0.00     0.159 HD
ATOM     16  H91 UNL     1      26.638   2.645  -2.318  1.00  0.00     0.159 HD
HETATM   17  O4  UNL     1      25.503   4.702  -3.431  1.00  0.00    -0.271 OA
ENDBRANCH   3  13
ENDBRANCH   1   3
BRANCH   1  18
HETATM   18  C4  UNL     1      21.995   5.308  -2.557  1.00  0.00     0.682 A 
HETATM   19  N5  UNL     1      21.891   6.256  -1.663  1.00  0.00    -0.154 N 
HETATM   20  C5  UNL     1      20.653   6.754  -1.279  1.00  0.00     0.288 A 
ATOM     21  H5  UNL     1      22.737   6.637  -1.239  1.00  0.00     0.187 HD
HETATM   22  O2  UNL     1      20.577   7.661  -0.423  1.00  0.00    -0.265 OA
HETATM   23  C6  UNL     1      19.516   6.260  -1.839  1.00  0.00     0.135 A 
HETATM   24  N6  UNL     1      18.296   6.675  -1.525  1.00  0.00    -0.346 N 
HETATM   25  C9  UNL     1      19.681   5.266  -2.791  1.00  0.00     0.149 A 
HETATM   26  C7  UNL     1      17.226   6.166  -2.105  1.00  0.00     0.184 A 
ATOM     27  H6  UNL     1      18.183   7.404  -0.819  1.00  0.00     0.167 HD
HETATM   28  N7  UNL     1      17.372   5.182  -3.056  1.00  0.00    -0.318 N 
HETATM   29  C8  UNL     1      18.542   4.739  -3.400  1.00  0.00     0.276 A 
ATOM     30  H7  UNL     1      16.542   4.792  -3.501  1.00  0.00     0.169 HD
HETATM   31  O3  UNL     1      18.772   3.846  -4.253  1.00  0.00    -0.266 OA
HETATM   32  N8  UNL     1      20.899   4.824  -3.116  1.00  0.00    -0.184 N 
ATOM     33  H8  UNL     1      20.986   4.090  -3.818  1.00  0.00     0.184 HD
ENDBRANCH   1  18
TORSDOF 7
ENDMDL
MODEL 4
REMARK VINA RESULT: -7.685354237      1.153      2.485
REMARK  7 active torsions:
REMARK  status: ('A' for Active; 'I' for Inactive)
REMARK    1  A    between atoms: N1_1  and  N2_4 
REMARK    2  A    between atoms: N2_4  and  N3_6 
REMARK       I    between atoms: N3_6  and  C1_7 
REMARK    3  A    between atoms: C1_7  and  C2_9 
REMARK    4  A    between atoms: C2_9  and  C3_10 
REMARK    5  A    between atoms: C3_10  and  N4_11 
REMARK    6  A    between atoms: C3_10  and  C10_29 
REMARK    7  A    between atoms: N4_11  and  C4_13 
REMARK       I    between atoms: C10_29  and  N9_30 
ROOT
HETATM    1  N4  UNL     1      23.091   5.347  -2.729  1.00  0.00    -0.209 N 
ATOM      2  H4  UNL     1      23.860   6.014  -2.790  1.00  0.00     0.179 HD
ENDROOT
BRANCH   1   3
HETATM    3  C3  UNL     1      23.093   4.067  -3.374  1.00  0.00     0.221 C 
BRANCH   3   4
HETATM    4  C2  UNL     1      22.878   3.777  -4.734  1.00  0.00     0.100 C 
BRANCH   4   5
HETATM    5  C1  UNL     1      21.691   4.220  -5.588  1.00  0.00     0.336 C 
HETATM    6  N3  UNL     1      22.097   4.938  -6.691  1.00  0.00    -0.267 NA
HETATM    7  O1  UNL     1      20.648   3.849  -5.111  1.00  0.00    -0.250 OA
BRANCH   6   8
HETATM    8  N2  UNL     1      22.387   5.623  -7.760  1.00  0.00    -0.179 N 
ATOM      9  H2  UNL     1      22.844   5.203  -8.569  1.00  0.00     0.223 HD
BRANCH   8  10
HETATM   10  N1  UNL     1      22.019   7.009  -7.720  1.00  0.00    -0.320 N 
ATOM     11  H12 UNL     1      21.761   7.465  -6.845  1.00  0.00     0.179 HD
ATOM     12  H11 UNL     1      22.037   7.492  -8.617  1.00  0.00     0.179 HD
ENDBRANCH   8  10
ENDBRANCH   6   8
ENDBRANCH   4   5
ENDBRANCH   3   4
BRANCH   3  13
HETATM   13  C10 UNL     1      24.672   3.800  -3.261  1.00  0.00     0.242 C 
HETATM   14  N9  UNL     1      25.068   2.534  -2.916  1.00  0.00    -0.368 N 
ATOM     15  H92 UNL     1      24.478   1.724  -2.724  1.00  0.00     0.159 HD
ATOM     16  H91 UNL     1      26.070   2.364  -2.844  1.00  0.00     0.159 HD
HETATM   17  O4  UNL     1      25.391   4.787  -3.495  1.00  0.00    -0.271 OA
ENDBRANCH   3  13
ENDBRANCH   1   3
BRANCH   1  18
HETATM   18  C4  UNL     1      21.966   5.570  -2.037  1.00  0.00     0.682 A 
HETATM   19  N5  UNL     1      21.665   6.727  -1.510  1.00  0.00    -0.154 N 
HETATM   20  C5  UNL     1      20.382   7.001  -1.052  1.00  0.00     0.288 A 
ATOM     21  H5  UNL     1      22.386   7.445  -1.434  1.00  0.00     0.187 HD
HETATM   22  O2  UNL     1      20.115   8.114  -0.551  1.00  0.00    -0.265 OA
HETATM   23  C6  UNL     1      19.408   6.056  -1.152  1.00  0.00     0.135 A 
HETATM   24  N6  UNL     1      18.161   6.233  -0.734  1.00  0.00    -0.346 N 
HETATM   25  C9  UNL     1      19.775   4.851  -1.730  1.00  0.00     0.149 A 
HETATM   26  C7  UNL     1      17.252   5.286  -0.862  1.00  0.00     0.184 A 
ATOM     27  H6  UNL     1      17.900   7.121  -0.305  1.00  0.00     0.167 HD
HETATM   28  N7  UNL     1      17.599   4.085  -1.439  1.00  0.00    -0.318 N 
HETATM   29  C8  UNL     1      18.804   3.860  -1.863  1.00  0.00     0.276 A 
ATOM     30  H7  UNL     1      16.893   3.356  -1.535  1.00  0.00     0.169 HD
HETATM   31  O3  UNL     1      19.211   2.799  -2.399  1.00  0.00    -0.266 OA
HETATM   32  N8  UNL     1      21.027   4.647  -2.148  1.00  0.00    -0.184 N 
ATOM     33  H8  UNL     1      21.266   3.748  -2.567  1.00  0.00     0.184 HD
ENDBRANCH   1  18
TORSDOF 7
ENDMDL
MODEL 5
REMARK VINA RESULT: -7.632001746      2.025      6.243
REMARK  7 active torsions:
REMARK  status: ('A' for Active; 'I' for Inactive)
REMARK    1  A    between atoms: N1_1  and  N2_4 
REMARK    2  A    between atoms: N2_4  and  N3_6 
REMARK       I    between atoms: N3_6  and  C1_7 
REMARK    3  A    between atoms: C1_7  and  C2_9 
REMARK    4  A    between atoms: C2_9  and  C3_10 
REMARK    5  A    between atoms: C3_10  and  N4_11 
REMARK    6  A    between atoms: C3_10  and  C10_29 
REMARK    7  A    between atoms: N4_11  and  C4_13 
REMARK       I    between atoms: C10_29  and  N9_30 
ROOT
HETATM    1  N4  UNL     1      21.525   5.568  -1.341  1.00  0.00    -0.209 N 
ATOM      2  H4  UNL     1      21.887   5.375  -0.408  1.00  0.00     0.179 HD
ENDROOT
BRANCH   1   3
HETATM    3  C3  UNL     1      20.263   6.201  -1.591  1.00  0.00     0.221 C 
BRANCH   3   4
HETATM    4  C2  UNL     1      19.008   5.887  -1.041  1.00  0.00     0.100 C 
BRANCH   4   5
HETATM    5  C1  UNL     1      18.492   4.498  -0.671  1.00  0.00     0.336 C 
HETATM    6  N3  UNL     1      18.990   3.528  -1.513  1.00  0.00    -0.267 NA
HETATM    7  O1  UNL     1      17.753   4.546   0.282  1.00  0.00    -0.250 OA
BRANCH   6   8
HETATM    8  N2  UNL     1      19.411   2.545  -2.256  1.00  0.00    -0.179 N 
ATOM      9  H2  UNL     1      19.931   2.699  -3.120  1.00  0.00     0.223 HD
BRANCH   8  10
HETATM   10  N1  UNL     1      19.094   1.232  -1.775  1.00  0.00    -0.320 N 
ATOM     11  H12 UNL     1      18.966   1.046  -0.781  1.00  0.00     0.179 HD
ATOM     12  H11 UNL     1      19.008   0.513  -2.493  1.00  0.00     0.179 HD
ENDBRANCH   8  10
ENDBRANCH   6   8
ENDBRANCH   4   5
ENDBRANCH   3   4
BRANCH   3  13
HETATM   13  C10 UNL     1      20.585   7.577  -0.829  1.00  0.00     0.242 C 
HETATM   14  N9  UNL     1      21.902   7.944  -0.733  1.00  0.00    -0.368 N 
ATOM     15  H92 UNL     1      22.718   7.449  -1.093  1.00  0.00     0.159 HD
ATOM     16  H91 UNL     1      22.107   8.818  -0.249  1.00  0.00     0.159 HD
HETATM   17  O4  UNL     1      19.590   8.180  -0.389  1.00  0.00    -0.271 OA
ENDBRANCH   3  13
ENDBRANCH   1   3
BRANCH   1  18
HETATM   18  C4  UNL     1      22.175   5.259  -2.470  1.00  0.00     0.682 A 
HETATM   19  N5  UNL     1      23.479   5.269  -2.574  1.00  0.00    -0.154 N 
HETATM   20  C5  UNL     1      24.122   4.678  -3.654  1.00  0.00     0.288 A 
ATOM     21  H5  UNL     1      24.034   5.720  -1.847  1.00  0.00     0.187 HD
HETATM   22  O2  UNL     1      25.368   4.699  -3.733  1.00  0.00    -0.265 OA
HETATM   23  C6  UNL     1      23.395   4.068  -4.628  1.00  0.00     0.135 A 
HETATM   24  N6  UNL     1      23.930   3.486  -5.694  1.00  0.00    -0.346 N 
HETATM   25  C9  UNL     1      22.019   4.073  -4.465  1.00  0.00     0.149 A 
HETATM   26  C7  UNL     1      23.179   2.901  -6.607  1.00  0.00     0.184 A 
ATOM     27  H6  UNL     1      24.943   3.491  -5.809  1.00  0.00     0.167 HD
HETATM   28  N7  UNL     1      21.810   2.892  -6.457  1.00  0.00    -0.318 N 
HETATM   29  C8  UNL     1      21.236   3.448  -5.435  1.00  0.00     0.276 A 
ATOM     30  H7  UNL     1      21.234   2.440  -7.166  1.00  0.00     0.169 HD
HETATM   31  O3  UNL     1      20.000   3.491  -5.215  1.00  0.00    -0.266 OA
HETATM   32  N8  UNL     1      21.458   4.663  -3.406  1.00  0.00    -0.184 N 
ATOM     33  H8  UNL     1      20.442   4.651  -3.316  1.00  0.00     0.184 HD
ENDBRANCH   1  18
TORSDOF 7
ENDMDL
