MODEL 1
REMARK VINA RESULT: -7.186022096      0.000      0.000
REMARK  6 active torsions:
REMARK  status: ('A' for Active; 'I' for Inactive)
REMARK    1  A    between atoms: N1_1  and  N2_4 
REMARK       I    between atoms: N2_4  and  C1_6 
REMARK    2  A    between atoms: C1_6  and  C2_8 
REMARK    3  A    between atoms: N3_9  and  N4_11 
REMARK       I    between atoms: N4_11  and  C3_13 
REMARK       I    between atoms: C3_13  and  N5_15 
REMARK    4  A    between atoms: N5_15  and  N6_17 
REMARK    5  A    between atoms: N6_17  and  C4_19 
REMARK    6  A    between atoms: C4_19  and  C5_20 
ROOT
HETATM    1  N4  UNL     1      22.174   4.056  -4.754  1.00  0.00    -0.251 N 
ATOM      2  H4  UNL     1      22.063   3.447  -5.564  1.00  0.00     0.191 HD
HETATM    3  C3  UNL     1      21.393   3.849  -3.590  1.00  0.00     0.353 C 
HETATM    4  O2  UNL     1      21.548   4.600  -2.613  1.00  0.00    -0.244 OA
HETATM    5  N5  UNL     1      20.453   2.808  -3.545  1.00  0.00    -0.254 N 
ATOM      6  H5  UNL     1      20.403   2.240  -4.390  1.00  0.00     0.191 HD
ENDROOT
BRANCH   5   7
HETATM    7  N6  UNL     1      19.599   2.437  -2.555  1.00  0.00    -0.328 N 
ATOM      8  H6  UNL     1      19.941   1.928  -1.740  1.00  0.00     0.180 HD
BRANCH   7   9
HETATM    9  C4  UNL     1      18.224   2.766  -2.671  1.00  0.00     0.183 C 
BRANCH   9  10
HETATM   10  C5  UNL     1      17.957   4.179  -2.216  1.00  0.00     0.031 A 
HETATM   11  C6  UNL     1      17.404   5.137  -3.016  1.00  0.00     0.046 A 
HETATM   12  C7  UNL     1      17.189   6.426  -2.593  1.00  0.00     0.064 A 
HETATM   13  C8  UNL     1      17.555   6.764  -1.279  1.00  0.00     0.103 A 
HETATM   14  N9  UNL     1      16.784   7.635  -2.776  1.00  0.00    -0.341 N 
HETATM   15  N7  UNL     1      18.100   5.810  -0.500  1.00  0.00    -0.318 N 
HETATM   16  C10 UNL     1      17.142   8.008  -1.460  1.00  0.00     0.146 A 
HETATM   17  C9  UNL     1      18.304   4.540  -0.940  1.00  0.00     0.254 A 
ATOM     18  H7  UNL     1      18.369   6.049   0.454  1.00  0.00     0.169 HD
HETATM   19  O3  UNL     1      18.810   3.714  -0.161  1.00  0.00    -0.268 OA
HETATM   20  N8  UNL     1      17.071   9.198  -0.713  1.00  0.00    -0.080 NA
ATOM     21  H9  UNL     1      16.368   8.130  -3.565  1.00  0.00     0.167 HD
ENDBRANCH   9  10
ENDBRANCH   7   9
ENDBRANCH   5   7
BRANCH   1  22
HETATM   22  N3  UNL     1      23.084   5.090  -4.778  1.00  0.00    -0.302 N 
HETATM   23  C2  UNL     1      24.320   5.020  -4.466  1.00  0.00     0.182 C 
ATOM     24  H3  UNL     1      22.737   6.002  -5.076  1.00  0.00     0.186 HD
BRANCH  23  25
HETATM   25  C1  UNL     1      25.007   3.832  -4.021  1.00  0.00     0.276 C 
HETATM   26  N2  UNL     1      25.688   3.828  -2.782  1.00  0.00    -0.272 N 
ATOM     27  H2  UNL     1      25.691   4.668  -2.203  1.00  0.00     0.189 HD
HETATM   28  O1  UNL     1      25.013   2.796  -4.713  1.00  0.00    -0.265 OA
BRANCH  26  29
HETATM   29  N1  UNL     1      26.355   2.681  -2.346  1.00  0.00    -0.342 N 
ATOM     30  H12 UNL     1      26.442   2.513  -1.344  1.00  0.00     0.176 HD
ATOM     31  H11 UNL     1      26.747   2.024  -3.022  1.00  0.00     0.176 HD
ENDBRANCH  26  29
ENDBRANCH  23  25
ENDBRANCH   1  22
TORSDOF 6
ENDMDL
MODEL 2
REMARK VINA RESULT: -7.168826750      6.227      9.818
REMARK  6 active torsions:
REMARK  status: ('A' for Active; 'I' for Inactive)
REMARK    1  A    between atoms: N1_1  and  N2_4 
REMARK       I    between atoms: N2_4  and  C1_6 
REMARK    2  A    between atoms: C1_6  and  C2_8 
REMARK    3  A    between atoms: N3_9  and  N4_11 
REMARK       I    between atoms: N4_11  and  C3_13 
REMARK       I    between atoms: C3_13  and  N5_15 
REMARK    4  A    between atoms: N5_15  and  N6_17 
REMARK    5  A    between atoms: N6_17  and  C4_19 
REMARK    6  A    between atoms: C4_19  and  C5_20 
ROOT
HETATM    1  N4  UNL     1      22.779   4.616  -5.574  1.00  0.00    -0.251 N 
ATOM      2  H4  UNL     1      23.359   5.315  -6.038  1.00  0.00     0.191 HD
HETATM    3  C3  UNL     1      22.401   3.433  -6.254  1.00  0.00     0.353 C 
HETATM    4  O2  UNL     1      21.699   2.594  -5.668  1.00  0.00    -0.244 OA
HETATM    5  N5  UNL     1      22.815   3.215  -7.577  1.00  0.00    -0.254 N 
ATOM      6  H5  UNL     1      23.396   3.954  -7.972  1.00  0.00     0.191 HD
ENDROOT
BRANCH   5   7
HETATM    7  N6  UNL     1      22.566   2.174  -8.417  1.00  0.00    -0.328 N 
ATOM      8  H6  UNL     1      22.086   1.341  -8.079  1.00  0.00     0.180 HD
BRANCH   7   9
HETATM    9  C4  UNL     1      22.984   2.265  -9.770  1.00  0.00     0.183 C 
BRANCH   9  10
HETATM   10  C5  UNL     1      23.419   0.923 -10.302  1.00  0.00     0.031 A 
HETATM   11  C6  UNL     1      24.661   0.681 -10.812  1.00  0.00     0.046 A 
HETATM   12  C7  UNL     1      25.035  -0.542 -11.314  1.00  0.00     0.064 A 
HETATM   13  C8  UNL     1      24.092  -1.583 -11.296  1.00  0.00     0.103 A 
HETATM   14  N9  UNL     1      25.886  -1.341 -11.857  1.00  0.00    -0.341 N 
HETATM   15  N7  UNL     1      22.869  -1.332 -10.789  1.00  0.00    -0.318 N 
HETATM   16  C10 UNL     1      24.961  -2.410 -11.854  1.00  0.00     0.146 A 
HETATM   17  C9  UNL     1      22.522  -0.113 -10.298  1.00  0.00     0.254 A 
ATOM     18  H7  UNL     1      22.180  -2.083 -10.774  1.00  0.00     0.169 HD
HETATM   19  O3  UNL     1      21.374   0.042  -9.845  1.00  0.00    -0.268 OA
HETATM   20  N8  UNL     1      24.995  -3.752 -12.274  1.00  0.00    -0.080 NA
ATOM     21  H9  UNL     1      26.852  -1.241 -12.169  1.00  0.00     0.167 HD
ENDBRANCH   9  10
ENDBRANCH   7   9
ENDBRANCH   5   7
BRANCH   1  22
HETATM   22  N3  UNL     1      22.353   4.813  -4.279  1.00  0.00    -0.302 N 
HETATM   23  C2  UNL     1      23.062   4.704  -3.223  1.00  0.00     0.182 C 
ATOM     24  H3  UNL     1      21.375   5.072  -4.150  1.00  0.00     0.186 HD
BRANCH  23  25
HETATM   25  C1  UNL     1      24.459   4.349  -3.183  1.00  0.00     0.276 C 
HETATM   26  N2  UNL     1      24.873   3.169  -2.522  1.00  0.00    -0.272 N 
ATOM     27  H2  UNL     1      24.181   2.570  -2.072  1.00  0.00     0.189 HD
HETATM   28  O1  UNL     1      25.321   5.066  -3.727  1.00  0.00    -0.265 OA
BRANCH  26  29
HETATM   29  N1  UNL     1      26.226   2.820  -2.480  1.00  0.00    -0.342 N 
ATOM     30  H12 UNL     1      26.716   2.856  -1.586  1.00  0.00     0.176 HD
ATOM     31  H11 UNL     1      26.711   2.535  -3.331  1.00  0.00     0.176 HD
ENDBRANCH  26  29
ENDBRANCH  23  25
ENDBRANCH   1  22
TORSDOF 6
ENDMDL
MODEL 3
REMARK VINA RESULT: -7.135883731      2.291      2.909
REMARK  6 active torsions:
REMARK  status: ('A' for Active; 'I' for Inactive)
REMARK    1  A    between atoms: N1_1  and  N2_4 
REMARK       I    between atoms: N2_4  and  C1_6 
REMARK    2  A    between atoms: C1_6  and  C2_8 
REMARK    3  A    between atoms: N3_9  and  N4_11 
REMARK       I    between atoms: N4_11  and  C3_13 
REMARK       I    between atoms: C3_13  and  N5_15 
REMARK    4  A    between atoms: N5_15  and  N6_17 
REMARK    5  A    between atoms: N6_17  and  C4_19 
REMARK    6  A    between atoms: C4_19  and  C5_20 
ROOT
HETATM    1  N4  UNL     1      21.803   2.298  -4.614  1.00  0.00    -0.251 N 
ATOM      2  H4  UNL     1      22.029   1.466  -4.070  1.00  0.00     0.191 HD
HETATM    3  C3  UNL     1      20.924   3.278  -4.091  1.00  0.00     0.353 C 
HETATM    4  O2  UNL     1      20.667   4.286  -4.770  1.00  0.00    -0.244 OA
HETATM    5  N5  UNL     1      20.350   3.109  -2.823  1.00  0.00    -0.254 N 
ATOM      6  H5  UNL     1      20.627   2.256  -2.338  1.00  0.00     0.191 HD
ENDROOT
BRANCH   5   7
HETATM    7  N6  UNL     1      19.483   3.900  -2.136  1.00  0.00    -0.328 N 
ATOM      8  H6  UNL     1      19.067   3.576  -1.264  1.00  0.00     0.180 HD
BRANCH   7   9
HETATM    9  C4  UNL     1      19.165   5.183  -2.651  1.00  0.00     0.183 C 
BRANCH   9  10
HETATM   10  C5  UNL     1      19.472   6.268  -1.650  1.00  0.00     0.031 A 
HETATM   11  C6  UNL     1      18.516   7.041  -1.057  1.00  0.00     0.046 A 
HETATM   12  C7  UNL     1      18.815   8.040  -0.164  1.00  0.00     0.064 A 
HETATM   13  C8  UNL     1      20.165   8.271   0.148  1.00  0.00     0.103 A 
HETATM   14  N9  UNL     1      18.482   8.994   0.636  1.00  0.00    -0.341 N 
HETATM   15  N7  UNL     1      21.100   7.502  -0.443  1.00  0.00    -0.318 N 
HETATM   16  C10 UNL     1      19.831   9.252   0.971  1.00  0.00     0.146 A 
HETATM   17  C9  UNL     1      20.781   6.518  -1.324  1.00  0.00     0.254 A 
ATOM     18  H7  UNL     1      22.082   7.665  -0.222  1.00  0.00     0.169 HD
HETATM   19  O3  UNL     1      21.699   5.849  -1.829  1.00  0.00    -0.268 OA
HETATM   20  N8  UNL     1      20.485  10.166   1.817  1.00  0.00    -0.080 NA
ATOM     21  H9  UNL     1      17.591   9.404   0.917  1.00  0.00     0.167 HD
ENDBRANCH   9  10
ENDBRANCH   7   9
ENDBRANCH   5   7
BRANCH   1  22
HETATM   22  N3  UNL     1      22.348   2.481  -5.866  1.00  0.00    -0.302 N 
HETATM   23  C2  UNL     1      23.404   3.142  -6.144  1.00  0.00     0.182 C 
ATOM     24  H3  UNL     1      21.860   2.046  -6.649  1.00  0.00     0.186 HD
BRANCH  23  25
HETATM   25  C1  UNL     1      24.238   3.832  -5.189  1.00  0.00     0.276 C 
HETATM   26  N2  UNL     1      23.855   5.103  -4.701  1.00  0.00    -0.272 N 
ATOM     27  H2  UNL     1      22.988   5.531  -5.025  1.00  0.00     0.189 HD
HETATM   28  O1  UNL     1      25.300   3.327  -4.780  1.00  0.00    -0.265 OA
BRANCH  26  29
HETATM   29  N1  UNL     1      24.659   5.776  -3.777  1.00  0.00    -0.342 N 
ATOM     30  H12 UNL     1      24.590   6.791  -3.713  1.00  0.00     0.176 HD
ATOM     31  H11 UNL     1      25.302   5.256  -3.178  1.00  0.00     0.176 HD
ENDBRANCH  26  29
ENDBRANCH  23  25
ENDBRANCH   1  22
TORSDOF 6
ENDMDL
MODEL 4
REMARK VINA RESULT: -7.091724905      2.400      3.101
REMARK  6 active torsions:
REMARK  status: ('A' for Active; 'I' for Inactive)
REMARK    1  A    between atoms: N1_1  and  N2_4 
REMARK       I    between atoms: N2_4  and  C1_6 
REMARK    2  A    between atoms: C1_6  and  C2_8 
REMARK    3  A    between atoms: N3_9  and  N4_11 
REMARK       I    between atoms: N4_11  and  C3_13 
REMARK       I    between atoms: C3_13  and  N5_15 
REMARK    4  A    between atoms: N5_15  and  N6_17 
REMARK    5  A    between atoms: N6_17  and  C4_19 
REMARK    6  A    between atoms: C4_19  and  C5_20 
ROOT
HETATM    1  N4  UNL     1      24.312   5.210  -4.010  1.00  0.00    -0.251 N 
ATOM      2  H4  UNL     1      24.058   6.000  -4.604  1.00  0.00     0.191 HD
HETATM    3  C3  UNL     1      23.572   4.931  -2.835  1.00  0.00     0.353 C 
HETATM    4  O2  UNL     1      23.896   3.961  -2.130  1.00  0.00    -0.244 OA
HETATM    5  N5  UNL     1      22.488   5.745  -2.472  1.00  0.00    -0.254 N 
ATOM      6  H5  UNL     1      22.292   6.510  -3.117  1.00  0.00     0.191 HD
ENDROOT
BRANCH   5   7
HETATM    7  N6  UNL     1      21.656   5.675  -1.399  1.00  0.00    -0.328 N 
ATOM      8  H6  UNL     1      21.417   4.773  -0.988  1.00  0.00     0.180 HD
BRANCH   7   9
HETATM    9  C4  UNL     1      21.125   6.875  -0.859  1.00  0.00     0.183 C 
BRANCH   9  10
HETATM   10  C5  UNL     1      19.662   7.026  -1.190  1.00  0.00     0.031 A 
HETATM   11  C6  UNL     1      19.031   6.309  -2.164  1.00  0.00     0.046 A 
HETATM   12  C7  UNL     1      17.702   6.476  -2.469  1.00  0.00     0.064 A 
HETATM   13  C8  UNL     1      16.968   7.427  -1.741  1.00  0.00     0.103 A 
HETATM   14  N9  UNL     1      16.642   6.195  -3.145  1.00  0.00    -0.341 N 
HETATM   15  N7  UNL     1      17.602   8.129  -0.782  1.00  0.00    -0.318 N 
HETATM   16  C10 UNL     1      15.875   7.145  -2.431  1.00  0.00     0.146 A 
HETATM   17  C9  UNL     1      18.918   7.947  -0.498  1.00  0.00     0.254 A 
ATOM     18  H7  UNL     1      17.075   8.822  -0.251  1.00  0.00     0.169 HD
HETATM   19  O3  UNL     1      19.434   8.632   0.403  1.00  0.00    -0.268 OA
HETATM   20  N8  UNL     1      14.534   7.570  -2.473  1.00  0.00    -0.080 NA
ATOM     21  H9  UNL     1      16.436   5.542  -3.901  1.00  0.00     0.167 HD
ENDBRANCH   9  10
ENDBRANCH   7   9
ENDBRANCH   5   7
BRANCH   1  22
HETATM   22  N3  UNL     1      25.378   4.403  -4.342  1.00  0.00    -0.302 N 
HETATM   23  C2  UNL     1      25.315   3.242  -4.869  1.00  0.00     0.182 C 
ATOM     24  H3  UNL     1      26.310   4.770  -4.148  1.00  0.00     0.186 HD
BRANCH  23  25
HETATM   25  C1  UNL     1      24.102   2.545  -5.220  1.00  0.00     0.276 C 
HETATM   26  N2  UNL     1      23.567   1.569  -4.348  1.00  0.00    -0.272 N 
ATOM     27  H2  UNL     1      24.040   1.360  -3.469  1.00  0.00     0.189 HD
HETATM   28  O1  UNL     1      23.508   2.786  -6.288  1.00  0.00    -0.265 OA
BRANCH  26  29
HETATM   29  N1  UNL     1      22.392   0.890  -4.683  1.00  0.00    -0.342 N 
ATOM     30  H12 UNL     1      22.461  -0.058  -5.051  1.00  0.00     0.176 HD
ATOM     31  H11 UNL     1      21.484   1.339  -4.559  1.00  0.00     0.176 HD
ENDBRANCH  26  29
ENDBRANCH  23  25
ENDBRANCH   1  22
TORSDOF 6
ENDMDL
MODEL 5
REMARK VINA RESULT: -7.080622343      1.159      1.596
REMARK  6 active torsions:
REMARK  status: ('A' for Active; 'I' for Inactive)
REMARK    1  A    between atoms: N1_1  and  N2_4 
REMARK       I    between atoms: N2_4  and  C1_6 
REMARK    2  A    between atoms: C1_6  and  C2_8 
REMARK    3  A    between atoms: N3_9  and  N4_11 
REMARK       I    between atoms: N4_11  and  C3_13 
REMARK       I    between atoms: C3_13  and  N5_15 
REMARK    4  A    between atoms: N5_15  and  N6_17 
REMARK    5  A    between atoms: N6_17  and  C4_19 
REMARK    6  A    between atoms: C4_19  and  C5_20 
ROOT
HETATM    1  N4  UNL     1      22.470   4.423  -4.729  1.00  0.00    -0.251 N 
ATOM      2  H4  UNL     1      22.229   3.986  -5.619  1.00  0.00     0.191 HD
HETATM    3  C3  UNL     1      21.744   4.103  -3.556  1.00  0.00     0.353 C 
HETATM    4  O2  UNL     1      22.057   4.643  -2.482  1.00  0.00    -0.244 OA
HETATM    5  N5  UNL     1      20.680   3.189  -3.609  1.00  0.00    -0.254 N 
ATOM      6  H5  UNL     1      20.503   2.792  -4.531  1.00  0.00     0.191 HD
ENDROOT
BRANCH   5   7
HETATM    7  N6  UNL     1      19.848   2.749  -2.627  1.00  0.00    -0.328 N 
ATOM      8  H6  UNL     1      20.217   2.223  -1.836  1.00  0.00     0.180 HD
BRANCH   7   9
HETATM    9  C4  UNL     1      18.462   3.032  -2.721  1.00  0.00     0.183 C 
BRANCH   9  10
HETATM   10  C5  UNL     1      18.165   4.459  -2.336  1.00  0.00     0.031 A 
HETATM   11  C6  UNL     1      18.698   5.071  -1.239  1.00  0.00     0.046 A 
HETATM   12  C7  UNL     1      18.399   6.365  -0.890  1.00  0.00     0.064 A 
HETATM   13  C8  UNL     1      17.506   7.084  -1.703  1.00  0.00     0.103 A 
HETATM   14  N9  UNL     1      18.511   7.396  -0.126  1.00  0.00    -0.341 N 
HETATM   15  N7  UNL     1      16.987   6.469  -2.783  1.00  0.00    -0.318 N 
HETATM   16  C10 UNL     1      17.615   8.147  -0.923  1.00  0.00     0.146 A 
HETATM   17  C9  UNL     1      17.297   5.186  -3.109  1.00  0.00     0.254 A 
ATOM     18  H7  UNL     1      16.337   6.984  -3.377  1.00  0.00     0.169 HD
HETATM   19  O3  UNL     1      16.778   4.687  -4.123  1.00  0.00    -0.268 OA
HETATM   20  N8  UNL     1      17.096   9.453  -0.869  1.00  0.00    -0.080 NA
ATOM     21  H9  UNL     1      19.039   7.595   0.724  1.00  0.00     0.167 HD
ENDBRANCH   9  10
ENDBRANCH   7   9
ENDBRANCH   5   7
BRANCH   1  22
HETATM   22  N3  UNL     1      23.505   5.329  -4.655  1.00  0.00    -0.302 N 
HETATM   23  C2  UNL     1      24.701   5.086  -4.282  1.00  0.00     0.182 C 
ATOM     24  H3  UNL     1      23.294   6.290  -4.924  1.00  0.00     0.186 HD
BRANCH  23  25
HETATM   25  C1  UNL     1      25.204   3.801  -3.862  1.00  0.00     0.276 C 
HETATM   26  N2  UNL     1      25.717   3.632  -2.555  1.00  0.00    -0.272 N 
ATOM     27  H2  UNL     1      25.730   4.422  -1.910  1.00  0.00     0.189 HD
HETATM   28  O1  UNL     1      25.196   2.824  -4.634  1.00  0.00    -0.265 OA
BRANCH  26  29
HETATM   29  N1  UNL     1      26.205   2.390  -2.143  1.00  0.00    -0.342 N 
ATOM     30  H12 UNL     1      25.893   2.010  -1.249  1.00  0.00     0.176 HD
ATOM     31  H11 UNL     1      26.863   1.875  -2.728  1.00  0.00     0.176 HD
ENDBRANCH  26  29
ENDBRANCH  23  25
ENDBRANCH   1  22
TORSDOF 6
ENDMDL
