MODEL 1
REMARK VINA RESULT: -4.190232160      0.000      0.000
REMARK  2 active torsions:
REMARK  status: ('A' for Active; 'I' for Inactive)
REMARK    1  A    between atoms: N1_1  and  N2_4 
REMARK    2  A    between atoms: N2_4  and  C1_6 
ROOT
HETATM    1  C1  UNL     1      87.182 -10.249  46.433  1.00  0.00     0.176 A 
HETATM    2  C2  UNL     1      87.842  -9.131  47.237  1.00  0.00     0.114 A 
HETATM    3  C3  UNL     1      88.634 -10.069  46.387  1.00  0.00     0.267 A 
HETATM    4  F1  UNL     1      89.505 -10.966  46.974  1.00  0.00    -0.204 F 
HETATM    5  F2  UNL     1      89.164  -9.462  45.242  1.00  0.00    -0.204 F 
ENDROOT
BRANCH   1   6
HETATM    6  N2  UNL     1      86.522 -11.272  47.175  1.00  0.00    -0.332 N 
ATOM      7  H2  UNL     1      86.059 -11.089  48.066  1.00  0.00     0.180 HD
BRANCH   6   8
HETATM    8  N1  UNL     1      86.555 -12.527  46.604  1.00  0.00    -0.349 N 
ATOM      9  H12 UNL     1      87.437 -13.007  46.422  1.00  0.00     0.176 HD
ATOM     10  H11 UNL     1      85.644 -12.927  46.382  1.00  0.00     0.176 HD
ENDBRANCH   6   8
ENDBRANCH   1   6
TORSDOF 2
ENDMDL
MODEL 2
REMARK VINA RESULT: -4.165213939      3.055      3.673
REMARK  2 active torsions:
REMARK  status: ('A' for Active; 'I' for Inactive)
REMARK    1  A    between atoms: N1_1  and  N2_4 
REMARK    2  A    between atoms: N2_4  and  C1_6 
ROOT
HETATM    1  C1  UNL     1      86.831 -11.438  47.433  1.00  0.00     0.176 A 
HETATM    2  C2  UNL     1      85.317 -11.310  47.288  1.00  0.00     0.114 A 
HETATM    3  C3  UNL     1      86.010 -12.632  47.228  1.00  0.00     0.267 A 
HETATM    4  F1  UNL     1      86.033 -13.346  46.046  1.00  0.00    -0.204 F 
HETATM    5  F2  UNL     1      85.763 -13.435  48.348  1.00  0.00    -0.204 F 
ENDROOT
BRANCH   1   6
HETATM    6  N2  UNL     1      87.628 -10.827  46.420  1.00  0.00    -0.332 N 
ATOM      7  H2  UNL     1      87.229 -10.473  45.550  1.00  0.00     0.180 HD
BRANCH   6   8
HETATM    8  N1  UNL     1      88.976 -10.751  46.699  1.00  0.00    -0.349 N 
ATOM      9  H12 UNL     1      89.493 -11.555  47.055  1.00  0.00     0.176 HD
ATOM     10  H11 UNL     1      89.405  -9.842  46.525  1.00  0.00     0.176 HD
ENDBRANCH   6   8
ENDBRANCH   1   6
TORSDOF 2
ENDMDL
MODEL 3
REMARK VINA RESULT: -4.137761670      3.020      3.817
REMARK  2 active torsions:
REMARK  status: ('A' for Active; 'I' for Inactive)
REMARK    1  A    between atoms: N1_1  and  N2_4 
REMARK    2  A    between atoms: N2_4  and  C1_6 
ROOT
HETATM    1  C1  UNL     1      84.838 -11.552  47.061  1.00  0.00     0.176 A 
HETATM    2  C2  UNL     1      85.204 -12.576  45.990  1.00  0.00     0.114 A 
HETATM    3  C3  UNL     1      86.038 -12.376  47.212  1.00  0.00     0.267 A 
HETATM    4  F1  UNL     1      87.310 -11.849  47.101  1.00  0.00    -0.204 F 
HETATM    5  F2  UNL     1      85.967 -13.447  48.110  1.00  0.00    -0.204 F 
ENDROOT
BRANCH   1   6
HETATM    6  N2  UNL     1      84.848 -10.181  46.670  1.00  0.00    -0.332 N 
ATOM      7  H2  UNL     1      85.409  -9.840  45.889  1.00  0.00     0.180 HD
BRANCH   6   8
HETATM    8  N1  UNL     1      84.047  -9.348  47.423  1.00  0.00    -0.349 N 
ATOM      9  H12 UNL     1      83.121  -9.640  47.737  1.00  0.00     0.176 HD
ATOM     10  H11 UNL     1      84.449  -8.436  47.637  1.00  0.00     0.176 HD
ENDBRANCH   6   8
ENDBRANCH   1   6
TORSDOF 2
ENDMDL
MODEL 4
REMARK VINA RESULT: -4.023493923      2.797      3.160
REMARK  2 active torsions:
REMARK  status: ('A' for Active; 'I' for Inactive)
REMARK    1  A    between atoms: N1_1  and  N2_4 
REMARK    2  A    between atoms: N2_4  and  C1_6 
ROOT
HETATM    1  C1  UNL     1      86.682 -10.358  46.505  1.00  0.00     0.176 A 
HETATM    2  C2  UNL     1      85.244 -10.866  46.428  1.00  0.00     0.114 A 
HETATM    3  C3  UNL     1      85.675  -9.860  47.444  1.00  0.00     0.267 A 
HETATM    4  F1  UNL     1      85.689 -10.195  48.783  1.00  0.00    -0.204 F 
HETATM    5  F2  UNL     1      85.159  -8.581  47.205  1.00  0.00    -0.204 F 
ENDROOT
BRANCH   1   6
HETATM    6  N2  UNL     1      87.685 -11.315  46.837  1.00  0.00    -0.332 N 
ATOM      7  H2  UNL     1      87.461 -12.279  47.086  1.00  0.00     0.180 HD
BRANCH   6   8
HETATM    8  N1  UNL     1      88.981 -10.846  46.797  1.00  0.00    -0.349 N 
ATOM      9  H12 UNL     1      89.194  -9.891  46.508  1.00  0.00     0.176 HD
ATOM     10  H11 UNL     1      89.696 -11.518  47.075  1.00  0.00     0.176 HD
ENDBRANCH   6   8
ENDBRANCH   1   6
TORSDOF 2
ENDMDL
MODEL 5
REMARK VINA RESULT: -4.020928230      1.377      1.815
REMARK  2 active torsions:
REMARK  status: ('A' for Active; 'I' for Inactive)
REMARK    1  A    between atoms: N1_1  and  N2_4 
REMARK    2  A    between atoms: N2_4  and  C1_6 
ROOT
HETATM    1  C1  UNL     1      87.438 -10.960  47.186  1.00  0.00     0.176 A 
HETATM    2  C2  UNL     1      88.960 -10.873  47.114  1.00  0.00     0.114 A 
HETATM    3  C3  UNL     1      88.079  -9.783  46.598  1.00  0.00     0.267 A 
HETATM    4  F1  UNL     1      88.030  -9.518  45.244  1.00  0.00    -0.204 F 
HETATM    5  F2  UNL     1      88.122  -8.624  47.381  1.00  0.00    -0.204 F 
ENDROOT
BRANCH   1   6
HETATM    6  N2  UNL     1      86.817 -11.998  46.430  1.00  0.00    -0.332 N 
ATOM      7  H2  UNL     1      87.156 -12.960  46.440  1.00  0.00     0.180 HD
BRANCH   6   8
HETATM    8  N1  UNL     1      85.725 -11.608  45.683  1.00  0.00    -0.349 N 
ATOM      9  H12 UNL     1      85.076 -10.896  46.019  1.00  0.00     0.176 HD
ATOM     10  H11 UNL     1      85.622 -12.079  44.785  1.00  0.00     0.176 HD
ENDBRANCH   6   8
ENDBRANCH   1   6
TORSDOF 2
ENDMDL
