MODEL 1
REMARK VINA RESULT: -4.022721536      0.000      0.000
REMARK  0 active torsions:
REMARK  status: ('A' for Active; 'I' for Inactive)
ROOT
HETATM    1  F1  UNL     1      86.233  -9.136  47.222  1.00  0.00    -0.179 F 
HETATM    2  C1  UNL     1      87.428  -9.588  46.719  1.00  0.00     0.274 A 
HETATM    3  N1  UNL     1      88.144 -10.731  46.897  1.00  0.00    -0.228 N 
ATOM      4  H1  UNL     1      88.021 -11.584  47.441  1.00  0.00     0.197 HD
HETATM    5  O1  UNL     1      89.046 -10.280  46.085  1.00  0.00    -0.200 OA
HETATM    6  C2  UNL     1      88.411  -9.165  45.874  1.00  0.00     0.307 A 
HETATM    7  F2  UNL     1      88.635  -8.072  45.136  1.00  0.00    -0.171 F 
ENDROOT
TORSDOF 0
ENDMDL
MODEL 2
REMARK VINA RESULT: -3.909623108      0.843      2.236
REMARK  0 active torsions:
REMARK  status: ('A' for Active; 'I' for Inactive)
ROOT
HETATM    1  F1  UNL     1      88.790  -8.362  45.289  1.00  0.00    -0.179 F 
HETATM    2  C1  UNL     1      88.396  -9.451  46.027  1.00  0.00     0.274 A 
HETATM    3  N1  UNL     1      89.033 -10.580  46.439  1.00  0.00    -0.228 N 
ATOM      4  H1  UNL     1      89.973 -10.960  46.334  1.00  0.00     0.197 HD
HETATM    5  O1  UNL     1      87.944 -10.969  47.021  1.00  0.00    -0.200 OA
HETATM    6  C2  UNL     1      87.279  -9.912  46.657  1.00  0.00     0.307 A 
HETATM    7  F2  UNL     1      86.028  -9.474  46.834  1.00  0.00    -0.171 F 
ENDROOT
TORSDOF 0
ENDMDL
MODEL 3
REMARK VINA RESULT: -3.876341022      5.749      6.113
REMARK  0 active torsions:
REMARK  status: ('A' for Active; 'I' for Inactive)
ROOT
HETATM    1  F1  UNL     1      83.692 -12.957  45.220  1.00  0.00    -0.179 F 
HETATM    2  C1  UNL     1      84.696 -13.454  44.426  1.00  0.00     0.274 A 
HETATM    3  N1  UNL     1      85.607 -12.873  43.600  1.00  0.00    -0.228 N 
ATOM      4  H1  UNL     1      85.824 -11.917  43.320  1.00  0.00     0.197 HD
HETATM    5  O1  UNL     1      86.082 -14.044  43.317  1.00  0.00    -0.200 OA
HETATM    6  C2  UNL     1      85.237 -14.660  44.091  1.00  0.00     0.307 A 
HETATM    7  F2  UNL     1      85.005 -15.937  44.414  1.00  0.00    -0.171 F 
ENDROOT
TORSDOF 0
ENDMDL
MODEL 4
REMARK VINA RESULT: -3.855751884      4.179      4.206
REMARK  0 active torsions:
REMARK  status: ('A' for Active; 'I' for Inactive)
ROOT
HETATM    1  F1  UNL     1      85.871 -13.475  48.312  1.00  0.00    -0.179 F 
HETATM    2  C1  UNL     1      85.975 -12.660  47.212  1.00  0.00     0.274 A 
HETATM    3  N1  UNL     1      86.969 -11.869  46.725  1.00  0.00    -0.228 N 
ATOM      4  H1  UNL     1      87.919 -11.640  47.015  1.00  0.00     0.197 HD
HETATM    5  O1  UNL     1      86.202 -11.527  45.740  1.00  0.00    -0.200 OA
HETATM    6  C2  UNL     1      85.212 -12.264  46.153  1.00  0.00     0.307 A 
HETATM    7  F2  UNL     1      83.974 -12.518  45.716  1.00  0.00    -0.171 F 
ENDROOT
TORSDOF 0
ENDMDL
MODEL 5
REMARK VINA RESULT: -3.836901360      1.953      2.406
REMARK  0 active torsions:
REMARK  status: ('A' for Active; 'I' for Inactive)
ROOT
HETATM    1  F1  UNL     1      88.738  -8.253  45.329  1.00  0.00    -0.179 F 
HETATM    2  C1  UNL     1      88.204  -9.192  46.177  1.00  0.00     0.274 A 
HETATM    3  N1  UNL     1      86.989  -9.329  46.772  1.00  0.00    -0.228 N 
ATOM      4  H1  UNL     1      86.120  -8.796  46.774  1.00  0.00     0.197 HD
HETATM    5  O1  UNL     1      87.398 -10.421  47.334  1.00  0.00    -0.200 OA
HETATM    6  C2  UNL     1      88.580 -10.347  46.797  1.00  0.00     0.307 A 
HETATM    7  F2  UNL     1      89.689 -11.094  46.840  1.00  0.00    -0.171 F 
ENDROOT
TORSDOF 0
ENDMDL
