MODEL 1
REMARK VINA RESULT: -8.088455413      0.000      0.000
REMARK  5 active torsions:
REMARK  status: ('A' for Active; 'I' for Inactive)
REMARK    1  A    between atoms: C5_5  and  N1_6 
REMARK       I    between atoms: N1_6  and  C6_8 
REMARK       I    between atoms: C6_8  and  N6_27 
REMARK    2  A    between atoms: N2_9  and  C7_11 
REMARK    3  A    between atoms: C7_11  and  C8_12 
REMARK    4  A    between atoms: C8_12  and  N3_13 
REMARK    5  A    between atoms: N4_16  and  C11_17 
ROOT
HETATM    1  C11 UNL     1      13.054  52.030  84.641  1.00  0.00     0.051 A 
HETATM    2  C12 UNL     1      13.269  51.232  83.511  1.00  0.00     0.031 A 
HETATM    3  C13 UNL     1      14.391  51.395  82.736  1.00  0.00     0.002 A 
HETATM    4  C14 UNL     1      15.296  52.368  83.106  1.00  0.00     0.002 A 
HETATM    5  C15 UNL     1      15.091  53.155  84.216  1.00  0.00     0.025 A 
HETATM    6  C16 UNL     1      13.950  52.996  85.011  1.00  0.00     0.071 A 
HETATM    7  C17 UNL     1      13.765  53.834  86.153  1.00  0.00     0.102 C 
HETATM    8  N5  UNL     1      13.616  54.520  87.053  1.00  0.00    -0.191 NA
ENDROOT
BRANCH   1   9
HETATM    9  N4  UNL     1      11.884  51.803  85.394  1.00  0.00    -0.376 N 
HETATM   10  C10 UNL     1      11.842  50.941  86.577  1.00  0.00     0.153 C 
HETATM   11  C9  UNL     1      10.707  51.369  87.474  1.00  0.00     0.292 C 
HETATM   12  N3  UNL     1      10.500  52.799  87.442  1.00  0.00     0.093 N 
HETATM   13  C19 UNL     1      10.232  53.347  86.158  1.00  0.00     0.292 C 
HETATM   14  C18 UNL     1      10.619  52.416  85.043  1.00  0.00     0.153 C 
BRANCH  12  15
HETATM   15  C8  UNL     1       9.601  53.241  88.490  1.00  0.00     0.292 C 
BRANCH  15  16
HETATM   16  C7  UNL     1      10.397  53.357  89.758  1.00  0.00     0.168 C 
BRANCH  16  17
HETATM   17  N2  UNL     1      11.495  54.288  89.644  1.00  0.00    -0.224 N 
HETATM   18  C6  UNL     1      12.279  54.596  90.619  1.00  0.00     0.683 C 
HETATM   19  N1  UNL     1      12.109  54.022  91.910  1.00  0.00    -0.221 N 
HETATM   20  N6  UNL     1      13.328  55.523  90.387  1.00  0.00    -0.126 N 
ATOM     21  H1  UNL     1      12.332  53.033  92.022  1.00  0.00     0.178 HD
HETATM   22  C20 UNL     1      14.644  55.086  90.134  1.00  0.00     0.196 C 
ATOM     23  H6  UNL     1      13.128  56.523  90.405  1.00  0.00     0.197 HD
HETATM   24  N7  UNL     1      15.736  54.741  89.913  1.00  0.00    -0.171 NA
ATOM     25  H2  UNL     1      11.660  54.727  88.739  1.00  0.00     0.177 HD
BRANCH  19  26
HETATM   26  C5  UNL     1      11.648  54.732  93.063  1.00  0.00     0.099 C 
HETATM   27  C4  UNL     1      12.746  55.064  94.061  1.00  0.00     0.026 C 
HETATM   28  C3  UNL     1      12.120  56.146  94.943  1.00  0.00     0.006 C 
HETATM   29  C2  UNL     1      11.033  55.516  95.743  1.00  0.00    -0.019 C 
HETATM   30  C1  UNL     1      10.414  56.589  96.616  1.00  0.00     0.010 C 
HETATM   31  C22 UNL     1       9.996  54.792  94.963  1.00  0.00     0.006 C 
HETATM   32  C21 UNL     1      10.454  54.101  93.728  1.00  0.00     0.026 C 
ENDBRANCH  19  26
ENDBRANCH  16  17
ENDBRANCH  15  16
ENDBRANCH  12  15
ENDBRANCH   1   9
TORSDOF 5
ENDMDL
MODEL 2
REMARK VINA RESULT: -8.037601063      2.052      9.378
REMARK  5 active torsions:
REMARK  status: ('A' for Active; 'I' for Inactive)
REMARK    1  A    between atoms: C5_5  and  N1_6 
REMARK       I    between atoms: N1_6  and  C6_8 
REMARK       I    between atoms: C6_8  and  N6_27 
REMARK    2  A    between atoms: N2_9  and  C7_11 
REMARK    3  A    between atoms: C7_11  and  C8_12 
REMARK    4  A    between atoms: C8_12  and  N3_13 
REMARK    5  A    between atoms: N4_16  and  C11_17 
ROOT
HETATM    1  C11 UNL     1      13.425  53.501  93.569  1.00  0.00     0.051 A 
HETATM    2  C12 UNL     1      13.944  52.209  93.423  1.00  0.00     0.031 A 
HETATM    3  C13 UNL     1      14.232  51.437  94.521  1.00  0.00     0.002 A 
HETATM    4  C14 UNL     1      13.993  51.974  95.769  1.00  0.00     0.002 A 
HETATM    5  C15 UNL     1      13.483  53.243  95.919  1.00  0.00     0.025 A 
HETATM    6  C16 UNL     1      13.188  54.037  94.805  1.00  0.00     0.071 A 
HETATM    7  C17 UNL     1      12.663  55.352  94.997  1.00  0.00     0.102 C 
HETATM    8  N5  UNL     1      12.263  56.409  95.159  1.00  0.00    -0.191 NA
ENDROOT
BRANCH   1   9
HETATM    9  N4  UNL     1      13.147  54.235  92.398  1.00  0.00    -0.376 N 
HETATM   10  C10 UNL     1      14.119  55.121  91.753  1.00  0.00     0.153 C 
HETATM   11  C9  UNL     1      13.787  55.254  90.287  1.00  0.00     0.292 C 
HETATM   12  N3  UNL     1      13.243  54.032  89.742  1.00  0.00     0.093 N 
HETATM   13  C19 UNL     1      12.068  53.549  90.382  1.00  0.00     0.292 C 
HETATM   14  C18 UNL     1      11.859  54.163  91.739  1.00  0.00     0.153 C 
BRANCH  12  15
HETATM   15  C8  UNL     1      13.173  54.066  88.294  1.00  0.00     0.292 C 
BRANCH  15  16
HETATM   16  C7  UNL     1      12.246  52.971  87.854  1.00  0.00     0.168 C 
BRANCH  16  17
HETATM   17  N2  UNL     1      11.276  53.417  86.882  1.00  0.00    -0.224 N 
HETATM   18  C6  UNL     1      11.137  52.892  85.714  1.00  0.00     0.683 C 
HETATM   19  N1  UNL     1      11.954  51.805  85.292  1.00  0.00    -0.221 N 
HETATM   20  N6  UNL     1      10.145  53.413  84.842  1.00  0.00    -0.126 N 
ATOM     21  H1  UNL     1      11.802  50.900  85.736  1.00  0.00     0.178 HD
HETATM   22  C20 UNL     1       8.887  52.793  84.715  1.00  0.00     0.196 C 
ATOM     23  H6  UNL     1      10.347  54.252  84.298  1.00  0.00     0.197 HD
HETATM   24  N7  UNL     1       7.836  52.296  84.605  1.00  0.00    -0.171 NA
ATOM     25  H2  UNL     1      10.665  54.193  87.135  1.00  0.00     0.177 HD
BRANCH  19  26
HETATM   26  C5  UNL     1      12.972  51.892  84.293  1.00  0.00     0.099 C 
HETATM   27  C4  UNL     1      13.454  50.541  83.787  1.00  0.00     0.026 C 
HETATM   28  C3  UNL     1      14.183  50.880  82.484  1.00  0.00     0.006 C 
HETATM   29  C2  UNL     1      15.417  51.637  82.831  1.00  0.00    -0.019 C 
HETATM   30  C1  UNL     1      16.137  51.973  81.540  1.00  0.00     0.010 C 
HETATM   31  C22 UNL     1      15.215  52.851  83.666  1.00  0.00     0.006 C 
HETATM   32  C21 UNL     1      14.117  52.794  84.667  1.00  0.00     0.026 C 
ENDBRANCH  19  26
ENDBRANCH  16  17
ENDBRANCH  15  16
ENDBRANCH  12  15
ENDBRANCH   1   9
TORSDOF 5
ENDMDL
MODEL 3
REMARK VINA RESULT: -7.969479590      1.649      2.494
REMARK  5 active torsions:
REMARK  status: ('A' for Active; 'I' for Inactive)
REMARK    1  A    between atoms: C5_5  and  N1_6 
REMARK       I    between atoms: N1_6  and  C6_8 
REMARK       I    between atoms: C6_8  and  N6_27 
REMARK    2  A    between atoms: N2_9  and  C7_11 
REMARK    3  A    between atoms: C7_11  and  C8_12 
REMARK    4  A    between atoms: C8_12  and  N3_13 
REMARK    5  A    between atoms: N4_16  and  C11_17 
ROOT
HETATM    1  C11 UNL     1      13.724  51.059  82.570  1.00  0.00     0.051 A 
HETATM    2  C12 UNL     1      13.679  50.252  81.428  1.00  0.00     0.031 A 
HETATM    3  C13 UNL     1      14.640  50.355  80.453  1.00  0.00     0.002 A 
HETATM    4  C14 UNL     1      15.649  51.277  80.636  1.00  0.00     0.002 A 
HETATM    5  C15 UNL     1      15.700  52.073  81.757  1.00  0.00     0.025 A 
HETATM    6  C16 UNL     1      14.723  51.975  82.755  1.00  0.00     0.071 A 
HETATM    7  C17 UNL     1      14.804  52.820  83.904  1.00  0.00     0.102 C 
HETATM    8  N5  UNL     1      14.865  53.513  84.810  1.00  0.00    -0.191 NA
ENDROOT
BRANCH   1   9
HETATM    9  N4  UNL     1      12.707  50.895  83.533  1.00  0.00    -0.376 N 
HETATM   10  C10 UNL     1      12.837  50.019  84.700  1.00  0.00     0.153 C 
HETATM   11  C9  UNL     1      11.925  50.504  85.800  1.00  0.00     0.292 C 
HETATM   12  N3  UNL     1      11.810  51.943  85.813  1.00  0.00     0.093 N 
HETATM   13  C19 UNL     1      11.337  52.528  84.606  1.00  0.00     0.292 C 
HETATM   14  C18 UNL     1      11.442  51.591  83.434  1.00  0.00     0.153 C 
BRANCH  12  15
HETATM   15  C8  UNL     1      11.158  52.425  87.015  1.00  0.00     0.292 C 
BRANCH  15  16
HETATM   16  C7  UNL     1      12.192  52.489  88.102  1.00  0.00     0.168 C 
BRANCH  16  17
HETATM   17  N2  UNL     1      12.504  53.842  88.497  1.00  0.00    -0.224 N 
HETATM   18  C6  UNL     1      12.719  54.203  89.714  1.00  0.00     0.683 C 
HETATM   19  N1  UNL     1      12.662  53.264  90.783  1.00  0.00    -0.221 N 
HETATM   20  N6  UNL     1      13.021  55.564  89.982  1.00  0.00    -0.126 N 
ATOM     21  H1  UNL     1      13.404  52.567  90.840  1.00  0.00     0.178 HD
HETATM   22  C20 UNL     1      14.352  55.996  90.152  1.00  0.00     0.196 C 
ATOM     23  H6  UNL     1      12.262  56.241  90.053  1.00  0.00     0.197 HD
HETATM   24  N7  UNL     1      15.448  56.371  90.286  1.00  0.00    -0.171 NA
ATOM     25  H2  UNL     1      12.558  54.554  87.769  1.00  0.00     0.177 HD
BRANCH  19  26
HETATM   26  C5  UNL     1      11.638  53.226  91.780  1.00  0.00     0.099 C 
HETATM   27  C4  UNL     1      10.265  53.631  91.268  1.00  0.00     0.026 C 
HETATM   28  C3  UNL     1       9.309  53.116  92.346  1.00  0.00     0.006 C 
HETATM   29  C2  UNL     1       9.527  53.923  93.578  1.00  0.00    -0.019 C 
HETATM   30  C1  UNL     1       8.580  53.411  94.645  1.00  0.00     0.010 C 
HETATM   31  C22 UNL     1      10.926  53.969  94.078  1.00  0.00     0.006 C 
HETATM   32  C21 UNL     1      12.000  53.947  93.051  1.00  0.00     0.026 C 
ENDBRANCH  19  26
ENDBRANCH  16  17
ENDBRANCH  15  16
ENDBRANCH  12  15
ENDBRANCH   1   9
TORSDOF 5
ENDMDL
MODEL 4
REMARK VINA RESULT: -7.848547235      0.735      1.802
REMARK  5 active torsions:
REMARK  status: ('A' for Active; 'I' for Inactive)
REMARK    1  A    between atoms: C5_5  and  N1_6 
REMARK       I    between atoms: N1_6  and  C6_8 
REMARK       I    between atoms: C6_8  and  N6_27 
REMARK    2  A    between atoms: N2_9  and  C7_11 
REMARK    3  A    between atoms: C7_11  and  C8_12 
REMARK    4  A    between atoms: C8_12  and  N3_13 
REMARK    5  A    between atoms: N4_16  and  C11_17 
ROOT
HETATM    1  C11 UNL     1      13.025  52.020  84.778  1.00  0.00     0.051 A 
HETATM    2  C12 UNL     1      13.789  53.168  85.022  1.00  0.00     0.031 A 
HETATM    3  C13 UNL     1      14.951  53.402  84.331  1.00  0.00     0.002 A 
HETATM    4  C14 UNL     1      15.342  52.472  83.390  1.00  0.00     0.002 A 
HETATM    5  C15 UNL     1      14.596  51.342  83.146  1.00  0.00     0.025 A 
HETATM    6  C16 UNL     1      13.410  51.096  83.847  1.00  0.00     0.071 A 
HETATM    7  C17 UNL     1      12.662  49.910  83.571  1.00  0.00     0.102 C 
HETATM    8  N5  UNL     1      12.081  48.951  83.358  1.00  0.00    -0.191 NA
ENDROOT
BRANCH   1   9
HETATM    9  N4  UNL     1      11.839  51.849  85.521  1.00  0.00    -0.376 N 
HETATM   10  C10 UNL     1      11.770  51.064  86.757  1.00  0.00     0.153 C 
HETATM   11  C9  UNL     1      10.621  51.554  87.603  1.00  0.00     0.292 C 
HETATM   12  N3  UNL     1      10.425  52.980  87.476  1.00  0.00     0.093 N 
HETATM   13  C19 UNL     1      10.184  53.447  86.155  1.00  0.00     0.292 C 
HETATM   14  C18 UNL     1      10.586  52.444  85.108  1.00  0.00     0.153 C 
BRANCH  12  15
HETATM   15  C8  UNL     1       9.509  53.493  88.476  1.00  0.00     0.292 C 
BRANCH  15  16
HETATM   16  C7  UNL     1      10.260  53.602  89.771  1.00  0.00     0.168 C 
BRANCH  16  17
HETATM   17  N2  UNL     1      11.398  54.487  89.684  1.00  0.00    -0.224 N 
HETATM   18  C6  UNL     1      12.213  54.706  90.657  1.00  0.00     0.683 C 
HETATM   19  N1  UNL     1      12.041  54.070  91.920  1.00  0.00    -0.221 N 
HETATM   20  N6  UNL     1      13.300  55.595  90.454  1.00  0.00    -0.126 N 
ATOM     21  H1  UNL     1      12.220  53.068  91.973  1.00  0.00     0.178 HD
HETATM   22  C20 UNL     1      14.589  55.114  90.149  1.00  0.00     0.196 C 
ATOM     23  H6  UNL     1      13.146  56.600  90.529  1.00  0.00     0.197 HD
HETATM   24  N7  UNL     1      15.660  54.732  89.887  1.00  0.00    -0.171 NA
ATOM     25  H2  UNL     1      11.566  54.966  88.801  1.00  0.00     0.177 HD
BRANCH  19  26
HETATM   26  C5  UNL     1      11.635  54.736  93.118  1.00  0.00     0.099 C 
HETATM   27  C4  UNL     1      12.776  55.012  94.085  1.00  0.00     0.026 C 
HETATM   28  C3  UNL     1      12.200  56.064  95.036  1.00  0.00     0.006 C 
HETATM   29  C2  UNL     1      11.136  55.414  95.851  1.00  0.00    -0.019 C 
HETATM   30  C1  UNL     1      10.566  56.457  96.791  1.00  0.00     0.010 C 
HETATM   31  C22 UNL     1      10.060  54.736  95.082  1.00  0.00     0.006 C 
HETATM   32  C21 UNL     1      10.459  54.093  93.803  1.00  0.00     0.026 C 
ENDBRANCH  19  26
ENDBRANCH  16  17
ENDBRANCH  15  16
ENDBRANCH  12  15
ENDBRANCH   1   9
TORSDOF 5
ENDMDL
MODEL 5
REMARK VINA RESULT: -7.805431918      1.683      2.908
REMARK  5 active torsions:
REMARK  status: ('A' for Active; 'I' for Inactive)
REMARK    1  A    between atoms: C5_5  and  N1_6 
REMARK       I    between atoms: N1_6  and  C6_8 
REMARK       I    between atoms: C6_8  and  N6_27 
REMARK    2  A    between atoms: N2_9  and  C7_11 
REMARK    3  A    between atoms: C7_11  and  C8_12 
REMARK    4  A    between atoms: C8_12  and  N3_13 
REMARK    5  A    between atoms: N4_16  and  C11_17 
ROOT
HETATM    1  C11 UNL     1      13.865  51.299  83.073  1.00  0.00     0.051 A 
HETATM    2  C12 UNL     1      14.946  52.060  83.532  1.00  0.00     0.031 A 
HETATM    3  C13 UNL     1      16.054  52.257  82.746  1.00  0.00     0.002 A 
HETATM    4  C14 UNL     1      16.067  51.681  81.492  1.00  0.00     0.002 A 
HETATM    5  C15 UNL     1      15.007  50.932  81.036  1.00  0.00     0.025 A 
HETATM    6  C16 UNL     1      13.874  50.727  81.832  1.00  0.00     0.071 A 
HETATM    7  C17 UNL     1      12.793  49.939  81.328  1.00  0.00     0.102 C 
HETATM    8  N5  UNL     1      11.942  49.293  80.925  1.00  0.00    -0.191 NA
ENDROOT
BRANCH   1   9
HETATM    9  N4  UNL     1      12.757  51.144  83.933  1.00  0.00    -0.376 N 
HETATM   10  C10 UNL     1      12.677  50.107  84.964  1.00  0.00     0.153 C 
HETATM   11  C9  UNL     1      11.743  50.557  86.061  1.00  0.00     0.292 C 
HETATM   12  N3  UNL     1      11.809  51.983  86.277  1.00  0.00     0.093 N 
HETATM   13  C19 UNL     1      11.516  52.786  85.141  1.00  0.00     0.292 C 
HETATM   14  C18 UNL     1      11.602  52.013  83.854  1.00  0.00     0.153 C 
BRANCH  12  15
HETATM   15  C8  UNL     1      11.123  52.380  87.492  1.00  0.00     0.292 C 
BRANCH  15  16
HETATM   16  C7  UNL     1      12.153  52.515  88.576  1.00  0.00     0.168 C 
BRANCH  16  17
HETATM   17  N2  UNL     1      12.475  53.891  88.872  1.00  0.00    -0.224 N 
HETATM   18  C6  UNL     1      12.775  54.322  90.048  1.00  0.00     0.683 C 
HETATM   19  N1  UNL     1      12.811  53.442  91.167  1.00  0.00    -0.221 N 
HETATM   20  N6  UNL     1      13.077  55.698  90.219  1.00  0.00    -0.126 N 
ATOM     21  H1  UNL     1      13.565  52.757  91.207  1.00  0.00     0.178 HD
HETATM   22  C20 UNL     1      14.409  56.152  90.264  1.00  0.00     0.196 C 
ATOM     23  H6  UNL     1      12.315  56.370  90.310  1.00  0.00     0.197 HD
HETATM   24  N7  UNL     1      15.508  56.546  90.295  1.00  0.00    -0.171 NA
ATOM     25  H2  UNL     1      12.464  54.562  88.104  1.00  0.00     0.177 HD
BRANCH  19  26
HETATM   26  C5  UNL     1      11.865  53.449  92.239  1.00  0.00     0.099 C 
HETATM   27  C4  UNL     1      10.447  53.788  91.807  1.00  0.00     0.026 C 
HETATM   28  C3  UNL     1       9.587  53.325  92.986  1.00  0.00     0.006 C 
HETATM   29  C2  UNL     1       9.874  54.218  94.142  1.00  0.00    -0.019 C 
HETATM   30  C1  UNL     1       9.022  53.758  95.309  1.00  0.00     0.010 C 
HETATM   31  C22 UNL     1      11.304  54.329  94.531  1.00  0.00     0.006 C 
HETATM   32  C21 UNL     1      12.300  54.262  93.429  1.00  0.00     0.026 C 
ENDBRANCH  19  26
ENDBRANCH  16  17
ENDBRANCH  15  16
ENDBRANCH  12  15
ENDBRANCH   1   9
TORSDOF 5
ENDMDL
