MODEL 1
REMARK VINA RESULT: -8.881337827      0.000      0.000
REMARK  14 active torsions:
REMARK  status: ('A' for Active; 'I' for Inactive)
REMARK    1  A    between atoms: S1_2  and  N1_4 
REMARK    2  A    between atoms: S1_2  and  C18_37 
REMARK    3  A    between atoms: N1_4  and  C1_6 
REMARK    4  A    between atoms: C2_9  and  N3_10 
REMARK    5  A    between atoms: N3_10  and  C3_12 
REMARK    6  A    between atoms: C3_12  and  C4_13 
REMARK    7  A    between atoms: C4_13  and  O3_14 
REMARK    8  A    between atoms: C5_18  and  N5_19 
REMARK    9  A    between atoms: N5_19  and  C6_21 
REMARK   10  A    between atoms: C6_21  and  C7_22 
REMARK   11  A    between atoms: C9_24  and  C10_25 
REMARK   12  A    between atoms: C21_40  and  C22_41 
REMARK   13  A    between atoms: C22_41  and  O4_42 
REMARK   14  A    between atoms: O4_42  and  C23_43 
ROOT
HETATM    1  C1  UNL     1      11.390  53.544  88.209  1.00  0.00     0.721 A 
HETATM    2  N2  UNL     1      10.517  54.221  89.010  1.00  0.00    -0.021 N 
ATOM      3  H2  UNL     1      10.841  54.590  89.905  1.00  0.00     0.203 HD
HETATM    4  C2  UNL     1       9.252  54.410  88.647  1.00  0.00     0.707 A 
HETATM    5  N4  UNL     1       8.850  53.917  87.468  1.00  0.00    -0.022 N 
ATOM      6  H4  UNL     1       7.882  54.056  87.180  1.00  0.00     0.203 HD
HETATM    7  C5  UNL     1       9.687  53.241  86.648  1.00  0.00     0.707 A 
HETATM    8  N7  UNL     1      10.959  53.061  87.031  1.00  0.00    -0.021 N 
ATOM      9  H7  UNL     1      11.604  52.553  86.425  1.00  0.00     0.203 HD
ENDROOT
BRANCH   1  10
HETATM   10  N1  UNL     1      12.590  53.416  88.648  1.00  0.00    -0.111 N 
ATOM     11  H1  UNL     1      13.121  52.593  88.364  1.00  0.00     0.197 HD
BRANCH  10  12
HETATM   12  S1  UNL     1      13.342  54.548  89.679  1.00  0.00     0.276 S 
HETATM   13  O1  UNL     1      14.787  54.655  89.304  1.00  0.00    -0.200 OA
HETATM   14  O2  UNL     1      12.711  55.893  89.430  1.00  0.00    -0.200 OA
BRANCH  12  15
HETATM   15  C18 UNL     1      13.146  54.088  91.374  1.00  0.00     0.080 A 
HETATM   16  C19 UNL     1      13.286  52.785  91.798  1.00  0.00     0.026 A 
HETATM   17  C20 UNL     1      13.129  52.430  93.132  1.00  0.00     0.011 A 
HETATM   18  C21 UNL     1      12.826  53.379  94.082  1.00  0.00    -0.034 A 
HETATM   19  C29 UNL     1      12.686  54.684  93.656  1.00  0.00     0.011 A 
HETATM   20  C30 UNL     1      12.842  55.036  92.330  1.00  0.00     0.026 A 
BRANCH  18  21
HETATM   21  C22 UNL     1      12.653  53.026  95.522  1.00  0.00     0.214 C 
BRANCH  21  22
HETATM   22  O4  UNL     1      13.275  51.811  95.825  1.00  0.00    -0.347 OA
BRANCH  22  23
HETATM   23  C23 UNL     1      14.448  51.696  96.544  1.00  0.00     0.069 A 
HETATM   24  C24 UNL     1      14.398  51.765  97.919  1.00  0.00     0.037 A 
HETATM   25  C25 UNL     1      15.544  51.657  98.697  1.00  0.00     0.003 A 
HETATM   26  C26 UNL     1      16.771  51.475  98.077  1.00  0.00     0.000 A 
HETATM   27  C27 UNL     1      16.838  51.404  96.704  1.00  0.00     0.003 A 
HETATM   28  C28 UNL     1      15.677  51.515  95.951  1.00  0.00     0.037 A 
ENDBRANCH  22  23
ENDBRANCH  21  22
ENDBRANCH  18  21
ENDBRANCH  12  15
ENDBRANCH  10  12
ENDBRANCH   1  10
BRANCH   4  29
HETATM   29  N3  UNL     1       8.406  55.038  89.369  1.00  0.00    -0.223 N 
ATOM     30  H3  UNL     1       8.739  55.809  89.948  1.00  0.00     0.177 HD
BRANCH  29  31
HETATM   31  C3  UNL     1       7.008  54.712  89.403  1.00  0.00     0.164 C 
BRANCH  31  32
HETATM   32  C4  UNL     1       6.227  55.862  88.788  1.00  0.00     0.184 C 
BRANCH  32  33
HETATM   33  O3  UNL     1       6.942  57.043  88.846  1.00  0.00    -0.399 OA
ATOM     34  H3  UNL     1       7.630  56.997  89.499  1.00  0.00     0.209 HD
ENDBRANCH  32  33
ENDBRANCH  31  32
ENDBRANCH  29  31
ENDBRANCH   4  29
BRANCH   7  35
HETATM   35  N5  UNL     1       9.189  52.815  85.541  1.00  0.00    -0.219 N 
ATOM     36  H5  UNL     1       8.356  52.229  85.577  1.00  0.00     0.178 HD
BRANCH  35  37
HETATM   37  C6  UNL     1       9.759  53.126  84.245  1.00  0.00     0.195 C 
BRANCH  37  38
HETATM   38  C7  UNL     1      10.583  51.995  83.732  1.00  0.00     0.028 A 
HETATM   39  C8  UNL     1      11.614  52.202  82.842  1.00  0.00     0.039 A 
HETATM   40  C9  UNL     1      12.393  51.171  82.356  1.00  0.00    -0.023 A 
HETATM   41  C16 UNL     1      12.134  49.884  82.774  1.00  0.00     0.029 A 
HETATM   42  C17 UNL     1      11.095  49.700  83.668  1.00  0.00     0.089 A 
HETATM   43  N6  UNL     1      10.351  50.728  84.126  1.00  0.00    -0.368 N 
ATOM     44  H6  UNL     1       9.596  50.541  84.785  1.00  0.00     0.165 HD
BRANCH  40  45
HETATM   45  C10 UNL     1      13.487  51.381  81.413  1.00  0.00    -0.026 A 
HETATM   46  C11 UNL     1      14.613  52.017  81.920  1.00  0.00     0.012 A 
HETATM   47  C12 UNL     1      15.718  52.281  81.149  1.00  0.00     0.001 A 
HETATM   48  C13 UNL     1      15.681  51.888  79.817  1.00  0.00     0.000 A 
HETATM   49  C14 UNL     1      14.561  51.254  79.308  1.00  0.00     0.001 A 
HETATM   50  C15 UNL     1      13.445  50.993  80.106  1.00  0.00     0.012 A 
ENDBRANCH  40  45
ENDBRANCH  37  38
ENDBRANCH  35  37
ENDBRANCH   7  35
TORSDOF 14
ENDMDL
MODEL 2
REMARK VINA RESULT: -8.806953731      3.139      4.540
REMARK  14 active torsions:
REMARK  status: ('A' for Active; 'I' for Inactive)
REMARK    1  A    between atoms: S1_2  and  N1_4 
REMARK    2  A    between atoms: S1_2  and  C18_37 
REMARK    3  A    between atoms: N1_4  and  C1_6 
REMARK    4  A    between atoms: C2_9  and  N3_10 
REMARK    5  A    between atoms: N3_10  and  C3_12 
REMARK    6  A    between atoms: C3_12  and  C4_13 
REMARK    7  A    between atoms: C4_13  and  O3_14 
REMARK    8  A    between atoms: C5_18  and  N5_19 
REMARK    9  A    between atoms: N5_19  and  C6_21 
REMARK   10  A    between atoms: C6_21  and  C7_22 
REMARK   11  A    between atoms: C9_24  and  C10_25 
REMARK   12  A    between atoms: C21_40  and  C22_41 
REMARK   13  A    between atoms: C22_41  and  O4_42 
REMARK   14  A    between atoms: O4_42  and  C23_43 
ROOT
HETATM    1  C1  UNL     1      10.904  51.371  88.073  1.00  0.00     0.721 A 
HETATM    2  N2  UNL     1      11.770  52.333  88.506  1.00  0.00    -0.021 N 
ATOM      3  H2  UNL     1      12.153  52.273  89.450  1.00  0.00     0.203 HD
HETATM    4  C2  UNL     1      12.125  53.345  87.720  1.00  0.00     0.707 A 
HETATM    5  N4  UNL     1      11.610  53.401  86.485  1.00  0.00    -0.022 N 
ATOM      6  H4  UNL     1      11.875  54.173  85.875  1.00  0.00     0.203 HD
HETATM    7  C5  UNL     1      10.749  52.466  86.022  1.00  0.00     0.707 A 
HETATM    8  N7  UNL     1      10.402  51.452  86.829  1.00  0.00    -0.021 N 
ATOM      9  H7  UNL     1       9.754  50.738  86.496  1.00  0.00     0.203 HD
ENDROOT
BRANCH   1  10
HETATM   10  N1  UNL     1      10.625  50.434  88.905  1.00  0.00    -0.111 N 
ATOM     11  H1  UNL     1       9.720  49.970  88.823  1.00  0.00     0.197 HD
BRANCH  10  12
HETATM   12  S1  UNL     1      11.685  49.925  90.142  1.00  0.00     0.276 S 
HETATM   13  O1  UNL     1      11.170  48.643  90.719  1.00  0.00    -0.200 OA
HETATM   14  O2  UNL     1      13.022  49.632  89.514  1.00  0.00    -0.200 OA
BRANCH  12  15
HETATM   15  C18 UNL     1      11.854  51.172  91.383  1.00  0.00     0.080 A 
HETATM   16  C19 UNL     1      10.763  51.741  92.001  1.00  0.00     0.026 A 
HETATM   17  C20 UNL     1      10.904  52.721  92.975  1.00  0.00     0.011 A 
HETATM   18  C21 UNL     1      12.151  53.161  93.357  1.00  0.00    -0.034 A 
HETATM   19  C29 UNL     1      13.244  52.591  92.737  1.00  0.00     0.011 A 
HETATM   20  C30 UNL     1      13.104  51.616  91.768  1.00  0.00     0.026 A 
BRANCH  18  21
HETATM   21  C22 UNL     1      12.331  54.213  94.401  1.00  0.00     0.214 C 
BRANCH  21  22
HETATM   22  O4  UNL     1      12.069  55.486  93.888  1.00  0.00    -0.347 OA
BRANCH  22  23
HETATM   23  C23 UNL     1      11.092  56.333  94.371  1.00  0.00     0.069 A 
HETATM   24  C24 UNL     1       9.833  55.831  94.613  1.00  0.00     0.037 A 
HETATM   25  C25 UNL     1       8.808  56.635  95.099  1.00  0.00     0.003 A 
HETATM   26  C26 UNL     1       9.057  57.977  95.347  1.00  0.00     0.000 A 
HETATM   27  C27 UNL     1      10.311  58.494  95.110  1.00  0.00     0.003 A 
HETATM   28  C28 UNL     1      11.316  57.668  94.625  1.00  0.00     0.037 A 
ENDBRANCH  22  23
ENDBRANCH  21  22
ENDBRANCH  18  21
ENDBRANCH  12  15
ENDBRANCH  10  12
ENDBRANCH   1  10
BRANCH   4  29
HETATM   29  N3  UNL     1      12.933  54.263  88.089  1.00  0.00    -0.223 N 
ATOM     30  H3  UNL     1      13.604  54.621  87.410  1.00  0.00     0.177 HD
BRANCH  29  31
HETATM   31  C3  UNL     1      12.941  54.815  89.414  1.00  0.00     0.164 C 
BRANCH  31  32
HETATM   32  C4  UNL     1      14.380  55.116  89.805  1.00  0.00     0.184 C 
BRANCH  32  33
HETATM   33  O3  UNL     1      14.847  56.250  89.169  1.00  0.00    -0.399 OA
ATOM     34  H3  UNL     1      14.138  56.852  88.974  1.00  0.00     0.209 HD
ENDBRANCH  32  33
ENDBRANCH  31  32
ENDBRANCH  29  31
ENDBRANCH   4  29
BRANCH   7  35
HETATM   35  N5  UNL     1      10.319  52.623  84.820  1.00  0.00    -0.219 N 
ATOM     36  H5  UNL     1      10.583  53.469  84.316  1.00  0.00     0.178 HD
BRANCH  35  37
HETATM   37  C6  UNL     1       9.477  51.654  84.148  1.00  0.00     0.195 C 
BRANCH  37  38
HETATM   38  C7  UNL     1      10.248  50.883  83.131  1.00  0.00     0.028 A 
HETATM   39  C8  UNL     1      11.415  51.375  82.588  1.00  0.00     0.039 A 
HETATM   40  C9  UNL     1      12.147  50.678  81.648  1.00  0.00    -0.023 A 
HETATM   41  C16 UNL     1      11.700  49.443  81.234  1.00  0.00     0.029 A 
HETATM   42  C17 UNL     1      10.527  48.968  81.793  1.00  0.00     0.089 A 
HETATM   43  N6  UNL     1       9.832  49.673  82.710  1.00  0.00    -0.368 N 
ATOM     44  H6  UNL     1       8.973  49.280  83.093  1.00  0.00     0.165 HD
BRANCH  40  45
HETATM   45  C10 UNL     1      13.384  51.192  81.067  1.00  0.00    -0.026 A 
HETATM   46  C11 UNL     1      14.255  51.820  81.950  1.00  0.00     0.012 A 
HETATM   47  C12 UNL     1      15.454  52.351  81.545  1.00  0.00     0.001 A 
HETATM   48  C13 UNL     1      15.784  52.242  80.199  1.00  0.00     0.000 A 
HETATM   49  C14 UNL     1      14.919  51.617  79.318  1.00  0.00     0.001 A 
HETATM   50  C15 UNL     1      13.702  51.082  79.746  1.00  0.00     0.012 A 
ENDBRANCH  40  45
ENDBRANCH  37  38
ENDBRANCH  35  37
ENDBRANCH   7  35
TORSDOF 14
ENDMDL
MODEL 3
REMARK VINA RESULT: -8.686393510      2.853      4.403
REMARK  14 active torsions:
REMARK  status: ('A' for Active; 'I' for Inactive)
REMARK    1  A    between atoms: S1_2  and  N1_4 
REMARK    2  A    between atoms: S1_2  and  C18_37 
REMARK    3  A    between atoms: N1_4  and  C1_6 
REMARK    4  A    between atoms: C2_9  and  N3_10 
REMARK    5  A    between atoms: N3_10  and  C3_12 
REMARK    6  A    between atoms: C3_12  and  C4_13 
REMARK    7  A    between atoms: C4_13  and  O3_14 
REMARK    8  A    between atoms: C5_18  and  N5_19 
REMARK    9  A    between atoms: N5_19  and  C6_21 
REMARK   10  A    between atoms: C6_21  and  C7_22 
REMARK   11  A    between atoms: C9_24  and  C10_25 
REMARK   12  A    between atoms: C21_40  and  C22_41 
REMARK   13  A    between atoms: C22_41  and  O4_42 
REMARK   14  A    between atoms: O4_42  and  C23_43 
ROOT
HETATM    1  C1  UNL     1      11.768  51.257  89.825  1.00  0.00     0.721 A 
HETATM    2  N2  UNL     1      12.151  52.472  90.316  1.00  0.00    -0.021 N 
ATOM      3  H2  UNL     1      12.610  52.522  91.226  1.00  0.00     0.203 HD
HETATM    4  C2  UNL     1      11.937  53.591  89.630  1.00  0.00     0.707 A 
HETATM    5  N4  UNL     1      11.334  53.500  88.438  1.00  0.00    -0.022 N 
ATOM      6  H4  UNL     1      11.166  54.351  87.904  1.00  0.00     0.203 HD
HETATM    7  C5  UNL     1      10.941  52.313  87.920  1.00  0.00     0.707 A 
HETATM    8  N7  UNL     1      11.164  51.195  88.626  1.00  0.00    -0.021 N 
ATOM      9  H7  UNL     1      10.874  50.292  88.250  1.00  0.00     0.203 HD
ENDROOT
BRANCH   1  10
HETATM   10  N1  UNL     1      12.019  50.236  90.562  1.00  0.00    -0.111 N 
ATOM     11  H1  UNL     1      11.541  49.360  90.351  1.00  0.00     0.197 HD
BRANCH  10  12
HETATM   12  S1  UNL     1      13.109  50.266  91.875  1.00  0.00     0.276 S 
HETATM   13  O1  UNL     1      13.476  48.858  92.227  1.00  0.00    -0.200 OA
HETATM   14  O2  UNL     1      14.365  50.959  91.417  1.00  0.00    -0.200 OA
BRANCH  12  15
HETATM   15  C18 UNL     1      12.411  51.118  93.256  1.00  0.00     0.080 A 
HETATM   16  C19 UNL     1      11.069  51.047  93.558  1.00  0.00     0.026 A 
HETATM   17  C20 UNL     1      10.528  51.720  94.645  1.00  0.00     0.011 A 
HETATM   18  C21 UNL     1      11.323  52.489  95.465  1.00  0.00    -0.034 A 
HETATM   19  C29 UNL     1      12.667  52.561  95.162  1.00  0.00     0.011 A 
HETATM   20  C30 UNL     1      13.205  51.891  94.080  1.00  0.00     0.026 A 
BRANCH  18  21
HETATM   21  C22 UNL     1      10.767  53.223  96.640  1.00  0.00     0.214 C 
BRANCH  21  22
HETATM   22  O4  UNL     1      11.362  54.480  96.780  1.00  0.00    -0.347 OA
BRANCH  22  23
HETATM   23  C23 UNL     1      10.845  55.648  96.256  1.00  0.00     0.069 A 
HETATM   24  C24 UNL     1      11.478  56.239  95.186  1.00  0.00     0.037 A 
HETATM   25  C25 UNL     1      11.005  57.415  94.616  1.00  0.00     0.003 A 
HETATM   26  C26 UNL     1       9.866  58.012  95.137  1.00  0.00     0.000 A 
HETATM   27  C27 UNL     1       9.222  57.434  96.208  1.00  0.00     0.003 A 
HETATM   28  C28 UNL     1       9.716  56.259  96.756  1.00  0.00     0.037 A 
ENDBRANCH  22  23
ENDBRANCH  21  22
ENDBRANCH  18  21
ENDBRANCH  12  15
ENDBRANCH  10  12
ENDBRANCH   1  10
BRANCH   4  29
HETATM   29  N3  UNL     1      12.282  54.745  90.055  1.00  0.00    -0.223 N 
ATOM     30  H3  UNL     1      12.078  54.986  91.025  1.00  0.00     0.177 HD
BRANCH  29  31
HETATM   31  C3  UNL     1      12.941  55.719  89.233  1.00  0.00     0.164 C 
BRANCH  31  32
HETATM   32  C4  UNL     1      14.433  55.420  89.229  1.00  0.00     0.184 C 
BRANCH  32  33
HETATM   33  O3  UNL     1      15.178  56.583  89.203  1.00  0.00    -0.399 OA
ATOM     34  H3  UNL     1      15.807  56.574  88.490  1.00  0.00     0.209 HD
ENDBRANCH  32  33
ENDBRANCH  31  32
ENDBRANCH  29  31
ENDBRANCH   4  29
BRANCH   7  35
HETATM   35  N5  UNL     1      10.372  52.348  86.766  1.00  0.00    -0.219 N 
ATOM     36  H5  UNL     1       9.430  51.968  86.678  1.00  0.00     0.178 HD
BRANCH  35  37
HETATM   37  C6  UNL     1      11.006  52.900  85.587  1.00  0.00     0.195 C 
BRANCH  37  38
HETATM   38  C7  UNL     1      11.400  51.825  84.633  1.00  0.00     0.028 A 
HETATM   39  C8  UNL     1      12.290  52.062  83.608  1.00  0.00     0.039 A 
HETATM   40  C9  UNL     1      12.672  51.081  82.714  1.00  0.00    -0.023 A 
HETATM   41  C16 UNL     1      12.147  49.815  82.848  1.00  0.00     0.029 A 
HETATM   42  C17 UNL     1      11.255  49.599  83.884  1.00  0.00     0.089 A 
HETATM   43  N6  UNL     1      10.902  50.578  84.742  1.00  0.00    -0.368 N 
ATOM     44  H6  UNL     1      10.241  50.369  85.490  1.00  0.00     0.165 HD
BRANCH  40  45
HETATM   45  C10 UNL     1      13.614  51.324  81.627  1.00  0.00    -0.026 A 
HETATM   46  C11 UNL     1      14.754  52.045  81.959  1.00  0.00     0.012 A 
HETATM   47  C12 UNL     1      15.726  52.348  81.039  1.00  0.00     0.001 A 
HETATM   48  C13 UNL     1      15.538  51.906  79.735  1.00  0.00     0.000 A 
HETATM   49  C14 UNL     1      14.403  51.187  79.400  1.00  0.00     0.001 A 
HETATM   50  C15 UNL     1      13.423  50.887  80.349  1.00  0.00     0.012 A 
ENDBRANCH  40  45
ENDBRANCH  37  38
ENDBRANCH  35  37
ENDBRANCH   7  35
TORSDOF 14
ENDMDL
MODEL 4
REMARK VINA RESULT: -8.634202619      3.158      4.940
REMARK  14 active torsions:
REMARK  status: ('A' for Active; 'I' for Inactive)
REMARK    1  A    between atoms: S1_2  and  N1_4 
REMARK    2  A    between atoms: S1_2  and  C18_37 
REMARK    3  A    between atoms: N1_4  and  C1_6 
REMARK    4  A    between atoms: C2_9  and  N3_10 
REMARK    5  A    between atoms: N3_10  and  C3_12 
REMARK    6  A    between atoms: C3_12  and  C4_13 
REMARK    7  A    between atoms: C4_13  and  O3_14 
REMARK    8  A    between atoms: C5_18  and  N5_19 
REMARK    9  A    between atoms: N5_19  and  C6_21 
REMARK   10  A    between atoms: C6_21  and  C7_22 
REMARK   11  A    between atoms: C9_24  and  C10_25 
REMARK   12  A    between atoms: C21_40  and  C22_41 
REMARK   13  A    between atoms: C22_41  and  O4_42 
REMARK   14  A    between atoms: O4_42  and  C23_43 
ROOT
HETATM    1  C1  UNL     1      11.505  51.664  89.708  1.00  0.00     0.721 A 
HETATM    2  N2  UNL     1      11.825  52.987  89.813  1.00  0.00    -0.021 N 
ATOM      3  H2  UNL     1      12.012  53.386  90.733  1.00  0.00     0.203 HD
HETATM    4  C2  UNL     1      11.899  53.765  88.736  1.00  0.00     0.707 A 
HETATM    5  N4  UNL     1      11.651  53.219  87.539  1.00  0.00    -0.022 N 
ATOM      6  H4  UNL     1      11.705  53.807  86.708  1.00  0.00     0.203 HD
HETATM    7  C5  UNL     1      11.330  51.912  87.398  1.00  0.00     0.707 A 
HETATM    8  N7  UNL     1      11.260  51.142  88.494  1.00  0.00    -0.021 N 
ATOM      9  H7  UNL     1      11.020  50.155  88.405  1.00  0.00     0.203 HD
ENDROOT
BRANCH   1  10
HETATM   10  N1  UNL     1      11.460  50.997  90.804  1.00  0.00    -0.111 N 
ATOM     11  H1  UNL     1      10.679  50.357  90.946  1.00  0.00     0.197 HD
BRANCH  10  12
HETATM   12  S1  UNL     1      12.636  51.125  92.034  1.00  0.00     0.276 S 
HETATM   13  O1  UNL     1      12.737  49.810  92.741  1.00  0.00    -0.200 OA
HETATM   14  O2  UNL     1      13.966  51.388  91.378  1.00  0.00    -0.200 OA
BRANCH  12  15
HETATM   15  C18 UNL     1      12.240  52.433  93.154  1.00  0.00     0.080 A 
HETATM   16  C19 UNL     1      11.332  52.270  94.177  1.00  0.00     0.026 A 
HETATM   17  C20 UNL     1      11.025  53.303  95.053  1.00  0.00     0.011 A 
HETATM   18  C21 UNL     1      11.624  54.537  94.925  1.00  0.00    -0.034 A 
HETATM   19  C29 UNL     1      12.532  54.700  93.899  1.00  0.00     0.011 A 
HETATM   20  C30 UNL     1      12.838  53.672  93.028  1.00  0.00     0.026 A 
BRANCH  18  21
HETATM   21  C22 UNL     1      11.312  55.664  95.852  1.00  0.00     0.214 C 
BRANCH  21  22
HETATM   22  O4  UNL     1      10.665  56.707  95.183  1.00  0.00    -0.347 OA
BRANCH  22  23
HETATM   23  C23 UNL     1       9.301  56.916  95.205  1.00  0.00     0.069 A 
HETATM   24  C24 UNL     1       8.821  58.159  95.554  1.00  0.00     0.037 A 
HETATM   25  C25 UNL     1       7.459  58.431  95.595  1.00  0.00     0.003 A 
HETATM   26  C26 UNL     1       6.556  57.427  95.277  1.00  0.00     0.000 A 
HETATM   27  C27 UNL     1       7.020  56.179  94.926  1.00  0.00     0.003 A 
HETATM   28  C28 UNL     1       8.386  55.936  94.893  1.00  0.00     0.037 A 
ENDBRANCH  22  23
ENDBRANCH  21  22
ENDBRANCH  18  21
ENDBRANCH  12  15
ENDBRANCH  10  12
ENDBRANCH   1  10
BRANCH   4  29
HETATM   29  N3  UNL     1      12.196  55.006  88.794  1.00  0.00    -0.223 N 
ATOM     30  H3  UNL     1      11.790  55.636  88.102  1.00  0.00     0.177 HD
BRANCH  29  31
HETATM   31  C3  UNL     1      13.075  55.557  89.786  1.00  0.00     0.164 C 
BRANCH  31  32
HETATM   32  C4  UNL     1      14.509  55.409  89.299  1.00  0.00     0.184 C 
BRANCH  32  33
HETATM   33  O3  UNL     1      15.128  56.638  89.180  1.00  0.00    -0.399 OA
ATOM     34  H3  UNL     1      14.663  57.308  89.669  1.00  0.00     0.209 HD
ENDBRANCH  32  33
ENDBRANCH  31  32
ENDBRANCH  29  31
ENDBRANCH   4  29
BRANCH   7  35
HETATM   35  N5  UNL     1      11.113  51.498  86.199  1.00  0.00    -0.219 N 
ATOM     36  H5  UNL     1      10.724  52.154  85.522  1.00  0.00     0.178 HD
BRANCH  35  37
HETATM   37  C6  UNL     1      11.395  50.145  85.766  1.00  0.00     0.195 C 
BRANCH  37  38
HETATM   38  C7  UNL     1      11.376  50.039  84.279  1.00  0.00     0.028 A 
HETATM   39  C8  UNL     1      12.397  50.550  83.508  1.00  0.00     0.039 A 
HETATM   40  C9  UNL     1      12.402  50.462  82.130  1.00  0.00    -0.023 A 
HETATM   41  C16 UNL     1      11.349  49.840  81.497  1.00  0.00     0.029 A 
HETATM   42  C17 UNL     1      10.335  49.335  82.290  1.00  0.00     0.089 A 
HETATM   43  N6  UNL     1      10.358  49.436  83.635  1.00  0.00    -0.368 N 
ATOM     44  H6  UNL     1       9.587  49.047  84.177  1.00  0.00     0.165 HD
BRANCH  40  45
HETATM   45  C10 UNL     1      13.480  51.000  81.306  1.00  0.00    -0.026 A 
HETATM   46  C11 UNL     1      14.433  51.762  81.972  1.00  0.00     0.012 A 
HETATM   47  C12 UNL     1      15.501  52.330  81.325  1.00  0.00     0.001 A 
HETATM   48  C13 UNL     1      15.610  52.121  79.956  1.00  0.00     0.000 A 
HETATM   49  C14 UNL     1      14.663  51.363  79.289  1.00  0.00     0.001 A 
HETATM   50  C15 UNL     1      13.581  50.791  79.962  1.00  0.00     0.012 A 
ENDBRANCH  40  45
ENDBRANCH  37  38
ENDBRANCH  35  37
ENDBRANCH   7  35
TORSDOF 14
ENDMDL
MODEL 5
REMARK VINA RESULT: -8.632604586      2.591      3.890
REMARK  14 active torsions:
REMARK  status: ('A' for Active; 'I' for Inactive)
REMARK    1  A    between atoms: S1_2  and  N1_4 
REMARK    2  A    between atoms: S1_2  and  C18_37 
REMARK    3  A    between atoms: N1_4  and  C1_6 
REMARK    4  A    between atoms: C2_9  and  N3_10 
REMARK    5  A    between atoms: N3_10  and  C3_12 
REMARK    6  A    between atoms: C3_12  and  C4_13 
REMARK    7  A    between atoms: C4_13  and  O3_14 
REMARK    8  A    between atoms: C5_18  and  N5_19 
REMARK    9  A    between atoms: N5_19  and  C6_21 
REMARK   10  A    between atoms: C6_21  and  C7_22 
REMARK   11  A    between atoms: C9_24  and  C10_25 
REMARK   12  A    between atoms: C21_40  and  C22_41 
REMARK   13  A    between atoms: C22_41  and  O4_42 
REMARK   14  A    between atoms: O4_42  and  C23_43 
ROOT
HETATM    1  C1  UNL     1      11.605  52.785  89.589  1.00  0.00     0.721 A 
HETATM    2  N2  UNL     1      11.884  51.696  90.363  1.00  0.00    -0.021 N 
ATOM      3  H2  UNL     1      12.156  51.829  91.337  1.00  0.00     0.203 HD
HETATM    4  C2  UNL     1      11.806  50.463  89.870  1.00  0.00     0.707 A 
HETATM    5  N4  UNL     1      11.446  50.312  88.590  1.00  0.00    -0.022 N 
ATOM      6  H4  UNL     1      11.383  49.371  88.202  1.00  0.00     0.203 HD
HETATM    7  C5  UNL     1      11.162  51.368  87.793  1.00  0.00     0.707 A 
HETATM    8  N7  UNL     1      11.246  52.605  88.307  1.00  0.00    -0.021 N 
ATOM      9  H7  UNL     1      11.036  53.412  87.721  1.00  0.00     0.203 HD
ENDROOT
BRANCH   1  10
HETATM   10  N1  UNL     1      11.707  53.932  90.156  1.00  0.00    -0.111 N 
ATOM     11  H1  UNL     1      10.966  54.615  90.001  1.00  0.00     0.197 HD
BRANCH  10  12
HETATM   12  S1  UNL     1      13.018  54.376  91.157  1.00  0.00     0.276 S 
HETATM   13  O1  UNL     1      14.126  53.389  90.962  1.00  0.00    -0.200 OA
HETATM   14  O2  UNL     1      13.521  55.717  90.692  1.00  0.00    -0.200 OA
BRANCH  12  15
HETATM   15  C18 UNL     1      12.519  54.465  92.849  1.00  0.00     0.080 A 
HETATM   16  C19 UNL     1      12.831  53.476  93.757  1.00  0.00     0.026 A 
HETATM   17  C20 UNL     1      12.435  53.553  95.085  1.00  0.00     0.011 A 
HETATM   18  C21 UNL     1      11.710  54.630  95.543  1.00  0.00    -0.034 A 
HETATM   19  C29 UNL     1      11.397  55.619  94.634  1.00  0.00     0.011 A 
HETATM   20  C30 UNL     1      11.791  55.543  93.312  1.00  0.00     0.026 A 
BRANCH  18  21
HETATM   21  C22 UNL     1      11.271  54.738  96.966  1.00  0.00     0.214 C 
BRANCH  21  22
HETATM   22  O4  UNL     1      11.815  53.711  97.743  1.00  0.00    -0.347 OA
BRANCH  22  23
HETATM   23  C23 UNL     1      12.753  53.903  98.738  1.00  0.00     0.069 A 
HETATM   24  C24 UNL     1      13.572  52.854  99.095  1.00  0.00     0.037 A 
HETATM   25  C25 UNL     1      14.535  52.986 100.088  1.00  0.00     0.003 A 
HETATM   26  C26 UNL     1      14.677  54.202 100.740  1.00  0.00     0.000 A 
HETATM   27  C27 UNL     1      13.867  55.260 100.394  1.00  0.00     0.003 A 
HETATM   28  C28 UNL     1      12.914  55.101  99.397  1.00  0.00     0.037 A 
ENDBRANCH  22  23
ENDBRANCH  21  22
ENDBRANCH  18  21
ENDBRANCH  12  15
ENDBRANCH  10  12
ENDBRANCH   1  10
BRANCH   4  29
HETATM   29  N3  UNL     1      12.058  49.419  90.562  1.00  0.00    -0.223 N 
ATOM     30  H3  UNL     1      12.133  48.523  90.081  1.00  0.00     0.177 HD
BRANCH  29  31
HETATM   31  C3  UNL     1      12.240  49.447  91.986  1.00  0.00     0.164 C 
BRANCH  31  32
HETATM   32  C4  UNL     1      13.731  49.403  92.285  1.00  0.00     0.184 C 
BRANCH  32  33
HETATM   33  O3  UNL     1      14.378  50.512  91.776  1.00  0.00    -0.399 OA
ATOM     34  H3  UNL     1      15.127  50.262  91.247  1.00  0.00     0.209 HD
ENDBRANCH  32  33
ENDBRANCH  31  32
ENDBRANCH  29  31
ENDBRANCH   4  29
BRANCH   7  35
HETATM   35  N5  UNL     1      10.827  51.102  86.580  1.00  0.00    -0.219 N 
ATOM     36  H5  UNL     1      10.816  50.127  86.282  1.00  0.00     0.178 HD
BRANCH  35  37
HETATM   37  C6  UNL     1      10.465  52.123  85.617  1.00  0.00     0.195 C 
BRANCH  37  38
HETATM   38  C7  UNL     1      11.666  52.637  84.899  1.00  0.00     0.028 A 
HETATM   39  C8  UNL     1      12.104  52.061  83.726  1.00  0.00     0.039 A 
HETATM   40  C9  UNL     1      13.212  52.520  83.043  1.00  0.00    -0.023 A 
HETATM   41  C16 UNL     1      13.909  53.596  83.547  1.00  0.00     0.029 A 
HETATM   42  C17 UNL     1      13.451  54.159  84.724  1.00  0.00     0.089 A 
HETATM   43  N6  UNL     1      12.365  53.688  85.370  1.00  0.00    -0.368 N 
ATOM     44  H6  UNL     1      12.066  54.137  86.235  1.00  0.00     0.165 HD
BRANCH  40  45
HETATM   45  C10 UNL     1      13.684  51.916  81.800  1.00  0.00    -0.026 A 
HETATM   46  C11 UNL     1      14.922  52.352  81.344  1.00  0.00     0.012 A 
HETATM   47  C12 UNL     1      15.489  51.872  80.190  1.00  0.00     0.001 A 
HETATM   48  C13 UNL     1      14.779  50.918  79.472  1.00  0.00     0.000 A 
HETATM   49  C14 UNL     1      13.545  50.482  79.924  1.00  0.00     0.001 A 
HETATM   50  C15 UNL     1      12.981  50.980  81.100  1.00  0.00     0.012 A 
ENDBRANCH  40  45
ENDBRANCH  37  38
ENDBRANCH  35  37
ENDBRANCH   7  35
TORSDOF 14
ENDMDL
