MODEL 1
REMARK VINA RESULT: -6.461998174      0.000      0.000
REMARK  10 active torsions:
REMARK  status: ('A' for Active; 'I' for Inactive)
REMARK    1  A    between atoms: C2_2  and  C3_3 
REMARK    2  A    between atoms: C3_3  and  C4_4 
REMARK    3  A    between atoms: C11_16  and  C12_17 
REMARK    4  A    between atoms: C12_17  and  C13_18 
REMARK    5  A    between atoms: C15_25  and  C16_26 
REMARK    6  A    between atoms: C16_26  and  C17_27 
REMARK    7  A    between atoms: C20_32  and  C21_33 
REMARK    8  A    between atoms: C21_33  and  O6_35 
REMARK    9  A    between atoms: O6_35  and  C23_36 
REMARK   10  A    between atoms: C23_36  and  C24_37 
ROOT
HETATM    1  C4  UNL     1      10.316  50.158  89.134  1.00  0.00     0.177 C 
HETATM    2  N1  UNL     1       9.319  49.406  88.412  1.00  0.00    -0.346 N 
ATOM      3  H1  UNL     1       9.654  48.715  87.742  1.00  0.00     0.163 HD
HETATM    4  C5  UNL     1       7.918  49.542  88.550  1.00  0.00     0.241 C 
HETATM    5  O1  UNL     1       7.215  48.856  87.771  1.00  0.00    -0.271 OA
HETATM    6  C6  UNL     1       7.311  50.401  89.512  1.00  0.00     0.179 C 
HETATM    7  C7  UNL     1       5.838  50.030  89.796  1.00  0.00     0.037 C 
HETATM    8  C8  UNL     1       5.298  51.272  90.472  1.00  0.00     0.022 C 
HETATM    9  C9  UNL     1       6.506  52.174  90.598  1.00  0.00     0.127 C 
HETATM   10  N2  UNL     1       7.209  51.797  89.323  1.00  0.00    -0.337 N 
HETATM   11  C10 UNL     1       7.645  52.622  88.266  1.00  0.00     0.243 C 
HETATM   12  O2  UNL     1       8.115  53.742  88.609  1.00  0.00    -0.271 OA
HETATM   13  C11 UNL     1       7.624  52.349  86.815  1.00  0.00     0.186 C 
HETATM   14  N3  UNL     1       8.288  53.386  86.064  1.00  0.00    -0.346 N 
ATOM     15  H3  UNL     1       7.853  54.305  86.144  1.00  0.00     0.163 HD
HETATM   16  C14 UNL     1       9.409  53.358  85.254  1.00  0.00     0.241 C 
HETATM   17  O5  UNL     1       9.432  53.945  84.135  1.00  0.00    -0.271 OA
HETATM   18  C15 UNL     1      10.746  52.654  85.552  1.00  0.00     0.175 C 
HETATM   19  N4  UNL     1      11.358  53.231  86.657  1.00  0.00    -0.364 N 
ATOM     20  H4  UNL     1      11.316  54.249  86.612  1.00  0.00     0.161 HD
HETATM   21  C20 UNL     1      11.948  52.846  87.694  1.00  0.00     0.109 C 
HETATM   22  N5  UNL     1      12.254  51.527  88.104  1.00  0.00    -0.313 N 
ATOM     23  H5  UNL     1      13.228  51.385  88.375  1.00  0.00     0.170 HD
HETATM   24  C32 UNL     1      11.457  50.390  88.202  1.00  0.00     0.245 C 
HETATM   25  O7  UNL     1      11.700  49.401  87.419  1.00  0.00    -0.271 OA
ENDROOT
BRANCH  21  26
HETATM   26  C21 UNL     1      12.465  53.932  88.658  1.00  0.00     0.184 C 
HETATM   27  C22 UNL     1      13.651  54.539  87.887  1.00  0.00     0.048 C 
BRANCH  26  28
HETATM   28  O6  UNL     1      12.855  53.423  89.823  1.00  0.00    -0.378 OA
BRANCH  28  29
HETATM   29  C23 UNL     1      12.045  53.349  90.885  1.00  0.00     0.177 C 
BRANCH  29  30
HETATM   30  C24 UNL     1      12.543  53.586  92.258  1.00  0.00    -0.022 C 
HETATM   31  C25 UNL     1      13.558  52.502  92.593  1.00  0.00     0.017 C 
HETATM   32  C26 UNL     1      13.108  54.914  92.593  1.00  0.00     0.011 C 
HETATM   33  C27 UNL     1      13.076  55.178  94.111  1.00  0.00     0.001 C 
HETATM   34  C28 UNL     1      11.894  56.015  94.484  1.00  0.00     0.000 C 
HETATM   35  C29 UNL     1      10.627  55.202  94.595  1.00  0.00     0.000 C 
HETATM   36  C30 UNL     1      10.421  54.502  93.261  1.00  0.00     0.001 C 
HETATM   37  C31 UNL     1      11.316  53.316  93.181  1.00  0.00     0.011 C 
ENDBRANCH  29  30
ENDBRANCH  28  29
ENDBRANCH  26  28
ENDBRANCH  21  26
BRANCH  18  38
HETATM   38  C16 UNL     1      11.516  52.686  84.283  1.00  0.00     0.038 C 
BRANCH  38  39
HETATM   39  C17 UNL     1      12.932  52.386  84.184  1.00  0.00    -0.020 C 
HETATM   40  C18 UNL     1      13.841  53.574  84.187  1.00  0.00     0.009 C 
HETATM   41  C19 UNL     1      13.186  51.670  82.829  1.00  0.00     0.009 C 
ENDBRANCH  38  39
ENDBRANCH  18  38
BRANCH   1  42
HETATM   42  C3  UNL     1      10.752  49.305  90.315  1.00  0.00     0.034 C 
BRANCH  42  43
HETATM   43  C2  UNL     1      10.432  49.975  91.631  1.00  0.00    -0.002 C 
HETATM   44  C1  UNL     1      11.333  49.467  92.736  1.00  0.00     0.005 C 
ENDBRANCH  42  43
ENDBRANCH   1  42
BRANCH  13  45
HETATM   45  C12 UNL     1       6.119  52.355  86.468  1.00  0.00     0.147 C 
BRANCH  45  46
HETATM   46  C13 UNL     1       5.769  53.561  85.691  1.00  0.00     0.175 C 
HETATM   47  O3  UNL     1       5.434  54.663  86.168  1.00  0.00    -0.648 OA
HETATM   48  O4  UNL     1       5.817  53.459  84.293  1.00  0.00    -0.648 OA
ENDBRANCH  45  46
ENDBRANCH  13  45
TORSDOF 10
ENDMDL
MODEL 2
REMARK VINA RESULT: -6.420455782      2.900      6.791
REMARK  10 active torsions:
REMARK  status: ('A' for Active; 'I' for Inactive)
REMARK    1  A    between atoms: C2_2  and  C3_3 
REMARK    2  A    between atoms: C3_3  and  C4_4 
REMARK    3  A    between atoms: C11_16  and  C12_17 
REMARK    4  A    between atoms: C12_17  and  C13_18 
REMARK    5  A    between atoms: C15_25  and  C16_26 
REMARK    6  A    between atoms: C16_26  and  C17_27 
REMARK    7  A    between atoms: C20_32  and  C21_33 
REMARK    8  A    between atoms: C21_33  and  O6_35 
REMARK    9  A    between atoms: O6_35  and  C23_36 
REMARK   10  A    between atoms: C23_36  and  C24_37 
ROOT
HETATM    1  C4  UNL     1       9.869  50.713  91.040  1.00  0.00     0.177 C 
HETATM    2  N1  UNL     1      11.061  50.400  90.289  1.00  0.00    -0.346 N 
ATOM      3  H1  UNL     1      11.729  49.764  90.723  1.00  0.00     0.163 HD
HETATM    4  C5  UNL     1      11.386  50.896  89.005  1.00  0.00     0.241 C 
HETATM    5  O1  UNL     1      12.509  50.572  88.554  1.00  0.00    -0.271 OA
HETATM    6  C6  UNL     1      10.504  51.718  88.243  1.00  0.00     0.179 C 
HETATM    7  C7  UNL     1      10.854  51.731  86.738  1.00  0.00     0.037 C 
HETATM    8  C8  UNL     1      10.108  52.944  86.225  1.00  0.00     0.022 C 
HETATM    9  C9  UNL     1       9.343  53.440  87.432  1.00  0.00     0.127 C 
HETATM   10  N2  UNL     1      10.347  53.098  88.499  1.00  0.00    -0.337 N 
HETATM   11  C10 UNL     1      10.934  53.933  89.471  1.00  0.00     0.243 C 
HETATM   12  O2  UNL     1      10.172  54.804  89.973  1.00  0.00    -0.271 OA
HETATM   13  C11 UNL     1      12.321  53.921  89.979  1.00  0.00     0.186 C 
HETATM   14  N3  UNL     1      12.499  54.841  91.076  1.00  0.00    -0.346 N 
ATOM     15  H3  UNL     1      12.338  55.819  90.832  1.00  0.00     0.163 HD
HETATM   16  C14 UNL     1      12.849  54.637  92.398  1.00  0.00     0.241 C 
HETATM   17  O5  UNL     1      13.697  55.370  92.980  1.00  0.00    -0.271 OA
HETATM   18  C15 UNL     1      12.301  53.548  93.340  1.00  0.00     0.175 C 
HETATM   19  N4  UNL     1      10.943  53.740  93.559  1.00  0.00    -0.364 N 
ATOM     20  H4  UNL     1      10.733  54.722  93.737  1.00  0.00     0.161 HD
HETATM   21  C20 UNL     1       9.905  53.040  93.599  1.00  0.00     0.109 C 
HETATM   22  N5  UNL     1       9.771  51.639  93.453  1.00  0.00    -0.313 N 
ATOM     23  H5  UNL     1       9.228  51.188  94.190  1.00  0.00     0.170 HD
HETATM   24  C32 UNL     1      10.254  50.769  92.480  1.00  0.00     0.245 C 
HETATM   25  O7  UNL     1      11.134  49.896  92.818  1.00  0.00    -0.271 OA
ENDROOT
BRANCH  21  26
HETATM   26  C21 UNL     1       8.574  53.763  93.888  1.00  0.00     0.184 C 
HETATM   27  C22 UNL     1       7.834  53.670  92.541  1.00  0.00     0.048 C 
BRANCH  26  28
HETATM   28  O6  UNL     1       8.759  55.028  94.252  1.00  0.00    -0.378 OA
BRANCH  28  29
HETATM   29  C23 UNL     1       8.173  55.562  95.329  1.00  0.00     0.177 C 
BRANCH  29  30
HETATM   30  C24 UNL     1       8.915  56.442  96.259  1.00  0.00    -0.022 C 
HETATM   31  C25 UNL     1       8.905  57.855  95.692  1.00  0.00     0.017 C 
HETATM   32  C26 UNL     1       8.510  56.478  97.684  1.00  0.00     0.011 C 
HETATM   33  C27 UNL     1       9.653  56.983  98.585  1.00  0.00     0.001 C 
HETATM   34  C28 UNL     1      10.379  55.840  99.220  1.00  0.00     0.000 C 
HETATM   35  C29 UNL     1      11.388  55.212  98.288  1.00  0.00     0.000 C 
HETATM   36  C30 UNL     1      10.638  54.778  97.038  1.00  0.00     0.001 C 
HETATM   37  C31 UNL     1      10.395  55.962  96.170  1.00  0.00     0.011 C 
ENDBRANCH  29  30
ENDBRANCH  28  29
ENDBRANCH  26  28
ENDBRANCH  21  26
BRANCH  18  38
HETATM   38  C16 UNL     1      13.170  53.574  94.544  1.00  0.00     0.038 C 
BRANCH  38  39
HETATM   39  C17 UNL     1      13.766  52.394  95.142  1.00  0.00    -0.020 C 
HETATM   40  C18 UNL     1      14.145  51.311  94.182  1.00  0.00     0.009 C 
HETATM   41  C19 UNL     1      12.726  51.755  96.102  1.00  0.00     0.009 C 
ENDBRANCH  38  39
ENDBRANCH  18  38
BRANCH   1  42
HETATM   42  C3  UNL     1       8.876  49.589  90.793  1.00  0.00     0.034 C 
BRANCH  42  43
HETATM   43  C2  UNL     1       7.451  50.093  90.808  1.00  0.00    -0.002 C 
HETATM   44  C1  UNL     1       7.257  51.212  89.808  1.00  0.00     0.005 C 
ENDBRANCH  42  43
ENDBRANCH   1  42
BRANCH  13  45
HETATM   45  C12 UNL     1      13.153  54.404  88.771  1.00  0.00     0.147 C 
BRANCH  45  46
HETATM   46  C13 UNL     1      14.327  55.177  89.223  1.00  0.00     0.175 C 
HETATM   47  O3  UNL     1      15.452  54.707  89.483  1.00  0.00    -0.648 OA
HETATM   48  O4  UNL     1      14.162  56.561  89.375  1.00  0.00    -0.648 OA
ENDBRANCH  45  46
ENDBRANCH  13  45
TORSDOF 10
ENDMDL
MODEL 3
REMARK VINA RESULT: -6.415032158      6.452     10.899
REMARK  10 active torsions:
REMARK  status: ('A' for Active; 'I' for Inactive)
REMARK    1  A    between atoms: C2_2  and  C3_3 
REMARK    2  A    between atoms: C3_3  and  C4_4 
REMARK    3  A    between atoms: C11_16  and  C12_17 
REMARK    4  A    between atoms: C12_17  and  C13_18 
REMARK    5  A    between atoms: C15_25  and  C16_26 
REMARK    6  A    between atoms: C16_26  and  C17_27 
REMARK    7  A    between atoms: C20_32  and  C21_33 
REMARK    8  A    between atoms: C21_33  and  O6_35 
REMARK    9  A    between atoms: O6_35  and  C23_36 
REMARK   10  A    between atoms: C23_36  and  C24_37 
ROOT
HETATM    1  C4  UNL     1      11.428  52.123  96.770  1.00  0.00     0.177 C 
HETATM    2  N1  UNL     1      10.686  51.537  97.860  1.00  0.00    -0.346 N 
ATOM      3  H1  UNL     1       9.761  51.166  97.645  1.00  0.00     0.163 HD
HETATM    4  C5  UNL     1      11.126  51.431  99.199  1.00  0.00     0.241 C 
HETATM    5  O1  UNL     1      10.301  50.964 100.019  1.00  0.00    -0.271 OA
HETATM    6  C6  UNL     1      12.430  51.823  99.623  1.00  0.00     0.179 C 
HETATM    7  C7  UNL     1      12.835  51.186 100.972  1.00  0.00     0.037 C 
HETATM    8  C8  UNL     1      14.003  52.041 101.415  1.00  0.00     0.022 C 
HETATM    9  C9  UNL     1      14.214  52.997 100.263  1.00  0.00     0.127 C 
HETATM   10  N2  UNL     1      12.780  53.174  99.843  1.00  0.00    -0.337 N 
HETATM   11  C10 UNL     1      12.031  54.359  99.702  1.00  0.00     0.243 C 
HETATM   12  O2  UNL     1      12.659  55.347  99.231  1.00  0.00    -0.271 OA
HETATM   13  C11 UNL     1      10.611  54.596 100.032  1.00  0.00     0.186 C 
HETATM   14  N3  UNL     1      10.173  55.905  99.613  1.00  0.00    -0.346 N 
ATOM     15  H3  UNL     1      10.661  56.676 100.070  1.00  0.00     0.163 HD
HETATM   16  C14 UNL     1       9.212  56.303  98.702  1.00  0.00     0.241 C 
HETATM   17  O5  UNL     1       8.397  57.233  98.963  1.00  0.00    -0.271 OA
HETATM   18  C15 UNL     1       8.977  55.723  97.295  1.00  0.00     0.175 C 
HETATM   19  N4  UNL     1      10.077  55.964  96.484  1.00  0.00    -0.364 N 
ATOM     20  H4  UNL     1      10.412  56.922  96.592  1.00  0.00     0.161 HD
HETATM   21  C20 UNL     1      10.774  55.332  95.657  1.00  0.00     0.109 C 
HETATM   22  N5  UNL     1      10.615  54.005  95.192  1.00  0.00    -0.313 N 
ATOM     23  H5  UNL     1      10.626  53.909  94.176  1.00  0.00     0.170 HD
HETATM   24  C32 UNL     1      10.445  52.807  95.882  1.00  0.00     0.245 C 
HETATM   25  O7  UNL     1       9.327  52.185  95.765  1.00  0.00    -0.271 OA
ENDROOT
BRANCH  21  26
HETATM   26  C21 UNL     1      11.949  56.083  94.998  1.00  0.00     0.184 C 
HETATM   27  C22 UNL     1      11.483  57.549  95.036  1.00  0.00     0.048 C 
BRANCH  26  28
HETATM   28  O6  UNL     1      12.168  55.676  93.751  1.00  0.00    -0.378 OA
BRANCH  28  29
HETATM   29  C23 UNL     1      13.234  54.944  93.407  1.00  0.00     0.177 C 
BRANCH  29  30
HETATM   30  C24 UNL     1      13.167  53.940  92.323  1.00  0.00    -0.022 C 
HETATM   31  C25 UNL     1      13.640  52.604  92.877  1.00  0.00     0.017 C 
HETATM   32  C26 UNL     1      11.887  53.753  91.602  1.00  0.00     0.011 C 
HETATM   33  C27 UNL     1      12.104  53.112  90.217  1.00  0.00     0.001 C 
HETATM   34  C28 UNL     1      12.112  54.152  89.142  1.00  0.00     0.000 C 
HETATM   35  C29 UNL     1      13.444  54.853  89.031  1.00  0.00     0.000 C 
HETATM   36  C30 UNL     1      13.755  55.451  90.394  1.00  0.00     0.001 C 
HETATM   37  C31 UNL     1      14.258  54.383  91.300  1.00  0.00     0.011 C 
ENDBRANCH  29  30
ENDBRANCH  28  29
ENDBRANCH  26  28
ENDBRANCH  21  26
BRANCH  18  38
HETATM   38  C16 UNL     1       7.683  56.286  96.831  1.00  0.00     0.038 C 
BRANCH  38  39
HETATM   39  C17 UNL     1       7.479  56.886  95.526  1.00  0.00    -0.020 C 
HETATM   40  C18 UNL     1       7.368  58.378  95.516  1.00  0.00     0.009 C 
HETATM   41  C19 UNL     1       6.133  56.364  94.954  1.00  0.00     0.009 C 
ENDBRANCH  38  39
ENDBRANCH  18  38
BRANCH   1  42
HETATM   42  C3  UNL     1      12.116  50.984  96.033  1.00  0.00     0.034 C 
BRANCH  42  43
HETATM   43  C2  UNL     1      13.589  50.920  96.364  1.00  0.00    -0.002 C 
HETATM   44  C1  UNL     1      14.188  52.306  96.463  1.00  0.00     0.005 C 
ENDBRANCH  42  43
ENDBRANCH   1  42
BRANCH  13  45
HETATM   45  C12 UNL     1      10.581  54.521 101.575  1.00  0.00     0.147 C 
BRANCH  45  46
HETATM   46  C13 UNL     1      10.341  55.856 102.156  1.00  0.00     0.175 C 
HETATM   47  O3  UNL     1       9.225  56.343 102.426  1.00  0.00    -0.648 OA
HETATM   48  O4  UNL     1      11.466  56.648 102.429  1.00  0.00    -0.648 OA
ENDBRANCH  45  46
ENDBRANCH  13  45
TORSDOF 10
ENDMDL
MODEL 4
REMARK VINA RESULT: -6.389185704      0.789      1.231
REMARK  10 active torsions:
REMARK  status: ('A' for Active; 'I' for Inactive)
REMARK    1  A    between atoms: C2_2  and  C3_3 
REMARK    2  A    between atoms: C3_3  and  C4_4 
REMARK    3  A    between atoms: C11_16  and  C12_17 
REMARK    4  A    between atoms: C12_17  and  C13_18 
REMARK    5  A    between atoms: C15_25  and  C16_26 
REMARK    6  A    between atoms: C16_26  and  C17_27 
REMARK    7  A    between atoms: C20_32  and  C21_33 
REMARK    8  A    between atoms: C21_33  and  O6_35 
REMARK    9  A    between atoms: O6_35  and  C23_36 
REMARK   10  A    between atoms: C23_36  and  C24_37 
ROOT
HETATM    1  C4  UNL     1      10.080  49.939  88.784  1.00  0.00     0.177 C 
HETATM    2  N1  UNL     1       9.093  49.223  88.012  1.00  0.00    -0.346 N 
ATOM      3  H1  UNL     1       9.438  48.553  87.326  1.00  0.00     0.163 HD
HETATM    4  C5  UNL     1       7.691  49.368  88.121  1.00  0.00     0.241 C 
HETATM    5  O1  UNL     1       7.001  48.717  87.303  1.00  0.00    -0.271 OA
HETATM    6  C6  UNL     1       7.069  50.199  89.099  1.00  0.00     0.179 C 
HETATM    7  C7  UNL     1       5.586  49.833  89.334  1.00  0.00     0.037 C 
HETATM    8  C8  UNL     1       5.042  51.056  90.041  1.00  0.00     0.022 C 
HETATM    9  C9  UNL     1       6.254  51.941  90.227  1.00  0.00     0.127 C 
HETATM   10  N2  UNL     1       6.985  51.602  88.956  1.00  0.00    -0.337 N 
HETATM   11  C10 UNL     1       7.453  52.459  87.941  1.00  0.00     0.243 C 
HETATM   12  O2  UNL     1       7.925  53.562  88.334  1.00  0.00    -0.271 OA
HETATM   13  C11 UNL     1       7.465  52.237  86.481  1.00  0.00     0.186 C 
HETATM   14  N3  UNL     1       8.157  53.293  85.782  1.00  0.00    -0.346 N 
ATOM     15  H3  UNL     1       7.728  54.213  85.885  1.00  0.00     0.163 HD
HETATM   16  C14 UNL     1       9.297  53.283  84.999  1.00  0.00     0.241 C 
HETATM   17  O5  UNL     1       9.352  53.907  83.902  1.00  0.00    -0.271 OA
HETATM   18  C15 UNL     1      10.619  52.555  85.304  1.00  0.00     0.175 C 
HETATM   19  N4  UNL     1      11.210  53.086  86.442  1.00  0.00    -0.364 N 
ATOM     20  H4  UNL     1      11.179  54.105  86.433  1.00  0.00     0.161 HD
HETATM   21  C20 UNL     1      11.771  52.660  87.479  1.00  0.00     0.109 C 
HETATM   22  N5  UNL     1      12.055  51.324  87.849  1.00  0.00    -0.313 N 
ATOM     23  H5  UNL     1      13.021  51.163  88.138  1.00  0.00     0.170 HD
HETATM   24  C32 UNL     1      11.246  50.192  87.888  1.00  0.00     0.245 C 
HETATM   25  O7  UNL     1      11.498  49.229  87.076  1.00  0.00    -0.271 OA
ENDROOT
BRANCH  21  26
HETATM   26  C21 UNL     1      12.275  53.706  88.493  1.00  0.00     0.184 C 
HETATM   27  C22 UNL     1      13.470  54.344  87.762  1.00  0.00     0.048 C 
BRANCH  26  28
HETATM   28  O6  UNL     1      12.650  53.150  89.641  1.00  0.00    -0.378 OA
BRANCH  28  29
HETATM   29  C23 UNL     1      12.153  53.531  90.824  1.00  0.00     0.177 C 
BRANCH  29  30
HETATM   30  C24 UNL     1      13.033  53.975  91.927  1.00  0.00    -0.022 C 
HETATM   31  C25 UNL     1      14.118  54.869  91.345  1.00  0.00     0.017 C 
HETATM   32  C26 UNL     1      12.423  54.638  93.103  1.00  0.00     0.011 C 
HETATM   33  C27 UNL     1      13.336  54.550  94.341  1.00  0.00     0.001 C 
HETATM   34  C28 UNL     1      12.914  53.431  95.239  1.00  0.00     0.000 C 
HETATM   35  C29 UNL     1      13.423  52.091  94.763  1.00  0.00     0.000 C 
HETATM   36  C30 UNL     1      12.918  51.894  93.343  1.00  0.00     0.001 C 
HETATM   37  C31 UNL     1      13.762  52.682  92.403  1.00  0.00     0.011 C 
ENDBRANCH  29  30
ENDBRANCH  28  29
ENDBRANCH  26  28
ENDBRANCH  21  26
BRANCH  18  38
HETATM   38  C16 UNL     1      11.421  52.623  84.055  1.00  0.00     0.038 C 
BRANCH  38  39
HETATM   39  C17 UNL     1      12.829  52.284  83.974  1.00  0.00    -0.020 C 
HETATM   40  C18 UNL     1      13.773  53.441  84.065  1.00  0.00     0.009 C 
HETATM   41  C19 UNL     1      13.095  51.637  82.587  1.00  0.00     0.009 C 
ENDBRANCH  38  39
ENDBRANCH  18  38
BRANCH   1  42
HETATM   42  C3  UNL     1      10.479  49.040  89.944  1.00  0.00     0.034 C 
BRANCH  42  43
HETATM   43  C2  UNL     1      10.862  49.846  91.164  1.00  0.00    -0.002 C 
HETATM   44  C1  UNL     1       9.785  50.850  91.515  1.00  0.00     0.005 C 
ENDBRANCH  42  43
ENDBRANCH   1  42
BRANCH  13  45
HETATM   45  C12 UNL     1       5.969  52.271  86.098  1.00  0.00     0.147 C 
BRANCH  45  46
HETATM   46  C13 UNL     1       5.647  53.511  85.366  1.00  0.00     0.175 C 
HETATM   47  O3  UNL     1       5.274  54.584  85.880  1.00  0.00    -0.648 OA
HETATM   48  O4  UNL     1       5.770  53.482  83.969  1.00  0.00    -0.648 OA
ENDBRANCH  45  46
ENDBRANCH  13  45
TORSDOF 10
ENDMDL
MODEL 5
REMARK VINA RESULT: -6.355216981      2.824      7.895
REMARK  10 active torsions:
REMARK  status: ('A' for Active; 'I' for Inactive)
REMARK    1  A    between atoms: C2_2  and  C3_3 
REMARK    2  A    between atoms: C3_3  and  C4_4 
REMARK    3  A    between atoms: C11_16  and  C12_17 
REMARK    4  A    between atoms: C12_17  and  C13_18 
REMARK    5  A    between atoms: C15_25  and  C16_26 
REMARK    6  A    between atoms: C16_26  and  C17_27 
REMARK    7  A    between atoms: C20_32  and  C21_33 
REMARK    8  A    between atoms: C21_33  and  O6_35 
REMARK    9  A    between atoms: O6_35  and  C23_36 
REMARK   10  A    between atoms: C23_36  and  C24_37 
ROOT
HETATM    1  C4  UNL     1       7.947  50.211  85.931  1.00  0.00     0.177 C 
HETATM    2  N1  UNL     1       7.781  49.472  87.159  1.00  0.00    -0.346 N 
ATOM      3  H1  UNL     1       7.139  49.858  87.850  1.00  0.00     0.163 HD
HETATM    4  C5  UNL     1       8.429  48.260  87.491  1.00  0.00     0.241 C 
HETATM    5  O1  UNL     1       8.217  47.815  88.643  1.00  0.00    -0.271 OA
HETATM    6  C6  UNL     1       9.281  47.561  86.586  1.00  0.00     0.179 C 
HETATM    7  C7  UNL     1       9.475  46.078  86.977  1.00  0.00     0.037 C 
HETATM    8  C8  UNL     1      10.695  45.672  86.178  1.00  0.00     0.022 C 
HETATM    9  C9  UNL     1      11.016  46.898  85.352  1.00  0.00     0.127 C 
HETATM   10  N2  UNL     1      10.615  47.956  86.344  1.00  0.00    -0.337 N 
HETATM   11  C10 UNL     1      11.370  49.031  86.855  1.00  0.00     0.243 C 
HETATM   12  O2  UNL     1      12.140  49.596  86.030  1.00  0.00    -0.271 OA
HETATM   13  C11 UNL     1      11.377  49.582  88.225  1.00  0.00     0.186 C 
HETATM   14  N3  UNL     1      12.182  50.776  88.320  1.00  0.00    -0.346 N 
ATOM     15  H3  UNL     1      13.170  50.632  88.110  1.00  0.00     0.163 HD
HETATM   16  C14 UNL     1      11.855  52.080  88.643  1.00  0.00     0.241 C 
HETATM   17  O5  UNL     1      12.565  52.765  89.431  1.00  0.00    -0.271 OA
HETATM   18  C15 UNL     1      10.643  52.881  88.132  1.00  0.00     0.175 C 
HETATM   19  N4  UNL     1      10.737  53.073  86.760  1.00  0.00    -0.364 N 
ATOM     20  H4  UNL     1      11.681  53.348  86.489  1.00  0.00     0.161 HD
HETATM   21  C20 UNL     1       9.982  53.003  85.762  1.00  0.00     0.109 C 
HETATM   22  N5  UNL     1       8.600  52.705  85.713  1.00  0.00    -0.313 N 
ATOM     23  H5  UNL     1       8.043  53.370  85.175  1.00  0.00     0.170 HD
HETATM   24  C32 UNL     1       7.868  51.661  86.271  1.00  0.00     0.245 C 
HETATM   25  O7  UNL     1       7.011  51.934  87.189  1.00  0.00    -0.271 OA
ENDROOT
BRANCH  21  26
HETATM   26  C21 UNL     1      10.597  53.321  84.384  1.00  0.00     0.184 C 
HETATM   27  C22 UNL     1       9.361  53.419  83.471  1.00  0.00     0.048 C 
BRANCH  26  28
HETATM   28  O6  UNL     1      11.429  52.368  83.974  1.00  0.00    -0.378 OA
BRANCH  28  29
HETATM   29  C23 UNL     1      11.495  51.968  82.700  1.00  0.00     0.177 C 
BRANCH  29  30
HETATM   30  C24 UNL     1      12.622  51.149  82.202  1.00  0.00    -0.022 C 
HETATM   31  C25 UNL     1      12.293  49.683  82.442  1.00  0.00     0.017 C 
HETATM   32  C26 UNL     1      13.074  51.333  80.803  1.00  0.00     0.011 C 
HETATM   33  C27 UNL     1      14.523  50.845  80.606  1.00  0.00     0.001 C 
HETATM   34  C28 UNL     1      15.485  51.989  80.660  1.00  0.00     0.000 C 
HETATM   35  C29 UNL     1      15.812  52.398  82.076  1.00  0.00     0.000 C 
HETATM   36  C30 UNL     1      14.498  52.736  82.763  1.00  0.00     0.001 C 
HETATM   37  C31 UNL     1      13.808  51.478  83.159  1.00  0.00     0.011 C 
ENDBRANCH  29  30
ENDBRANCH  28  29
ENDBRANCH  26  28
ENDBRANCH  21  26
BRANCH  18  38
HETATM   38  C16 UNL     1      10.585  54.110  88.964  1.00  0.00     0.038 C 
BRANCH  38  39
HETATM   39  C17 UNL     1       9.442  54.491  89.773  1.00  0.00    -0.020 C 
HETATM   40  C18 UNL     1       8.936  53.436  90.705  1.00  0.00     0.009 C 
HETATM   41  C19 UNL     1       8.256  54.810  88.822  1.00  0.00     0.009 C 
ENDBRANCH  38  39
ENDBRANCH  18  38
BRANCH   1  42
HETATM   42  C3  UNL     1       6.804  49.812  85.010  1.00  0.00     0.034 C 
BRANCH  42  43
HETATM   43  C2  UNL     1       7.267  49.677  83.578  1.00  0.00    -0.002 C 
HETATM   44  C1  UNL     1       8.771  49.525  83.501  1.00  0.00     0.005 C 
ENDBRANCH  42  43
ENDBRANCH   1  42
BRANCH  13  45
HETATM   45  C12 UNL     1      12.032  48.461  89.062  1.00  0.00     0.147 C 
BRANCH  45  46
HETATM   46  C13 UNL     1      13.478  48.710  89.224  1.00  0.00     0.175 C 
HETATM   47  O3  UNL     1      14.374  48.327  88.447  1.00  0.00    -0.648 OA
HETATM   48  O4  UNL     1      13.880  49.440  90.352  1.00  0.00    -0.648 OA
ENDBRANCH  45  46
ENDBRANCH  13  45
TORSDOF 10
ENDMDL
