MODEL 1
REMARK VINA RESULT: -6.777552274      0.000      0.000
REMARK  15 active torsions:
REMARK  status: ('A' for Active; 'I' for Inactive)
REMARK    1  A    between atoms: C2_2  and  C3_3 
REMARK    2  A    between atoms: C3_3  and  C29_43 
REMARK    3  A    between atoms: C4_4  and  C5_5 
REMARK    4  A    between atoms: C5_5  and  C6_6 
REMARK    5  A    between atoms: C6_6  and  C8_8 
REMARK    6  A    between atoms: C10_13  and  C11_14 
REMARK    7  A    between atoms: C15_21  and  C16_22 
REMARK    8  A    between atoms: C16_22  and  C18_24 
REMARK    9  A    between atoms: C21_29  and  C22_30 
REMARK   10  A    between atoms: C25_35  and  O5_36 
REMARK   11  A    between atoms: C26_38  and  C27_39 
REMARK   12  A    between atoms: C27_39  and  C28_40 
REMARK   13  A    between atoms: C29_43  and  C30_44 
REMARK   14  A    between atoms: C31_45  and  C32_46 
REMARK   15  A    between atoms: C32_46  and  O8_49 
ROOT
HETATM    1  C8  UNL     1       9.874  51.783  88.795  1.00  0.00     0.100 C 
HETATM    2  N1  UNL     1      10.270  51.301  90.083  1.00  0.00    -0.353 N 
ATOM      3  H1  UNL     1      11.279  51.158  90.138  1.00  0.00     0.163 HD
HETATM    4  C9  UNL     1       9.642  50.978  91.275  1.00  0.00     0.241 C 
HETATM    5  O1  UNL     1       9.663  49.745  91.677  1.00  0.00    -0.271 OA
HETATM    6  C10 UNL     1       8.903  51.817  92.251  1.00  0.00     0.180 C 
HETATM    7  N2  UNL     1       9.692  51.918  93.502  1.00  0.00    -0.345 N 
ATOM      8  H2  UNL     1       9.328  51.452  94.333  1.00  0.00     0.163 HD
HETATM    9  C14 UNL     1      10.912  52.616  93.621  1.00  0.00     0.248 C 
HETATM   10  O2  UNL     1      11.906  52.015  94.111  1.00  0.00    -0.271 OA
HETATM   11  C15 UNL     1      11.151  54.025  93.215  1.00  0.00     0.227 C 
HETATM   12  O3  UNL     1      12.313  54.261  92.531  1.00  0.00    -0.304 OA
HETATM   13  C20 UNL     1      12.964  53.811  91.469  1.00  0.00     0.282 C 
HETATM   14  O4  UNL     1      14.064  53.153  91.626  1.00  0.00    -0.263 OA
HETATM   15  C21 UNL     1      12.635  53.938  90.014  1.00  0.00     0.186 C 
HETATM   16  N3  UNL     1      11.439  54.655  89.731  1.00  0.00    -0.360 N 
ATOM     17  H3  UNL     1      11.557  55.668  89.722  1.00  0.00     0.162 HD
HETATM   18  C25 UNL     1      10.131  54.237  89.463  1.00  0.00     0.118 C 
HETATM   19  C26 UNL     1       9.551  53.202  88.595  1.00  0.00     0.093 C 
ENDROOT
BRANCH   1  20
HETATM   20  C6  UNL     1      10.820  51.175  87.751  1.00  0.00     0.008 C 
HETATM   21  C7  UNL     1      12.190  50.875  88.152  1.00  0.00     0.012 C 
BRANCH  20  22
HETATM   22  C5  UNL     1      10.660  51.793  86.376  1.00  0.00     0.034 C 
BRANCH  22  23
HETATM   23  C4  UNL     1      11.921  52.396  85.940  1.00  0.00    -0.018 C 
HETATM   24  C3  UNL     1      12.195  52.987  84.796  1.00  0.00    -0.052 C 
BRANCH  24  25
HETATM   25  C2  UNL     1      11.170  53.097  83.782  1.00  0.00    -0.003 C 
HETATM   26  C1  UNL     1      10.906  52.134  82.954  1.00  0.00     0.012 C 
ENDBRANCH  24  25
BRANCH  24  27
HETATM   27  C29 UNL     1      13.560  53.550  84.554  1.00  0.00     0.132 C 
BRANCH  27  28
HETATM   28  C30 UNL     1      14.127  52.941  83.376  1.00  0.00    -0.099 C 
HETATM   29  C31 UNL     1      14.628  52.413  82.389  1.00  0.00    -0.069 C 
BRANCH  29  30
HETATM   30  C32 UNL     1      15.202  51.784  81.199  1.00  0.00     0.113 C 
HETATM   31  C33 UNL     1      15.366  52.892  80.174  1.00  0.00     0.060 C 
HETATM   32  C34 UNL     1      14.227  50.751  80.673  1.00  0.00     0.060 C 
BRANCH  30  33
HETATM   33  O8  UNL     1      16.430  51.195  81.466  1.00  0.00    -0.378 OA
ATOM     34  H8  UNL     1      16.943  51.070  80.676  1.00  0.00     0.211 HD
ENDBRANCH  30  33
ENDBRANCH  29  30
ENDBRANCH  27  28
ENDBRANCH  24  27
ENDBRANCH  22  23
ENDBRANCH  20  22
ENDBRANCH   1  20
BRANCH  19  35
HETATM   35  C27 UNL     1       8.039  53.500  88.641  1.00  0.00     0.128 C 
BRANCH  35  36
HETATM   36  C28 UNL     1       7.198  53.110  87.576  1.00  0.00     0.173 C 
HETATM   37  O6  UNL     1       7.256  53.462  86.405  1.00  0.00    -0.648 OA
HETATM   38  O7  UNL     1       6.138  52.195  87.851  1.00  0.00    -0.648 OA
ENDBRANCH  35  36
ENDBRANCH  19  35
BRANCH  18  39
HETATM   39  O5  UNL     1       9.275  54.963  90.159  1.00  0.00    -0.349 OA
ATOM     40  H5  UNL     1       8.600  54.404  90.527  1.00  0.00     0.219 HD
ENDBRANCH  18  39
BRANCH   6  41
HETATM   41  C11 UNL     1       7.627  51.059  92.603  1.00  0.00     0.009 C 
HETATM   42  C12 UNL     1       6.565  51.448  91.613  1.00  0.00     0.012 C 
HETATM   43  C13 UNL     1       7.132  51.496  93.974  1.00  0.00     0.012 C 
ENDBRANCH   6  41
BRANCH  15  44
HETATM   44  C22 UNL     1      13.798  54.749  89.375  1.00  0.00     0.010 C 
HETATM   45  C23 UNL     1      13.695  56.195  89.766  1.00  0.00     0.012 C 
HETATM   46  C24 UNL     1      13.723  54.589  87.890  1.00  0.00     0.012 C 
ENDBRANCH  15  44
BRANCH  11  47
HETATM   47  C16 UNL     1      11.140  54.886  94.456  1.00  0.00     0.020 C 
HETATM   48  C17 UNL     1       9.697  55.424  94.586  1.00  0.00     0.013 C 
BRANCH  47  49
HETATM   49  C18 UNL     1      12.012  56.096  94.372  1.00  0.00     0.003 C 
HETATM   50  C19 UNL     1      11.438  57.327  95.041  1.00  0.00     0.005 C 
ENDBRANCH  47  49
ENDBRANCH  11  47
TORSDOF 15
ENDMDL
MODEL 2
REMARK VINA RESULT: -6.697195615      1.723      2.709
REMARK  15 active torsions:
REMARK  status: ('A' for Active; 'I' for Inactive)
REMARK    1  A    between atoms: C2_2  and  C3_3 
REMARK    2  A    between atoms: C3_3  and  C29_43 
REMARK    3  A    between atoms: C4_4  and  C5_5 
REMARK    4  A    between atoms: C5_5  and  C6_6 
REMARK    5  A    between atoms: C6_6  and  C8_8 
REMARK    6  A    between atoms: C10_13  and  C11_14 
REMARK    7  A    between atoms: C15_21  and  C16_22 
REMARK    8  A    between atoms: C16_22  and  C18_24 
REMARK    9  A    between atoms: C21_29  and  C22_30 
REMARK   10  A    between atoms: C25_35  and  O5_36 
REMARK   11  A    between atoms: C26_38  and  C27_39 
REMARK   12  A    between atoms: C27_39  and  C28_40 
REMARK   13  A    between atoms: C29_43  and  C30_44 
REMARK   14  A    between atoms: C31_45  and  C32_46 
REMARK   15  A    between atoms: C32_46  and  O8_49 
ROOT
HETATM    1  C8  UNL     1      10.035  51.852  88.630  1.00  0.00     0.100 C 
HETATM    2  N1  UNL     1      10.421  51.347  89.913  1.00  0.00    -0.353 N 
ATOM      3  H1  UNL     1      11.431  51.221  89.980  1.00  0.00     0.163 HD
HETATM    4  C9  UNL     1       9.782  50.986  91.087  1.00  0.00     0.241 C 
HETATM    5  O1  UNL     1       9.819  49.744  91.461  1.00  0.00    -0.271 OA
HETATM    6  C10 UNL     1       9.014  51.789  92.071  1.00  0.00     0.180 C 
HETATM    7  N2  UNL     1       9.782  51.875  93.336  1.00  0.00    -0.345 N 
ATOM      8  H2  UNL     1       9.414  51.384  94.150  1.00  0.00     0.163 HD
HETATM    9  C14 UNL     1      10.988  52.592  93.489  1.00  0.00     0.248 C 
HETATM   10  O2  UNL     1      11.984  51.998  93.980  1.00  0.00    -0.271 OA
HETATM   11  C15 UNL     1      11.206  54.014  93.118  1.00  0.00     0.227 C 
HETATM   12  O3  UNL     1      12.374  54.286  92.457  1.00  0.00    -0.304 OA
HETATM   13  C20 UNL     1      13.048  53.873  91.395  1.00  0.00     0.282 C 
HETATM   14  O4  UNL     1      14.158  53.231  91.553  1.00  0.00    -0.263 OA
HETATM   15  C21 UNL     1      12.738  54.027  89.938  1.00  0.00     0.186 C 
HETATM   16  N3  UNL     1      11.533  54.728  89.654  1.00  0.00    -0.360 N 
ATOM     17  H3  UNL     1      11.633  55.744  89.670  1.00  0.00     0.162 HD
HETATM   18  C25 UNL     1      10.237  54.293  89.357  1.00  0.00     0.118 C 
HETATM   19  C26 UNL     1       9.690  53.268  88.458  1.00  0.00     0.093 C 
ENDROOT
BRANCH   1  20
HETATM   20  C6  UNL     1      11.007  51.284  87.586  1.00  0.00     0.008 C 
HETATM   21  C7  UNL     1      11.887  50.191  87.985  1.00  0.00     0.012 C 
BRANCH  20  22
HETATM   22  C5  UNL     1      11.643  52.357  86.726  1.00  0.00     0.034 C 
BRANCH  22  23
HETATM   23  C4  UNL     1      11.551  51.993  85.310  1.00  0.00    -0.018 C 
HETATM   24  C3  UNL     1      12.272  52.437  84.301  1.00  0.00    -0.052 C 
BRANCH  24  25
HETATM   25  C2  UNL     1      13.310  53.415  84.537  1.00  0.00    -0.003 C 
HETATM   26  C1  UNL     1      14.378  53.485  83.804  1.00  0.00     0.012 C 
ENDBRANCH  24  25
BRANCH  24  27
HETATM   27  C29 UNL     1      12.018  51.922  82.919  1.00  0.00     0.132 C 
BRANCH  27  28
HETATM   28  C30 UNL     1      10.667  52.245  82.529  1.00  0.00    -0.099 C 
HETATM   29  C31 UNL     1       9.525  52.515  82.173  1.00  0.00    -0.069 C 
BRANCH  29  30
HETATM   30  C32 UNL     1       8.154  52.831  81.773  1.00  0.00     0.113 C 
HETATM   31  C33 UNL     1       7.253  52.205  82.822  1.00  0.00     0.060 C 
HETATM   32  C34 UNL     1       7.877  52.196  80.426  1.00  0.00     0.060 C 
BRANCH  30  33
HETATM   33  O8  UNL     1       7.935  54.201  81.713  1.00  0.00    -0.378 OA
ATOM     34  H8  UNL     1       7.549  54.462  80.885  1.00  0.00     0.211 HD
ENDBRANCH  30  33
ENDBRANCH  29  30
ENDBRANCH  27  28
ENDBRANCH  24  27
ENDBRANCH  22  23
ENDBRANCH  20  22
ENDBRANCH   1  20
BRANCH  19  35
HETATM   35  C27 UNL     1       8.172  53.538  88.487  1.00  0.00     0.128 C 
BRANCH  35  36
HETATM   36  C28 UNL     1       7.456  53.744  87.288  1.00  0.00     0.173 C 
HETATM   37  O6  UNL     1       6.327  54.201  87.155  1.00  0.00    -0.648 OA
HETATM   38  O7  UNL     1       8.084  53.391  86.055  1.00  0.00    -0.648 OA
ENDBRANCH  35  36
ENDBRANCH  19  35
BRANCH  18  39
HETATM   39  O5  UNL     1       9.359  54.988  90.056  1.00  0.00    -0.349 OA
ATOM     40  H5  UNL     1       8.691  54.409  90.404  1.00  0.00     0.219 HD
ENDBRANCH  18  39
BRANCH   6  41
HETATM   41  C11 UNL     1       7.746  51.000  92.386  1.00  0.00     0.009 C 
HETATM   42  C12 UNL     1       6.683  51.415  91.408  1.00  0.00     0.012 C 
HETATM   43  C13 UNL     1       7.240  51.376  93.771  1.00  0.00     0.012 C 
ENDBRANCH   6  41
BRANCH  15  44
HETATM   44  C22 UNL     1      13.895  54.873  89.335  1.00  0.00     0.010 C 
HETATM   45  C23 UNL     1      13.729  56.317  89.712  1.00  0.00     0.012 C 
HETATM   46  C24 UNL     1      13.879  54.701  87.850  1.00  0.00     0.012 C 
ENDBRANCH  15  44
BRANCH  11  47
HETATM   47  C16 UNL     1      11.162  54.846  94.378  1.00  0.00     0.020 C 
HETATM   48  C17 UNL     1       9.713  55.374  94.486  1.00  0.00     0.013 C 
BRANCH  47  49
HETATM   49  C18 UNL     1      12.029  56.062  94.342  1.00  0.00     0.003 C 
HETATM   50  C19 UNL     1      11.424  57.280  95.007  1.00  0.00     0.005 C 
ENDBRANCH  47  49
ENDBRANCH  11  47
TORSDOF 15
ENDMDL
MODEL 3
REMARK VINA RESULT: -6.622037926      4.007      9.243
REMARK  15 active torsions:
REMARK  status: ('A' for Active; 'I' for Inactive)
REMARK    1  A    between atoms: C2_2  and  C3_3 
REMARK    2  A    between atoms: C3_3  and  C29_43 
REMARK    3  A    between atoms: C4_4  and  C5_5 
REMARK    4  A    between atoms: C5_5  and  C6_6 
REMARK    5  A    between atoms: C6_6  and  C8_8 
REMARK    6  A    between atoms: C10_13  and  C11_14 
REMARK    7  A    between atoms: C15_21  and  C16_22 
REMARK    8  A    between atoms: C16_22  and  C18_24 
REMARK    9  A    between atoms: C21_29  and  C22_30 
REMARK   10  A    between atoms: C25_35  and  O5_36 
REMARK   11  A    between atoms: C26_38  and  C27_39 
REMARK   12  A    between atoms: C27_39  and  C28_40 
REMARK   13  A    between atoms: C29_43  and  C30_44 
REMARK   14  A    between atoms: C31_45  and  C32_46 
REMARK   15  A    between atoms: C32_46  and  O8_49 
ROOT
HETATM    1  C8  UNL     1      11.735  53.961  91.568  1.00  0.00     0.100 C 
HETATM    2  N1  UNL     1      12.227  53.181  90.473  1.00  0.00    -0.353 N 
ATOM      3  H1  UNL     1      13.222  52.978  90.572  1.00  0.00     0.163 HD
HETATM    4  C9  UNL     1      11.705  52.629  89.315  1.00  0.00     0.241 C 
HETATM    5  O1  UNL     1      12.129  53.067  88.170  1.00  0.00    -0.271 OA
HETATM    6  C10 UNL     1      10.693  51.563  89.108  1.00  0.00     0.180 C 
HETATM    7  N2  UNL     1      11.358  50.362  88.549  1.00  0.00    -0.345 N 
ATOM      8  H2  UNL     1      11.145  50.105  87.586  1.00  0.00     0.163 HD
HETATM    9  C14 UNL     1      12.266  49.550  89.262  1.00  0.00     0.248 C 
HETATM   10  O2  UNL     1      13.386  49.299  88.743  1.00  0.00    -0.271 OA
HETATM   11  C15 UNL     1      12.026  48.945  90.597  1.00  0.00     0.227 C 
HETATM   12  O3  UNL     1      13.063  49.034  91.488  1.00  0.00    -0.304 OA
HETATM   13  C20 UNL     1      13.863  49.950  92.010  1.00  0.00     0.282 C 
HETATM   14  O4  UNL     1      15.115  49.961  91.693  1.00  0.00    -0.263 OA
HETATM   15  C21 UNL     1      13.560  51.056  92.974  1.00  0.00     0.186 C 
HETATM   16  N3  UNL     1      12.202  51.129  93.393  1.00  0.00    -0.360 N 
ATOM     17  H3  UNL     1      11.971  50.493  94.156  1.00  0.00     0.162 HD
HETATM   18  C25 UNL     1      11.123  51.906  92.959  1.00  0.00     0.118 C 
HETATM   19  C26 UNL     1      10.958  53.332  92.644  1.00  0.00     0.093 C 
ENDROOT
BRANCH   1  20
HETATM   20  C6  UNL     1      12.866  54.888  92.035  1.00  0.00     0.008 C 
HETATM   21  C7  UNL     1      14.138  54.838  91.322  1.00  0.00     0.012 C 
BRANCH  20  22
HETATM   22  C5  UNL     1      12.964  54.988  93.544  1.00  0.00     0.034 C 
BRANCH  22  23
HETATM   23  C4  UNL     1      12.380  56.248  94.008  1.00  0.00    -0.018 C 
HETATM   24  C3  UNL     1      11.603  56.458  95.050  1.00  0.00    -0.052 C 
BRANCH  24  25
HETATM   25  C2  UNL     1      11.228  55.349  95.899  1.00  0.00    -0.003 C 
HETATM   26  C1  UNL     1      11.686  55.212  97.105  1.00  0.00     0.012 C 
ENDBRANCH  24  25
BRANCH  24  27
HETATM   27  C29 UNL     1      11.118  57.841  95.354  1.00  0.00     0.132 C 
BRANCH  27  28
HETATM   28  C30 UNL     1       9.689  57.816  95.543  1.00  0.00    -0.099 C 
HETATM   29  C31 UNL     1       8.473  57.820  95.700  1.00  0.00    -0.069 C 
BRANCH  29  30
HETATM   30  C32 UNL     1       7.021  57.799  95.881  1.00  0.00     0.113 C 
HETATM   31  C33 UNL     1       6.482  58.990  95.109  1.00  0.00     0.060 C 
HETATM   32  C34 UNL     1       6.708  57.967  97.353  1.00  0.00     0.060 C 
BRANCH  30  33
HETATM   33  O8  UNL     1       6.457  56.625  95.400  1.00  0.00    -0.378 OA
ATOM     34  H8  UNL     1       7.055  55.890  95.469  1.00  0.00     0.211 HD
ENDBRANCH  30  33
ENDBRANCH  29  30
ENDBRANCH  27  28
ENDBRANCH  24  27
ENDBRANCH  22  23
ENDBRANCH  20  22
ENDBRANCH   1  20
BRANCH  19  35
HETATM   35  C27 UNL     1       9.434  53.488  92.472  1.00  0.00     0.128 C 
BRANCH  35  36
HETATM   36  C28 UNL     1       8.630  53.914  93.552  1.00  0.00     0.173 C 
HETATM   37  O6  UNL     1       8.318  55.060  93.850  1.00  0.00    -0.648 OA
HETATM   38  O7  UNL     1       8.092  52.923  94.428  1.00  0.00    -0.648 OA
ENDBRANCH  35  36
ENDBRANCH  19  35
BRANCH  18  39
HETATM   39  O5  UNL     1      10.049  51.150  92.826  1.00  0.00    -0.349 OA
ATOM     40  H5  UNL     1       9.935  50.611  93.601  1.00  0.00     0.219 HD
ENDBRANCH  18  39
BRANCH   6  41
HETATM   41  C11 UNL     1       9.737  52.070  88.031  1.00  0.00     0.009 C 
HETATM   42  C12 UNL     1       8.648  52.855  88.706  1.00  0.00     0.012 C 
HETATM   43  C13 UNL     1       9.068  50.890  87.344  1.00  0.00     0.012 C 
ENDBRANCH   6  41
BRANCH  15  44
HETATM   44  C22 UNL     1      14.401  50.762  94.249  1.00  0.00     0.010 C 
HETATM   45  C23 UNL     1      13.920  49.500  94.905  1.00  0.00     0.012 C 
HETATM   46  C24 UNL     1      14.274  51.930  95.175  1.00  0.00     0.012 C 
ENDBRANCH  15  44
BRANCH  11  47
HETATM   47  C16 UNL     1      11.683  47.486  90.405  1.00  0.00     0.020 C 
HETATM   48  C17 UNL     1      10.415  47.235  91.253  1.00  0.00     0.013 C 
BRANCH  47  49
HETATM   49  C18 UNL     1      12.711  46.538  90.930  1.00  0.00     0.003 C 
HETATM   50  C19 UNL     1      13.569  45.893  89.864  1.00  0.00     0.005 C 
ENDBRANCH  47  49
ENDBRANCH  11  47
TORSDOF 15
ENDMDL
MODEL 4
REMARK VINA RESULT: -6.586110224      2.373      4.773
REMARK  15 active torsions:
REMARK  status: ('A' for Active; 'I' for Inactive)
REMARK    1  A    between atoms: C2_2  and  C3_3 
REMARK    2  A    between atoms: C3_3  and  C29_43 
REMARK    3  A    between atoms: C4_4  and  C5_5 
REMARK    4  A    between atoms: C5_5  and  C6_6 
REMARK    5  A    between atoms: C6_6  and  C8_8 
REMARK    6  A    between atoms: C10_13  and  C11_14 
REMARK    7  A    between atoms: C15_21  and  C16_22 
REMARK    8  A    between atoms: C16_22  and  C18_24 
REMARK    9  A    between atoms: C21_29  and  C22_30 
REMARK   10  A    between atoms: C25_35  and  O5_36 
REMARK   11  A    between atoms: C26_38  and  C27_39 
REMARK   12  A    between atoms: C27_39  and  C28_40 
REMARK   13  A    between atoms: C29_43  and  C30_44 
REMARK   14  A    between atoms: C31_45  and  C32_46 
REMARK   15  A    between atoms: C32_46  and  O8_49 
ROOT
HETATM    1  C8  UNL     1      11.070  54.126  90.268  1.00  0.00     0.100 C 
HETATM    2  N1  UNL     1      10.294  53.708  91.396  1.00  0.00    -0.353 N 
ATOM      3  H1  UNL     1       9.789  52.843  91.207  1.00  0.00     0.163 HD
HETATM    4  C9  UNL     1      10.050  54.173  92.678  1.00  0.00     0.241 C 
HETATM    5  O1  UNL     1       8.848  54.553  92.986  1.00  0.00    -0.271 OA
HETATM    6  C10 UNL     1      10.947  54.330  93.850  1.00  0.00     0.180 C 
HETATM    7  N2  UNL     1      10.571  53.340  94.888  1.00  0.00    -0.345 N 
ATOM      8  H2  UNL     1      10.153  53.690  95.749  1.00  0.00     0.163 HD
HETATM    9  C14 UNL     1      10.753  51.947  94.764  1.00  0.00     0.248 C 
HETATM   10  O2  UNL     1       9.769  51.189  94.971  1.00  0.00    -0.271 OA
HETATM   11  C15 UNL     1      12.023  51.265  94.403  1.00  0.00     0.227 C 
HETATM   12  O3  UNL     1      11.919  50.256  93.484  1.00  0.00    -0.304 OA
HETATM   13  C20 UNL     1      11.425  50.044  92.275  1.00  0.00     0.282 C 
HETATM   14  O4  UNL     1      10.396  49.275  92.130  1.00  0.00    -0.263 OA
HETATM   15  C21 UNL     1      11.873  50.570  90.946  1.00  0.00     0.186 C 
HETATM   16  N3  UNL     1      13.008  51.427  90.994  1.00  0.00    -0.360 N 
ATOM     17  H3  UNL     1      13.899  50.930  91.022  1.00  0.00     0.162 HD
HETATM   18  C25 UNL     1      13.137  52.819  91.011  1.00  0.00     0.118 C 
HETATM   19  C26 UNL     1      12.522  53.907  90.238  1.00  0.00     0.093 C 
ENDROOT
BRANCH   1  20
HETATM   20  C6  UNL     1      10.319  53.706  88.996  1.00  0.00     0.008 C 
HETATM   21  C7  UNL     1       8.964  53.185  89.135  1.00  0.00     0.012 C 
BRANCH  20  22
HETATM   22  C5  UNL     1      11.202  52.979  88.001  1.00  0.00     0.034 C 
BRANCH  22  23
HETATM   23  C4  UNL     1      10.613  53.038  86.662  1.00  0.00    -0.018 C 
HETATM   24  C3  UNL     1      11.226  53.077  85.498  1.00  0.00    -0.052 C 
BRANCH  24  25
HETATM   25  C2  UNL     1      12.671  53.064  85.447  1.00  0.00    -0.003 C 
HETATM   26  C1  UNL     1      13.370  54.142  85.270  1.00  0.00     0.012 C 
ENDBRANCH  24  25
BRANCH  24  27
HETATM   27  C29 UNL     1      10.426  53.126  84.234  1.00  0.00     0.132 C 
BRANCH  27  28
HETATM   28  C30 UNL     1      11.076  52.325  83.225  1.00  0.00    -0.099 C 
HETATM   29  C31 UNL     1      11.647  51.662  82.367  1.00  0.00    -0.069 C 
BRANCH  29  30
HETATM   30  C32 UNL     1      12.316  50.848  81.351  1.00  0.00     0.113 C 
HETATM   31  C33 UNL     1      13.796  51.163  81.464  1.00  0.00     0.060 C 
HETATM   32  C34 UNL     1      11.815  51.264  79.983  1.00  0.00     0.060 C 
BRANCH  30  33
HETATM   33  O8  UNL     1      12.100  49.491  81.550  1.00  0.00    -0.378 OA
ATOM     34  H8  UNL     1      12.181  48.997  80.743  1.00  0.00     0.211 HD
ENDBRANCH  30  33
ENDBRANCH  29  30
ENDBRANCH  27  28
ENDBRANCH  24  27
ENDBRANCH  22  23
ENDBRANCH  20  22
ENDBRANCH   1  20
BRANCH  19  35
HETATM   35  C27 UNL     1      13.338  55.148  90.651  1.00  0.00     0.128 C 
BRANCH  35  36
HETATM   36  C28 UNL     1      14.396  55.614  89.842  1.00  0.00     0.173 C 
HETATM   37  O6  UNL     1      14.593  56.755  89.445  1.00  0.00    -0.648 OA
HETATM   38  O7  UNL     1      15.382  54.675  89.411  1.00  0.00    -0.648 OA
ENDBRANCH  35  36
ENDBRANCH  19  35
BRANCH  18  39
HETATM   39  O5  UNL     1      14.014  53.179  91.930  1.00  0.00    -0.349 OA
ATOM     40  H5  UNL     1      13.567  53.595  92.658  1.00  0.00     0.219 HD
ENDBRANCH  18  39
BRANCH   6  41
HETATM   41  C11 UNL     1      10.661  55.707  94.440  1.00  0.00     0.009 C 
HETATM   42  C12 UNL     1      11.963  56.452  94.539  1.00  0.00     0.012 C 
HETATM   43  C13 UNL     1      10.130  55.558  95.858  1.00  0.00     0.012 C 
ENDBRANCH   6  41
BRANCH  15  44
HETATM   44  C22 UNL     1      12.292  49.329  90.107  1.00  0.00     0.010 C 
HETATM   45  C23 UNL     1      13.672  48.885  90.495  1.00  0.00     0.012 C 
HETATM   46  C24 UNL     1      12.234  49.698  88.659  1.00  0.00     0.012 C 
ENDBRANCH  15  44
BRANCH  11  47
HETATM   47  C16 UNL     1      12.638  50.705  95.664  1.00  0.00     0.020 C 
HETATM   48  C17 UNL     1      13.353  51.893  96.349  1.00  0.00     0.013 C 
BRANCH  47  49
HETATM   49  C18 UNL     1      13.700  49.681  95.429  1.00  0.00     0.003 C 
HETATM   50  C19 UNL     1      15.072  50.257  95.152  1.00  0.00     0.005 C 
ENDBRANCH  47  49
ENDBRANCH  11  47
TORSDOF 15
ENDMDL
MODEL 5
REMARK VINA RESULT: -6.416214389      2.423      4.755
REMARK  15 active torsions:
REMARK  status: ('A' for Active; 'I' for Inactive)
REMARK    1  A    between atoms: C2_2  and  C3_3 
REMARK    2  A    between atoms: C3_3  and  C29_43 
REMARK    3  A    between atoms: C4_4  and  C5_5 
REMARK    4  A    between atoms: C5_5  and  C6_6 
REMARK    5  A    between atoms: C6_6  and  C8_8 
REMARK    6  A    between atoms: C10_13  and  C11_14 
REMARK    7  A    between atoms: C15_21  and  C16_22 
REMARK    8  A    between atoms: C16_22  and  C18_24 
REMARK    9  A    between atoms: C21_29  and  C22_30 
REMARK   10  A    between atoms: C25_35  and  O5_36 
REMARK   11  A    between atoms: C26_38  and  C27_39 
REMARK   12  A    between atoms: C27_39  and  C28_40 
REMARK   13  A    between atoms: C29_43  and  C30_44 
REMARK   14  A    between atoms: C31_45  and  C32_46 
REMARK   15  A    between atoms: C32_46  and  O8_49 
ROOT
HETATM    1  C8  UNL     1      11.078  54.066  90.525  1.00  0.00     0.100 C 
HETATM    2  N1  UNL     1      10.319  53.700  91.682  1.00  0.00    -0.353 N 
ATOM      3  H1  UNL     1       9.835  52.812  91.551  1.00  0.00     0.163 HD
HETATM    4  C9  UNL     1      10.069  54.238  92.934  1.00  0.00     0.241 C 
HETATM    5  O1  UNL     1       8.860  54.606  93.225  1.00  0.00    -0.271 OA
HETATM    6  C10 UNL     1      10.968  54.491  94.088  1.00  0.00     0.180 C 
HETATM    7  N2  UNL     1      10.623  53.560  95.188  1.00  0.00    -0.345 N 
ATOM      8  H2  UNL     1      10.200  53.952  96.029  1.00  0.00     0.163 HD
HETATM    9  C14 UNL     1      10.840  52.166  95.150  1.00  0.00     0.248 C 
HETATM   10  O2  UNL     1       9.877  51.397  95.412  1.00  0.00    -0.271 OA
HETATM   11  C15 UNL     1      12.125  51.496  94.825  1.00  0.00     0.227 C 
HETATM   12  O3  UNL     1      12.043  50.428  93.972  1.00  0.00    -0.304 OA
HETATM   13  C20 UNL     1      11.548  50.129  92.781  1.00  0.00     0.282 C 
HETATM   14  O4  UNL     1      10.540  49.326  92.691  1.00  0.00    -0.263 OA
HETATM   15  C21 UNL     1      11.976  50.581  91.419  1.00  0.00     0.186 C 
HETATM   16  N3  UNL     1      13.089  51.468  91.406  1.00  0.00    -0.360 N 
ATOM     17  H3  UNL     1      13.993  50.997  91.459  1.00  0.00     0.162 HD
HETATM   18  C25 UNL     1      13.182  52.862  91.334  1.00  0.00     0.118 C 
HETATM   19  C26 UNL     1      12.534  53.883  90.499  1.00  0.00     0.093 C 
ENDROOT
BRANCH   1  20
HETATM   20  C6  UNL     1      10.332  53.548  89.287  1.00  0.00     0.008 C 
HETATM   21  C7  UNL     1       8.879  53.436  89.353  1.00  0.00     0.012 C 
BRANCH  20  22
HETATM   22  C5  UNL     1      11.047  52.399  88.604  1.00  0.00     0.034 C 
BRANCH  22  23
HETATM   23  C4  UNL     1      11.837  52.893  87.474  1.00  0.00    -0.018 C 
HETATM   24  C3  UNL     1      11.506  52.943  86.201  1.00  0.00    -0.052 C 
BRANCH  24  25
HETATM   25  C2  UNL     1      10.208  52.466  85.778  1.00  0.00    -0.003 C 
HETATM   26  C1  UNL     1       9.220  53.268  85.528  1.00  0.00     0.012 C 
ENDBRANCH  24  25
BRANCH  24  27
HETATM   27  C29 UNL     1      12.469  53.501  85.200  1.00  0.00     0.132 C 
BRANCH  27  28
HETATM   28  C30 UNL     1      12.545  52.614  84.065  1.00  0.00    -0.099 C 
HETATM   29  C31 UNL     1      12.633  51.851  83.109  1.00  0.00    -0.069 C 
BRANCH  29  30
HETATM   30  C32 UNL     1      12.710  50.942  81.965  1.00  0.00     0.113 C 
HETATM   31  C33 UNL     1      14.079  51.159  81.345  1.00  0.00     0.060 C 
HETATM   32  C34 UNL     1      11.637  51.320  80.965  1.00  0.00     0.060 C 
BRANCH  30  33
HETATM   33  O8  UNL     1      12.564  49.615  82.347  1.00  0.00    -0.378 OA
ATOM     34  H8  UNL     1      13.227  49.058  81.955  1.00  0.00     0.211 HD
ENDBRANCH  30  33
ENDBRANCH  29  30
ENDBRANCH  27  28
ENDBRANCH  24  27
ENDBRANCH  22  23
ENDBRANCH  20  22
ENDBRANCH   1  20
BRANCH  19  35
HETATM   35  C27 UNL     1      13.320  55.168  90.829  1.00  0.00     0.128 C 
BRANCH  35  36
HETATM   36  C28 UNL     1      14.343  55.625  89.970  1.00  0.00     0.173 C 
HETATM   37  O6  UNL     1      14.503  56.754  89.525  1.00  0.00    -0.648 OA
HETATM   38  O7  UNL     1      15.335  54.691  89.543  1.00  0.00    -0.648 OA
ENDBRANCH  35  36
ENDBRANCH  19  35
BRANCH  18  39
HETATM   39  O5  UNL     1      14.054  53.300  92.224  1.00  0.00    -0.349 OA
ATOM     40  H5  UNL     1      14.914  52.942  92.038  1.00  0.00     0.219 HD
ENDBRANCH  18  39
BRANCH   6  41
HETATM   41  C11 UNL     1      10.649  55.895  94.592  1.00  0.00     0.009 C 
HETATM   42  C12 UNL     1      11.931  56.679  94.634  1.00  0.00     0.012 C 
HETATM   43  C13 UNL     1      10.131  55.822  96.021  1.00  0.00     0.012 C 
ENDBRANCH   6  41
BRANCH  15  44
HETATM   44  C22 UNL     1      12.423  49.301  90.657  1.00  0.00     0.010 C 
HETATM   45  C23 UNL     1      13.800  48.895  91.093  1.00  0.00     0.012 C 
HETATM   46  C24 UNL     1      12.387  49.590  89.190  1.00  0.00     0.012 C 
ENDBRANCH  15  44
BRANCH  11  47
HETATM   47  C16 UNL     1      12.761  51.032  96.115  1.00  0.00     0.020 C 
HETATM   48  C17 UNL     1      13.473  52.271  96.705  1.00  0.00     0.013 C 
BRANCH  47  49
HETATM   49  C18 UNL     1      13.829  50.003  95.939  1.00  0.00     0.003 C 
HETATM   50  C19 UNL     1      15.213  50.572  95.707  1.00  0.00     0.005 C 
ENDBRANCH  47  49
ENDBRANCH  11  47
TORSDOF 15
ENDMDL
