MODEL 1
REMARK VINA RESULT: -6.863893217      0.000      0.000
REMARK  13 active torsions:
REMARK  status: ('A' for Active; 'I' for Inactive)
REMARK    1  A    between atoms: C3_3  and  C4_4 
REMARK    2  A    between atoms: C4_4  and  N1_5 
REMARK    3  A    between atoms: N1_5  and  C6_7 
REMARK    4  A    between atoms: C6_7  and  C7_8 
REMARK    5  A    between atoms: C9_10  and  S1_11 
REMARK    6  A    between atoms: S1_11  and  C10_12 
REMARK    7  A    between atoms: C15_20  and  N2_21 
REMARK    8  A    between atoms: N2_21  and  C16_23 
REMARK    9  A    between atoms: C16_23  and  O3_24 
REMARK   10  A    between atoms: C16_23  and  C17_26 
REMARK   11  A    between atoms: C21_32  and  C23_34 
REMARK   12  A    between atoms: C23_34  and  O5_36 
REMARK   13  A    between atoms: O5_36  and  C24_37 
ROOT
HETATM    1  C10 UNL     1      14.855   4.275  13.659  1.00  0.00     0.086 C 
HETATM    2  C11 UNL     1      13.887   4.111  12.474  1.00  0.00     0.158 C 
HETATM    3  S2  UNL     1      14.947   4.848  11.217  1.00  0.00     0.155 S 
HETATM    4  O1  UNL     1      15.882   3.801  10.728  1.00  0.00    -0.227 OA
HETATM    5  O2  UNL     1      14.156   5.511  10.156  1.00  0.00    -0.227 OA
HETATM    6  C12 UNL     1      15.775   6.017  12.295  1.00  0.00     0.078 C 
HETATM    7  C13 UNL     1      17.279   5.906  12.145  1.00  0.00     0.034 C 
HETATM    8  C14 UNL     1      15.347   7.386  11.828  1.00  0.00     0.034 C 
HETATM    9  C15 UNL     1      15.315   5.684  13.679  1.00  0.00     0.120 C 
ENDROOT
BRANCH   9  10
HETATM   10  N2  UNL     1      14.288   6.602  14.159  1.00  0.00    -0.367 N 
ATOM     11  H2  UNL     1      13.375   6.598  13.703  1.00  0.00     0.161 HD
BRANCH  10  12
HETATM   12  C16 UNL     1      14.506   7.492  15.224  1.00  0.00     0.117 C 
BRANCH  12  13
HETATM   13  O3  UNL     1      15.765   7.804  15.372  1.00  0.00    -0.349 OA
ATOM     14  H3  UNL     1      16.122   7.508  16.201  1.00  0.00     0.219 HD
ENDBRANCH  12  13
BRANCH  12  15
HETATM   15  C17 UNL     1      13.587   8.088  16.149  1.00  0.00     0.088 C 
HETATM   16  C18 UNL     1      12.195   7.449  16.169  1.00  0.00     0.035 C 
HETATM   17  C19 UNL     1      12.066   6.337  17.184  1.00  0.00     0.014 C 
HETATM   18  C20 UNL     1      11.696   8.795  16.680  1.00  0.00     0.134 C 
HETATM   19 CL1  UNL     1      10.126   9.306  16.118  1.00  0.00    -0.100 Cl
HETATM   20 CL2  UNL     1      11.835   8.883  18.442  1.00  0.00    -0.100 Cl
HETATM   21  C21 UNL     1      12.909   9.395  15.929  1.00  0.00     0.091 C 
HETATM   22  C22 UNL     1      13.477  10.540  16.787  1.00  0.00     0.030 C 
BRANCH  21  23
HETATM   23  C23 UNL     1      12.567   9.877  14.605  1.00  0.00     0.271 C 
HETATM   24  O4  UNL     1      12.120  11.073  14.511  1.00  0.00    -0.264 OA
BRANCH  23  25
HETATM   25  O5  UNL     1      12.662   9.194  13.407  1.00  0.00    -0.321 OA
BRANCH  25  26
HETATM   26  C24 UNL     1      11.561   8.510  12.855  1.00  0.00     0.174 C 
HETATM   27  C25 UNL     1      11.787   8.076  11.423  1.00  0.00     0.034 C 
ENDBRANCH  25  26
ENDBRANCH  23  25
ENDBRANCH  21  23
ENDBRANCH  12  15
ENDBRANCH  10  12
ENDBRANCH   9  10
BRANCH   1  28
HETATM   28  S1  UNL     1      14.001   3.788  15.182  1.00  0.00    -0.155 SA
BRANCH  28  29
HETATM   29  C9  UNL     1      15.249   3.310  16.366  1.00  0.00     0.075 C 
HETATM   30  C8  UNL     1      16.030   4.505  16.932  1.00  0.00     0.051 C 
HETATM   31  C7  UNL     1      16.765   3.766  18.063  1.00  0.00     0.215 C 
HETATM   32  N3  UNL     1      15.815   2.880  18.621  1.00  0.00    -0.068 N 
HETATM   33  C26 UNL     1      14.745   2.695  17.629  1.00  0.00     0.247 C 
ATOM     34  H32 UNL     1      16.226   2.000  18.931  1.00  0.00     0.277 HD
ATOM     35  H31 UNL     1      15.466   3.191  19.528  1.00  0.00     0.277 HD
BRANCH  31  36
HETATM   36  C6  UNL     1      17.464   4.710  18.968  1.00  0.00     0.305 C 
BRANCH  36  37
HETATM   37  N1  UNL     1      18.810   5.059  18.666  1.00  0.00     0.089 N 
HETATM   38  C5  UNL     1      19.636   3.909  19.052  1.00  0.00     0.310 C 
BRANCH  37  39
HETATM   39  C4  UNL     1      19.349   6.230  19.262  1.00  0.00     0.299 C 
BRANCH  39  40
HETATM   40  C3  UNL     1      20.093   7.072  18.250  1.00  0.00    -0.002 C 
HETATM   41  C2  UNL     1      21.414   6.971  18.177  1.00  0.00    -0.033 C 
HETATM   42  C1  UNL     1      22.175   7.780  17.198  1.00  0.00     0.036 C 
ENDBRANCH  39  40
ENDBRANCH  37  39
ENDBRANCH  36  37
ENDBRANCH  31  36
ENDBRANCH  28  29
ENDBRANCH   1  28
TORSDOF 13
ENDMDL
MODEL 2
REMARK VINA RESULT: -6.775345032      0.861      1.264
REMARK  13 active torsions:
REMARK  status: ('A' for Active; 'I' for Inactive)
REMARK    1  A    between atoms: C3_3  and  C4_4 
REMARK    2  A    between atoms: C4_4  and  N1_5 
REMARK    3  A    between atoms: N1_5  and  C6_7 
REMARK    4  A    between atoms: C6_7  and  C7_8 
REMARK    5  A    between atoms: C9_10  and  S1_11 
REMARK    6  A    between atoms: S1_11  and  C10_12 
REMARK    7  A    between atoms: C15_20  and  N2_21 
REMARK    8  A    between atoms: N2_21  and  C16_23 
REMARK    9  A    between atoms: C16_23  and  O3_24 
REMARK   10  A    between atoms: C16_23  and  C17_26 
REMARK   11  A    between atoms: C21_32  and  C23_34 
REMARK   12  A    between atoms: C23_34  and  O5_36 
REMARK   13  A    between atoms: O5_36  and  C24_37 
ROOT
HETATM    1  C10 UNL     1      14.858   4.319  13.689  1.00  0.00     0.086 C 
HETATM    2  C11 UNL     1      13.866   4.143  12.526  1.00  0.00     0.158 C 
HETATM    3  S2  UNL     1      14.893   4.882  11.243  1.00  0.00     0.155 S 
HETATM    4  O1  UNL     1      15.825   3.840  10.739  1.00  0.00    -0.227 OA
HETATM    5  O2  UNL     1      14.074   5.535  10.197  1.00  0.00    -0.227 OA
HETATM    6  C12 UNL     1      15.736   6.062  12.298  1.00  0.00     0.078 C 
HETATM    7  C13 UNL     1      17.237   5.961  12.116  1.00  0.00     0.034 C 
HETATM    8  C14 UNL     1      15.287   7.425  11.834  1.00  0.00     0.034 C 
HETATM    9  C15 UNL     1      15.308   5.732  13.693  1.00  0.00     0.120 C 
ENDROOT
BRANCH   9  10
HETATM   10  N2  UNL     1      14.285   6.645  14.191  1.00  0.00    -0.367 N 
ATOM     11  H2  UNL     1      13.359   6.624  13.763  1.00  0.00     0.161 HD
BRANCH  10  12
HETATM   12  C16 UNL     1      14.524   7.551  15.237  1.00  0.00     0.117 C 
BRANCH  12  13
HETATM   13  O3  UNL     1      15.784   7.872  15.349  1.00  0.00    -0.349 OA
ATOM     14  H3  UNL     1      15.912   8.749  15.692  1.00  0.00     0.219 HD
ENDBRANCH  12  13
BRANCH  12  15
HETATM   15  C17 UNL     1      13.624   8.157  16.175  1.00  0.00     0.088 C 
HETATM   16  C18 UNL     1      12.236   7.513  16.236  1.00  0.00     0.035 C 
HETATM   17  C19 UNL     1      12.134   6.414  17.268  1.00  0.00     0.014 C 
HETATM   18  C20 UNL     1      11.744   8.864  16.741  1.00  0.00     0.134 C 
HETATM   19 CL1  UNL     1      10.160   9.363  16.209  1.00  0.00    -0.100 Cl
HETATM   20 CL2  UNL     1      11.924   8.975  18.498  1.00  0.00    -0.100 Cl
HETATM   21  C21 UNL     1      12.937   9.458  15.955  1.00  0.00     0.091 C 
HETATM   22  C22 UNL     1      13.521  10.615  16.784  1.00  0.00     0.030 C 
BRANCH  21  23
HETATM   23  C23 UNL     1      12.563   9.922  14.633  1.00  0.00     0.271 C 
HETATM   24  O4  UNL     1      12.099  11.112  14.536  1.00  0.00    -0.264 OA
BRANCH  23  25
HETATM   25  O5  UNL     1      12.644   9.228  13.440  1.00  0.00    -0.321 OA
BRANCH  25  26
HETATM   26  C24 UNL     1      11.533   8.545  12.905  1.00  0.00     0.174 C 
HETATM   27  C25 UNL     1      11.784   7.999  11.515  1.00  0.00     0.034 C 
ENDBRANCH  25  26
ENDBRANCH  23  25
ENDBRANCH  21  23
ENDBRANCH  12  15
ENDBRANCH  10  12
ENDBRANCH   9  10
BRANCH   1  28
HETATM   28  S1  UNL     1      14.041   3.833  15.232  1.00  0.00    -0.155 SA
BRANCH  28  29
HETATM   29  C9  UNL     1      15.319   3.397  16.401  1.00  0.00     0.075 C 
HETATM   30  C8  UNL     1      16.085   4.615  16.937  1.00  0.00     0.051 C 
HETATM   31  C7  UNL     1      16.854   3.907  18.064  1.00  0.00     0.215 C 
HETATM   32  N3  UNL     1      15.933   3.010  18.650  1.00  0.00    -0.068 N 
HETATM   33  C26 UNL     1      14.850   2.789  17.680  1.00  0.00     0.247 C 
ATOM     34  H32 UNL     1      16.368   2.142  18.965  1.00  0.00     0.277 HD
ATOM     35  H31 UNL     1      15.593   3.325  19.559  1.00  0.00     0.277 HD
BRANCH  31  36
HETATM   36  C6  UNL     1      17.549   4.878  18.944  1.00  0.00     0.305 C 
BRANCH  36  37
HETATM   37  N1  UNL     1      18.844   5.325  18.560  1.00  0.00     0.089 N 
HETATM   38  C5  UNL     1      19.804   4.579  19.383  1.00  0.00     0.310 C 
BRANCH  37  39
HETATM   39  C4  UNL     1      19.132   6.712  18.665  1.00  0.00     0.299 C 
BRANCH  39  40
HETATM   40  C3  UNL     1      17.972   7.554  18.185  1.00  0.00    -0.002 C 
HETATM   41  C2  UNL     1      17.619   8.623  18.887  1.00  0.00    -0.033 C 
HETATM   42  C1  UNL     1      16.488   9.470  18.446  1.00  0.00     0.036 C 
ENDBRANCH  39  40
ENDBRANCH  37  39
ENDBRANCH  36  37
ENDBRANCH  31  36
ENDBRANCH  28  29
ENDBRANCH   1  28
TORSDOF 13
ENDMDL
MODEL 3
REMARK VINA RESULT: -6.695278324      1.391      1.698
REMARK  13 active torsions:
REMARK  status: ('A' for Active; 'I' for Inactive)
REMARK    1  A    between atoms: C3_3  and  C4_4 
REMARK    2  A    between atoms: C4_4  and  N1_5 
REMARK    3  A    between atoms: N1_5  and  C6_7 
REMARK    4  A    between atoms: C6_7  and  C7_8 
REMARK    5  A    between atoms: C9_10  and  S1_11 
REMARK    6  A    between atoms: S1_11  and  C10_12 
REMARK    7  A    between atoms: C15_20  and  N2_21 
REMARK    8  A    between atoms: N2_21  and  C16_23 
REMARK    9  A    between atoms: C16_23  and  O3_24 
REMARK   10  A    between atoms: C16_23  and  C17_26 
REMARK   11  A    between atoms: C21_32  and  C23_34 
REMARK   12  A    between atoms: C23_34  and  O5_36 
REMARK   13  A    between atoms: O5_36  and  C24_37 
ROOT
HETATM    1  C10 UNL     1      14.779   4.302  13.688  1.00  0.00     0.086 C 
HETATM    2  C11 UNL     1      13.812   4.160  12.499  1.00  0.00     0.158 C 
HETATM    3  S2  UNL     1      14.879   4.908  11.254  1.00  0.00     0.155 S 
HETATM    4  O1  UNL     1      15.809   3.863  10.753  1.00  0.00    -0.227 OA
HETATM    5  O2  UNL     1      14.094   5.590  10.201  1.00  0.00    -0.227 OA
HETATM    6  C12 UNL     1      15.712   6.058  12.349  1.00  0.00     0.078 C 
HETATM    7  C13 UNL     1      17.216   5.940  12.200  1.00  0.00     0.034 C 
HETATM    8  C14 UNL     1      15.293   7.435  11.900  1.00  0.00     0.034 C 
HETATM    9  C15 UNL     1      15.247   5.708  13.728  1.00  0.00     0.120 C 
ENDROOT
BRANCH   9  10
HETATM   10  N2  UNL     1      14.225   6.626  14.219  1.00  0.00    -0.367 N 
ATOM     11  H2  UNL     1      13.306   6.618  13.775  1.00  0.00     0.161 HD
BRANCH  10  12
HETATM   12  C16 UNL     1      14.456   7.520  15.276  1.00  0.00     0.117 C 
BRANCH  12  13
HETATM   13  O3  UNL     1      15.718   7.823  15.416  1.00  0.00    -0.349 OA
ATOM     14  H3  UNL     1      15.857   8.747  15.594  1.00  0.00     0.219 HD
ENDBRANCH  12  13
BRANCH  12  15
HETATM   15  C17 UNL     1      13.546   8.129  16.203  1.00  0.00     0.088 C 
HETATM   16  C18 UNL     1      12.142   7.518  16.215  1.00  0.00     0.035 C 
HETATM   17  C19 UNL     1      11.987   6.403  17.222  1.00  0.00     0.014 C 
HETATM   18  C20 UNL     1      11.668   8.871  16.733  1.00  0.00     0.134 C 
HETATM   19 CL1  UNL     1      10.111   9.417  16.170  1.00  0.00    -0.100 Cl
HETATM   20 CL2  UNL     1      11.805   8.944  18.497  1.00  0.00    -0.100 Cl
HETATM   21  C21 UNL     1      12.895   9.450  15.990  1.00  0.00     0.091 C 
HETATM   22  C22 UNL     1      13.484  10.578  16.856  1.00  0.00     0.030 C 
BRANCH  21  23
HETATM   23  C23 UNL     1      12.567   9.948  14.668  1.00  0.00     0.271 C 
HETATM   24  O4  UNL     1      12.153  11.157  14.580  1.00  0.00    -0.264 OA
BRANCH  23  25
HETATM   25  O5  UNL     1      12.644   9.268  13.467  1.00  0.00    -0.321 OA
BRANCH  25  26
HETATM   26  C24 UNL     1      11.542   8.564  12.943  1.00  0.00     0.174 C 
HETATM   27  C25 UNL     1      11.758   8.093  11.520  1.00  0.00     0.034 C 
ENDBRANCH  25  26
ENDBRANCH  23  25
ENDBRANCH  21  23
ENDBRANCH  12  15
ENDBRANCH  10  12
ENDBRANCH   9  10
BRANCH   1  28
HETATM   28  S1  UNL     1      13.920   3.800  15.202  1.00  0.00    -0.155 SA
BRANCH  28  29
HETATM   29  C9  UNL     1      14.848   2.456  15.924  1.00  0.00     0.075 C 
HETATM   30  C8  UNL     1      16.128   2.921  16.634  1.00  0.00     0.051 C 
HETATM   31  C7  UNL     1      16.478   1.599  17.336  1.00  0.00     0.215 C 
HETATM   32  N3  UNL     1      15.250   1.076  17.801  1.00  0.00    -0.068 N 
HETATM   33  C26 UNL     1      14.174   1.724  17.036  1.00  0.00     0.247 C 
ATOM     34  H32 UNL     1      15.210   0.058  17.759  1.00  0.00     0.277 HD
ATOM     35  H31 UNL     1      15.133   1.173  18.810  1.00  0.00     0.277 HD
BRANCH  31  36
HETATM   36  C6  UNL     1      17.583   1.774  18.309  1.00  0.00     0.305 C 
BRANCH  36  37
HETATM   37  N1  UNL     1      18.919   1.761  17.819  1.00  0.00     0.089 N 
HETATM   38  C5  UNL     1      19.080   0.504  17.079  1.00  0.00     0.310 C 
BRANCH  37  39
HETATM   39  C4  UNL     1      19.978   1.878  18.758  1.00  0.00     0.299 C 
BRANCH  39  40
HETATM   40  C3  UNL     1      20.604   3.254  18.714  1.00  0.00    -0.002 C 
HETATM   41  C2  UNL     1      21.828   3.388  18.221  1.00  0.00    -0.033 C 
HETATM   42  C1  UNL     1      22.472   4.720  18.164  1.00  0.00     0.036 C 
ENDBRANCH  39  40
ENDBRANCH  37  39
ENDBRANCH  36  37
ENDBRANCH  31  36
ENDBRANCH  28  29
ENDBRANCH   1  28
TORSDOF 13
ENDMDL
MODEL 4
REMARK VINA RESULT: -6.626455738      1.279      2.134
REMARK  13 active torsions:
REMARK  status: ('A' for Active; 'I' for Inactive)
REMARK    1  A    between atoms: C3_3  and  C4_4 
REMARK    2  A    between atoms: C4_4  and  N1_5 
REMARK    3  A    between atoms: N1_5  and  C6_7 
REMARK    4  A    between atoms: C6_7  and  C7_8 
REMARK    5  A    between atoms: C9_10  and  S1_11 
REMARK    6  A    between atoms: S1_11  and  C10_12 
REMARK    7  A    between atoms: C15_20  and  N2_21 
REMARK    8  A    between atoms: N2_21  and  C16_23 
REMARK    9  A    between atoms: C16_23  and  O3_24 
REMARK   10  A    between atoms: C16_23  and  C17_26 
REMARK   11  A    between atoms: C21_32  and  C23_34 
REMARK   12  A    between atoms: C23_34  and  O5_36 
REMARK   13  A    between atoms: O5_36  and  C24_37 
ROOT
HETATM    1  C10 UNL     1      15.125   4.147  13.775  1.00  0.00     0.086 C 
HETATM    2  C11 UNL     1      14.024   3.845  12.744  1.00  0.00     0.158 C 
HETATM    3  S2  UNL     1      14.796   4.678  11.345  1.00  0.00     0.155 S 
HETATM    4  O1  UNL     1      15.772   3.741  10.728  1.00  0.00    -0.227 OA
HETATM    5  O2  UNL     1      13.788   5.221  10.407  1.00  0.00    -0.227 OA
HETATM    6  C12 UNL     1      15.623   5.959  12.289  1.00  0.00     0.078 C 
HETATM    7  C13 UNL     1      17.093   6.025  11.924  1.00  0.00     0.034 C 
HETATM    8  C14 UNL     1      14.970   7.257  11.885  1.00  0.00     0.034 C 
HETATM    9  C15 UNL     1      15.409   5.601  13.726  1.00  0.00     0.120 C 
ENDROOT
BRANCH   9  10
HETATM   10  N2  UNL     1      14.358   6.399  14.347  1.00  0.00    -0.367 N 
ATOM     11  H2  UNL     1      13.399   6.052  14.322  1.00  0.00     0.161 HD
BRANCH  10  12
HETATM   12  C16 UNL     1      14.614   7.628  14.977  1.00  0.00     0.117 C 
BRANCH  12  13
HETATM   13  O3  UNL     1      15.869   7.776  15.305  1.00  0.00    -0.349 OA
ATOM     14  H3  UNL     1      15.981   8.176  16.159  1.00  0.00     0.219 HD
ENDBRANCH  12  13
BRANCH  12  15
HETATM   15  C17 UNL     1      13.734   8.710  15.312  1.00  0.00     0.088 C 
HETATM   16  C18 UNL     1      13.279   8.735  16.774  1.00  0.00     0.035 C 
HETATM   17  C19 UNL     1      14.181   9.558  17.664  1.00  0.00     0.014 C 
HETATM   18  C20 UNL     1      12.059   9.500  16.275  1.00  0.00     0.134 C 
HETATM   19 CL1  UNL     1      10.547   9.158  17.073  1.00  0.00    -0.100 Cl
HETATM   20 CL2  UNL     1      12.400  11.236  16.204  1.00  0.00    -0.100 Cl
HETATM   21  C21 UNL     1      12.295   8.765  14.934  1.00  0.00     0.091 C 
HETATM   22  C22 UNL     1      11.992   9.752  13.793  1.00  0.00     0.030 C 
BRANCH  21  23
HETATM   23  C23 UNL     1      11.483   7.571  14.798  1.00  0.00     0.271 C 
HETATM   24  O4  UNL     1      10.402   7.668  14.120  1.00  0.00    -0.264 OA
BRANCH  23  25
HETATM   25  O5  UNL     1      11.734   6.316  15.321  1.00  0.00    -0.321 OA
BRANCH  25  26
HETATM   26  C24 UNL     1      10.947   5.775  16.357  1.00  0.00     0.174 C 
HETATM   27  C25 UNL     1      11.739   5.478  17.613  1.00  0.00     0.034 C 
ENDBRANCH  25  26
ENDBRANCH  23  25
ENDBRANCH  21  23
ENDBRANCH  12  15
ENDBRANCH  10  12
ENDBRANCH   9  10
BRANCH   1  28
HETATM   28  S1  UNL     1      14.563   3.592  15.407  1.00  0.00    -0.155 SA
BRANCH  28  29
HETATM   29  C9  UNL     1      15.954   3.709  16.521  1.00  0.00     0.075 C 
HETATM   30  C8  UNL     1      15.972   5.017  17.324  1.00  0.00     0.051 C 
HETATM   31  C7  UNL     1      17.082   4.643  18.321  1.00  0.00     0.215 C 
HETATM   32  N3  UNL     1      16.840   3.295  18.673  1.00  0.00    -0.068 N 
HETATM   33  C26 UNL     1      15.984   2.711  17.629  1.00  0.00     0.247 C 
ATOM     34  H32 UNL     1      17.698   2.765  18.826  1.00  0.00     0.277 HD
ATOM     35  H31 UNL     1      16.451   3.193  19.610  1.00  0.00     0.277 HD
BRANCH  31  36
HETATM   36  C6  UNL     1      17.201   5.645  19.408  1.00  0.00     0.305 C 
BRANCH  36  37
HETATM   37  N1  UNL     1      18.364   6.463  19.443  1.00  0.00     0.089 N 
HETATM   38  C5  UNL     1      18.002   7.732  18.800  1.00  0.00     0.310 C 
BRANCH  37  39
HETATM   39  C4  UNL     1      19.550   5.967  18.841  1.00  0.00     0.299 C 
BRANCH  39  40
HETATM   40  C3  UNL     1      20.296   7.061  18.109  1.00  0.00    -0.002 C 
HETATM   41  C2  UNL     1      21.598   6.920  17.898  1.00  0.00    -0.033 C 
HETATM   42  C1  UNL     1      22.359   7.971  17.185  1.00  0.00     0.036 C 
ENDBRANCH  39  40
ENDBRANCH  37  39
ENDBRANCH  36  37
ENDBRANCH  31  36
ENDBRANCH  28  29
ENDBRANCH   1  28
TORSDOF 13
ENDMDL
MODEL 5
REMARK VINA RESULT: -6.624650766      2.060      3.175
REMARK  13 active torsions:
REMARK  status: ('A' for Active; 'I' for Inactive)
REMARK    1  A    between atoms: C3_3  and  C4_4 
REMARK    2  A    between atoms: C4_4  and  N1_5 
REMARK    3  A    between atoms: N1_5  and  C6_7 
REMARK    4  A    between atoms: C6_7  and  C7_8 
REMARK    5  A    between atoms: C9_10  and  S1_11 
REMARK    6  A    between atoms: S1_11  and  C10_12 
REMARK    7  A    between atoms: C15_20  and  N2_21 
REMARK    8  A    between atoms: N2_21  and  C16_23 
REMARK    9  A    between atoms: C16_23  and  O3_24 
REMARK   10  A    between atoms: C16_23  and  C17_26 
REMARK   11  A    between atoms: C21_32  and  C23_34 
REMARK   12  A    between atoms: C23_34  and  O5_36 
REMARK   13  A    between atoms: O5_36  and  C24_37 
ROOT
HETATM    1  C10 UNL     1      15.158   5.619  14.088  1.00  0.00     0.086 C 
HETATM    2  C11 UNL     1      14.750   4.189  13.694  1.00  0.00     0.158 C 
HETATM    3  S2  UNL     1      15.013   4.364  11.920  1.00  0.00     0.155 S 
HETATM    4  O1  UNL     1      16.455   4.137  11.641  1.00  0.00    -0.227 OA
HETATM    5  O2  UNL     1      14.093   3.503  11.143  1.00  0.00    -0.227 OA
HETATM    6  C12 UNL     1      14.589   6.103  11.811  1.00  0.00     0.078 C 
HETATM    7  C13 UNL     1      15.678   6.872  11.090  1.00  0.00     0.034 C 
HETATM    8  C14 UNL     1      13.328   6.171  10.987  1.00  0.00     0.034 C 
HETATM    9  C15 UNL     1      14.408   6.562  13.225  1.00  0.00     0.120 C 
ENDROOT
BRANCH   9  10
HETATM   10  N2  UNL     1      13.002   6.668  13.598  1.00  0.00    -0.367 N 
ATOM     11  H2  UNL     1      12.462   5.811  13.723  1.00  0.00     0.161 HD
BRANCH  10  12
HETATM   12  C16 UNL     1      12.362   7.902  13.793  1.00  0.00     0.117 C 
BRANCH  12  13
HETATM   13  O3  UNL     1      12.289   8.612  12.700  1.00  0.00    -0.349 OA
ATOM     14  H3  UNL     1      12.112   9.530  12.869  1.00  0.00     0.219 HD
ENDBRANCH  12  13
BRANCH  12  15
HETATM   15  C17 UNL     1      11.798   8.488  14.975  1.00  0.00     0.088 C 
HETATM   16  C18 UNL     1      12.606   8.251  16.254  1.00  0.00     0.035 C 
HETATM   17  C19 UNL     1      13.617   9.339  16.531  1.00  0.00     0.014 C 
HETATM   18  C20 UNL     1      11.290   8.443  16.999  1.00  0.00     0.134 C 
HETATM   19 CL1  UNL     1      11.044   7.453  18.412  1.00  0.00    -0.100 Cl
HETATM   20 CL2  UNL     1      11.007  10.160  17.328  1.00  0.00    -0.100 Cl
HETATM   21  C21 UNL     1      10.619   7.941  15.698  1.00  0.00     0.091 C 
HETATM   22  C22 UNL     1       9.329   8.755  15.486  1.00  0.00     0.030 C 
BRANCH  21  23
HETATM   23  C23 UNL     1      10.320   6.522  15.732  1.00  0.00     0.271 C 
HETATM   24  O4  UNL     1       9.100   6.181  15.913  1.00  0.00    -0.264 OA
BRANCH  23  25
HETATM   25  O5  UNL     1      11.206   5.470  15.593  1.00  0.00    -0.321 OA
BRANCH  25  26
HETATM   26  C24 UNL     1      11.215   4.385  16.493  1.00  0.00     0.174 C 
HETATM   27  C25 UNL     1      11.869   3.145  15.923  1.00  0.00     0.034 C 
ENDBRANCH  25  26
ENDBRANCH  23  25
ENDBRANCH  21  23
ENDBRANCH  12  15
ENDBRANCH  10  12
ENDBRANCH   9  10
BRANCH   1  28
HETATM   28  S1  UNL     1      14.820   5.856  15.853  1.00  0.00    -0.155 SA
BRANCH  28  29
HETATM   29  C9  UNL     1      16.358   5.619  16.730  1.00  0.00     0.075 C 
HETATM   30  C8  UNL     1      17.176   6.911  16.869  1.00  0.00     0.051 C 
HETATM   31  C7  UNL     1      18.222   6.397  17.872  1.00  0.00     0.215 C 
HETATM   32  N3  UNL     1      17.506   5.601  18.796  1.00  0.00    -0.068 N 
HETATM   33  C26 UNL     1      16.234   5.222  18.163  1.00  0.00     0.247 C 
ATOM     34  H32 UNL     1      18.041   4.797  19.126  1.00  0.00     0.277 HD
ATOM     35  H31 UNL     1      17.380   6.057  19.700  1.00  0.00     0.277 HD
BRANCH  31  36
HETATM   36  C6  UNL     1      19.064   7.499  18.396  1.00  0.00     0.305 C 
BRANCH  36  37
HETATM   37  N1  UNL     1      20.365   7.181  18.876  1.00  0.00     0.089 N 
HETATM   38  C5  UNL     1      20.603   8.045  20.039  1.00  0.00     0.310 C 
BRANCH  37  39
HETATM   39  C4  UNL     1      21.459   7.308  17.980  1.00  0.00     0.299 C 
BRANCH  39  40
HETATM   40  C3  UNL     1      22.377   6.108  18.057  1.00  0.00    -0.002 C 
HETATM   41  C2  UNL     1      21.856   4.915  18.306  1.00  0.00    -0.033 C 
HETATM   42  C1  UNL     1      22.725   3.719  18.389  1.00  0.00     0.036 C 
ENDBRANCH  39  40
ENDBRANCH  37  39
ENDBRANCH  36  37
ENDBRANCH  31  36
ENDBRANCH  28  29
ENDBRANCH   1  28
TORSDOF 13
ENDMDL
