MODEL 1
REMARK VINA RESULT: -5.950269261      0.000      0.000
REMARK  7 active torsions:
REMARK  status: ('A' for Active; 'I' for Inactive)
REMARK    1  A    between atoms: C4_8  and  C5_9 
REMARK    2  A    between atoms: C5_9  and  C6_10 
REMARK    3  A    between atoms: C6_10  and  S1_11 
REMARK    4  A    between atoms: S1_11  and  C7_12 
REMARK    5  A    between atoms: C7_12  and  C8_13 
REMARK    6  A    between atoms: C8_13  and  N3_14 
REMARK    7  A    between atoms: N3_14  and  C9_16 
ROOT
HETATM    1  C7  UNL     1      22.165 -26.914 -21.664  1.00  0.00     0.093 C 
ENDROOT
BRANCH   1   2
HETATM    2  S1  UNL     1      21.470 -26.268 -20.174  1.00  0.00    -0.167 SA
BRANCH   2   3
HETATM    3  C6  UNL     1      20.684 -24.685 -20.315  1.00  0.00     0.080 C 
BRANCH   3   4
HETATM    4  C5  UNL     1      19.342 -24.568 -19.660  1.00  0.00     0.069 C 
BRANCH   4   5
HETATM    5  C4  UNL     1      18.486 -23.748 -20.611  1.00  0.00     0.033 A 
HETATM    6  C2  UNL     1      17.137 -23.553 -20.534  1.00  0.00     0.029 A 
HETATM    7  C1  UNL     1      16.259 -24.128 -19.477  1.00  0.00     0.070 C 
HETATM    8  N1  UNL     1      16.728 -22.773 -21.547  1.00  0.00    -0.354 N 
HETATM    9  C3  UNL     1      17.836 -22.484 -22.253  1.00  0.00     0.180 A 
ATOM     10  H1  UNL     1      15.776 -22.464 -21.742  1.00  0.00     0.166 HD
HETATM   11  N2  UNL     1      18.918 -23.076 -21.689  1.00  0.00    -0.354 N 
ATOM     12  H2  UNL     1      19.880 -23.021 -22.022  1.00  0.00     0.166 HD
ENDBRANCH   4   5
ENDBRANCH   3   4
ENDBRANCH   2   3
ENDBRANCH   1   2
BRANCH   1  13
HETATM   13  C8  UNL     1      21.211 -27.450 -22.689  1.00  0.00     0.131 C 
BRANCH  13  14
HETATM   14  N3  UNL     1      20.602 -26.344 -23.449  1.00  0.00    -0.374 N 
ATOM     15  H3  UNL     1      21.184 -25.694 -23.978  1.00  0.00     0.161 HD
BRANCH  14  16
HETATM   16  C9  UNL     1      19.318 -26.213 -23.434  1.00  0.00     0.115 A 
HETATM   17  C10 UNL     1      18.479 -26.836 -22.539  1.00  0.00     0.055 A 
HETATM   18  C11 UNL     1      17.095 -26.658 -22.557  1.00  0.00     0.079 A 
HETATM   19  C12 UNL     1      16.592 -25.817 -23.524  1.00  0.00     0.259 A 
HETATM   20  O1  UNL     1      15.340 -25.589 -23.623  1.00  0.00    -0.267 OA
HETATM   21  N4  UNL     1      17.439 -25.225 -24.382  1.00  0.00    -0.265 N 
HETATM   22  N5  UNL     1      18.726 -25.396 -24.360  1.00  0.00    -0.283 N 
ATOM     23  H4  UNL     1      17.049 -24.605 -25.092  1.00  0.00     0.190 HD
ATOM     24  H5  UNL     1      19.306 -24.913 -25.045  1.00  0.00     0.188 HD
ENDBRANCH  14  16
ENDBRANCH  13  14
ENDBRANCH   1  13
TORSDOF 7
ENDMDL
MODEL 2
REMARK VINA RESULT: -5.873587782      1.453      3.566
REMARK  7 active torsions:
REMARK  status: ('A' for Active; 'I' for Inactive)
REMARK    1  A    between atoms: C4_8  and  C5_9 
REMARK    2  A    between atoms: C5_9  and  C6_10 
REMARK    3  A    between atoms: C6_10  and  S1_11 
REMARK    4  A    between atoms: S1_11  and  C7_12 
REMARK    5  A    between atoms: C7_12  and  C8_13 
REMARK    6  A    between atoms: C8_13  and  N3_14 
REMARK    7  A    between atoms: N3_14  and  C9_16 
ROOT
HETATM    1  C7  UNL     1      21.308 -26.047 -20.738  1.00  0.00     0.093 C 
ENDROOT
BRANCH   1   2
HETATM    2  S1  UNL     1      20.662 -27.685 -20.599  1.00  0.00    -0.167 SA
BRANCH   2   3
HETATM    3  C6  UNL     1      19.458 -28.143 -21.818  1.00  0.00     0.080 C 
BRANCH   3   4
HETATM    4  C5  UNL     1      18.121 -27.482 -21.686  1.00  0.00     0.069 C 
BRANCH   4   5
HETATM    5  C4  UNL     1      17.982 -26.582 -22.903  1.00  0.00     0.033 A 
HETATM    6  C2  UNL     1      16.825 -26.052 -23.400  1.00  0.00     0.029 A 
HETATM    7  C1  UNL     1      15.474 -26.276 -22.814  1.00  0.00     0.070 C 
HETATM    8  N1  UNL     1      17.090 -25.308 -24.485  1.00  0.00    -0.354 N 
HETATM    9  C3  UNL     1      18.423 -25.379 -24.656  1.00  0.00     0.180 A 
ATOM     10  H1  UNL     1      16.421 -24.795 -25.059  1.00  0.00     0.166 HD
HETATM   11  N2  UNL     1      18.978 -26.157 -23.694  1.00  0.00    -0.354 N 
ATOM     12  H2  UNL     1      19.968 -26.377 -23.591  1.00  0.00     0.166 HD
ENDBRANCH   4   5
ENDBRANCH   3   4
ENDBRANCH   2   3
ENDBRANCH   1   2
BRANCH   1  13
HETATM   13  C8  UNL     1      20.540 -24.948 -20.067  1.00  0.00     0.131 C 
BRANCH  13  14
HETATM   14  N3  UNL     1      20.019 -24.002 -21.069  1.00  0.00    -0.374 N 
ATOM     15  H3  UNL     1      20.638 -23.588 -21.766  1.00  0.00     0.161 HD
BRANCH  14  16
HETATM   16  C9  UNL     1      18.763 -23.706 -21.050  1.00  0.00     0.115 A 
HETATM   17  C10 UNL     1      17.869 -24.151 -20.103  1.00  0.00     0.055 A 
HETATM   18  C11 UNL     1      16.519 -23.798 -20.118  1.00  0.00     0.079 A 
HETATM   19  C12 UNL     1      16.108 -22.971 -21.138  1.00  0.00     0.259 A 
HETATM   20  O1  UNL     1      14.894 -22.590 -21.239  1.00  0.00    -0.267 OA
HETATM   21  N4  UNL     1      17.006 -22.554 -22.047  1.00  0.00    -0.265 N 
HETATM   22  N5  UNL     1      18.261 -22.888 -22.026  1.00  0.00    -0.283 N 
ATOM     23  H4  UNL     1      16.684 -21.941 -22.795  1.00  0.00     0.190 HD
ATOM     24  H5  UNL     1      18.884 -22.533 -22.751  1.00  0.00     0.188 HD
ENDBRANCH  14  16
ENDBRANCH  13  14
ENDBRANCH   1  13
TORSDOF 7
ENDMDL
MODEL 3
REMARK VINA RESULT: -5.849625168      2.454      5.082
REMARK  7 active torsions:
REMARK  status: ('A' for Active; 'I' for Inactive)
REMARK    1  A    between atoms: C4_8  and  C5_9 
REMARK    2  A    between atoms: C5_9  and  C6_10 
REMARK    3  A    between atoms: C6_10  and  S1_11 
REMARK    4  A    between atoms: S1_11  and  C7_12 
REMARK    5  A    between atoms: C7_12  and  C8_13 
REMARK    6  A    between atoms: C8_13  and  N3_14 
REMARK    7  A    between atoms: N3_14  and  C9_16 
ROOT
HETATM    1  C7  UNL     1      15.977 -26.247 -23.629  1.00  0.00     0.093 C 
ENDROOT
BRANCH   1   2
HETATM    2  S1  UNL     1      17.600 -26.636 -23.050  1.00  0.00    -0.167 SA
BRANCH   2   3
HETATM    3  C6  UNL     1      18.929 -25.789 -23.864  1.00  0.00     0.080 C 
BRANCH   3   4
HETATM    4  C5  UNL     1      20.284 -26.406 -23.702  1.00  0.00     0.069 C 
BRANCH   4   5
HETATM    5  C4  UNL     1      20.761 -26.003 -22.316  1.00  0.00     0.033 A 
HETATM    6  C2  UNL     1      21.613 -26.702 -21.510  1.00  0.00     0.029 A 
HETATM    7  C1  UNL     1      22.232 -28.009 -21.866  1.00  0.00     0.070 C 
HETATM    8  N1  UNL     1      21.805 -26.037 -20.359  1.00  0.00    -0.354 N 
HETATM    9  C3  UNL     1      21.064 -24.918 -20.460  1.00  0.00     0.180 A 
ATOM     10  H1  UNL     1      22.389 -26.321 -19.573  1.00  0.00     0.166 HD
HETATM   11  N2  UNL     1      20.421 -24.888 -21.653  1.00  0.00    -0.354 N 
ATOM     12  H2  UNL     1      19.796 -24.154 -21.985  1.00  0.00     0.166 HD
ENDBRANCH   4   5
ENDBRANCH   3   4
ENDBRANCH   2   3
ENDBRANCH   1   2
BRANCH   1  13
HETATM   13  C8  UNL     1      15.168 -25.289 -22.809  1.00  0.00     0.131 C 
BRANCH  13  14
HETATM   14  N3  UNL     1      15.628 -23.907 -23.033  1.00  0.00    -0.374 N 
ATOM     15  H3  UNL     1      15.268 -23.359 -23.815  1.00  0.00     0.161 HD
BRANCH  14  16
HETATM   16  C9  UNL     1      16.496 -23.402 -22.223  1.00  0.00     0.115 A 
HETATM   17  C10 UNL     1      16.521 -23.625 -20.865  1.00  0.00     0.055 A 
HETATM   18  C11 UNL     1      17.486 -23.063 -20.028  1.00  0.00     0.079 A 
HETATM   19  C12 UNL     1      18.431 -22.260 -20.626  1.00  0.00     0.259 A 
HETATM   20  O1  UNL     1      19.355 -21.700 -19.946  1.00  0.00    -0.267 OA
HETATM   21  N4  UNL     1      18.378 -22.063 -21.954  1.00  0.00    -0.265 N 
HETATM   22  N5  UNL     1      17.477 -22.589 -22.726  1.00  0.00    -0.283 N 
ATOM     23  H4  UNL     1      19.087 -21.465 -22.380  1.00  0.00     0.190 HD
ATOM     24  H5  UNL     1      17.500 -22.394 -23.726  1.00  0.00     0.188 HD
ENDBRANCH  14  16
ENDBRANCH  13  14
ENDBRANCH   1  13
TORSDOF 7
ENDMDL
MODEL 4
REMARK VINA RESULT: -5.795305795      1.976      4.410
REMARK  7 active torsions:
REMARK  status: ('A' for Active; 'I' for Inactive)
REMARK    1  A    between atoms: C4_8  and  C5_9 
REMARK    2  A    between atoms: C5_9  and  C6_10 
REMARK    3  A    between atoms: C6_10  and  S1_11 
REMARK    4  A    between atoms: S1_11  and  C7_12 
REMARK    5  A    between atoms: C7_12  and  C8_13 
REMARK    6  A    between atoms: C8_13  and  N3_14 
REMARK    7  A    between atoms: N3_14  and  C9_16 
ROOT
HETATM    1  C7  UNL     1      16.318 -23.724 -19.642  1.00  0.00     0.093 C 
ENDROOT
BRANCH   1   2
HETATM    2  S1  UNL     1      18.000 -23.327 -19.272  1.00  0.00    -0.167 SA
BRANCH   2   3
HETATM    3  C6  UNL     1      19.221 -24.204 -20.213  1.00  0.00     0.080 C 
BRANCH   3   4
HETATM    4  C5  UNL     1      19.019 -25.685 -20.315  1.00  0.00     0.069 C 
BRANCH   4   5
HETATM    5  C4  UNL     1      20.000 -26.165 -21.372  1.00  0.00     0.033 A 
HETATM    6  C2  UNL     1      20.007 -27.385 -21.986  1.00  0.00     0.029 A 
HETATM    7  C1  UNL     1      19.027 -28.474 -21.713  1.00  0.00     0.070 C 
HETATM    8  N1  UNL     1      21.021 -27.451 -22.863  1.00  0.00    -0.354 N 
HETATM    9  C3  UNL     1      21.643 -26.260 -22.788  1.00  0.00     0.180 A 
ATOM     10  H1  UNL     1      21.269 -28.239 -23.460  1.00  0.00     0.166 HD
HETATM   11  N2  UNL     1      21.026 -25.466 -21.878  1.00  0.00    -0.354 N 
ATOM     12  H2  UNL     1      21.293 -24.515 -21.627  1.00  0.00     0.166 HD
ENDBRANCH   4   5
ENDBRANCH   3   4
ENDBRANCH   2   3
ENDBRANCH   1   2
BRANCH   1  13
HETATM   13  C8  UNL     1      15.614 -22.859 -20.643  1.00  0.00     0.131 C 
BRANCH  13  14
HETATM   14  N3  UNL     1      15.165 -23.666 -21.791  1.00  0.00    -0.374 N 
ATOM     15  H3  UNL     1      14.171 -23.774 -21.994  1.00  0.00     0.161 HD
BRANCH  14  16
HETATM   16  C9  UNL     1      16.052 -24.234 -22.536  1.00  0.00     0.115 A 
HETATM   17  C10 UNL     1      16.018 -25.553 -22.927  1.00  0.00     0.055 A 
HETATM   18  C11 UNL     1      16.998 -26.122 -23.742  1.00  0.00     0.079 A 
HETATM   19  C12 UNL     1      18.021 -25.295 -24.147  1.00  0.00     0.259 A 
HETATM   20  O1  UNL     1      18.965 -25.721 -24.893  1.00  0.00    -0.267 OA
HETATM   21  N4  UNL     1      18.025 -24.013 -23.747  1.00  0.00    -0.265 N 
HETATM   22  N5  UNL     1      17.110 -23.491 -22.989  1.00  0.00    -0.283 N 
ATOM     23  H4  UNL     1      18.791 -23.415 -24.057  1.00  0.00     0.190 HD
ATOM     24  H5  UNL     1      17.180 -22.508 -22.725  1.00  0.00     0.188 HD
ENDBRANCH  14  16
ENDBRANCH  13  14
ENDBRANCH   1  13
TORSDOF 7
ENDMDL
MODEL 5
REMARK VINA RESULT: -5.762800860      1.724      4.551
REMARK  7 active torsions:
REMARK  status: ('A' for Active; 'I' for Inactive)
REMARK    1  A    between atoms: C4_8  and  C5_9 
REMARK    2  A    between atoms: C5_9  and  C6_10 
REMARK    3  A    between atoms: C6_10  and  S1_11 
REMARK    4  A    between atoms: S1_11  and  C7_12 
REMARK    5  A    between atoms: C7_12  and  C8_13 
REMARK    6  A    between atoms: C8_13  and  N3_14 
REMARK    7  A    between atoms: N3_14  and  C9_16 
ROOT
HETATM    1  C7  UNL     1      17.736 -22.500 -18.796  1.00  0.00     0.093 C 
ENDROOT
BRANCH   1   2
HETATM    2  S1  UNL     1      18.910 -23.815 -18.920  1.00  0.00    -0.167 SA
BRANCH   2   3
HETATM    3  C6  UNL     1      19.446 -24.213 -20.563  1.00  0.00     0.080 C 
BRANCH   3   4
HETATM    4  C5  UNL     1      20.145 -25.529 -20.714  1.00  0.00     0.069 C 
BRANCH   4   5
HETATM    5  C4  UNL     1      20.107 -25.851 -22.199  1.00  0.00     0.033 A 
HETATM    6  C2  UNL     1      21.078 -26.481 -22.924  1.00  0.00     0.029 A 
HETATM    7  C1  UNL     1      22.368 -26.970 -22.362  1.00  0.00     0.070 C 
HETATM    8  N1  UNL     1      20.695 -26.590 -24.206  1.00  0.00    -0.354 N 
HETATM    9  C3  UNL     1      19.476 -26.023 -24.270  1.00  0.00     0.180 A 
ATOM     10  H1  UNL     1      21.218 -27.014 -24.971  1.00  0.00     0.166 HD
HETATM   11  N2  UNL     1      19.108 -25.567 -23.047  1.00  0.00    -0.354 N 
ATOM     12  H2  UNL     1      18.233 -25.096 -22.816  1.00  0.00     0.166 HD
ENDBRANCH   4   5
ENDBRANCH   3   4
ENDBRANCH   2   3
ENDBRANCH   1   2
BRANCH   1  13
HETATM   13  C8  UNL     1      16.295 -22.845 -19.018  1.00  0.00     0.131 C 
BRANCH  13  14
HETATM   14  N3  UNL     1      15.909 -22.558 -20.411  1.00  0.00    -0.374 N 
ATOM     15  H3  UNL     1      15.725 -21.602 -20.714  1.00  0.00     0.161 HD
BRANCH  14  16
HETATM   16  C9  UNL     1      15.809 -23.540 -21.242  1.00  0.00     0.115 A 
HETATM   17  C10 UNL     1      15.757 -24.868 -20.883  1.00  0.00     0.055 A 
HETATM   18  C11 UNL     1      15.640 -25.896 -21.818  1.00  0.00     0.079 A 
HETATM   19  C12 UNL     1      15.579 -25.524 -23.142  1.00  0.00     0.259 A 
HETATM   20  O1  UNL     1      15.471 -26.391 -24.073  1.00  0.00    -0.267 OA
HETATM   21  N4  UNL     1      15.632 -24.220 -23.459  1.00  0.00    -0.265 N 
HETATM   22  N5  UNL     1      15.741 -23.268 -22.583  1.00  0.00    -0.283 N 
ATOM     23  H4  UNL     1      15.585 -23.962 -24.445  1.00  0.00     0.190 HD
ATOM     24  H5  UNL     1      15.777 -22.299 -22.899  1.00  0.00     0.188 HD
ENDBRANCH  14  16
ENDBRANCH  13  14
ENDBRANCH   1  13
TORSDOF 7
ENDMDL
