MODEL 1
REMARK VINA RESULT: -7.204546413      0.000      0.000
REMARK  5 active torsions:
REMARK  status: ('A' for Active; 'I' for Inactive)
REMARK    1  A    between atoms: C2_2  and  C3_3 
REMARK    2  A    between atoms: C2_2  and  C11_12 
REMARK    3  A    between atoms: C7_8  and  C8_9 
REMARK    4  A    between atoms: C11_12  and  O2_13 
REMARK    5  A    between atoms: C12_16  and  O4_17 
ROOT
HETATM    1  C11 UNL     1      15.585  -2.527 -11.790  1.00  0.00     0.176 C 
HETATM    2  O3  UNL     1      16.514  -2.439 -10.693  1.00  0.00    -0.324 OA
HETATM    3  C12 UNL     1      16.997  -1.131 -10.738  1.00  0.00     0.266 C 
HETATM    4  C13 UNL     1      16.549  -0.510 -12.002  1.00  0.00     0.062 C 
HETATM    5  C14 UNL     1      17.312   0.545 -12.624  1.00  0.00    -0.039 C 
HETATM    6  C15 UNL     1      16.554   1.888 -12.396  1.00  0.00     0.015 C 
HETATM    7  C16 UNL     1      18.628   0.858 -11.887  1.00  0.00     0.015 C 
HETATM    8  C17 UNL     1      17.510   0.515 -14.112  1.00  0.00     0.009 C 
HETATM    9  C18 UNL     1      16.961  -0.666 -14.817  1.00  0.00     0.002 C 
HETATM   10  C19 UNL     1      15.863  -1.416 -14.082  1.00  0.00     0.015 C 
HETATM   11  C20 UNL     1      16.413  -1.832 -12.792  1.00  0.00     0.022 C 
HETATM   12  C21 UNL     1      17.789  -2.433 -12.839  1.00  0.00     0.021 C 
ENDROOT
BRANCH   1  13
HETATM   13  C2  UNL     1      15.098  -3.881 -11.989  1.00  0.00     0.056 C 
HETATM   14  C1  UNL     1      14.835  -4.301 -13.417  1.00  0.00     0.016 C 
BRANCH  13  15
HETATM   15  C3  UNL     1      13.917  -4.260 -11.167  1.00  0.00     0.069 C 
HETATM   16  C4  UNL     1      14.088  -4.254  -9.696  1.00  0.00     0.132 C 
HETATM   17  O1  UNL     1      13.829  -3.414  -8.854  1.00  0.00    -0.298 OA
HETATM   18  C5  UNL     1      14.699  -5.593  -9.315  1.00  0.00     0.079 C 
HETATM   19  C6  UNL     1      14.065  -6.545 -10.309  1.00  0.00     0.013 C 
HETATM   20  C7  UNL     1      13.433  -5.671 -11.392  1.00  0.00     0.002 C 
BRANCH  20  21
HETATM   21  C8  UNL     1      11.945  -5.766 -11.220  1.00  0.00    -0.010 A 
HETATM   22  C9  UNL     1      11.267  -7.095 -11.547  1.00  0.00     0.005 A 
HETATM   23  C10 UNL     1      10.949  -5.844 -12.274  1.00  0.00     0.005 A 
ENDBRANCH  20  21
ENDBRANCH  13  15
ENDBRANCH   1  13
BRANCH   1  24
HETATM   24  O2  UNL     1      14.512  -1.751 -11.316  1.00  0.00    -0.364 OA
ATOM     25  H2  UNL     1      14.501  -0.939 -11.810  1.00  0.00     0.213 HD
ENDBRANCH   1  24
BRANCH   3  26
HETATM   26  O4  UNL     1      16.483  -0.451  -9.607  1.00  0.00    -0.371 OA
ATOM     27  H4  UNL     1      16.038   0.327  -9.922  1.00  0.00     0.212 HD
ENDBRANCH   3  26
TORSDOF 5
ENDMDL
MODEL 2
REMARK VINA RESULT: -6.771223518      6.604     10.643
REMARK  5 active torsions:
REMARK  status: ('A' for Active; 'I' for Inactive)
REMARK    1  A    between atoms: C2_2  and  C3_3 
REMARK    2  A    between atoms: C2_2  and  C11_12 
REMARK    3  A    between atoms: C7_8  and  C8_9 
REMARK    4  A    between atoms: C11_12  and  O2_13 
REMARK    5  A    between atoms: C12_16  and  O4_17 
ROOT
HETATM    1  C11 UNL     1      15.805  -9.119  -4.980  1.00  0.00     0.176 C 
HETATM    2  O3  UNL     1      16.212 -10.041  -6.009  1.00  0.00    -0.324 OA
HETATM    3  C12 UNL     1      16.498 -11.226  -5.333  1.00  0.00     0.266 C 
HETATM    4  C13 UNL     1      16.500 -10.949  -3.882  1.00  0.00     0.062 C 
HETATM    5  C14 UNL     1      17.300 -11.738  -2.975  1.00  0.00    -0.039 C 
HETATM    6  C15 UNL     1      16.343 -12.680  -2.184  1.00  0.00     0.015 C 
HETATM    7  C16 UNL     1      18.170 -12.789  -3.689  1.00  0.00     0.015 C 
HETATM    8  C17 UNL     1      18.065 -11.039  -1.888  1.00  0.00     0.009 C 
HETATM    9  C18 UNL     1      17.994  -9.560  -1.893  1.00  0.00     0.002 C 
HETATM   10  C19 UNL     1      16.806  -8.962  -2.627  1.00  0.00     0.015 C 
HETATM   11  C20 UNL     1      16.859  -9.450  -4.005  1.00  0.00     0.022 C 
HETATM   12  C21 UNL     1      18.210  -9.397  -4.658  1.00  0.00     0.021 C 
ENDROOT
BRANCH   1  13
HETATM   13  C2  UNL     1      15.618  -7.772  -5.493  1.00  0.00     0.056 C 
HETATM   14  C1  UNL     1      14.292  -7.113  -5.191  1.00  0.00     0.016 C 
BRANCH  13  15
HETATM   15  C3  UNL     1      15.903  -7.598  -6.943  1.00  0.00     0.069 C 
HETATM   16  C4  UNL     1      17.085  -6.783  -7.305  1.00  0.00     0.132 C 
HETATM   17  O1  UNL     1      18.229  -7.093  -7.586  1.00  0.00    -0.298 OA
HETATM   18  C5  UNL     1      16.645  -5.328  -7.285  1.00  0.00     0.079 C 
HETATM   19  C6  UNL     1      15.214  -5.406  -7.779  1.00  0.00     0.013 C 
HETATM   20  C7  UNL     1      14.818  -6.881  -7.707  1.00  0.00     0.002 C 
BRANCH  20  21
HETATM   21  C8  UNL     1      14.730  -7.381  -9.119  1.00  0.00    -0.010 A 
HETATM   22  C9  UNL     1      13.452  -8.101  -9.547  1.00  0.00     0.005 A 
HETATM   23  C10 UNL     1      14.778  -8.765  -9.557  1.00  0.00     0.005 A 
ENDBRANCH  20  21
ENDBRANCH  13  15
ENDBRANCH   1  13
BRANCH   1  24
HETATM   24  O2  UNL     1      14.540  -9.624  -4.631  1.00  0.00    -0.364 OA
ATOM     25  H2  UNL     1      14.640 -10.549  -4.440  1.00  0.00     0.213 HD
ENDBRANCH   1  24
BRANCH   3  26
HETATM   26  O4  UNL     1      15.498 -12.166  -5.687  1.00  0.00    -0.371 OA
ATOM     27  H4  UNL     1      15.370 -12.102  -6.627  1.00  0.00     0.212 HD
ENDBRANCH   3  26
TORSDOF 5
ENDMDL
MODEL 3
REMARK VINA RESULT: -6.635030811      5.883      7.941
REMARK  5 active torsions:
REMARK  status: ('A' for Active; 'I' for Inactive)
REMARK    1  A    between atoms: C2_2  and  C3_3 
REMARK    2  A    between atoms: C2_2  and  C11_12 
REMARK    3  A    between atoms: C7_8  and  C8_9 
REMARK    4  A    between atoms: C11_12  and  O2_13 
REMARK    5  A    between atoms: C12_16  and  O4_17 
ROOT
HETATM    1  C11 UNL     1      14.027  -5.385  -4.648  1.00  0.00     0.176 C 
HETATM    2  O3  UNL     1      15.135  -5.143  -3.760  1.00  0.00    -0.324 OA
HETATM    3  C12 UNL     1      14.825  -3.943  -3.122  1.00  0.00     0.266 C 
HETATM    4  C13 UNL     1      13.658  -3.340  -3.798  1.00  0.00     0.062 C 
HETATM    5  C14 UNL     1      13.456  -1.911  -3.801  1.00  0.00    -0.039 C 
HETATM    6  C15 UNL     1      12.294  -1.586  -2.815  1.00  0.00     0.015 C 
HETATM    7  C16 UNL     1      14.600  -1.134  -3.121  1.00  0.00     0.015 C 
HETATM    8  C17 UNL     1      13.019  -1.243  -5.073  1.00  0.00     0.009 C 
HETATM    9  C18 UNL     1      12.911  -2.118  -6.262  1.00  0.00     0.002 C 
HETATM   10  C19 UNL     1      12.750  -3.601  -5.972  1.00  0.00     0.015 C 
HETATM   11  C20 UNL     1      13.902  -4.012  -5.170  1.00  0.00     0.022 C 
HETATM   12  C21 UNL     1      15.235  -3.512  -5.648  1.00  0.00     0.021 C 
ENDROOT
BRANCH   1  13
HETATM   13  C2  UNL     1      14.258  -6.527  -5.516  1.00  0.00     0.056 C 
HETATM   14  C1  UNL     1      14.682  -7.812  -4.842  1.00  0.00     0.016 C 
BRANCH  13  15
HETATM   15  C3  UNL     1      15.172  -6.280  -6.663  1.00  0.00     0.069 C 
HETATM   16  C4  UNL     1      14.554  -6.144  -8.002  1.00  0.00     0.132 C 
HETATM   17  O1  UNL     1      14.223  -5.166  -8.647  1.00  0.00    -0.298 OA
HETATM   18  C5  UNL     1      14.360  -7.551  -8.546  1.00  0.00     0.079 C 
HETATM   19  C6  UNL     1      15.566  -8.289  -8.000  1.00  0.00     0.013 C 
HETATM   20  C7  UNL     1      16.162  -7.389  -6.917  1.00  0.00     0.002 C 
BRANCH  20  21
HETATM   21  C8  UNL     1      17.453  -6.848  -7.458  1.00  0.00    -0.010 A 
HETATM   22  C9  UNL     1      18.748  -7.227  -6.740  1.00  0.00     0.005 A 
HETATM   23  C10 UNL     1      18.288  -5.823  -6.856  1.00  0.00     0.005 A 
ENDBRANCH  20  21
ENDBRANCH  13  15
ENDBRANCH   1  13
BRANCH   1  24
HETATM   24  O2  UNL     1      13.009  -5.734  -3.742  1.00  0.00    -0.364 OA
ATOM     25  H2  UNL     1      12.807  -6.654  -3.874  1.00  0.00     0.213 HD
ENDBRANCH   1  24
BRANCH   3  26
HETATM   26  O4  UNL     1      14.549  -4.245  -1.766  1.00  0.00    -0.371 OA
ATOM     27  H4  UNL     1      14.570  -3.427  -1.283  1.00  0.00     0.212 HD
ENDBRANCH   3  26
TORSDOF 5
ENDMDL
MODEL 4
REMARK VINA RESULT: -6.607836371      3.945      5.578
REMARK  5 active torsions:
REMARK  status: ('A' for Active; 'I' for Inactive)
REMARK    1  A    between atoms: C2_2  and  C3_3 
REMARK    2  A    between atoms: C2_2  and  C11_12 
REMARK    3  A    between atoms: C7_8  and  C8_9 
REMARK    4  A    between atoms: C11_12  and  O2_13 
REMARK    5  A    between atoms: C12_16  and  O4_17 
ROOT
HETATM    1  C11 UNL     1      14.302  -4.220  -7.922  1.00  0.00     0.176 C 
HETATM    2  O3  UNL     1      13.748  -4.930  -6.798  1.00  0.00    -0.324 OA
HETATM    3  C12 UNL     1      13.772  -4.012  -5.749  1.00  0.00     0.266 C 
HETATM    4  C13 UNL     1      14.561  -2.837  -6.173  1.00  0.00     0.062 C 
HETATM    5  C14 UNL     1      15.260  -2.023  -5.208  1.00  0.00    -0.039 C 
HETATM    6  C15 UNL     1      14.477  -0.685  -5.046  1.00  0.00     0.015 C 
HETATM    7  C16 UNL     1      15.156  -2.562  -3.769  1.00  0.00     0.015 C 
HETATM    8  C17 UNL     1      16.655  -1.564  -5.522  1.00  0.00     0.009 C 
HETATM    9  C18 UNL     1      17.234  -2.067  -6.788  1.00  0.00     0.002 C 
HETATM   10  C19 UNL     1      16.230  -2.536  -7.828  1.00  0.00     0.015 C 
HETATM   11  C20 UNL     1      15.428  -3.590  -7.209  1.00  0.00     0.022 C 
HETATM   12  C21 UNL     1      16.199  -4.621  -6.437  1.00  0.00     0.021 C 
ENDROOT
BRANCH   1  13
HETATM   13  C2  UNL     1      14.499  -5.084  -9.074  1.00  0.00     0.056 C 
HETATM   14  C1  UNL     1      14.142  -4.502 -10.423  1.00  0.00     0.016 C 
BRANCH  13  15
HETATM   15  C3  UNL     1      13.880  -6.433  -8.971  1.00  0.00     0.069 C 
HETATM   16  C4  UNL     1      14.603  -7.448  -8.171  1.00  0.00     0.132 C 
HETATM   17  O1  UNL     1      14.480  -7.807  -7.014  1.00  0.00    -0.298 OA
HETATM   18  C5  UNL     1      15.649  -8.070  -9.083  1.00  0.00     0.079 C 
HETATM   19  C6  UNL     1      14.956  -8.073 -10.431  1.00  0.00     0.013 C 
HETATM   20  C7  UNL     1      13.743  -7.154 -10.289  1.00  0.00     0.002 C 
BRANCH  20  21
HETATM   21  C8  UNL     1      12.525  -8.030 -10.301  1.00  0.00    -0.010 A 
HETATM   22  C9  UNL     1      12.274  -8.895 -11.536  1.00  0.00     0.005 A 
HETATM   23  C10 UNL     1      11.325  -7.843 -11.099  1.00  0.00     0.005 A 
ENDBRANCH  20  21
ENDBRANCH  13  15
ENDBRANCH   1  13
BRANCH   1  24
HETATM   24  O2  UNL     1      13.263  -3.324  -8.231  1.00  0.00    -0.364 OA
ATOM     25  H2  UNL     1      12.981  -3.504  -9.121  1.00  0.00     0.213 HD
ENDBRANCH   1  24
BRANCH   3  26
HETATM   26  O4  UNL     1      12.429  -3.667  -5.460  1.00  0.00    -0.371 OA
ATOM     27  H4  UNL     1      11.976  -3.571  -6.289  1.00  0.00     0.212 HD
ENDBRANCH   3  26
TORSDOF 5
ENDMDL
MODEL 5
REMARK VINA RESULT: -6.516871120      4.754      8.555
REMARK  5 active torsions:
REMARK  status: ('A' for Active; 'I' for Inactive)
REMARK    1  A    between atoms: C2_2  and  C3_3 
REMARK    2  A    between atoms: C2_2  and  C11_12 
REMARK    3  A    between atoms: C7_8  and  C8_9 
REMARK    4  A    between atoms: C11_12  and  O2_13 
REMARK    5  A    between atoms: C12_16  and  O4_17 
ROOT
HETATM    1  C11 UNL     1      16.905  -6.040  -6.641  1.00  0.00     0.176 C 
HETATM    2  O3  UNL     1      18.128  -5.912  -5.891  1.00  0.00    -0.324 OA
HETATM    3  C12 UNL     1      18.379  -7.192  -5.399  1.00  0.00     0.266 C 
HETATM    4  C13 UNL     1      17.188  -8.031  -5.643  1.00  0.00     0.062 C 
HETATM    5  C14 UNL     1      16.877  -9.150  -4.786  1.00  0.00    -0.039 C 
HETATM    6  C15 UNL     1      17.215 -10.459  -5.561  1.00  0.00     0.015 C 
HETATM    7  C16 UNL     1      17.846  -9.292  -3.597  1.00  0.00     0.015 C 
HETATM    8  C17 UNL     1      15.452  -9.364  -4.361  1.00  0.00     0.009 C 
HETATM    9  C18 UNL     1      14.482  -8.337  -4.804  1.00  0.00     0.002 C 
HETATM   10  C19 UNL     1      14.904  -7.510  -6.006  1.00  0.00     0.015 C 
HETATM   11  C20 UNL     1      16.172  -6.865  -5.664  1.00  0.00     0.022 C 
HETATM   12  C21 UNL     1      16.230  -6.237  -4.302  1.00  0.00     0.021 C 
ENDROOT
BRANCH   1  13
HETATM   13  C2  UNL     1      16.406  -4.755  -7.101  1.00  0.00     0.056 C 
HETATM   14  C1  UNL     1      16.907  -3.534  -6.365  1.00  0.00     0.016 C 
BRANCH  13  15
HETATM   15  C3  UNL     1      14.927  -4.652  -7.219  1.00  0.00     0.069 C 
HETATM   16  C4  UNL     1      14.329  -4.990  -8.532  1.00  0.00     0.132 C 
HETATM   17  O1  UNL     1      13.832  -6.017  -8.955  1.00  0.00    -0.298 OA
HETATM   18  C5  UNL     1      14.419  -3.742  -9.395  1.00  0.00     0.079 C 
HETATM   19  C6  UNL     1      14.218  -2.625  -8.390  1.00  0.00     0.013 C 
HETATM   20  C7  UNL     1      14.384  -3.260  -7.009  1.00  0.00     0.002 C 
BRANCH  20  21
HETATM   21  C8  UNL     1      13.022  -3.300  -6.379  1.00  0.00    -0.010 A 
HETATM   22  C9  UNL     1      12.793  -2.476  -5.113  1.00  0.00     0.005 A 
HETATM   23  C10 UNL     1      12.659  -3.952  -5.132  1.00  0.00     0.005 A 
ENDBRANCH  20  21
ENDBRANCH  13  15
ENDBRANCH   1  13
BRANCH   1  24
HETATM   24  O2  UNL     1      17.337  -6.760  -7.769  1.00  0.00    -0.364 OA
ATOM     25  H2  UNL     1      16.859  -7.581  -7.790  1.00  0.00     0.213 HD
ENDBRANCH   1  24
BRANCH   3  26
HETATM   26  O4  UNL     1      19.520  -7.689  -6.075  1.00  0.00    -0.371 OA
ATOM     27  H4  UNL     1      19.910  -8.355  -5.522  1.00  0.00     0.212 HD
ENDBRANCH   3  26
TORSDOF 5
ENDMDL
