MODEL 1
REMARK VINA RESULT: -6.533202646      0.000      0.000
REMARK  4 active torsions:
REMARK  status: ('A' for Active; 'I' for Inactive)
REMARK    1  A    between atoms: C3_3  and  C4_4 
REMARK    2  A    between atoms: C7_7  and  C8_8 
REMARK    3  A    between atoms: N1_9  and  N2_11 
REMARK       I    between atoms: N2_11  and  C9_13 
REMARK       I    between atoms: C9_13  and  N7_21 
REMARK    4  A    between atoms: N3_14  and  N4_16 
ROOT
HETATM    1  C1  UNL     1      14.134  44.666 -37.467  1.00  0.00     0.012 C 
HETATM    2  C2  UNL     1      14.910  44.152 -38.242  1.00  0.00    -0.112 C 
HETATM    3  C3  UNL     1      15.839  43.526 -39.199  1.00  0.00     0.139 C 
ENDROOT
BRANCH   3   4
HETATM    4  C4  UNL     1      17.103  43.264 -38.444  1.00  0.00    -0.006 A 
HETATM    5  C5  UNL     1      17.931  44.155 -37.831  1.00  0.00     0.017 A 
HETATM    6  C6  UNL     1      19.015  43.680 -37.211  1.00  0.00     0.021 A 
HETATM    7  C7  UNL     1      19.230  42.328 -37.229  1.00  0.00     0.022 A 
HETATM    8  S1  UNL     1      17.857  41.772 -38.143  1.00  0.00    -0.093 SA
BRANCH   7   9
HETATM    9  C8  UNL     1      20.291  41.507 -36.661  1.00  0.00     0.126 C 
HETATM   10  N1  UNL     1      20.154  40.711 -35.735  1.00  0.00    -0.296 N 
ATOM     11  H1  UNL     1      21.028  40.242 -35.497  1.00  0.00     0.186 HD
BRANCH  10  12
HETATM   12  N2  UNL     1      19.119  40.301 -34.946  1.00  0.00    -0.130 N 
HETATM   13  C9  UNL     1      18.356  39.168 -35.338  1.00  0.00     0.720 C 
HETATM   14  N3  UNL     1      17.094  39.326 -35.545  1.00  0.00    -0.128 N 
HETATM   15  N7  UNL     1      18.984  37.912 -35.494  1.00  0.00    -0.123 N 
ATOM     16  H3  UNL     1      16.677  40.249 -35.423  1.00  0.00     0.205 HD
HETATM   17  C11 UNL     1      19.150  37.361 -36.759  1.00  0.00     0.196 C 
ATOM     18  H7  UNL     1      19.317  37.406 -34.673  1.00  0.00     0.197 HD
HETATM   19  N8  UNL     1      19.292  36.920 -37.826  1.00  0.00    -0.171 NA
ATOM     20  H2  UNL     1      18.895  40.802 -34.086  1.00  0.00     0.205 HD
BRANCH  14  21
HETATM   21  N4  UNL     1      16.295  38.261 -35.930  1.00  0.00    -0.262 N 
HETATM   22  C10 UNL     1      15.264  37.972 -35.230  1.00  0.00     0.216 C 
HETATM   23  N5  UNL     1      14.935  38.721 -34.078  1.00  0.00    -0.065 NA
HETATM   24  N6  UNL     1      14.448  36.884 -35.623  1.00  0.00    -0.065 NA
ATOM     25  H4  UNL     1      16.525  37.715 -36.760  1.00  0.00     0.190 HD
ENDBRANCH  14  21
ENDBRANCH  10  12
ENDBRANCH   7   9
ENDBRANCH   3   4
TORSDOF 4
ENDMDL
MODEL 2
REMARK VINA RESULT: -6.144646607      6.186      8.771
REMARK  4 active torsions:
REMARK  status: ('A' for Active; 'I' for Inactive)
REMARK    1  A    between atoms: C3_3  and  C4_4 
REMARK    2  A    between atoms: C7_7  and  C8_8 
REMARK    3  A    between atoms: N1_9  and  N2_11 
REMARK       I    between atoms: N2_11  and  C9_13 
REMARK       I    between atoms: C9_13  and  N7_21 
REMARK    4  A    between atoms: N3_14  and  N4_16 
ROOT
HETATM    1  C1  UNL     1       8.247  50.156 -37.240  1.00  0.00     0.012 C 
HETATM    2  C2  UNL     1       9.048  50.206 -36.334  1.00  0.00    -0.112 C 
HETATM    3  C3  UNL     1      10.025  50.287 -35.234  1.00  0.00     0.139 C 
ENDROOT
BRANCH   3   4
HETATM    4  C4  UNL     1      10.345  48.876 -34.854  1.00  0.00    -0.006 A 
HETATM    5  C5  UNL     1      10.922  48.410 -33.712  1.00  0.00     0.017 A 
HETATM    6  C6  UNL     1      11.110  47.092 -33.596  1.00  0.00     0.021 A 
HETATM    7  C7  UNL     1      10.714  46.289 -34.631  1.00  0.00     0.022 A 
HETATM    8  S1  UNL     1      10.075  47.459 -35.751  1.00  0.00    -0.093 SA
BRANCH   7   9
HETATM    9  C8  UNL     1      10.775  44.845 -34.818  1.00  0.00     0.126 C 
HETATM   10  N1  UNL     1      11.788  44.208 -35.098  1.00  0.00    -0.296 N 
ATOM     11  H1  UNL     1      11.603  43.209 -35.182  1.00  0.00     0.186 HD
BRANCH  10  12
HETATM   12  N2  UNL     1      13.099  44.511 -35.324  1.00  0.00    -0.130 N 
HETATM   13  C9  UNL     1      13.552  44.672 -36.661  1.00  0.00     0.720 C 
HETATM   14  N3  UNL     1      14.483  43.889 -37.086  1.00  0.00    -0.128 N 
HETATM   15  N7  UNL     1      12.983  45.667 -37.487  1.00  0.00    -0.123 N 
ATOM     16  H3  UNL     1      14.869  43.181 -36.461  1.00  0.00     0.205 HD
HETATM   17  C11 UNL     1      12.162  45.313 -38.550  1.00  0.00     0.196 C 
ATOM     18  H7  UNL     1      13.176  46.651 -37.301  1.00  0.00     0.197 HD
HETATM   19  N8  UNL     1      11.466  45.000 -39.429  1.00  0.00    -0.171 NA
ATOM     20  H2  UNL     1      13.746  44.621 -34.543  1.00  0.00     0.205 HD
BRANCH  14  21
HETATM   21  N4  UNL     1      14.968  43.993 -38.381  1.00  0.00    -0.262 N 
HETATM   22  C10 UNL     1      15.961  43.268 -38.732  1.00  0.00     0.216 C 
HETATM   23  N5  UNL     1      16.564  42.369 -37.823  1.00  0.00    -0.065 NA
HETATM   24  N6  UNL     1      16.457  43.375 -40.055  1.00  0.00    -0.065 NA
ATOM     25  H4  UNL     1      14.539  44.639 -39.043  1.00  0.00     0.190 HD
ENDBRANCH  14  21
ENDBRANCH  10  12
ENDBRANCH   7   9
ENDBRANCH   3   4
TORSDOF 4
ENDMDL
MODEL 3
REMARK VINA RESULT: -5.713415892      8.438     11.082
REMARK  4 active torsions:
REMARK  status: ('A' for Active; 'I' for Inactive)
REMARK    1  A    between atoms: C3_3  and  C4_4 
REMARK    2  A    between atoms: C7_7  and  C8_8 
REMARK    3  A    between atoms: N1_9  and  N2_11 
REMARK       I    between atoms: N2_11  and  C9_13 
REMARK       I    between atoms: C9_13  and  N7_21 
REMARK    4  A    between atoms: N3_14  and  N4_16 
ROOT
HETATM    1  C1  UNL     1      16.196  44.303 -38.116  1.00  0.00     0.012 C 
HETATM    2  C2  UNL     1      14.998  44.157 -38.216  1.00  0.00    -0.112 C 
HETATM    3  C3  UNL     1      13.542  43.976 -38.358  1.00  0.00     0.139 C 
ENDROOT
BRANCH   3   4
HETATM    4  C4  UNL     1      12.942  44.371 -37.047  1.00  0.00    -0.006 A 
HETATM    5  C5  UNL     1      13.572  44.682 -35.880  1.00  0.00     0.017 A 
HETATM    6  C6  UNL     1      12.817  45.010 -34.828  1.00  0.00     0.021 A 
HETATM    7  C7  UNL     1      11.457  45.011 -34.982  1.00  0.00     0.022 A 
HETATM    8  S1  UNL     1      11.299  44.540 -36.651  1.00  0.00    -0.093 SA
BRANCH   7   9
HETATM    9  C8  UNL     1      10.375  45.313 -34.055  1.00  0.00     0.126 C 
HETATM   10  N1  UNL     1       9.431  46.065 -34.286  1.00  0.00    -0.296 N 
ATOM     11  H1  UNL     1       8.789  46.132 -33.496  1.00  0.00     0.186 HD
BRANCH  10  12
HETATM   12  N2  UNL     1       9.031  46.832 -35.341  1.00  0.00    -0.130 N 
HETATM   13  C9  UNL     1       9.447  48.189 -35.408  1.00  0.00     0.720 C 
HETATM   14  N3  UNL     1       8.540  49.104 -35.422  1.00  0.00    -0.128 N 
HETATM   15  N7  UNL     1      10.824  48.505 -35.455  1.00  0.00    -0.123 N 
ATOM     16  H3  UNL     1       7.557  48.837 -35.386  1.00  0.00     0.205 HD
HETATM   17  C11 UNL     1      11.445  49.100 -34.364  1.00  0.00     0.196 C 
ATOM     18  H7  UNL     1      11.364  48.296 -36.295  1.00  0.00     0.197 HD
HETATM   19  N8  UNL     1      11.954  49.586 -33.438  1.00  0.00    -0.171 NA
ATOM     20  H2  UNL     1       8.440  46.437 -36.073  1.00  0.00     0.205 HD
BRANCH  14  21
HETATM   21  N4  UNL     1       8.881  50.447 -35.485  1.00  0.00    -0.262 N 
HETATM   22  C10 UNL     1       8.888  51.033 -36.622  1.00  0.00     0.216 C 
HETATM   23  N5  UNL     1       8.556  50.333 -37.804  1.00  0.00    -0.065 NA
HETATM   24  N6  UNL     1       9.237  52.404 -36.687  1.00  0.00    -0.065 NA
ATOM     25  H4  UNL     1       9.122  50.960 -34.638  1.00  0.00     0.190 HD
ENDBRANCH  14  21
ENDBRANCH  10  12
ENDBRANCH   7   9
ENDBRANCH   3   4
TORSDOF 4
ENDMDL
MODEL 4
REMARK VINA RESULT: -5.642699003      7.125      9.815
REMARK  4 active torsions:
REMARK  status: ('A' for Active; 'I' for Inactive)
REMARK    1  A    between atoms: C3_3  and  C4_4 
REMARK    2  A    between atoms: C7_7  and  C8_8 
REMARK    3  A    between atoms: N1_9  and  N2_11 
REMARK       I    between atoms: N2_11  and  C9_13 
REMARK       I    between atoms: C9_13  and  N7_21 
REMARK    4  A    between atoms: N3_14  and  N4_16 
ROOT
HETATM    1  C1  UNL     1       8.097  50.574 -37.779  1.00  0.00     0.012 C 
HETATM    2  C2  UNL     1       9.078  50.755 -37.094  1.00  0.00    -0.112 C 
HETATM    3  C3  UNL     1      10.279  50.990 -36.271  1.00  0.00     0.139 C 
ENDROOT
BRANCH   3   4
HETATM    4  C4  UNL     1      10.319  49.885 -35.265  1.00  0.00    -0.006 A 
HETATM    5  C5  UNL     1      11.344  49.511 -34.450  1.00  0.00     0.017 A 
HETATM    6  C6  UNL     1      11.144  48.482 -33.622  1.00  0.00     0.021 A 
HETATM    7  C7  UNL     1       9.923  47.863 -33.643  1.00  0.00     0.022 A 
HETATM    8  S1  UNL     1       9.089  48.787 -34.859  1.00  0.00    -0.093 SA
BRANCH   7   9
HETATM    9  C8  UNL     1       9.393  46.738 -32.884  1.00  0.00     0.126 C 
HETATM   10  N1  UNL     1       9.370  45.570 -33.269  1.00  0.00    -0.296 N 
ATOM     11  H1  UNL     1       8.954  44.945 -32.579  1.00  0.00     0.186 HD
BRANCH  10  12
HETATM   12  N2  UNL     1       9.766  44.906 -34.393  1.00  0.00    -0.130 N 
HETATM   13  C9  UNL     1      11.153  44.806 -34.687  1.00  0.00     0.720 C 
HETATM   14  N3  UNL     1      11.578  45.310 -35.794  1.00  0.00    -0.128 N 
HETATM   15  N7  UNL     1      12.025  44.170 -33.776  1.00  0.00    -0.123 N 
ATOM     16  H3  UNL     1      10.918  45.762 -36.427  1.00  0.00     0.205 HD
HETATM   17  C11 UNL     1      12.948  44.915 -33.051  1.00  0.00     0.196 C 
ATOM     18  H7  UNL     1      11.977  43.160 -33.648  1.00  0.00     0.197 HD
HETATM   19  N8  UNL     1      13.707  45.553 -32.443  1.00  0.00    -0.171 NA
ATOM     20  H2  UNL     1       9.075  44.487 -35.016  1.00  0.00     0.205 HD
BRANCH  14  21
HETATM   21  N4  UNL     1      12.920  45.246 -36.139  1.00  0.00    -0.262 N 
HETATM   22  C10 UNL     1      13.249  44.725 -37.260  1.00  0.00     0.216 C 
HETATM   23  N5  UNL     1      12.269  44.219 -38.143  1.00  0.00    -0.065 NA
HETATM   24  N6  UNL     1      14.619  44.660 -37.612  1.00  0.00    -0.065 NA
ATOM     25  H4  UNL     1      13.633  45.610 -35.508  1.00  0.00     0.190 HD
ENDBRANCH  14  21
ENDBRANCH  10  12
ENDBRANCH   7   9
ENDBRANCH   3   4
TORSDOF 4
ENDMDL
MODEL 5
REMARK VINA RESULT: -5.627110240      6.242      8.587
REMARK  4 active torsions:
REMARK  status: ('A' for Active; 'I' for Inactive)
REMARK    1  A    between atoms: C3_3  and  C4_4 
REMARK    2  A    between atoms: C7_7  and  C8_8 
REMARK    3  A    between atoms: N1_9  and  N2_11 
REMARK       I    between atoms: N2_11  and  C9_13 
REMARK       I    between atoms: C9_13  and  N7_21 
REMARK    4  A    between atoms: N3_14  and  N4_16 
ROOT
HETATM    1  C1  UNL     1      19.527  44.480 -40.627  1.00  0.00     0.012 C 
HETATM    2  C2  UNL     1      18.910  44.682 -39.605  1.00  0.00    -0.112 C 
HETATM    3  C3  UNL     1      18.176  44.936 -38.352  1.00  0.00     0.139 C 
ENDROOT
BRANCH   3   4
HETATM    4  C4  UNL     1      16.796  44.398 -38.560  1.00  0.00    -0.006 A 
HETATM    5  C5  UNL     1      16.344  43.565 -39.538  1.00  0.00     0.017 A 
HETATM    6  C6  UNL     1      15.054  43.216 -39.518  1.00  0.00     0.021 A 
HETATM    7  C7  UNL     1      14.264  43.716 -38.519  1.00  0.00     0.022 A 
HETATM    8  S1  UNL     1      15.406  44.681 -37.627  1.00  0.00    -0.093 SA
BRANCH   7   9
HETATM    9  C8  UNL     1      12.850  43.536 -38.218  1.00  0.00     0.126 C 
HETATM   10  N1  UNL     1      12.103  44.405 -37.772  1.00  0.00    -0.296 N 
ATOM     11  H1  UNL     1      11.152  44.062 -37.635  1.00  0.00     0.186 HD
BRANCH  10  12
HETATM   12  N2  UNL     1      12.235  45.715 -37.416  1.00  0.00    -0.130 N 
HETATM   13  C9  UNL     1      11.879  46.114 -36.099  1.00  0.00     0.720 C 
HETATM   14  N3  UNL     1      10.948  46.994 -35.961  1.00  0.00    -0.128 N 
HETATM   15  N7  UNL     1      12.540  45.548 -34.986  1.00  0.00    -0.123 N 
ATOM     16  H3  UNL     1      10.493  47.379 -36.788  1.00  0.00     0.205 HD
HETATM   17  C11 UNL     1      11.870  44.667 -34.145  1.00  0.00     0.196 C 
ATOM     18  H7  UNL     1      13.513  45.788 -34.797  1.00  0.00     0.197 HD
HETATM   19  N8  UNL     1      11.300  43.921 -33.459  1.00  0.00    -0.171 NA
ATOM     20  H2  UNL     1      12.584  46.400 -38.086  1.00  0.00     0.205 HD
BRANCH  14  21
HETATM   21  N4  UNL     1      10.553  47.424 -34.703  1.00  0.00    -0.262 N 
HETATM   22  C10 UNL     1      10.042  48.590 -34.577  1.00  0.00     0.216 C 
HETATM   23  N5  UNL     1       9.876  49.436 -35.697  1.00  0.00    -0.065 NA
HETATM   24  N6  UNL     1       9.640  49.029 -33.293  1.00  0.00    -0.065 NA
ATOM     25  H4  UNL     1      10.669  46.820 -33.889  1.00  0.00     0.190 HD
ENDBRANCH  14  21
ENDBRANCH  10  12
ENDBRANCH   7   9
ENDBRANCH   3   4
TORSDOF 4
ENDMDL
