MODEL 1
REMARK VINA RESULT: -6.870961369      0.000      0.000
REMARK  4 active torsions:
REMARK  status: ('A' for Active; 'I' for Inactive)
REMARK       I    between atoms: C1_2  and  N2_4 
REMARK       I    between atoms: N2_4  and  C2_6 
REMARK       I    between atoms: C2_6  and  N3_8 
REMARK    1  A    between atoms: N3_8  and  N4_10 
REMARK    2  A    between atoms: C3_12  and  C4_13 
REMARK    3  A    between atoms: C7_16  and  S1_17 
REMARK    4  A    between atoms: S1_17  and  N5_18 
ROOT
HETATM    1  C4  UNL     1      13.335  44.744 -36.985  1.00  0.00    -0.019 A 
HETATM    2  C5  UNL     1      13.232  46.121 -36.979  1.00  0.00     0.014 A 
HETATM    3  C6  UNL     1      12.240  46.729 -36.231  1.00  0.00     0.026 A 
HETATM    4  C7  UNL     1      11.331  46.018 -35.474  1.00  0.00     0.079 A 
HETATM    5  C8  UNL     1      11.439  44.644 -35.484  1.00  0.00     0.026 A 
HETATM    6  C9  UNL     1      12.432  44.037 -36.234  1.00  0.00     0.014 A 
ENDROOT
BRANCH   1   7
HETATM    7  C3  UNL     1      14.378  44.061 -37.770  1.00  0.00     0.118 C 
HETATM    8  N4  UNL     1      15.610  44.284 -37.470  1.00  0.00    -0.307 N 
ATOM      9  H4  UNL     1      15.871  44.914 -36.712  1.00  0.00     0.186 HD
BRANCH   8  10
HETATM   10  N3  UNL     1      16.593  43.603 -38.255  1.00  0.00    -0.252 N 
HETATM   11  C2  UNL     1      17.687  44.350 -38.688  1.00  0.00     0.342 C 
HETATM   12  N2  UNL     1      18.755  43.874 -39.464  1.00  0.00    -0.262 N 
HETATM   13  O2  UNL     1      17.741  45.585 -38.358  1.00  0.00    -0.245 OA
HETATM   14  C1  UNL     1      18.880  42.559 -39.923  1.00  0.00     0.336 C 
ATOM     15  H2  UNL     1      19.492  44.533 -39.711  1.00  0.00     0.175 HD
HETATM   16  N1  UNL     1      20.031  42.172 -40.721  1.00  0.00    -0.040 NA
HETATM   17  O1  UNL     1      18.079  41.624 -39.720  1.00  0.00    -0.251 OA
ATOM     18  H3  UNL     1      16.497  42.614 -38.488  1.00  0.00     0.191 HD
ENDBRANCH   8  10
ENDBRANCH   1   7
BRANCH   4  19
HETATM   19  S1  UNL     1      10.086  46.841 -34.538  1.00  0.00     0.256 S 
HETATM   20  O3  UNL     1       9.365  47.825 -35.421  1.00  0.00    -0.201 OA
HETATM   21  O4  UNL     1       9.070  45.881 -34.022  1.00  0.00    -0.201 OA
BRANCH  19  22
HETATM   22  N5  UNL     1      10.901  47.661 -33.247  1.00  0.00    -0.324 N 
ATOM     23  H52 UNL     1      10.967  48.671 -33.126  1.00  0.00     0.169 HD
ATOM     24  H51 UNL     1      11.295  46.937 -32.647  1.00  0.00     0.169 HD
ENDBRANCH  19  22
ENDBRANCH   4  19
TORSDOF 4
ENDMDL
MODEL 2
REMARK VINA RESULT: -6.813205830      0.033      1.080
REMARK  4 active torsions:
REMARK  status: ('A' for Active; 'I' for Inactive)
REMARK       I    between atoms: C1_2  and  N2_4 
REMARK       I    between atoms: N2_4  and  C2_6 
REMARK       I    between atoms: C2_6  and  N3_8 
REMARK    1  A    between atoms: N3_8  and  N4_10 
REMARK    2  A    between atoms: C3_12  and  C4_13 
REMARK    3  A    between atoms: C7_16  and  S1_17 
REMARK    4  A    between atoms: S1_17  and  N5_18 
ROOT
HETATM    1  C4  UNL     1      13.320  44.739 -36.974  1.00  0.00    -0.019 A 
HETATM    2  C5  UNL     1      12.407  44.023 -36.225  1.00  0.00     0.014 A 
HETATM    3  C6  UNL     1      11.440  44.696 -35.500  1.00  0.00     0.026 A 
HETATM    4  C7  UNL     1      11.336  46.072 -35.487  1.00  0.00     0.079 A 
HETATM    5  C8  UNL     1      12.250  46.781 -36.236  1.00  0.00     0.026 A 
HETATM    6  C9  UNL     1      13.218  46.106 -36.961  1.00  0.00     0.014 A 
ENDROOT
BRANCH   1   7
HETATM    7  C3  UNL     1      14.364  44.057 -37.759  1.00  0.00     0.118 C 
HETATM    8  N4  UNL     1      15.595  44.298 -37.473  1.00  0.00    -0.307 N 
ATOM      9  H4  UNL     1      15.856  44.941 -36.725  1.00  0.00     0.186 HD
BRANCH   8  10
HETATM   10  N3  UNL     1      16.580  43.617 -38.256  1.00  0.00    -0.252 N 
HETATM   11  C2  UNL     1      17.678  44.363 -38.681  1.00  0.00     0.342 C 
HETATM   12  N2  UNL     1      18.748  43.886 -39.455  1.00  0.00    -0.262 N 
HETATM   13  O2  UNL     1      17.734  45.596 -38.345  1.00  0.00    -0.245 OA
HETATM   14  C1  UNL     1      18.871  42.573 -39.919  1.00  0.00     0.336 C 
ATOM     15  H2  UNL     1      19.488  44.544 -39.696  1.00  0.00     0.175 HD
HETATM   16  N1  UNL     1      20.023  42.186 -40.714  1.00  0.00    -0.040 NA
HETATM   17  O1  UNL     1      18.066  41.639 -39.723  1.00  0.00    -0.251 OA
ATOM     18  H3  UNL     1      16.482  42.629 -38.493  1.00  0.00     0.191 HD
ENDBRANCH   8  10
ENDBRANCH   1   7
BRANCH   4  19
HETATM   19  S1  UNL     1      10.086  46.882 -34.546  1.00  0.00     0.256 S 
HETATM   20  O3  UNL     1       9.355  47.861 -35.426  1.00  0.00    -0.201 OA
HETATM   21  O4  UNL     1       9.080  45.912 -34.029  1.00  0.00    -0.201 OA
BRANCH  19  22
HETATM   22  N5  UNL     1      10.897  47.707 -33.257  1.00  0.00    -0.324 N 
ATOM     23  H52 UNL     1      11.722  48.299 -33.349  1.00  0.00     0.169 HD
ATOM     24  H51 UNL     1      10.388  47.482 -32.402  1.00  0.00     0.169 HD
ENDBRANCH  19  22
ENDBRANCH   4  19
TORSDOF 4
ENDMDL
MODEL 3
REMARK VINA RESULT: -6.337652486      1.074      1.186
REMARK  4 active torsions:
REMARK  status: ('A' for Active; 'I' for Inactive)
REMARK       I    between atoms: C1_2  and  N2_4 
REMARK       I    between atoms: N2_4  and  C2_6 
REMARK       I    between atoms: C2_6  and  N3_8 
REMARK    1  A    between atoms: N3_8  and  N4_10 
REMARK    2  A    between atoms: C3_12  and  C4_13 
REMARK    3  A    between atoms: C7_16  and  S1_17 
REMARK    4  A    between atoms: S1_17  and  N5_18 
ROOT
HETATM    1  C4  UNL     1      13.447  45.058 -36.762  1.00  0.00    -0.019 A 
HETATM    2  C5  UNL     1      12.979  46.354 -36.673  1.00  0.00     0.014 A 
HETATM    3  C6  UNL     1      12.032  46.675 -35.717  1.00  0.00     0.026 A 
HETATM    4  C7  UNL     1      11.521  45.752 -34.829  1.00  0.00     0.079 A 
HETATM    5  C8  UNL     1      11.991  44.459 -34.923  1.00  0.00     0.026 A 
HETATM    6  C9  UNL     1      12.938  44.139 -35.881  1.00  0.00     0.014 A 
ENDROOT
BRANCH   1   7
HETATM    7  C3  UNL     1      14.455  44.678 -37.767  1.00  0.00     0.118 C 
HETATM    8  N4  UNL     1      15.692  44.660 -37.413  1.00  0.00    -0.307 N 
ATOM      9  H4  UNL     1      15.981  44.900 -36.464  1.00  0.00     0.186 HD
BRANCH   8  10
HETATM   10  N3  UNL     1      16.640  44.287 -38.417  1.00  0.00    -0.252 N 
HETATM   11  C2  UNL     1      17.980  44.240 -38.036  1.00  0.00     0.342 C 
HETATM   12  N2  UNL     1      19.060  43.900 -38.865  1.00  0.00    -0.262 N 
HETATM   13  O2  UNL     1      18.273  44.531 -36.825  1.00  0.00    -0.245 OA
HETATM   14  C1  UNL     1      18.949  43.551 -40.214  1.00  0.00     0.336 C 
ATOM     15  H2  UNL     1      19.994  43.907 -38.454  1.00  0.00     0.175 HD
HETATM   16  N1  UNL     1      20.136  43.214 -40.981  1.00  0.00    -0.040 NA
HETATM   17  O1  UNL     1      17.894  43.490 -40.879  1.00  0.00    -0.251 OA
ATOM     18  H3  UNL     1      16.348  44.064 -39.369  1.00  0.00     0.191 HD
ENDBRANCH   8  10
ENDBRANCH   1   7
BRANCH   4  19
HETATM   19  S1  UNL     1      10.316  46.212 -33.630  1.00  0.00     0.256 S 
HETATM   20  O3  UNL     1       8.939  45.937 -34.174  1.00  0.00    -0.201 OA
HETATM   21  O4  UNL     1      10.465  45.419 -32.377  1.00  0.00    -0.201 OA
BRANCH  19  22
HETATM   22  N5  UNL     1      10.531  47.907 -33.341  1.00  0.00    -0.324 N 
ATOM     23  H52 UNL     1      10.199  48.423 -32.527  1.00  0.00     0.169 HD
ATOM     24  H51 UNL     1      11.050  48.273 -34.139  1.00  0.00     0.169 HD
ENDBRANCH  19  22
ENDBRANCH   4  19
TORSDOF 4
ENDMDL
MODEL 4
REMARK VINA RESULT: -6.248253747      1.275      1.284
REMARK  4 active torsions:
REMARK  status: ('A' for Active; 'I' for Inactive)
REMARK       I    between atoms: C1_2  and  N2_4 
REMARK       I    between atoms: N2_4  and  C2_6 
REMARK       I    between atoms: C2_6  and  N3_8 
REMARK    1  A    between atoms: N3_8  and  N4_10 
REMARK    2  A    between atoms: C3_12  and  C4_13 
REMARK    3  A    between atoms: C7_16  and  S1_17 
REMARK    4  A    between atoms: S1_17  and  N5_18 
ROOT
HETATM    1  C4  UNL     1      13.563  44.898 -36.916  1.00  0.00    -0.019 A 
HETATM    2  C5  UNL     1      13.106  46.199 -36.838  1.00  0.00     0.014 A 
HETATM    3  C6  UNL     1      12.146  46.530 -35.899  1.00  0.00     0.026 A 
HETATM    4  C7  UNL     1      11.612  45.613 -35.017  1.00  0.00     0.079 A 
HETATM    5  C8  UNL     1      12.072  44.317 -35.100  1.00  0.00     0.026 A 
HETATM    6  C9  UNL     1      13.032  43.986 -36.042  1.00  0.00     0.014 A 
ENDROOT
BRANCH   1   7
HETATM    7  C3  UNL     1      14.584  44.507 -37.903  1.00  0.00     0.118 C 
HETATM    8  N4  UNL     1      15.817  44.764 -37.640  1.00  0.00    -0.307 N 
ATOM      9  H4  UNL     1      16.095  45.227 -36.773  1.00  0.00     0.186 HD
BRANCH   8  10
HETATM   10  N3  UNL     1      16.778  44.370 -38.623  1.00  0.00    -0.252 N 
HETATM   11  C2  UNL     1      18.088  44.175 -38.186  1.00  0.00     0.342 C 
HETATM   12  N2  UNL     1      19.174  43.790 -38.987  1.00  0.00    -0.262 N 
HETATM   13  O2  UNL     1      18.342  44.360 -36.946  1.00  0.00    -0.245 OA
HETATM   14  C1  UNL     1      19.101  43.540 -40.360  1.00  0.00     0.336 C 
ATOM     15  H2  UNL     1      20.082  43.684 -38.534  1.00  0.00     0.175 HD
HETATM   16  N1  UNL     1      20.291  43.144 -41.093  1.00  0.00    -0.040 NA
HETATM   17  O1  UNL     1      18.081  43.619 -41.075  1.00  0.00    -0.251 OA
ATOM     18  H3  UNL     1      16.517  44.237 -39.600  1.00  0.00     0.191 HD
ENDBRANCH   8  10
ENDBRANCH   1   7
BRANCH   4  19
HETATM   19  S1  UNL     1      10.391  46.087 -33.839  1.00  0.00     0.256 S 
HETATM   20  O3  UNL     1      10.670  47.490 -33.368  1.00  0.00    -0.201 OA
HETATM   21  O4  UNL     1       9.027  46.082 -34.437  1.00  0.00    -0.201 OA
BRANCH  19  22
HETATM   22  N5  UNL     1      10.515  44.965 -32.524  1.00  0.00    -0.324 N 
ATOM     23  H52 UNL     1      11.367  44.504 -32.209  1.00  0.00     0.169 HD
ATOM     24  H51 UNL     1       9.576  44.865 -32.139  1.00  0.00     0.169 HD
ENDBRANCH  19  22
ENDBRANCH   4  19
TORSDOF 4
ENDMDL
MODEL 5
REMARK VINA RESULT: -6.192938586      1.466      1.990
REMARK  4 active torsions:
REMARK  status: ('A' for Active; 'I' for Inactive)
REMARK       I    between atoms: C1_2  and  N2_4 
REMARK       I    between atoms: N2_4  and  C2_6 
REMARK       I    between atoms: C2_6  and  N3_8 
REMARK    1  A    between atoms: N3_8  and  N4_10 
REMARK    2  A    between atoms: C3_12  and  C4_13 
REMARK    3  A    between atoms: C7_16  and  S1_17 
REMARK    4  A    between atoms: S1_17  and  N5_18 
ROOT
HETATM    1  C4  UNL     1      13.617  44.812 -37.334  1.00  0.00    -0.019 A 
HETATM    2  C5  UNL     1      12.735  43.964 -36.694  1.00  0.00     0.014 A 
HETATM    3  C6  UNL     1      11.749  44.492 -35.879  1.00  0.00     0.026 A 
HETATM    4  C7  UNL     1      11.597  45.847 -35.668  1.00  0.00     0.079 A 
HETATM    5  C8  UNL     1      12.481  46.688 -36.310  1.00  0.00     0.026 A 
HETATM    6  C9  UNL     1      13.467  46.158 -37.124  1.00  0.00     0.014 A 
ENDROOT
BRANCH   1   7
HETATM    7  C3  UNL     1      14.680  44.287 -38.209  1.00  0.00     0.118 C 
HETATM    8  N4  UNL     1      15.879  44.231 -37.744  1.00  0.00    -0.307 N 
ATOM      9  H4  UNL     1      16.102  44.538 -36.797  1.00  0.00     0.186 HD
BRANCH   8  10
HETATM   10  N3  UNL     1      16.883  43.715 -38.623  1.00  0.00    -0.252 N 
HETATM   11  C2  UNL     1      17.266  42.388 -38.438  1.00  0.00     0.342 C 
HETATM   12  N2  UNL     1      18.229  41.697 -39.190  1.00  0.00    -0.262 N 
HETATM   13  O2  UNL     1      16.700  41.722 -37.503  1.00  0.00    -0.245 OA
HETATM   14  C1  UNL     1      18.955  42.246 -40.250  1.00  0.00     0.336 C 
ATOM     15  H2  UNL     1      18.412  40.724 -38.945  1.00  0.00     0.175 HD
HETATM   16  N1  UNL     1      19.930  41.438 -40.963  1.00  0.00    -0.040 NA
HETATM   17  O1  UNL     1      18.864  43.413 -40.686  1.00  0.00    -0.251 OA
ATOM     18  H3  UNL     1      17.299  44.294 -39.353  1.00  0.00     0.191 HD
ENDBRANCH   8  10
ENDBRANCH   1   7
BRANCH   4  19
HETATM   19  S1  UNL     1      10.325  46.468 -34.621  1.00  0.00     0.256 S 
HETATM   20  O3  UNL     1      10.943  47.265 -33.503  1.00  0.00    -0.201 OA
HETATM   21  O4  UNL     1       9.407  47.379 -35.361  1.00  0.00    -0.201 OA
BRANCH  19  22
HETATM   22  N5  UNL     1       9.485  45.088 -33.995  1.00  0.00    -0.324 N 
ATOM     23  H52 UNL     1       9.127  44.983 -33.046  1.00  0.00     0.169 HD
ATOM     24  H51 UNL     1       9.423  44.415 -34.759  1.00  0.00     0.169 HD
ENDBRANCH  19  22
ENDBRANCH   4  19
TORSDOF 4
ENDMDL
