MODEL 1
REMARK VINA RESULT: -6.613682003      0.000      0.000
REMARK  7 active torsions:
REMARK  status: ('A' for Active; 'I' for Inactive)
REMARK    1  A    between atoms: C1_2  and  O2_4 
REMARK    2  A    between atoms: O2_4  and  C2_5 
REMARK    3  A    between atoms: C5_8  and  C6_9 
REMARK    4  A    between atoms: C7_10  and  N2_11 
REMARK    5  A    between atoms: C7_10  and  C8_19 
REMARK    6  A    between atoms: N2_11  and  S1_13 
REMARK    7  A    between atoms: S1_13  and  N3_14 
ROOT
HETATM    1  C6  UNL     1      11.958  47.112 -35.929  1.00  0.00     0.048 C 
HETATM    2  C7  UNL     1      11.732  47.117 -34.645  1.00  0.00     0.121 C 
ENDROOT
BRANCH   2   3
HETATM    3  N2  UNL     1      12.046  46.016 -33.825  1.00  0.00    -0.261 N 
ATOM      4  H2  UNL     1      12.990  45.983 -33.440  1.00  0.00     0.180 HD
BRANCH   3   5
HETATM    5  S1  UNL     1      11.011  44.744 -33.415  1.00  0.00     0.317 S 
HETATM    6  O3  UNL     1      10.795  44.770 -31.922  1.00  0.00    -0.183 OA
HETATM    7  O4  UNL     1      11.551  43.387 -33.788  1.00  0.00    -0.183 OA
BRANCH   5   8
HETATM    8  N3  UNL     1       9.467  44.870 -34.157  1.00  0.00    -0.311 N 
ATOM      9  H32 UNL     1       9.279  44.526 -35.099  1.00  0.00     0.170 HD
ATOM     10  H31 UNL     1       8.773  45.319 -33.559  1.00  0.00     0.170 HD
ENDBRANCH   5   8
ENDBRANCH   3   5
ENDBRANCH   2   3
BRANCH   2  11
HETATM   11  C8  UNL     1      11.099  48.301 -34.029  1.00  0.00     0.227 C 
HETATM   12  O5  UNL     1       9.883  48.242 -33.647  1.00  0.00    -0.643 OA
HETATM   13  O6  UNL     1      11.806  49.442 -33.869  1.00  0.00    -0.643 OA
ENDBRANCH   2  11
BRANCH   1  14
HETATM   14  C5  UNL     1      12.533  46.053 -36.715  1.00  0.00    -0.034 A 
HETATM   15  C4  UNL     1      11.833  45.065 -37.365  1.00  0.00     0.014 A 
HETATM   16  C3  UNL     1      12.459  44.083 -38.123  1.00  0.00     0.038 A 
HETATM   17  C2  UNL     1      13.819  44.052 -38.259  1.00  0.00     0.080 A 
HETATM   18  C10 UNL     1      14.526  45.040 -37.609  1.00  0.00     0.038 A 
HETATM   19  C9  UNL     1      13.921  46.016 -36.857  1.00  0.00     0.014 A 
BRANCH  17  20
HETATM   20  O2  UNL     1      14.475  43.092 -39.005  1.00  0.00    -0.264 OA
BRANCH  20  21
HETATM   21  C1  UNL     1      15.842  42.909 -39.029  1.00  0.00     0.378 C 
HETATM   22  N1  UNL     1      16.571  42.164 -38.071  1.00  0.00    -0.032 NA
HETATM   23  O1  UNL     1      16.482  43.444 -39.968  1.00  0.00    -0.242 OA
ENDBRANCH  20  21
ENDBRANCH  17  20
ENDBRANCH   1  14
TORSDOF 7
ENDMDL
MODEL 2
REMARK VINA RESULT: -6.594796566      1.186      1.960
REMARK  7 active torsions:
REMARK  status: ('A' for Active; 'I' for Inactive)
REMARK    1  A    between atoms: C1_2  and  O2_4 
REMARK    2  A    between atoms: O2_4  and  C2_5 
REMARK    3  A    between atoms: C5_8  and  C6_9 
REMARK    4  A    between atoms: C7_10  and  N2_11 
REMARK    5  A    between atoms: C7_10  and  C8_19 
REMARK    6  A    between atoms: N2_11  and  S1_13 
REMARK    7  A    between atoms: S1_13  and  N3_14 
ROOT
HETATM    1  C6  UNL     1      11.483  46.694 -36.257  1.00  0.00     0.048 C 
HETATM    2  C7  UNL     1      10.679  46.432 -35.263  1.00  0.00     0.121 C 
ENDROOT
BRANCH   2   3
HETATM    3  N2  UNL     1      10.585  45.146 -34.696  1.00  0.00    -0.261 N 
ATOM      4  H2  UNL     1      10.037  44.456 -35.208  1.00  0.00     0.180 HD
BRANCH   3   5
HETATM    5  S1  UNL     1      11.293  44.636 -33.249  1.00  0.00     0.317 S 
HETATM    6  O3  UNL     1      11.662  43.180 -33.388  1.00  0.00    -0.183 OA
HETATM    7  O4  UNL     1      10.386  44.779 -32.053  1.00  0.00    -0.183 OA
BRANCH   5   8
HETATM    8  N3  UNL     1      12.732  45.492 -32.866  1.00  0.00    -0.311 N 
ATOM      9  H32 UNL     1      12.864  45.980 -31.979  1.00  0.00     0.170 HD
ATOM     10  H31 UNL     1      13.427  45.459 -33.612  1.00  0.00     0.170 HD
ENDBRANCH   5   8
ENDBRANCH   3   5
ENDBRANCH   2   3
BRANCH   2  11
HETATM   11  C8  UNL     1       9.816  47.506 -34.732  1.00  0.00     0.227 C 
HETATM   12  O5  UNL     1       9.849  47.788 -33.489  1.00  0.00    -0.643 OA
HETATM   13  O6  UNL     1       8.996  48.190 -35.562  1.00  0.00    -0.643 OA
ENDBRANCH   2  11
BRANCH   1  14
HETATM   14  C5  UNL     1      12.373  45.785 -36.930  1.00  0.00    -0.034 A 
HETATM   15  C4  UNL     1      13.599  45.372 -36.467  1.00  0.00     0.014 A 
HETATM   16  C3  UNL     1      14.396  44.475 -37.167  1.00  0.00     0.038 A 
HETATM   17  C2  UNL     1      13.993  43.955 -38.365  1.00  0.00     0.080 A 
HETATM   18  C10 UNL     1      12.765  44.366 -38.835  1.00  0.00     0.038 A 
HETATM   19  C9  UNL     1      11.967  45.251 -38.154  1.00  0.00     0.014 A 
BRANCH  17  20
HETATM   20  O2  UNL     1      14.759  43.060 -39.088  1.00  0.00    -0.264 OA
BRANCH  20  21
HETATM   21  C1  UNL     1      16.128  42.933 -38.988  1.00  0.00     0.378 C 
HETATM   22  N1  UNL     1      17.062  43.616 -39.803  1.00  0.00    -0.032 NA
HETATM   23  O1  UNL     1      16.576  42.152 -38.111  1.00  0.00    -0.242 OA
ENDBRANCH  20  21
ENDBRANCH  17  20
ENDBRANCH   1  14
TORSDOF 7
ENDMDL
MODEL 3
REMARK VINA RESULT: -6.560018957      1.389      1.803
REMARK  7 active torsions:
REMARK  status: ('A' for Active; 'I' for Inactive)
REMARK    1  A    between atoms: C1_2  and  O2_4 
REMARK    2  A    between atoms: O2_4  and  C2_5 
REMARK    3  A    between atoms: C5_8  and  C6_9 
REMARK    4  A    between atoms: C7_10  and  N2_11 
REMARK    5  A    between atoms: C7_10  and  C8_19 
REMARK    6  A    between atoms: N2_11  and  S1_13 
REMARK    7  A    between atoms: S1_13  and  N3_14 
ROOT
HETATM    1  C6  UNL     1      11.536  46.588 -36.347  1.00  0.00     0.048 C 
HETATM    2  C7  UNL     1      10.742  46.303 -35.352  1.00  0.00     0.121 C 
ENDROOT
BRANCH   2   3
HETATM    3  N2  UNL     1      10.686  45.015 -34.785  1.00  0.00    -0.261 N 
ATOM      4  H2  UNL     1      10.157  44.310 -35.296  1.00  0.00     0.180 HD
BRANCH   3   5
HETATM    5  S1  UNL     1      11.411  44.526 -33.339  1.00  0.00     0.317 S 
HETATM    6  O3  UNL     1      12.687  45.311 -33.158  1.00  0.00    -0.183 OA
HETATM    7  O4  UNL     1      11.753  43.058 -33.305  1.00  0.00    -0.183 OA
BRANCH   5   8
HETATM    8  N3  UNL     1      10.430  44.824 -31.960  1.00  0.00    -0.311 N 
ATOM      9  H32 UNL     1       9.676  45.513 -31.960  1.00  0.00     0.170 HD
ATOM     10  H31 UNL     1      10.681  44.246 -31.159  1.00  0.00     0.170 HD
ENDBRANCH   5   8
ENDBRANCH   3   5
ENDBRANCH   2   3
BRANCH   2  11
HETATM   11  C8  UNL     1       9.848  47.352 -34.820  1.00  0.00     0.227 C 
HETATM   12  O5  UNL     1       9.060  47.972 -35.608  1.00  0.00    -0.643 OA
HETATM   13  O6  UNL     1       9.864  47.651 -33.501  1.00  0.00    -0.643 OA
ENDBRANCH   2  11
BRANCH   1  14
HETATM   14  C5  UNL     1      12.451  45.706 -37.021  1.00  0.00    -0.034 A 
HETATM   15  C4  UNL     1      13.698  45.344 -36.568  1.00  0.00     0.014 A 
HETATM   16  C3  UNL     1      14.519  44.470 -37.269  1.00  0.00     0.038 A 
HETATM   17  C2  UNL     1      14.122  43.921 -38.456  1.00  0.00     0.080 A 
HETATM   18  C10 UNL     1      12.874  44.281 -38.915  1.00  0.00     0.038 A 
HETATM   19  C9  UNL     1      12.052  45.143 -38.234  1.00  0.00     0.014 A 
BRANCH  17  20
HETATM   20  O2  UNL     1      14.913  43.048 -39.178  1.00  0.00    -0.264 OA
BRANCH  20  21
HETATM   21  C1  UNL     1      16.278  42.919 -39.039  1.00  0.00     0.378 C 
HETATM   22  N1  UNL     1      17.236  43.613 -39.818  1.00  0.00    -0.032 NA
HETATM   23  O1  UNL     1      16.700  42.129 -38.158  1.00  0.00    -0.242 OA
ENDBRANCH  20  21
ENDBRANCH  17  20
ENDBRANCH   1  14
TORSDOF 7
ENDMDL
MODEL 4
REMARK VINA RESULT: -6.420520671      0.920      1.435
REMARK  7 active torsions:
REMARK  status: ('A' for Active; 'I' for Inactive)
REMARK    1  A    between atoms: C1_2  and  O2_4 
REMARK    2  A    between atoms: O2_4  and  C2_5 
REMARK    3  A    between atoms: C5_8  and  C6_9 
REMARK    4  A    between atoms: C7_10  and  N2_11 
REMARK    5  A    between atoms: C7_10  and  C8_19 
REMARK    6  A    between atoms: N2_11  and  S1_13 
REMARK    7  A    between atoms: S1_13  and  N3_14 
ROOT
HETATM    1  C6  UNL     1      11.856  46.654 -36.322  1.00  0.00     0.048 C 
HETATM    2  C7  UNL     1      11.120  46.437 -35.267  1.00  0.00     0.121 C 
ENDROOT
BRANCH   2   3
HETATM    3  N2  UNL     1      10.950  45.148 -34.724  1.00  0.00    -0.261 N 
ATOM      4  H2  UNL     1      10.502  44.453 -35.321  1.00  0.00     0.180 HD
BRANCH   3   5
HETATM    5  S1  UNL     1      11.418  44.642 -33.182  1.00  0.00     0.317 S 
HETATM    6  O3  UNL     1      11.719  43.164 -33.238  1.00  0.00    -0.183 OA
HETATM    7  O4  UNL     1      10.362  44.866 -32.129  1.00  0.00    -0.183 OA
BRANCH   5   8
HETATM    8  N3  UNL     1      12.837  45.430 -32.617  1.00  0.00    -0.311 N 
ATOM      9  H32 UNL     1      13.731  45.368 -33.104  1.00  0.00     0.170 HD
ATOM     10  H31 UNL     1      12.685  45.956 -31.756  1.00  0.00     0.170 HD
ENDBRANCH   5   8
ENDBRANCH   3   5
ENDBRANCH   2   3
BRANCH   2  11
HETATM   11  C8  UNL     1      10.414  47.570 -34.635  1.00  0.00     0.227 C 
HETATM   12  O5  UNL     1       9.361  48.043 -35.178  1.00  0.00    -0.643 OA
HETATM   13  O6  UNL     1      10.882  48.103 -33.483  1.00  0.00    -0.643 OA
ENDBRANCH   2  11
BRANCH   1  14
HETATM   14  C5  UNL     1      12.592  45.687 -37.093  1.00  0.00    -0.034 A 
HETATM   15  C4  UNL     1      12.137  45.045 -38.219  1.00  0.00     0.014 A 
HETATM   16  C3  UNL     1      12.916  44.134 -38.922  1.00  0.00     0.038 A 
HETATM   17  C2  UNL     1      14.187  43.830 -38.523  1.00  0.00     0.080 A 
HETATM   18  C10 UNL     1      14.648  44.471 -37.393  1.00  0.00     0.038 A 
HETATM   19  C9  UNL     1      13.890  45.373 -36.688  1.00  0.00     0.014 A 
BRANCH  17  20
HETATM   20  O2  UNL     1      14.989  42.931 -39.198  1.00  0.00    -0.264 OA
BRANCH  20  21
HETATM   21  C1  UNL     1      16.364  42.873 -39.103  1.00  0.00     0.378 C 
HETATM   22  N1  UNL     1      17.073  42.089 -38.161  1.00  0.00    -0.032 NA
HETATM   23  O1  UNL     1      17.030  43.568 -39.910  1.00  0.00    -0.242 OA
ENDBRANCH  20  21
ENDBRANCH  17  20
ENDBRANCH   1  14
TORSDOF 7
ENDMDL
MODEL 5
REMARK VINA RESULT: -6.400081632      1.958      2.861
REMARK  7 active torsions:
REMARK  status: ('A' for Active; 'I' for Inactive)
REMARK    1  A    between atoms: C1_2  and  O2_4 
REMARK    2  A    between atoms: O2_4  and  C2_5 
REMARK    3  A    between atoms: C5_8  and  C6_9 
REMARK    4  A    between atoms: C7_10  and  N2_11 
REMARK    5  A    between atoms: C7_10  and  C8_19 
REMARK    6  A    between atoms: N2_11  and  S1_13 
REMARK    7  A    between atoms: S1_13  and  N3_14 
ROOT
HETATM    1  C6  UNL     1      11.391  44.864 -35.188  1.00  0.00     0.048 C 
HETATM    2  C7  UNL     1      11.047  46.006 -34.659  1.00  0.00     0.121 C 
ENDROOT
BRANCH   2   3
HETATM    3  N2  UNL     1      11.509  47.235 -35.166  1.00  0.00    -0.261 N 
ATOM      4  H2  UNL     1      12.133  47.195 -35.972  1.00  0.00     0.180 HD
BRANCH   3   5
HETATM    5  S1  UNL     1      11.129  48.771 -34.571  1.00  0.00     0.317 S 
HETATM    6  O3  UNL     1      11.694  49.801 -35.518  1.00  0.00    -0.183 OA
HETATM    7  O4  UNL     1      11.689  49.038 -33.197  1.00  0.00    -0.183 OA
BRANCH   5   8
HETATM    8  N3  UNL     1       9.437  49.050 -34.464  1.00  0.00    -0.311 N 
ATOM      9  H32 UNL     1       8.759  48.550 -35.039  1.00  0.00     0.170 HD
ATOM     10  H31 UNL     1       9.193  49.760 -33.774  1.00  0.00     0.170 HD
ENDBRANCH   5   8
ENDBRANCH   3   5
ENDBRANCH   2   3
BRANCH   2  11
HETATM   11  C8  UNL     1      10.169  46.014 -33.471  1.00  0.00     0.227 C 
HETATM   12  O5  UNL     1       8.906  46.116 -33.618  1.00  0.00    -0.643 OA
HETATM   13  O6  UNL     1      10.702  45.910 -32.233  1.00  0.00    -0.643 OA
ENDBRANCH   2  11
BRANCH   1  14
HETATM   14  C5  UNL     1      12.254  44.645 -36.318  1.00  0.00    -0.034 A 
HETATM   15  C4  UNL     1      11.859  44.594 -37.633  1.00  0.00     0.014 A 
HETATM   16  C3  UNL     1      12.757  44.396 -38.674  1.00  0.00     0.038 A 
HETATM   17  C2  UNL     1      14.094  44.239 -38.436  1.00  0.00     0.080 A 
HETATM   18  C10 UNL     1      14.497  44.288 -37.120  1.00  0.00     0.038 A 
HETATM   19  C9  UNL     1      13.621  44.484 -36.081  1.00  0.00     0.014 A 
BRANCH  17  20
HETATM   20  O2  UNL     1      15.016  44.041 -39.447  1.00  0.00    -0.264 OA
BRANCH  20  21
HETATM   21  C1  UNL     1      16.330  43.673 -39.254  1.00  0.00     0.378 C 
HETATM   22  N1  UNL     1      17.378  44.568 -38.931  1.00  0.00    -0.032 NA
HETATM   23  O1  UNL     1      16.615  42.456 -39.377  1.00  0.00    -0.242 OA
ENDBRANCH  20  21
ENDBRANCH  17  20
ENDBRANCH   1  14
TORSDOF 7
ENDMDL
