MODEL 1
REMARK VINA RESULT: -7.059988612      0.000      0.000
REMARK  8 active torsions:
REMARK  status: ('A' for Active; 'I' for Inactive)
REMARK    1  A    between atoms: C2_2  and  O1_3 
REMARK    2  A    between atoms: C2_2  and  C3_5 
REMARK    3  A    between atoms: C3_5  and  N1_6 
REMARK    4  A    between atoms: C3_5  and  C13_22 
REMARK       I    between atoms: N1_6  and  C4_8 
REMARK    5  A    between atoms: C4_8  and  C5_10 
REMARK    6  A    between atoms: C8_13  and  C9_14 
REMARK    7  A    between atoms: C8_13  and  C10_17 
REMARK    8  A    between atoms: C13_22  and  C14_24 
ROOT
HETATM    1  N1  UNL     1     -36.487 -45.892  12.603  1.00  0.00    -0.346 N 
ATOM      2  H1  UNL     1     -36.231 -46.541  13.347  1.00  0.00     0.163 HD
HETATM    3  C4  UNL     1     -37.489 -44.937  12.867  1.00  0.00     0.222 C 
HETATM    4  O2  UNL     1     -37.789 -44.137  11.917  1.00  0.00    -0.273 OA
ENDROOT
BRANCH   3   5
HETATM    5  C5  UNL     1     -38.151 -44.870  14.166  1.00  0.00     0.078 C 
HETATM    6  C6  UNL     1     -37.149 -44.690  15.298  1.00  0.00     0.016 C 
HETATM    7  C7  UNL     1     -37.916 -44.898  16.582  1.00  0.00     0.033 C 
HETATM    8  C8  UNL     1     -38.913 -43.798  16.727  1.00  0.00     0.136 C 
HETATM    9  C11 UNL     1     -39.783 -43.564  15.549  1.00  0.00     0.033 C 
HETATM   10  C12 UNL     1     -39.151 -43.757  14.219  1.00  0.00     0.016 C 
BRANCH   8  11
HETATM   11  C9  UNL     1     -39.815 -44.065  17.905  1.00  0.00     0.193 C 
HETATM   12  O3  UNL     1     -40.851 -43.366  18.107  1.00  0.00    -0.647 OA
HETATM   13  O4  UNL     1     -39.507 -45.094  18.785  1.00  0.00    -0.647 OA
ENDBRANCH   8  11
BRANCH   8  14
HETATM   14  C10 UNL     1     -38.172 -42.545  17.075  1.00  0.00     0.193 C 
HETATM   15  O5  UNL     1     -38.057 -41.578  16.283  1.00  0.00    -0.647 OA
HETATM   16  O6  UNL     1     -37.597 -42.468  18.332  1.00  0.00    -0.647 OA
ENDBRANCH   8  14
ENDBRANCH   3   5
BRANCH   1  17
HETATM   17  C3  UNL     1     -35.793 -46.002  11.317  1.00  0.00     0.194 C 
BRANCH  17  18
HETATM   18  C2  UNL     1     -35.928 -47.464  10.886  1.00  0.00     0.144 C 
HETATM   19  C1  UNL     1     -34.863 -48.291  11.579  1.00  0.00     0.042 C 
BRANCH  18  20
HETATM   20  O1  UNL     1     -35.986 -47.656   9.548  1.00  0.00    -0.393 OA
ATOM     21  H1  UNL     1     -36.857 -47.854   9.225  1.00  0.00     0.210 HD
ENDBRANCH  18  20
ENDBRANCH  17  18
BRANCH  17  22
HETATM   22  C13 UNL     1     -34.390 -45.562  11.439  1.00  0.00     0.249 C 
HETATM   23  O7  UNL     1     -34.042 -45.191  12.610  1.00  0.00    -0.283 OA
BRANCH  22  24
HETATM   24  C14 UNL     1     -33.401 -45.506  10.408  1.00  0.00     0.249 C 
HETATM   25  O8  UNL     1     -32.228 -45.143  10.606  1.00  0.00    -0.642 OA
HETATM   26  O9  UNL     1     -33.714 -45.870   9.094  1.00  0.00    -0.642 OA
ENDBRANCH  22  24
ENDBRANCH  17  22
ENDBRANCH   1  17
TORSDOF 8
ENDMDL
MODEL 2
REMARK VINA RESULT: -7.042535289      0.822      1.022
REMARK  8 active torsions:
REMARK  status: ('A' for Active; 'I' for Inactive)
REMARK    1  A    between atoms: C2_2  and  O1_3 
REMARK    2  A    between atoms: C2_2  and  C3_5 
REMARK    3  A    between atoms: C3_5  and  N1_6 
REMARK    4  A    between atoms: C3_5  and  C13_22 
REMARK       I    between atoms: N1_6  and  C4_8 
REMARK    5  A    between atoms: C4_8  and  C5_10 
REMARK    6  A    between atoms: C8_13  and  C9_14 
REMARK    7  A    between atoms: C8_13  and  C10_17 
REMARK    8  A    between atoms: C13_22  and  C14_24 
ROOT
HETATM    1  N1  UNL     1     -36.336 -45.109  12.708  1.00  0.00    -0.346 N 
ATOM      2  H1  UNL     1     -35.861 -45.534  13.505  1.00  0.00     0.163 HD
HETATM    3  C4  UNL     1     -37.618 -44.561  12.910  1.00  0.00     0.222 C 
HETATM    4  O2  UNL     1     -38.189 -44.035  11.894  1.00  0.00    -0.273 OA
ENDROOT
BRANCH   3   5
HETATM    5  C5  UNL     1     -38.261 -44.595  14.220  1.00  0.00     0.078 C 
HETATM    6  C6  UNL     1     -37.240 -44.552  15.348  1.00  0.00     0.016 C 
HETATM    7  C7  UNL     1     -37.997 -44.856  16.619  1.00  0.00     0.033 C 
HETATM    8  C8  UNL     1     -38.958 -43.745  16.880  1.00  0.00     0.136 C 
HETATM    9  C11 UNL     1     -39.835 -43.376  15.742  1.00  0.00     0.033 C 
HETATM   10  C12 UNL     1     -39.226 -43.464  14.391  1.00  0.00     0.016 C 
BRANCH   8  11
HETATM   11  C9  UNL     1     -39.853 -44.094  18.042  1.00  0.00     0.193 C 
HETATM   12  O3  UNL     1     -40.921 -43.451  18.260  1.00  0.00    -0.647 OA
HETATM   13  O4  UNL     1     -39.503 -45.137  18.888  1.00  0.00    -0.647 OA
ENDBRANCH   8  11
BRANCH   8  14
HETATM   14  C10 UNL     1     -38.174 -42.553  17.332  1.00  0.00     0.193 C 
HETATM   15  O5  UNL     1     -38.009 -41.534  16.616  1.00  0.00    -0.647 OA
HETATM   16  O6  UNL     1     -37.616 -42.594  18.597  1.00  0.00    -0.647 OA
ENDBRANCH   8  14
ENDBRANCH   3   5
BRANCH   1  17
HETATM   17  C3  UNL     1     -35.647 -45.100  11.414  1.00  0.00     0.194 C 
BRANCH  17  18
HETATM   18  C2  UNL     1     -35.730 -46.532  10.880  1.00  0.00     0.144 C 
HETATM   19  C1  UNL     1     -35.442 -47.505  12.007  1.00  0.00     0.042 C 
BRANCH  18  20
HETATM   20  O1  UNL     1     -35.005 -46.761   9.761  1.00  0.00    -0.393 OA
ATOM     21  H1  UNL     1     -35.160 -46.131   9.067  1.00  0.00     0.210 HD
ENDBRANCH  18  20
ENDBRANCH  17  18
BRANCH  17  22
HETATM   22  C13 UNL     1     -34.261 -44.617  11.561  1.00  0.00     0.249 C 
HETATM   23  O7  UNL     1     -34.114 -43.354  11.437  1.00  0.00    -0.283 OA
BRANCH  22  24
HETATM   24  C14 UNL     1     -33.088 -45.394  11.820  1.00  0.00     0.249 C 
HETATM   25  O8  UNL     1     -32.702 -45.686  12.966  1.00  0.00    -0.642 OA
HETATM   26  O9  UNL     1     -32.301 -45.876  10.769  1.00  0.00    -0.642 OA
ENDBRANCH  22  24
ENDBRANCH  17  22
ENDBRANCH   1  17
TORSDOF 8
ENDMDL
MODEL 3
REMARK VINA RESULT: -6.107122761      1.528      7.589
REMARK  8 active torsions:
REMARK  status: ('A' for Active; 'I' for Inactive)
REMARK    1  A    between atoms: C2_2  and  O1_3 
REMARK    2  A    between atoms: C2_2  and  C3_5 
REMARK    3  A    between atoms: C3_5  and  N1_6 
REMARK    4  A    between atoms: C3_5  and  C13_22 
REMARK       I    between atoms: N1_6  and  C4_8 
REMARK    5  A    between atoms: C4_8  and  C5_10 
REMARK    6  A    between atoms: C8_13  and  C9_14 
REMARK    7  A    between atoms: C8_13  and  C10_17 
REMARK    8  A    between atoms: C13_22  and  C14_24 
ROOT
HETATM    1  N1  UNL     1     -37.802 -44.779  14.889  1.00  0.00    -0.346 N 
ATOM      2  H1  UNL     1     -36.871 -45.102  15.153  1.00  0.00     0.163 HD
HETATM    3  C4  UNL     1     -38.163 -44.829  13.528  1.00  0.00     0.222 C 
HETATM    4  O2  UNL     1     -39.335 -44.419  13.226  1.00  0.00    -0.273 OA
ENDROOT
BRANCH   3   5
HETATM    5  C5  UNL     1     -37.239 -45.328  12.515  1.00  0.00     0.078 C 
HETATM    6  C6  UNL     1     -36.294 -44.237  12.031  1.00  0.00     0.016 C 
HETATM    7  C7  UNL     1     -35.582 -44.796  10.822  1.00  0.00     0.033 C 
HETATM    8  C8  UNL     1     -34.721 -45.934  11.257  1.00  0.00     0.136 C 
HETATM    9  C11 UNL     1     -35.395 -46.968  12.078  1.00  0.00     0.033 C 
HETATM   10  C12 UNL     1     -36.433 -46.483  13.023  1.00  0.00     0.016 C 
BRANCH   8  11
HETATM   11  C9  UNL     1     -34.130 -46.627  10.056  1.00  0.00     0.193 C 
HETATM   12  O3  UNL     1     -33.981 -46.017   8.958  1.00  0.00    -0.647 OA
HETATM   13  O4  UNL     1     -33.742 -47.956  10.154  1.00  0.00    -0.647 OA
ENDBRANCH   8  11
BRANCH   8  14
HETATM   14  C10 UNL     1     -33.551 -45.370  12.001  1.00  0.00     0.193 C 
HETATM   15  O5  UNL     1     -33.033 -45.941  12.992  1.00  0.00    -0.647 OA
HETATM   16  O6  UNL     1     -33.031 -44.166  11.560  1.00  0.00    -0.647 OA
ENDBRANCH   8  14
ENDBRANCH   3   5
BRANCH   1  17
HETATM   17  C3  UNL     1     -38.692 -44.288  15.945  1.00  0.00     0.194 C 
BRANCH  17  18
HETATM   18  C2  UNL     1     -38.860 -42.788  15.694  1.00  0.00     0.144 C 
HETATM   19  C1  UNL     1     -38.358 -42.019  16.900  1.00  0.00     0.042 C 
BRANCH  18  20
HETATM   20  O1  UNL     1     -40.095 -42.418  15.284  1.00  0.00    -0.393 OA
ATOM     21  H1  UNL     1     -40.410 -41.617  15.685  1.00  0.00     0.210 HD
ENDBRANCH  18  20
ENDBRANCH  17  18
BRANCH  17  22
HETATM   22  C13 UNL     1     -38.141 -44.594  17.279  1.00  0.00     0.249 C 
HETATM   23  O7  UNL     1     -36.866 -44.601  17.347  1.00  0.00    -0.283 OA
BRANCH  22  24
HETATM   24  C14 UNL     1     -38.867 -44.877  18.478  1.00  0.00     0.249 C 
HETATM   25  O8  UNL     1     -38.394 -45.531  19.425  1.00  0.00    -0.642 OA
HETATM   26  O9  UNL     1     -40.178 -44.419  18.648  1.00  0.00    -0.642 OA
ENDBRANCH  22  24
ENDBRANCH  17  22
ENDBRANCH   1  17
TORSDOF 8
ENDMDL
MODEL 4
REMARK VINA RESULT: -5.780406734      1.657      7.622
REMARK  8 active torsions:
REMARK  status: ('A' for Active; 'I' for Inactive)
REMARK    1  A    between atoms: C2_2  and  O1_3 
REMARK    2  A    between atoms: C2_2  and  C3_5 
REMARK    3  A    between atoms: C3_5  and  N1_6 
REMARK    4  A    between atoms: C3_5  and  C13_22 
REMARK       I    between atoms: N1_6  and  C4_8 
REMARK    5  A    between atoms: C4_8  and  C5_10 
REMARK    6  A    between atoms: C8_13  and  C9_14 
REMARK    7  A    between atoms: C8_13  and  C10_17 
REMARK    8  A    between atoms: C13_22  and  C14_24 
ROOT
HETATM    1  N1  UNL     1     -38.252 -44.714  15.432  1.00  0.00    -0.346 N 
ATOM      2  H1  UNL     1     -37.369 -45.190  15.612  1.00  0.00     0.163 HD
HETATM    3  C4  UNL     1     -38.675 -44.577  14.095  1.00  0.00     0.222 C 
HETATM    4  O2  UNL     1     -39.786 -43.976  13.898  1.00  0.00    -0.273 OA
ENDROOT
BRANCH   3   5
HETATM    5  C5  UNL     1     -37.877 -45.098  12.989  1.00  0.00     0.078 C 
HETATM    6  C6  UNL     1     -37.018 -44.013  12.356  1.00  0.00     0.016 C 
HETATM    7  C7  UNL     1     -36.455 -44.603  11.085  1.00  0.00     0.033 C 
HETATM    8  C8  UNL     1     -35.527 -45.716  11.444  1.00  0.00     0.136 C 
HETATM    9  C11 UNL     1     -36.077 -46.731  12.376  1.00  0.00     0.033 C 
HETATM   10  C12 UNL     1     -36.996 -46.226  13.428  1.00  0.00     0.016 C 
BRANCH   8  11
HETATM   11  C9  UNL     1     -35.081 -46.442  10.201  1.00  0.00     0.193 C 
HETATM   12  O3  UNL     1     -35.505 -47.605   9.937  1.00  0.00    -0.647 OA
HETATM   13  O4  UNL     1     -34.192 -45.828   9.330  1.00  0.00    -0.647 OA
ENDBRANCH   8  11
BRANCH   8  14
HETATM   14  C10 UNL     1     -34.283 -45.114  12.017  1.00  0.00     0.193 C 
HETATM   15  O5  UNL     1     -33.477 -45.762  12.729  1.00  0.00    -0.647 OA
HETATM   16  O6  UNL     1     -34.025 -43.784  11.735  1.00  0.00    -0.647 OA
ENDBRANCH   8  14
ENDBRANCH   3   5
BRANCH   1  17
HETATM   17  C3  UNL     1     -39.015 -44.209  16.577  1.00  0.00     0.194 C 
BRANCH  17  18
HETATM   18  C2  UNL     1     -39.007 -42.684  16.453  1.00  0.00     0.144 C 
HETATM   19  C1  UNL     1     -37.575 -42.187  16.472  1.00  0.00     0.042 C 
BRANCH  18  20
HETATM   20  O1  UNL     1     -39.822 -42.042  17.321  1.00  0.00    -0.393 OA
ATOM     21  H1  UNL     1     -40.715 -41.949  17.014  1.00  0.00     0.210 HD
ENDBRANCH  18  20
ENDBRANCH  17  18
BRANCH  17  22
HETATM   22  C13 UNL     1     -38.436 -44.689  17.846  1.00  0.00     0.249 C 
HETATM   23  O7  UNL     1     -37.204 -45.021  17.785  1.00  0.00    -0.283 OA
BRANCH  22  24
HETATM   24  C14 UNL     1     -39.092 -44.821  19.110  1.00  0.00     0.249 C 
HETATM   25  O8  UNL     1     -38.518 -45.214  20.140  1.00  0.00    -0.642 OA
HETATM   26  O9  UNL     1     -40.448 -44.504  19.250  1.00  0.00    -0.642 OA
ENDBRANCH  22  24
ENDBRANCH  17  22
ENDBRANCH   1  17
TORSDOF 8
ENDMDL
MODEL 5
REMARK VINA RESULT: -5.728243198      1.595      7.877
REMARK  8 active torsions:
REMARK  status: ('A' for Active; 'I' for Inactive)
REMARK    1  A    between atoms: C2_2  and  O1_3 
REMARK    2  A    between atoms: C2_2  and  C3_5 
REMARK    3  A    between atoms: C3_5  and  N1_6 
REMARK    4  A    between atoms: C3_5  and  C13_22 
REMARK       I    between atoms: N1_6  and  C4_8 
REMARK    5  A    between atoms: C4_8  and  C5_10 
REMARK    6  A    between atoms: C8_13  and  C9_14 
REMARK    7  A    between atoms: C8_13  and  C10_17 
REMARK    8  A    between atoms: C13_22  and  C14_24 
ROOT
HETATM    1  N1  UNL     1     -37.760 -44.879  15.396  1.00  0.00    -0.346 N 
ATOM      2  H1  UNL     1     -36.977 -45.195  15.967  1.00  0.00     0.163 HD
HETATM    3  C4  UNL     1     -37.681 -45.052  14.000  1.00  0.00     0.222 C 
HETATM    4  O2  UNL     1     -38.677 -44.647  13.309  1.00  0.00    -0.273 OA
ENDROOT
BRANCH   3   5
HETATM    5  C5  UNL     1     -36.512 -45.666  13.376  1.00  0.00     0.078 C 
HETATM    6  C6  UNL     1     -36.837 -46.219  11.996  1.00  0.00     0.016 C 
HETATM    7  C7  UNL     1     -35.645 -47.045  11.577  1.00  0.00     0.033 C 
HETATM    8  C8  UNL     1     -34.473 -46.138  11.399  1.00  0.00     0.136 C 
HETATM    9  C11 UNL     1     -34.193 -45.226  12.535  1.00  0.00     0.033 C 
HETATM   10  C12 UNL     1     -35.377 -44.697  13.259  1.00  0.00     0.016 C 
BRANCH   8  11
HETATM   11  C9  UNL     1     -33.224 -46.944  11.151  1.00  0.00     0.193 C 
HETATM   12  O3  UNL     1     -32.101 -46.379  11.001  1.00  0.00    -0.647 OA
HETATM   13  O4  UNL     1     -33.303 -48.328  11.087  1.00  0.00    -0.647 OA
ENDBRANCH   8  11
BRANCH   8  14
HETATM   14  C10 UNL     1     -34.687 -45.348  10.146  1.00  0.00     0.193 C 
HETATM   15  O5  UNL     1     -35.077 -44.154  10.151  1.00  0.00    -0.647 OA
HETATM   16  O6  UNL     1     -34.436 -45.977   8.940  1.00  0.00    -0.647 OA
ENDBRANCH   8  14
ENDBRANCH   3   5
BRANCH   1  17
HETATM   17  C3  UNL     1     -38.910 -44.269  16.070  1.00  0.00     0.194 C 
BRANCH  17  18
HETATM   18  C2  UNL     1     -38.903 -42.793  15.670  1.00  0.00     0.144 C 
HETATM   19  C1  UNL     1     -38.056 -42.010  16.654  1.00  0.00     0.042 C 
BRANCH  18  20
HETATM   20  O1  UNL     1     -40.127 -42.259  15.455  1.00  0.00    -0.393 OA
ATOM     21  H1  UNL     1     -40.577 -42.618  14.700  1.00  0.00     0.210 HD
ENDBRANCH  18  20
ENDBRANCH  17  18
BRANCH  17  22
HETATM   22  C13 UNL     1     -38.830 -44.473  17.530  1.00  0.00     0.249 C 
HETATM   23  O7  UNL     1     -37.684 -44.836  17.961  1.00  0.00    -0.283 OA
BRANCH  22  24
HETATM   24  C14 UNL     1     -39.876 -44.311  18.491  1.00  0.00     0.249 C 
HETATM   25  O8  UNL     1     -39.955 -44.984  19.534  1.00  0.00    -0.642 OA
HETATM   26  O9  UNL     1     -40.886 -43.363  18.299  1.00  0.00    -0.642 OA
ENDBRANCH  22  24
ENDBRANCH  17  22
ENDBRANCH   1  17
TORSDOF 8
ENDMDL
