MODEL 1
REMARK VINA RESULT: -6.703688407      0.000      0.000
REMARK  11 active torsions:
REMARK  status: ('A' for Active; 'I' for Inactive)
REMARK    1  A    between atoms: C2_2  and  N1_4 
REMARK    2  A    between atoms: N1_4  and  C4_6 
REMARK    3  A    between atoms: C4_6  and  C5_12 
REMARK    4  A    between atoms: N2_7  and  N3_9 
REMARK    5  A    between atoms: C5_12  and  C6_13 
REMARK    6  A    between atoms: C5_12  and  N8_25 
REMARK    7  A    between atoms: C6_13  and  C7_14 
REMARK    8  A    between atoms: C7_14  and  C8_15 
REMARK    9  A    between atoms: C8_15  and  N4_16 
REMARK       I    between atoms: C9_18  and  N6_20 
REMARK   10  A    between atoms: N6_20  and  N7_22 
REMARK       I    between atoms: N8_25  and  C10_27 
REMARK   11  A    between atoms: C10_27  and  C11_29 
ROOT
HETATM    1  C5  UNL     1      41.377  68.692  18.220  1.00  0.00     0.153 C 
ENDROOT
BRANCH   1   2
HETATM    2  C4  UNL     1      42.814  68.749  18.520  1.00  0.00     0.115 C 
HETATM    3  N2  UNL     1      43.754  69.082  17.729  1.00  0.00    -0.294 N 
ATOM      4  H2  UNL     1      43.497  69.328  16.773  1.00  0.00     0.187 HD
BRANCH   2   5
HETATM    5  N1  UNL     1      43.224  68.409  19.861  1.00  0.00    -0.373 N 
ATOM      6  H1  UNL     1      43.619  69.133  20.461  1.00  0.00     0.161 HD
BRANCH   5   7
HETATM    7  C2  UNL     1      43.085  67.065  20.371  1.00  0.00     0.074 C 
HETATM    8  C1  UNL     1      43.523  66.044  19.325  1.00  0.00     0.031 C 
HETATM    9  C3  UNL     1      44.020  66.906  21.551  1.00  0.00     0.031 C 
ENDBRANCH   5   7
ENDBRANCH   2   5
BRANCH   3  10
HETATM   10  N3  UNL     1      45.095  69.137  18.061  1.00  0.00    -0.344 N 
ATOM     11  H32 UNL     1      45.317  69.517  18.981  1.00  0.00     0.176 HD
ATOM     12  H31 UNL     1      45.862  68.830  17.464  1.00  0.00     0.176 HD
ENDBRANCH   3  10
ENDBRANCH   1   2
BRANCH   1  13
HETATM   13  C6  UNL     1      40.996  68.382  16.825  1.00  0.00     0.035 C 
BRANCH  13  14
HETATM   14  C7  UNL     1      40.277  67.087  16.672  1.00  0.00     0.022 C 
BRANCH  14  15
HETATM   15  C8  UNL     1      38.831  67.343  16.267  1.00  0.00     0.122 C 
BRANCH  15  16
HETATM   16  N4  UNL     1      37.925  67.091  17.366  1.00  0.00    -0.363 N 
HETATM   17  C9  UNL     1      37.415  68.091  18.031  1.00  0.00     0.207 C 
HETATM   18  N5  UNL     1      37.713  69.441  17.722  1.00  0.00    -0.062 NA
HETATM   19  N6  UNL     1      36.530  67.819  19.105  1.00  0.00    -0.213 N 
ATOM     20  H6  UNL     1      36.880  67.820  20.064  1.00  0.00     0.196 HD
ATOM     21  H4  UNL     1      37.685  66.133  17.620  1.00  0.00     0.162 HD
BRANCH  19  22
HETATM   22  N7  UNL     1      35.184  67.548  18.858  1.00  0.00    -0.036 N 
HETATM   23  O1  UNL     1      34.342  68.442  18.640  1.00  0.00    -0.516 OA
HETATM   24  O2  UNL     1      34.734  66.237  18.846  1.00  0.00    -0.516 OA
ENDBRANCH  19  22
ENDBRANCH  15  16
ENDBRANCH  14  15
ENDBRANCH  13  14
ENDBRANCH   1  13
BRANCH   1  25
HETATM   25  N8  UNL     1      40.690  69.850  18.764  1.00  0.00    -0.345 N 
HETATM   26  C10 UNL     1      40.984  71.178  18.427  1.00  0.00     0.252 C 
HETATM   27  O3  UNL     1      41.892  71.491  17.598  1.00  0.00    -0.268 OA
ATOM     28  H8  UNL     1      39.943  69.685  19.438  1.00  0.00     0.163 HD
BRANCH  26  29
HETATM   29  C11 UNL     1      40.251  72.292  19.015  1.00  0.00     0.032 A 
HETATM   30  C12 UNL     1      40.071  72.403  20.391  1.00  0.00     0.017 A 
HETATM   31  C13 UNL     1      39.379  73.446  20.923  1.00  0.00     0.001 A 
HETATM   32  C14 UNL     1      38.840  74.414  20.115  1.00  0.00     0.000 A 
HETATM   33  C15 UNL     1      39.021  74.300  18.750  1.00  0.00     0.001 A 
HETATM   34  C16 UNL     1      39.711  73.269  18.168  1.00  0.00     0.017 A 
ENDBRANCH  26  29
ENDBRANCH   1  25
TORSDOF 11
ENDMDL
MODEL 2
REMARK VINA RESULT: -6.661325918      2.467      4.148
REMARK  11 active torsions:
REMARK  status: ('A' for Active; 'I' for Inactive)
REMARK    1  A    between atoms: C2_2  and  N1_4 
REMARK    2  A    between atoms: N1_4  and  C4_6 
REMARK    3  A    between atoms: C4_6  and  C5_12 
REMARK    4  A    between atoms: N2_7  and  N3_9 
REMARK    5  A    between atoms: C5_12  and  C6_13 
REMARK    6  A    between atoms: C5_12  and  N8_25 
REMARK    7  A    between atoms: C6_13  and  C7_14 
REMARK    8  A    between atoms: C7_14  and  C8_15 
REMARK    9  A    between atoms: C8_15  and  N4_16 
REMARK       I    between atoms: C9_18  and  N6_20 
REMARK   10  A    between atoms: N6_20  and  N7_22 
REMARK       I    between atoms: N8_25  and  C10_27 
REMARK   11  A    between atoms: C10_27  and  C11_29 
ROOT
HETATM    1  C5  UNL     1      40.487  69.745  16.430  1.00  0.00     0.153 C 
ENDROOT
BRANCH   1   2
HETATM    2  C4  UNL     1      39.754  69.962  15.176  1.00  0.00     0.115 C 
HETATM    3  N2  UNL     1      38.660  69.418  14.818  1.00  0.00    -0.294 N 
ATOM      4  H2  UNL     1      38.240  68.744  15.459  1.00  0.00     0.187 HD
BRANCH   2   5
HETATM    5  N1  UNL     1      40.310  70.909  14.239  1.00  0.00    -0.373 N 
ATOM      6  H1  UNL     1      39.860  71.816  14.119  1.00  0.00     0.161 HD
BRANCH   5   7
HETATM    7  C2  UNL     1      41.491  70.598  13.469  1.00  0.00     0.074 C 
HETATM    8  C1  UNL     1      41.194  70.671  11.974  1.00  0.00     0.031 C 
HETATM    9  C3  UNL     1      42.537  71.652  13.756  1.00  0.00     0.031 C 
ENDBRANCH   5   7
ENDBRANCH   2   5
BRANCH   3  10
HETATM   10  N3  UNL     1      37.995  69.667  13.633  1.00  0.00    -0.344 N 
ATOM     11  H32 UNL     1      37.739  70.638  13.453  1.00  0.00     0.176 HD
ATOM     12  H31 UNL     1      37.746  68.963  12.938  1.00  0.00     0.176 HD
ENDBRANCH   3  10
ENDBRANCH   1   2
BRANCH   1  13
HETATM   13  C6  UNL     1      40.655  68.344  16.873  1.00  0.00     0.035 C 
BRANCH  13  14
HETATM   14  C7  UNL     1      39.868  68.000  18.090  1.00  0.00     0.022 C 
BRANCH  14  15
HETATM   15  C8  UNL     1      38.600  67.256  17.692  1.00  0.00     0.122 C 
BRANCH  15  16
HETATM   16  N4  UNL     1      37.442  67.786  18.378  1.00  0.00    -0.363 N 
HETATM   17  C9  UNL     1      36.436  68.252  17.690  1.00  0.00     0.207 C 
HETATM   18  N5  UNL     1      36.422  68.264  16.274  1.00  0.00    -0.062 NA
HETATM   19  N6  UNL     1      35.312  68.768  18.386  1.00  0.00    -0.213 N 
ATOM     20  H6  UNL     1      35.222  69.774  18.529  1.00  0.00     0.196 HD
ATOM     21  H4  UNL     1      37.413  67.796  19.398  1.00  0.00     0.162 HD
BRANCH  19  22
HETATM   22  N7  UNL     1      34.329  67.907  18.875  1.00  0.00    -0.036 N 
HETATM   23  O1  UNL     1      34.517  66.684  19.029  1.00  0.00    -0.516 OA
HETATM   24  O2  UNL     1      33.081  68.406  19.214  1.00  0.00    -0.516 OA
ENDBRANCH  19  22
ENDBRANCH  15  16
ENDBRANCH  14  15
ENDBRANCH  13  14
ENDBRANCH   1  13
BRANCH   1  25
HETATM   25  N8  UNL     1      40.000  70.629  17.473  1.00  0.00    -0.345 N 
HETATM   26  C10 UNL     1      40.414  71.956  17.646  1.00  0.00     0.252 C 
HETATM   27  O3  UNL     1      41.267  72.513  16.889  1.00  0.00    -0.268 OA
ATOM     28  H8  UNL     1      39.308  70.259  18.125  1.00  0.00     0.163 HD
BRANCH  26  29
HETATM   29  C11 UNL     1      39.881  72.787  18.719  1.00  0.00     0.032 A 
HETATM   30  C12 UNL     1      39.142  73.936  18.454  1.00  0.00     0.017 A 
HETATM   31  C13 UNL     1      38.657  74.704  19.467  1.00  0.00     0.001 A 
HETATM   32  C14 UNL     1      38.887  74.363  20.776  1.00  0.00     0.000 A 
HETATM   33  C15 UNL     1      39.620  73.221  21.033  1.00  0.00     0.001 A 
HETATM   34  C16 UNL     1      40.128  72.416  20.047  1.00  0.00     0.017 A 
ENDBRANCH  26  29
ENDBRANCH   1  25
TORSDOF 11
ENDMDL
MODEL 3
REMARK VINA RESULT: -6.596013094      1.721      2.988
REMARK  11 active torsions:
REMARK  status: ('A' for Active; 'I' for Inactive)
REMARK    1  A    between atoms: C2_2  and  N1_4 
REMARK    2  A    between atoms: N1_4  and  C4_6 
REMARK    3  A    between atoms: C4_6  and  C5_12 
REMARK    4  A    between atoms: N2_7  and  N3_9 
REMARK    5  A    between atoms: C5_12  and  C6_13 
REMARK    6  A    between atoms: C5_12  and  N8_25 
REMARK    7  A    between atoms: C6_13  and  C7_14 
REMARK    8  A    between atoms: C7_14  and  C8_15 
REMARK    9  A    between atoms: C8_15  and  N4_16 
REMARK       I    between atoms: C9_18  and  N6_20 
REMARK   10  A    between atoms: N6_20  and  N7_22 
REMARK       I    between atoms: N8_25  and  C10_27 
REMARK   11  A    between atoms: C10_27  and  C11_29 
ROOT
HETATM    1  C5  UNL     1      41.791  69.303  17.298  1.00  0.00     0.153 C 
ENDROOT
BRANCH   1   2
HETATM    2  C4  UNL     1      43.204  69.684  17.168  1.00  0.00     0.115 C 
HETATM    3  N2  UNL     1      44.161  69.373  17.947  1.00  0.00    -0.294 N 
ATOM      4  H2  UNL     1      43.935  68.806  18.764  1.00  0.00     0.187 HD
BRANCH   2   5
HETATM    5  N1  UNL     1      43.570  70.486  16.025  1.00  0.00    -0.373 N 
ATOM      6  H1  UNL     1      43.994  70.036  15.214  1.00  0.00     0.161 HD
BRANCH   5   7
HETATM    7  C2  UNL     1      43.349  71.912  16.007  1.00  0.00     0.074 C 
HETATM    8  C1  UNL     1      44.677  72.664  15.957  1.00  0.00     0.031 C 
HETATM    9  C3  UNL     1      42.605  72.262  14.737  1.00  0.00     0.031 C 
ENDBRANCH   5   7
ENDBRANCH   2   5
BRANCH   3  10
HETATM   10  N3  UNL     1      45.482  69.742  17.775  1.00  0.00    -0.344 N 
ATOM     11  H32 UNL     1      45.873  69.600  16.844  1.00  0.00     0.176 HD
ATOM     12  H31 UNL     1      46.082  70.137  18.498  1.00  0.00     0.176 HD
ENDBRANCH   3  10
ENDBRANCH   1   2
BRANCH   1  13
HETATM   13  C6  UNL     1      41.207  68.509  16.195  1.00  0.00     0.035 C 
BRANCH  13  14
HETATM   14  C7  UNL     1      40.459  67.305  16.651  1.00  0.00     0.022 C 
BRANCH  14  15
HETATM   15  C8  UNL     1      39.003  67.404  16.213  1.00  0.00     0.122 C 
BRANCH  15  16
HETATM   16  N4  UNL     1      38.103  67.154  17.317  1.00  0.00    -0.363 N 
HETATM   17  C9  UNL     1      37.631  68.154  18.010  1.00  0.00     0.207 C 
HETATM   18  N5  UNL     1      37.964  69.501  17.727  1.00  0.00    -0.062 NA
HETATM   19  N6  UNL     1      36.751  67.883  19.089  1.00  0.00    -0.213 N 
ATOM     20  H6  UNL     1      37.112  67.854  20.043  1.00  0.00     0.196 HD
ATOM     21  H4  UNL     1      37.838  66.198  17.553  1.00  0.00     0.162 HD
BRANCH  19  22
HETATM   22  N7  UNL     1      35.394  67.657  18.852  1.00  0.00    -0.036 N 
HETATM   23  O1  UNL     1      34.886  66.519  18.861  1.00  0.00    -0.516 OA
HETATM   24  O2  UNL     1      34.552  68.728  18.593  1.00  0.00    -0.516 OA
ENDBRANCH  19  22
ENDBRANCH  15  16
ENDBRANCH  14  15
ENDBRANCH  13  14
ENDBRANCH   1  13
BRANCH   1  25
HETATM   25  N8  UNL     1      40.982  70.446  17.682  1.00  0.00    -0.345 N 
HETATM   26  C10 UNL     1      41.183  71.206  18.841  1.00  0.00     0.252 C 
HETATM   27  O3  UNL     1      42.110  70.960  19.672  1.00  0.00    -0.268 OA
ATOM     28  H8  UNL     1      40.215  70.713  17.066  1.00  0.00     0.163 HD
BRANCH  26  29
HETATM   29  C11 UNL     1      40.329  72.343  19.163  1.00  0.00     0.032 A 
HETATM   30  C12 UNL     1      39.832  73.187  18.174  1.00  0.00     0.017 A 
HETATM   31  C13 UNL     1      39.042  74.247  18.493  1.00  0.00     0.001 A 
HETATM   32  C14 UNL     1      38.716  74.511  19.799  1.00  0.00     0.000 A 
HETATM   33  C15 UNL     1      39.212  73.671  20.777  1.00  0.00     0.001 A 
HETATM   34  C16 UNL     1      40.010  72.590  20.505  1.00  0.00     0.017 A 
ENDBRANCH  26  29
ENDBRANCH   1  25
TORSDOF 11
ENDMDL
MODEL 4
REMARK VINA RESULT: -6.545886619      1.885      2.238
REMARK  11 active torsions:
REMARK  status: ('A' for Active; 'I' for Inactive)
REMARK    1  A    between atoms: C2_2  and  N1_4 
REMARK    2  A    between atoms: N1_4  and  C4_6 
REMARK    3  A    between atoms: C4_6  and  C5_12 
REMARK    4  A    between atoms: N2_7  and  N3_9 
REMARK    5  A    between atoms: C5_12  and  C6_13 
REMARK    6  A    between atoms: C5_12  and  N8_25 
REMARK    7  A    between atoms: C6_13  and  C7_14 
REMARK    8  A    between atoms: C7_14  and  C8_15 
REMARK    9  A    between atoms: C8_15  and  N4_16 
REMARK       I    between atoms: C9_18  and  N6_20 
REMARK   10  A    between atoms: N6_20  and  N7_22 
REMARK       I    between atoms: N8_25  and  C10_27 
REMARK   11  A    between atoms: C10_27  and  C11_29 
ROOT
HETATM    1  C5  UNL     1      39.466  69.407  16.649  1.00  0.00     0.153 C 
ENDROOT
BRANCH   1   2
HETATM    2  C4  UNL     1      40.895  69.091  16.535  1.00  0.00     0.115 C 
HETATM    3  N2  UNL     1      41.639  69.241  15.513  1.00  0.00    -0.294 N 
ATOM      4  H2  UNL     1      41.204  69.611  14.667  1.00  0.00     0.187 HD
BRANCH   2   5
HETATM    5  N1  UNL     1      41.553  68.566  17.708  1.00  0.00    -0.373 N 
ATOM      6  H1  UNL     1      42.425  68.991  18.024  1.00  0.00     0.161 HD
BRANCH   5   7
HETATM    7  C2  UNL     1      41.003  67.451  18.441  1.00  0.00     0.074 C 
HETATM    8  C1  UNL     1      41.994  66.291  18.485  1.00  0.00     0.031 C 
HETATM    9  C3  UNL     1      40.782  67.887  19.873  1.00  0.00     0.031 C 
ENDBRANCH   5   7
ENDBRANCH   2   5
BRANCH   3  10
HETATM   10  N3  UNL     1      42.988  68.944  15.456  1.00  0.00    -0.344 N 
ATOM     11  H32 UNL     1      43.625  69.740  15.440  1.00  0.00     0.176 HD
ATOM     12  H31 UNL     1      43.383  68.005  15.429  1.00  0.00     0.176 HD
ENDBRANCH   3  10
ENDBRANCH   1   2
BRANCH   1  13
HETATM   13  C6  UNL     1      38.742  69.697  15.393  1.00  0.00     0.035 C 
BRANCH  13  14
HETATM   14  C7  UNL     1      37.676  68.708  15.071  1.00  0.00     0.022 C 
BRANCH  14  15
HETATM   15  C8  UNL     1      37.562  67.686  16.196  1.00  0.00     0.122 C 
BRANCH  15  16
HETATM   16  N4  UNL     1      36.226  67.660  16.749  1.00  0.00    -0.363 N 
HETATM   17  C9  UNL     1      36.043  67.897  18.019  1.00  0.00     0.207 C 
HETATM   18  N5  UNL     1      37.114  68.185  18.901  1.00  0.00    -0.062 NA
HETATM   19  N6  UNL     1      34.724  67.864  18.539  1.00  0.00    -0.213 N 
ATOM     20  H6  UNL     1      34.384  67.025  19.009  1.00  0.00     0.196 HD
ATOM     21  H4  UNL     1      35.428  67.457  16.147  1.00  0.00     0.162 HD
BRANCH  19  22
HETATM   22  N7  UNL     1      33.888  68.974  18.409  1.00  0.00    -0.036 N 
HETATM   23  O1  UNL     1      33.818  69.651  17.364  1.00  0.00    -0.516 OA
HETATM   24  O2  UNL     1      33.087  69.363  19.472  1.00  0.00    -0.516 OA
ENDBRANCH  19  22
ENDBRANCH  15  16
ENDBRANCH  14  15
ENDBRANCH  13  14
ENDBRANCH   1  13
BRANCH   1  25
HETATM   25  N8  UNL     1      39.237  70.393  17.691  1.00  0.00    -0.345 N 
HETATM   26  C10 UNL     1      39.781  71.684  17.695  1.00  0.00     0.252 C 
HETATM   27  O3  UNL     1      40.534  72.114  16.768  1.00  0.00    -0.268 OA
ATOM     28  H8  UNL     1      38.640  70.127  18.474  1.00  0.00     0.163 HD
BRANCH  26  29
HETATM   29  C11 UNL     1      39.508  72.622  18.777  1.00  0.00     0.032 A 
HETATM   30  C12 UNL     1      39.741  72.289  20.108  1.00  0.00     0.017 A 
HETATM   31  C13 UNL     1      39.474  73.174  21.106  1.00  0.00     0.001 A 
HETATM   32  C14 UNL     1      38.966  74.417  20.824  1.00  0.00     0.000 A 
HETATM   33  C15 UNL     1      38.736  74.742  19.501  1.00  0.00     0.001 A 
HETATM   34  C16 UNL     1      38.990  73.885  18.462  1.00  0.00     0.017 A 
ENDBRANCH  26  29
ENDBRANCH   1  25
TORSDOF 11
ENDMDL
MODEL 5
REMARK VINA RESULT: -6.493976515      3.360      6.596
REMARK  11 active torsions:
REMARK  status: ('A' for Active; 'I' for Inactive)
REMARK    1  A    between atoms: C2_2  and  N1_4 
REMARK    2  A    between atoms: N1_4  and  C4_6 
REMARK    3  A    between atoms: C4_6  and  C5_12 
REMARK    4  A    between atoms: N2_7  and  N3_9 
REMARK    5  A    between atoms: C5_12  and  C6_13 
REMARK    6  A    between atoms: C5_12  and  N8_25 
REMARK    7  A    between atoms: C6_13  and  C7_14 
REMARK    8  A    between atoms: C7_14  and  C8_15 
REMARK    9  A    between atoms: C8_15  and  N4_16 
REMARK       I    between atoms: C9_18  and  N6_20 
REMARK   10  A    between atoms: N6_20  and  N7_22 
REMARK       I    between atoms: N8_25  and  C10_27 
REMARK   11  A    between atoms: C10_27  and  C11_29 
ROOT
HETATM    1  C5  UNL     1      39.224  71.720  19.730  1.00  0.00     0.153 C 
ENDROOT
BRANCH   1   2
HETATM    2  C4  UNL     1      39.299  70.260  19.596  1.00  0.00     0.115 C 
HETATM    3  N2  UNL     1      40.284  69.508  19.888  1.00  0.00    -0.294 N 
ATOM      4  H2  UNL     1      41.128  69.958  20.244  1.00  0.00     0.187 HD
BRANCH   2   5
HETATM    5  N1  UNL     1      38.128  69.580  19.098  1.00  0.00    -0.373 N 
ATOM      6  H1  UNL     1      37.663  68.888  19.686  1.00  0.00     0.161 HD
BRANCH   5   7
HETATM    7  C2  UNL     1      37.601  69.859  17.783  1.00  0.00     0.074 C 
HETATM    8  C1  UNL     1      38.551  69.351  16.702  1.00  0.00     0.031 C 
HETATM    9  C3  UNL     1      36.306  69.093  17.617  1.00  0.00     0.031 C 
ENDBRANCH   5   7
ENDBRANCH   2   5
BRANCH   3  10
HETATM   10  N3  UNL     1      40.304  68.132  19.761  1.00  0.00    -0.344 N 
ATOM     11  H32 UNL     1      40.481  67.767  18.825  1.00  0.00     0.176 HD
ATOM     12  H31 UNL     1      40.156  67.468  20.521  1.00  0.00     0.176 HD
ENDBRANCH   3  10
ENDBRANCH   1   2
BRANCH   1  13
HETATM   13  C6  UNL     1      40.417  72.492  19.318  1.00  0.00     0.035 C 
BRANCH  13  14
HETATM   14  C7  UNL     1      40.386  72.933  17.896  1.00  0.00     0.022 C 
BRANCH  14  15
HETATM   15  C8  UNL     1      41.101  71.910  17.022  1.00  0.00     0.122 C 
BRANCH  15  16
HETATM   16  N4  UNL     1      42.493  71.781  17.395  1.00  0.00    -0.363 N 
HETATM   17  C9  UNL     1      42.996  70.601  17.633  1.00  0.00     0.207 C 
HETATM   18  N5  UNL     1      42.228  69.414  17.542  1.00  0.00    -0.062 NA
HETATM   19  N6  UNL     1      44.363  70.500  17.998  1.00  0.00    -0.213 N 
ATOM     20  H6  UNL     1      44.620  70.418  18.982  1.00  0.00     0.196 HD
ATOM     21  H4  UNL     1      43.080  72.612  17.471  1.00  0.00     0.162 HD
BRANCH  19  22
HETATM   22  N7  UNL     1      45.356  70.514  17.019  1.00  0.00    -0.036 N 
HETATM   23  O1  UNL     1      46.284  69.681  16.983  1.00  0.00    -0.516 OA
HETATM   24  O2  UNL     1      45.335  71.484  16.028  1.00  0.00    -0.516 OA
ENDBRANCH  19  22
ENDBRANCH  15  16
ENDBRANCH  14  15
ENDBRANCH  13  14
ENDBRANCH   1  13
BRANCH   1  25
HETATM   25  N8  UNL     1      38.715  72.094  21.037  1.00  0.00    -0.345 N 
HETATM   26  C10 UNL     1      38.098  73.318  21.328  1.00  0.00     0.252 C 
HETATM   27  O3  UNL     1      37.926  74.224  20.457  1.00  0.00    -0.268 OA
ATOM     28  H8  UNL     1      38.813  71.419  21.796  1.00  0.00     0.163 HD
BRANCH  26  29
HETATM   29  C11 UNL     1      37.611  73.625  22.667  1.00  0.00     0.032 A 
HETATM   30  C12 UNL     1      36.249  73.675  22.955  1.00  0.00     0.017 A 
HETATM   31  C13 UNL     1      35.811  73.970  24.209  1.00  0.00     0.001 A 
HETATM   32  C14 UNL     1      36.702  74.227  25.220  1.00  0.00     0.000 A 
HETATM   33  C15 UNL     1      38.051  74.176  24.929  1.00  0.00     0.001 A 
HETATM   34  C16 UNL     1      38.540  73.883  23.683  1.00  0.00     0.017 A 
ENDBRANCH  26  29
ENDBRANCH   1  25
TORSDOF 11
ENDMDL
