MODEL 1
REMARK VINA RESULT: -6.687207199      0.000      0.000
REMARK  14 active torsions:
REMARK  status: ('A' for Active; 'I' for Inactive)
REMARK    1  A    between atoms: C2_2  and  C3_4 
REMARK    2  A    between atoms: C3_4  and  N1_5 
REMARK    3  A    between atoms: C3_4  and  C9_17 
REMARK       I    between atoms: N1_5  and  C4_7 
REMARK    4  A    between atoms: C4_7  and  C5_9 
REMARK    5  A    between atoms: C5_9  and  N2_10 
REMARK    6  A    between atoms: C5_9  and  C6_14 
REMARK    7  A    between atoms: C9_17  and  C10_19 
REMARK    8  A    between atoms: C10_19  and  N3_20 
REMARK    9  A    between atoms: C10_19  and  C17_33 
REMARK       I    between atoms: N3_20  and  C11_22 
REMARK   10  A    between atoms: C11_22  and  C12_24 
REMARK   11  A    between atoms: C12_24  and  N4_25 
REMARK   12  A    between atoms: C12_24  and  C13_29 
REMARK   13  A    between atoms: C13_29  and  C14_30 
REMARK   14  A    between atoms: C17_33  and  O5_35 
ROOT
HETATM    1  C9  UNL     1      40.098  71.175  19.332  1.00  0.00     0.181 C 
HETATM    2  O3  UNL     1      41.303  71.058  18.945  1.00  0.00    -0.293 OA
ENDROOT
BRANCH   1   3
HETATM    3  C3  UNL     1      39.385  69.890  19.360  1.00  0.00     0.225 C 
BRANCH   3   4
HETATM    4  C2  UNL     1      40.138  68.677  19.131  1.00  0.00     0.153 C 
HETATM    5  C1  UNL     1      40.696  67.833  20.214  1.00  0.00     0.093 C 
HETATM    6  O1  UNL     1      40.354  68.271  17.991  1.00  0.00    -0.296 OA
ENDBRANCH   3   4
BRANCH   3   7
HETATM    7  N1  UNL     1      38.210  69.995  18.482  1.00  0.00    -0.341 N 
HETATM    8  C4  UNL     1      37.160  69.071  18.480  1.00  0.00     0.249 C 
HETATM    9  O2  UNL     1      37.281  68.095  19.303  1.00  0.00    -0.271 OA
ATOM     10  H1  UNL     1      38.158  70.786  17.839  1.00  0.00     0.163 HD
BRANCH   8  11
HETATM   11  C5  UNL     1      35.947  69.074  17.654  1.00  0.00     0.278 C 
BRANCH  11  12
HETATM   12  N2  UNL     1      35.905  67.928  16.751  1.00  0.00    -0.066 N 
ATOM     13  H23 UNL     1      35.258  68.086  15.979  1.00  0.00     0.275 HD
ATOM     14  H22 UNL     1      36.772  67.842  16.218  1.00  0.00     0.275 HD
ATOM     15  H21 UNL     1      35.688  67.064  17.248  1.00  0.00     0.275 HD
ENDBRANCH  11  12
BRANCH  11  16
HETATM   16  C6  UNL     1      34.696  69.053  18.463  1.00  0.00     0.017 C 
HETATM   17  C7  UNL     1      33.550  69.659  17.710  1.00  0.00     0.012 C 
HETATM   18  C8  UNL     1      34.310  67.632  18.812  1.00  0.00     0.012 C 
ENDBRANCH  11  16
ENDBRANCH   8  11
ENDBRANCH   3   7
ENDBRANCH   1   3
BRANCH   1  19
HETATM   19  C10 UNL     1      39.630  72.510  19.669  1.00  0.00     0.185 C 
BRANCH  19  20
HETATM   20  N3  UNL     1      38.558  72.430  20.703  1.00  0.00    -0.345 N 
HETATM   21  C11 UNL     1      38.715  73.159  21.905  1.00  0.00     0.249 C 
HETATM   22  O4  UNL     1      39.745  73.859  22.087  1.00  0.00    -0.271 OA
ATOM     23  H3  UNL     1      37.727  71.860  20.547  1.00  0.00     0.163 HD
BRANCH  21  24
HETATM   24  C12 UNL     1      37.705  73.139  22.985  1.00  0.00     0.275 C 
BRANCH  24  25
HETATM   25  N4  UNL     1      36.449  73.711  22.550  1.00  0.00    -0.066 N 
ATOM     26  H43 UNL     1      36.505  74.728  22.485  1.00  0.00     0.275 HD
ATOM     27  H42 UNL     1      36.264  73.499  21.569  1.00  0.00     0.275 HD
ATOM     28  H41 UNL     1      35.676  73.417  23.147  1.00  0.00     0.275 HD
ENDBRANCH  24  25
BRANCH  24  29
HETATM   29  C13 UNL     1      38.159  73.830  24.230  1.00  0.00     0.046 C 
BRANCH  29  30
HETATM   30  C14 UNL     1      37.108  74.016  25.279  1.00  0.00    -0.020 C 
HETATM   31  C15 UNL     1      37.430  75.349  25.971  1.00  0.00     0.009 C 
HETATM   32  C16 UNL     1      37.052  72.938  26.310  1.00  0.00     0.009 C 
ENDBRANCH  29  30
ENDBRANCH  24  29
ENDBRANCH  21  24
ENDBRANCH  19  20
BRANCH  19  33
HETATM   33  C17 UNL     1      38.969  73.221  18.496  1.00  0.00     0.144 C 
HETATM   34  C18 UNL     1      39.099  74.691  18.614  1.00  0.00     0.042 C 
BRANCH  33  35
HETATM   35  O5  UNL     1      39.302  72.675  17.280  1.00  0.00    -0.393 OA
ATOM     36  H5  UNL     1      38.760  72.994  16.569  1.00  0.00     0.210 HD
ENDBRANCH  33  35
ENDBRANCH  19  33
ENDBRANCH   1  19
TORSDOF 14
ENDMDL
MODEL 2
REMARK VINA RESULT: -6.681140678      3.118      8.084
REMARK  14 active torsions:
REMARK  status: ('A' for Active; 'I' for Inactive)
REMARK    1  A    between atoms: C2_2  and  C3_4 
REMARK    2  A    between atoms: C3_4  and  N1_5 
REMARK    3  A    between atoms: C3_4  and  C9_17 
REMARK       I    between atoms: N1_5  and  C4_7 
REMARK    4  A    between atoms: C4_7  and  C5_9 
REMARK    5  A    between atoms: C5_9  and  N2_10 
REMARK    6  A    between atoms: C5_9  and  C6_14 
REMARK    7  A    between atoms: C9_17  and  C10_19 
REMARK    8  A    between atoms: C10_19  and  N3_20 
REMARK    9  A    between atoms: C10_19  and  C17_33 
REMARK       I    between atoms: N3_20  and  C11_22 
REMARK   10  A    between atoms: C11_22  and  C12_24 
REMARK   11  A    between atoms: C12_24  and  N4_25 
REMARK   12  A    between atoms: C12_24  and  C13_29 
REMARK   13  A    between atoms: C13_29  and  C14_30 
REMARK   14  A    between atoms: C17_33  and  O5_35 
ROOT
HETATM    1  C9  UNL     1      38.653  73.344  22.495  1.00  0.00     0.181 C 
HETATM    2  O3  UNL     1      39.787  73.813  22.825  1.00  0.00    -0.293 OA
ENDROOT
BRANCH   1   3
HETATM    3  C3  UNL     1      37.736  73.219  23.636  1.00  0.00     0.225 C 
BRANCH   3   4
HETATM    4  C2  UNL     1      36.316  73.361  23.402  1.00  0.00     0.153 C 
HETATM    5  C1  UNL     1      35.304  72.373  23.844  1.00  0.00     0.093 C 
HETATM    6  O1  UNL     1      35.866  74.339  22.810  1.00  0.00    -0.296 OA
ENDBRANCH   3   4
BRANCH   3   7
HETATM    7  N1  UNL     1      38.217  74.101  24.711  1.00  0.00    -0.341 N 
HETATM    8  C4  UNL     1      38.113  73.791  26.071  1.00  0.00     0.249 C 
HETATM    9  O2  UNL     1      37.556  72.668  26.341  1.00  0.00    -0.271 OA
ATOM     10  H1  UNL     1      38.651  74.987  24.451  1.00  0.00     0.163 HD
BRANCH   8  11
HETATM   11  C5  UNL     1      38.554  74.587  27.222  1.00  0.00     0.278 C 
BRANCH  11  12
HETATM   12  N2  UNL     1      39.780  74.054  27.809  1.00  0.00    -0.066 N 
ATOM     13  H23 UNL     1      39.909  74.386  28.765  1.00  0.00     0.275 HD
ATOM     14  H22 UNL     1      39.699  73.054  27.996  1.00  0.00     0.275 HD
ATOM     15  H21 UNL     1      40.596  74.259  27.230  1.00  0.00     0.275 HD
ENDBRANCH  11  12
BRANCH  11  16
HETATM   16  C6  UNL     1      38.807  76.014  26.877  1.00  0.00     0.017 C 
HETATM   17  C7  UNL     1      37.535  76.808  26.875  1.00  0.00     0.012 C 
HETATM   18  C8  UNL     1      39.740  76.651  27.883  1.00  0.00     0.012 C 
ENDBRANCH  11  16
ENDBRANCH   8  11
ENDBRANCH   3   7
ENDBRANCH   1   3
BRANCH   1  19
HETATM   19  C10 UNL     1      38.449  73.013  21.093  1.00  0.00     0.185 C 
BRANCH  19  20
HETATM   20  N3  UNL     1      39.648  72.308  20.554  1.00  0.00    -0.345 N 
HETATM   21  C11 UNL     1      39.465  71.101  19.839  1.00  0.00     0.249 C 
HETATM   22  O4  UNL     1      38.306  70.641  19.668  1.00  0.00    -0.271 OA
ATOM     23  H3  UNL     1      40.583  72.689  20.699  1.00  0.00     0.163 HD
BRANCH  21  24
HETATM   24  C12 UNL     1      40.595  70.335  19.270  1.00  0.00     0.275 C 
BRANCH  24  25
HETATM   25  N4  UNL     1      40.793  69.082  19.966  1.00  0.00    -0.066 N 
ATOM     26  H43 UNL     1      40.282  68.322  19.516  1.00  0.00     0.275 HD
ATOM     27  H42 UNL     1      41.742  68.732  19.839  1.00  0.00     0.275 HD
ATOM     28  H41 UNL     1      40.553  69.160  20.954  1.00  0.00     0.275 HD
ENDBRANCH  24  25
BRANCH  24  29
HETATM   29  C13 UNL     1      41.878  71.101  19.255  1.00  0.00     0.046 C 
BRANCH  29  30
HETATM   30  C14 UNL     1      42.532  71.228  17.914  1.00  0.00    -0.020 C 
HETATM   31  C15 UNL     1      41.581  72.077  17.057  1.00  0.00     0.009 C 
HETATM   32  C16 UNL     1      42.787  69.934  17.215  1.00  0.00     0.009 C 
ENDBRANCH  29  30
ENDBRANCH  24  29
ENDBRANCH  21  24
ENDBRANCH  19  20
BRANCH  19  33
HETATM   33  C17 UNL     1      38.306  74.244  20.207  1.00  0.00     0.144 C 
HETATM   34  C18 UNL     1      38.913  74.023  18.876  1.00  0.00     0.042 C 
BRANCH  33  35
HETATM   35  O5  UNL     1      37.036  74.769  20.220  1.00  0.00    -0.393 OA
ATOM     36  H5  UNL     1      36.966  75.559  20.742  1.00  0.00     0.210 HD
ENDBRANCH  33  35
ENDBRANCH  19  33
ENDBRANCH   1  19
TORSDOF 14
ENDMDL
MODEL 3
REMARK VINA RESULT: -6.655203457      2.456      6.509
REMARK  14 active torsions:
REMARK  status: ('A' for Active; 'I' for Inactive)
REMARK    1  A    between atoms: C2_2  and  C3_4 
REMARK    2  A    between atoms: C3_4  and  N1_5 
REMARK    3  A    between atoms: C3_4  and  C9_17 
REMARK       I    between atoms: N1_5  and  C4_7 
REMARK    4  A    between atoms: C4_7  and  C5_9 
REMARK    5  A    between atoms: C5_9  and  N2_10 
REMARK    6  A    between atoms: C5_9  and  C6_14 
REMARK    7  A    between atoms: C9_17  and  C10_19 
REMARK    8  A    between atoms: C10_19  and  N3_20 
REMARK    9  A    between atoms: C10_19  and  C17_33 
REMARK       I    between atoms: N3_20  and  C11_22 
REMARK   10  A    between atoms: C11_22  and  C12_24 
REMARK   11  A    between atoms: C12_24  and  N4_25 
REMARK   12  A    between atoms: C12_24  and  C13_29 
REMARK   13  A    between atoms: C13_29  and  C14_30 
REMARK   14  A    between atoms: C17_33  and  O5_35 
ROOT
HETATM    1  C9  UNL     1      40.053  69.265  17.792  1.00  0.00     0.181 C 
HETATM    2  O3  UNL     1      41.293  69.437  17.572  1.00  0.00    -0.293 OA
ENDROOT
BRANCH   1   3
HETATM    3  C3  UNL     1      39.218  70.297  17.162  1.00  0.00     0.225 C 
BRANCH   3   4
HETATM    4  C2  UNL     1      39.165  70.357  15.718  1.00  0.00     0.153 C 
HETATM    5  C1  UNL     1      38.440  69.376  14.876  1.00  0.00     0.093 C 
HETATM    6  O1  UNL     1      39.732  71.255  15.101  1.00  0.00    -0.296 OA
ENDBRANCH   3   4
BRANCH   3   7
HETATM    7  N1  UNL     1      39.555  71.595  17.766  1.00  0.00    -0.341 N 
HETATM    8  C4  UNL     1      39.119  71.996  19.033  1.00  0.00     0.249 C 
HETATM    9  O2  UNL     1      38.384  71.151  19.658  1.00  0.00    -0.271 OA
ATOM     10  H1  UNL     1      40.139  72.238  17.231  1.00  0.00     0.163 HD
BRANCH   8  11
HETATM   11  C5  UNL     1      39.391  73.258  19.731  1.00  0.00     0.278 C 
BRANCH  11  12
HETATM   12  N2  UNL     1      39.051  74.415  18.908  1.00  0.00    -0.066 N 
ATOM     13  H23 UNL     1      39.401  74.309  17.956  1.00  0.00     0.275 HD
ATOM     14  H22 UNL     1      38.050  74.447  18.707  1.00  0.00     0.275 HD
ATOM     15  H21 UNL     1      39.374  75.286  19.329  1.00  0.00     0.275 HD
ENDBRANCH  11  12
BRANCH  11  16
HETATM   16  C6  UNL     1      38.641  73.385  21.012  1.00  0.00     0.017 C 
HETATM   17  C7  UNL     1      39.543  73.807  22.133  1.00  0.00     0.012 C 
HETATM   18  C8  UNL     1      37.548  74.424  20.892  1.00  0.00     0.012 C 
ENDBRANCH  11  16
ENDBRANCH   8  11
ENDBRANCH   3   7
ENDBRANCH   1   3
BRANCH   1  19
HETATM   19  C10 UNL     1      39.670  68.120  18.604  1.00  0.00     0.185 C 
BRANCH  19  20
HETATM   20  N3  UNL     1      38.250  68.255  19.040  1.00  0.00    -0.345 N 
HETATM   21  C11 UNL     1      37.242  67.611  18.284  1.00  0.00     0.249 C 
HETATM   22  O4  UNL     1      37.550  66.941  17.265  1.00  0.00    -0.271 OA
ATOM     23  H3  UNL     1      38.010  68.801  19.867  1.00  0.00     0.163 HD
BRANCH  21  24
HETATM   24  C12 UNL     1      35.809  67.690  18.641  1.00  0.00     0.275 C 
BRANCH  24  25
HETATM   25  N4  UNL     1      35.124  66.444  18.371  1.00  0.00    -0.066 N 
ATOM     26  H43 UNL     1      34.834  66.383  17.395  1.00  0.00     0.275 HD
ATOM     27  H42 UNL     1      35.767  65.653  18.395  1.00  0.00     0.275 HD
ATOM     28  H41 UNL     1      34.337  66.304  19.004  1.00  0.00     0.275 HD
ENDBRANCH  24  25
BRANCH  24  29
HETATM   29  C13 UNL     1      35.091  68.808  17.958  1.00  0.00     0.046 C 
BRANCH  29  30
HETATM   30  C14 UNL     1      33.612  68.851  18.181  1.00  0.00    -0.020 C 
HETATM   31  C15 UNL     1      33.105  70.088  17.425  1.00  0.00     0.009 C 
HETATM   32  C16 UNL     1      33.196  68.956  19.611  1.00  0.00     0.009 C 
ENDBRANCH  29  30
ENDBRANCH  24  29
ENDBRANCH  21  24
ENDBRANCH  19  20
BRANCH  19  33
HETATM   33  C17 UNL     1      40.456  68.026  19.905  1.00  0.00     0.144 C 
HETATM   34  C18 UNL     1      41.537  67.020  19.809  1.00  0.00     0.042 C 
BRANCH  33  35
HETATM   35  O5  UNL     1      40.808  69.255  20.409  1.00  0.00    -0.393 OA
ATOM     36  H5  UNL     1      40.235  69.954  20.118  1.00  0.00     0.210 HD
ENDBRANCH  33  35
ENDBRANCH  19  33
ENDBRANCH   1  19
TORSDOF 14
ENDMDL
MODEL 4
REMARK VINA RESULT: -6.356492987      1.876      6.687
REMARK  14 active torsions:
REMARK  status: ('A' for Active; 'I' for Inactive)
REMARK    1  A    between atoms: C2_2  and  C3_4 
REMARK    2  A    between atoms: C3_4  and  N1_5 
REMARK    3  A    between atoms: C3_4  and  C9_17 
REMARK       I    between atoms: N1_5  and  C4_7 
REMARK    4  A    between atoms: C4_7  and  C5_9 
REMARK    5  A    between atoms: C5_9  and  N2_10 
REMARK    6  A    between atoms: C5_9  and  C6_14 
REMARK    7  A    between atoms: C9_17  and  C10_19 
REMARK    8  A    between atoms: C10_19  and  N3_20 
REMARK    9  A    between atoms: C10_19  and  C17_33 
REMARK       I    between atoms: N3_20  and  C11_22 
REMARK   10  A    between atoms: C11_22  and  C12_24 
REMARK   11  A    between atoms: C12_24  and  N4_25 
REMARK   12  A    between atoms: C12_24  and  C13_29 
REMARK   13  A    between atoms: C13_29  and  C14_30 
REMARK   14  A    between atoms: C17_33  and  O5_35 
ROOT
HETATM    1  C9  UNL     1      40.306  69.717  19.141  1.00  0.00     0.181 C 
HETATM    2  O3  UNL     1      40.613  69.531  20.360  1.00  0.00    -0.293 OA
ENDROOT
BRANCH   1   3
HETATM    3  C3  UNL     1      40.279  71.139  18.774  1.00  0.00     0.225 C 
BRANCH   3   4
HETATM    4  C2  UNL     1      41.266  71.631  17.838  1.00  0.00     0.153 C 
HETATM    5  C1  UNL     1      42.701  71.259  17.879  1.00  0.00     0.093 C 
HETATM    6  O1  UNL     1      40.953  72.400  16.932  1.00  0.00    -0.296 OA
ENDBRANCH   3   4
BRANCH   3   7
HETATM    7  N1  UNL     1      40.236  71.934  20.011  1.00  0.00    -0.341 N 
HETATM    8  C4  UNL     1      39.341  72.988  20.223  1.00  0.00     0.249 C 
HETATM    9  O2  UNL     1      38.540  73.236  19.254  1.00  0.00    -0.271 OA
ATOM     10  H1  UNL     1      40.895  71.703  20.755  1.00  0.00     0.163 HD
BRANCH   8  11
HETATM   11  C5  UNL     1      39.208  73.843  21.408  1.00  0.00     0.278 C 
BRANCH  11  12
HETATM   12  N2  UNL     1      38.940  75.231  21.044  1.00  0.00    -0.066 N 
ATOM     13  H23 UNL     1      39.727  75.643  20.543  1.00  0.00     0.275 HD
ATOM     14  H22 UNL     1      38.233  75.294  20.310  1.00  0.00     0.275 HD
ATOM     15  H21 UNL     1      38.682  75.791  21.857  1.00  0.00     0.275 HD
ENDBRANCH  11  12
BRANCH  11  16
HETATM   16  C6  UNL     1      38.117  73.401  22.322  1.00  0.00     0.017 C 
HETATM   17  C7  UNL     1      38.486  73.624  23.758  1.00  0.00     0.012 C 
HETATM   18  C8  UNL     1      36.847  74.178  22.053  1.00  0.00     0.012 C 
ENDBRANCH  11  16
ENDBRANCH   8  11
ENDBRANCH   3   7
ENDBRANCH   1   3
BRANCH   1  19
HETATM   19  C10 UNL     1      40.037  68.538  18.331  1.00  0.00     0.185 C 
BRANCH  19  20
HETATM   20  N3  UNL     1      38.725  67.943  18.716  1.00  0.00    -0.345 N 
HETATM   21  C11 UNL     1      37.559  68.367  18.036  1.00  0.00     0.249 C 
HETATM   22  O4  UNL     1      37.641  69.232  17.125  1.00  0.00    -0.271 OA
ATOM     23  H3  UNL     1      38.669  67.243  19.456  1.00  0.00     0.163 HD
BRANCH  21  24
HETATM   24  C12 UNL     1      36.217  67.832  18.350  1.00  0.00     0.275 C 
BRANCH  24  25
HETATM   25  N4  UNL     1      36.164  66.396  18.182  1.00  0.00    -0.066 N 
ATOM     26  H43 UNL     1      36.085  65.918  19.081  1.00  0.00     0.275 HD
ATOM     27  H42 UNL     1      35.280  66.102  17.768  1.00  0.00     0.275 HD
ATOM     28  H41 UNL     1      36.960  66.051  17.646  1.00  0.00     0.275 HD
ENDBRANCH  24  25
BRANCH  24  29
HETATM   29  C13 UNL     1      35.127  68.465  17.547  1.00  0.00     0.046 C 
BRANCH  29  30
HETATM   30  C14 UNL     1      34.098  69.208  18.339  1.00  0.00    -0.020 C 
HETATM   31  C15 UNL     1      33.381  68.156  19.198  1.00  0.00     0.009 C 
HETATM   32  C16 UNL     1      33.083  69.936  17.522  1.00  0.00     0.009 C 
ENDBRANCH  29  30
ENDBRANCH  24  29
ENDBRANCH  21  24
ENDBRANCH  19  20
BRANCH  19  33
HETATM   33  C17 UNL     1      41.042  67.418  18.564  1.00  0.00     0.144 C 
HETATM   34  C18 UNL     1      42.380  67.779  18.044  1.00  0.00     0.042 C 
BRANCH  33  35
HETATM   35  O5  UNL     1      40.999  66.914  19.841  1.00  0.00    -0.393 OA
ATOM     36  H5  UNL     1      41.014  65.965  19.867  1.00  0.00     0.210 HD
ENDBRANCH  33  35
ENDBRANCH  19  33
ENDBRANCH   1  19
TORSDOF 14
ENDMDL
MODEL 5
REMARK VINA RESULT: -6.314928212      3.724      9.041
REMARK  14 active torsions:
REMARK  status: ('A' for Active; 'I' for Inactive)
REMARK    1  A    between atoms: C2_2  and  C3_4 
REMARK    2  A    between atoms: C3_4  and  N1_5 
REMARK    3  A    between atoms: C3_4  and  C9_17 
REMARK       I    between atoms: N1_5  and  C4_7 
REMARK    4  A    between atoms: C4_7  and  C5_9 
REMARK    5  A    between atoms: C5_9  and  N2_10 
REMARK    6  A    between atoms: C5_9  and  C6_14 
REMARK    7  A    between atoms: C9_17  and  C10_19 
REMARK    8  A    between atoms: C10_19  and  N3_20 
REMARK    9  A    between atoms: C10_19  and  C17_33 
REMARK       I    between atoms: N3_20  and  C11_22 
REMARK   10  A    between atoms: C11_22  and  C12_24 
REMARK   11  A    between atoms: C12_24  and  N4_25 
REMARK   12  A    between atoms: C12_24  and  C13_29 
REMARK   13  A    between atoms: C13_29  and  C14_30 
REMARK   14  A    between atoms: C17_33  and  O5_35 
ROOT
HETATM    1  C9  UNL     1      37.526  74.120  24.065  1.00  0.00     0.181 C 
HETATM    2  O3  UNL     1      37.860  75.269  23.639  1.00  0.00    -0.293 OA
ENDROOT
BRANCH   1   3
HETATM    3  C3  UNL     1      37.793  73.948  25.500  1.00  0.00     0.225 C 
BRANCH   3   4
HETATM    4  C2  UNL     1      36.856  73.182  26.291  1.00  0.00     0.153 C 
HETATM    5  C1  UNL     1      35.664  73.764  26.953  1.00  0.00     0.093 C 
HETATM    6  O1  UNL     1      37.004  71.973  26.454  1.00  0.00    -0.296 OA
ENDBRANCH   3   4
BRANCH   3   7
HETATM    7  N1  UNL     1      38.065  75.272  26.080  1.00  0.00    -0.341 N 
HETATM    8  C4  UNL     1      38.942  75.484  27.148  1.00  0.00     0.249 C 
HETATM    9  O2  UNL     1      39.511  74.434  27.613  1.00  0.00    -0.271 OA
ATOM     10  H1  UNL     1      37.587  76.080  25.681  1.00  0.00     0.163 HD
BRANCH   8  11
HETATM   11  C5  UNL     1      39.288  76.751  27.803  1.00  0.00     0.278 C 
BRANCH  11  12
HETATM   12  N2  UNL     1      40.693  76.787  28.200  1.00  0.00    -0.066 N 
ATOM     13  H23 UNL     1      41.304  76.523  27.427  1.00  0.00     0.275 HD
ATOM     14  H22 UNL     1      41.016  77.746  28.338  1.00  0.00     0.275 HD
ATOM     15  H21 UNL     1      40.867  76.214  29.025  1.00  0.00     0.275 HD
ENDBRANCH  11  12
BRANCH  11  16
HETATM   16  C6  UNL     1      39.036  77.938  26.939  1.00  0.00     0.017 C 
HETATM   17  C7  UNL     1      37.686  78.531  27.209  1.00  0.00     0.012 C 
HETATM   18  C8  UNL     1      40.066  79.016  27.197  1.00  0.00     0.012 C 
ENDBRANCH  11  16
ENDBRANCH   8  11
ENDBRANCH   3   7
ENDBRANCH   1   3
BRANCH   1  19
HETATM   19  C10 UNL     1      36.956  73.189  23.103  1.00  0.00     0.185 C 
BRANCH  19  20
HETATM   20  N3  UNL     1      37.315  73.604  21.717  1.00  0.00    -0.345 N 
HETATM   21  C11 UNL     1      38.551  73.178  21.176  1.00  0.00     0.249 C 
HETATM   22  O4  UNL     1      39.325  72.461  21.863  1.00  0.00    -0.271 OA
ATOM     23  H3  UNL     1      36.681  74.185  21.168  1.00  0.00     0.163 HD
BRANCH  21  24
HETATM   24  C12 UNL     1      38.989  73.541  19.811  1.00  0.00     0.275 C 
BRANCH  24  25
HETATM   25  N4  UNL     1      37.959  74.262  19.096  1.00  0.00    -0.066 N 
ATOM     26  H43 UNL     1      38.025  75.267  19.260  1.00  0.00     0.275 HD
ATOM     27  H42 UNL     1      38.129  74.254  18.090  1.00  0.00     0.275 HD
ATOM     28  H41 UNL     1      37.029  73.908  19.319  1.00  0.00     0.275 HD
ENDBRANCH  24  25
BRANCH  24  29
HETATM   29  C13 UNL     1      39.425  72.364  18.999  1.00  0.00     0.046 C 
BRANCH  29  30
HETATM   30  C14 UNL     1      40.892  72.290  18.716  1.00  0.00    -0.020 C 
HETATM   31  C15 UNL     1      41.022  72.099  17.197  1.00  0.00     0.009 C 
HETATM   32  C16 UNL     1      41.609  71.176  19.404  1.00  0.00     0.009 C 
ENDBRANCH  29  30
ENDBRANCH  24  29
ENDBRANCH  21  24
ENDBRANCH  19  20
BRANCH  19  33
HETATM   33  C17 UNL     1      35.433  73.183  23.113  1.00  0.00     0.144 C 
HETATM   34  C18 UNL     1      34.904  71.946  23.729  1.00  0.00     0.042 C 
BRANCH  33  35
HETATM   35  O5  UNL     1      34.896  74.366  23.560  1.00  0.00    -0.393 OA
ATOM     36  H5  UNL     1      34.198  74.241  24.192  1.00  0.00     0.210 HD
ENDBRANCH  33  35
ENDBRANCH  19  33
ENDBRANCH   1  19
TORSDOF 14
ENDMDL
