MODEL 1
REMARK VINA RESULT: -7.078568303      0.000      0.000
REMARK  8 active torsions:
REMARK  status: ('A' for Active; 'I' for Inactive)
REMARK       I    between atoms: C2_2  and  N1_4 
REMARK    1  A    between atoms: N1_4  and  C3_6 
REMARK    2  A    between atoms: C3_6  and  C6_9 
REMARK    3  A    between atoms: C6_9  and  C9_12 
REMARK    4  A    between atoms: C10_13  and  O2_14 
REMARK    5  A    between atoms: C11_16  and  C12_17 
REMARK    6  A    between atoms: C12_17  and  O3_18 
REMARK    7  A    between atoms: C12_17  and  N2_20 
REMARK    8  A    between atoms: N3_27  and  C18_28 
ROOT
HETATM    1  C9  UNL     1       8.872   0.298   2.817  1.00  0.00     0.056 A 
HETATM    2  C10 UNL     1       7.720   0.683   3.538  1.00  0.00     0.101 A 
HETATM    3  C11 UNL     1       7.942   1.863   4.174  1.00  0.00     0.051 A 
HETATM    4  C17 UNL     1       9.212   2.214   3.858  1.00  0.00     0.106 A 
HETATM    5  N3  UNL     1       9.794   1.283   3.038  1.00  0.00    -0.352 N 
ENDROOT
BRANCH   1   6
HETATM    6  C6  UNL     1       9.094  -0.907   2.066  1.00  0.00     0.022 C 
HETATM    7  C7  UNL     1       7.813  -1.093   1.196  1.00  0.00     0.024 C 
HETATM    8  C8  UNL     1      10.268  -0.780   1.124  1.00  0.00     0.024 C 
BRANCH   6   9
HETATM    9  C3  UNL     1       9.263  -2.214   2.770  1.00  0.00     0.038 C 
HETATM   10  C4  UNL     1       9.975  -3.318   2.074  1.00  0.00     0.039 C 
HETATM   11  C5  UNL     1      10.017  -2.010   4.069  1.00  0.00     0.039 C 
BRANCH   9  12
HETATM   12  N1  UNL     1       7.942  -2.676   3.263  1.00  0.00    -0.352 N 
HETATM   13  C2  UNL     1       7.704  -3.841   3.975  1.00  0.00     0.214 C 
HETATM   14  C1  UNL     1       6.325  -4.173   4.409  1.00  0.00     0.117 C 
HETATM   15  O1  UNL     1       8.600  -4.648   4.282  1.00  0.00    -0.274 OA
ATOM     16  H1  UNL     1       7.137  -2.083   3.060  1.00  0.00     0.163 HD
ENDBRANCH   9  12
ENDBRANCH   6   9
ENDBRANCH   1   6
BRANCH   2  17
HETATM   17  O2  UNL     1       6.539  -0.007   3.601  1.00  0.00    -0.358 OA
ATOM     18  H2  UNL     1       6.227  -0.643   2.968  1.00  0.00     0.217 HD
ENDBRANCH   2  17
BRANCH   5  19
HETATM   19  C18 UNL     1      11.158   1.467   2.614  1.00  0.00     0.089 A 
HETATM   20  C19 UNL     1      11.802   2.823   3.020  1.00  0.00     0.028 A 
HETATM   21  C20 UNL     1      11.660   2.431   1.637  1.00  0.00     0.028 A 
ENDBRANCH   5  19
BRANCH   3  22
HETATM   22  C12 UNL     1       6.958   2.593   5.039  1.00  0.00     0.395 C 
BRANCH  22  23
HETATM   23  O3  UNL     1       6.422   3.604   4.235  1.00  0.00    -0.364 OA
ATOM     24  H3  UNL     1       7.167   4.089   3.901  1.00  0.00     0.212 HD
ENDBRANCH  22  23
BRANCH  22  25
HETATM   25  N2  UNL     1       7.621   3.198   6.176  1.00  0.00     0.126 N 
HETATM   26  C13 UNL     1       6.778   4.092   6.904  1.00  0.00     0.302 C 
HETATM   27  C14 UNL     1       7.049   4.091   8.391  1.00  0.00     0.198 C 
HETATM   28  O4  UNL     1       6.847   2.841   8.966  1.00  0.00    -0.388 OA
HETATM   29  C15 UNL     1       7.139   1.800   8.079  1.00  0.00     0.198 C 
HETATM   30  C16 UNL     1       8.190   2.249   7.076  1.00  0.00     0.302 C 
ENDBRANCH  22  25
ENDBRANCH   3  22
TORSDOF 8
ENDMDL
MODEL 2
REMARK VINA RESULT: -7.011561024      1.582      2.256
REMARK  8 active torsions:
REMARK  status: ('A' for Active; 'I' for Inactive)
REMARK       I    between atoms: C2_2  and  N1_4 
REMARK    1  A    between atoms: N1_4  and  C3_6 
REMARK    2  A    between atoms: C3_6  and  C6_9 
REMARK    3  A    between atoms: C6_9  and  C9_12 
REMARK    4  A    between atoms: C10_13  and  O2_14 
REMARK    5  A    between atoms: C11_16  and  C12_17 
REMARK    6  A    between atoms: C12_17  and  O3_18 
REMARK    7  A    between atoms: C12_17  and  N2_20 
REMARK    8  A    between atoms: N3_27  and  C18_28 
ROOT
HETATM    1  C9  UNL     1       8.729   0.755   2.769  1.00  0.00     0.056 A 
HETATM    2  C10 UNL     1       8.020   1.417   3.796  1.00  0.00     0.101 A 
HETATM    3  C11 UNL     1       8.662   2.566   4.137  1.00  0.00     0.051 A 
HETATM    4  C17 UNL     1       9.754   2.624   3.338  1.00  0.00     0.106 A 
HETATM    5  N3  UNL     1       9.815   1.540   2.502  1.00  0.00    -0.352 N 
ENDROOT
BRANCH   1   6
HETATM    6  C6  UNL     1       8.444  -0.517   2.164  1.00  0.00     0.022 C 
HETATM    7  C7  UNL     1       6.895  -0.681   2.258  1.00  0.00     0.024 C 
HETATM    8  C8  UNL     1       8.817  -0.547   0.701  1.00  0.00     0.024 C 
BRANCH   6   9
HETATM    9  C3  UNL     1       8.990  -1.774   2.760  1.00  0.00     0.038 C 
HETATM   10  C4  UNL     1       9.835  -2.660   1.917  1.00  0.00     0.039 C 
HETATM   11  C5  UNL     1       9.841  -1.447   3.971  1.00  0.00     0.039 C 
BRANCH   9  12
HETATM   12  N1  UNL     1       7.882  -2.544   3.375  1.00  0.00    -0.352 N 
HETATM   13  C2  UNL     1       7.933  -3.874   3.759  1.00  0.00     0.214 C 
HETATM   14  C1  UNL     1       6.742  -4.515   4.368  1.00  0.00     0.117 C 
HETATM   15  O1  UNL     1       8.945  -4.586   3.620  1.00  0.00    -0.274 OA
ATOM     16  H1  UNL     1       7.003  -2.050   3.530  1.00  0.00     0.163 HD
ENDBRANCH   9  12
ENDBRANCH   6   9
ENDBRANCH   1   6
BRANCH   2  17
HETATM   17  O2  UNL     1       6.856   0.992   4.378  1.00  0.00    -0.358 OA
ATOM     18  H2  UNL     1       6.196   1.545   4.778  1.00  0.00     0.217 HD
ENDBRANCH   2  17
BRANCH   5  19
HETATM   19  C18 UNL     1      10.924   1.410   1.592  1.00  0.00     0.089 A 
HETATM   20  C19 UNL     1      12.101   0.530   2.101  1.00  0.00     0.028 A 
HETATM   21  C20 UNL     1      12.281   1.924   1.768  1.00  0.00     0.028 A 
ENDBRANCH   5  19
BRANCH   3  22
HETATM   22  C12 UNL     1       8.218   3.540   5.189  1.00  0.00     0.395 C 
BRANCH  22  23
HETATM   23  O3  UNL     1       8.116   2.800   6.371  1.00  0.00    -0.364 OA
ATOM     24  H3  UNL     1       7.252   2.987   6.718  1.00  0.00     0.212 HD
ENDBRANCH  22  23
BRANCH  22  25
HETATM   25  N2  UNL     1       6.918   4.091   4.865  1.00  0.00     0.126 N 
HETATM   26  C13 UNL     1       6.287   4.723   5.978  1.00  0.00     0.302 C 
HETATM   27  C14 UNL     1       5.454   5.925   5.591  1.00  0.00     0.198 C 
HETATM   28  O4  UNL     1       6.212   6.919   4.980  1.00  0.00    -0.388 OA
HETATM   29  C15 UNL     1       7.281   6.393   4.250  1.00  0.00     0.198 C 
HETATM   30  C16 UNL     1       6.941   4.994   3.760  1.00  0.00     0.302 C 
ENDBRANCH  22  25
ENDBRANCH   3  22
TORSDOF 8
ENDMDL
MODEL 3
REMARK VINA RESULT: -6.995471074      1.775      2.806
REMARK  8 active torsions:
REMARK  status: ('A' for Active; 'I' for Inactive)
REMARK       I    between atoms: C2_2  and  N1_4 
REMARK    1  A    between atoms: N1_4  and  C3_6 
REMARK    2  A    between atoms: C3_6  and  C6_9 
REMARK    3  A    between atoms: C6_9  and  C9_12 
REMARK    4  A    between atoms: C10_13  and  O2_14 
REMARK    5  A    between atoms: C11_16  and  C12_17 
REMARK    6  A    between atoms: C12_17  and  O3_18 
REMARK    7  A    between atoms: C12_17  and  N2_20 
REMARK    8  A    between atoms: N3_27  and  C18_28 
ROOT
HETATM    1  C9  UNL     1       8.664   1.197   3.125  1.00  0.00     0.056 A 
HETATM    2  C10 UNL     1       7.951   1.649   4.258  1.00  0.00     0.101 A 
HETATM    3  C11 UNL     1       8.528   2.775   4.752  1.00  0.00     0.051 A 
HETATM    4  C17 UNL     1       9.586   3.028   3.943  1.00  0.00     0.106 A 
HETATM    5  N3  UNL     1       9.688   2.087   2.953  1.00  0.00    -0.352 N 
ENDROOT
BRANCH   1   6
HETATM    6  C6  UNL     1       8.442   0.012   2.343  1.00  0.00     0.022 C 
HETATM    7  C7  UNL     1       6.933  -0.333   2.536  1.00  0.00     0.024 C 
HETATM    8  C8  UNL     1       8.668   0.253   0.870  1.00  0.00     0.024 C 
BRANCH   6   9
HETATM    9  C3  UNL     1       9.161  -1.256   2.674  1.00  0.00     0.038 C 
HETATM   10  C4  UNL     1       9.994  -1.308   3.905  1.00  0.00     0.039 C 
HETATM   11  C5  UNL     1       8.169  -2.392   2.816  1.00  0.00     0.039 C 
BRANCH   9  12
HETATM   12  N1  UNL     1       9.947  -1.693   1.495  1.00  0.00    -0.352 N 
HETATM   13  C2  UNL     1      10.972  -2.625   1.503  1.00  0.00     0.214 C 
HETATM   14  C1  UNL     1      11.670  -2.969   0.240  1.00  0.00     0.117 C 
HETATM   15  O1  UNL     1      11.355  -3.208   2.533  1.00  0.00    -0.274 OA
ATOM     16  H1  UNL     1       9.712  -1.270   0.597  1.00  0.00     0.163 HD
ENDBRANCH   9  12
ENDBRANCH   6   9
ENDBRANCH   1   6
BRANCH   2  17
HETATM   17  O2  UNL     1       6.838   1.062   4.797  1.00  0.00    -0.358 OA
ATOM     18  H2  UNL     1       6.443   1.274   5.635  1.00  0.00     0.217 HD
ENDBRANCH   2  17
BRANCH   5  19
HETATM   19  C18 UNL     1      10.770   2.170   2.006  1.00  0.00     0.089 A 
HETATM   20  C19 UNL     1      12.002   1.276   2.326  1.00  0.00     0.028 A 
HETATM   21  C20 UNL     1      12.108   2.714   2.235  1.00  0.00     0.028 A 
ENDBRANCH   5  19
BRANCH   3  22
HETATM   22  C12 UNL     1       8.059   3.549   5.949  1.00  0.00     0.395 C 
BRANCH  22  23
HETATM   23  O3  UNL     1       8.359   2.750   7.057  1.00  0.00    -0.364 OA
ATOM     24  H3  UNL     1       8.812   3.319   7.669  1.00  0.00     0.212 HD
ENDBRANCH  22  23
BRANCH  22  25
HETATM   25  N2  UNL     1       6.627   3.762   5.895  1.00  0.00     0.126 N 
HETATM   26  C13 UNL     1       6.113   4.393   7.069  1.00  0.00     0.302 C 
HETATM   27  C14 UNL     1       4.956   5.326   6.788  1.00  0.00     0.198 C 
HETATM   28  O4  UNL     1       5.309   6.365   5.933  1.00  0.00    -0.388 OA
HETATM   29  C15 UNL     1       6.295   5.983   5.018  1.00  0.00     0.198 C 
HETATM   30  C16 UNL     1       6.201   4.489   4.744  1.00  0.00     0.302 C 
ENDBRANCH  22  25
ENDBRANCH   3  22
TORSDOF 8
ENDMDL
MODEL 4
REMARK VINA RESULT: -6.853769483      1.017      1.630
REMARK  8 active torsions:
REMARK  status: ('A' for Active; 'I' for Inactive)
REMARK       I    between atoms: C2_2  and  N1_4 
REMARK    1  A    between atoms: N1_4  and  C3_6 
REMARK    2  A    between atoms: C3_6  and  C6_9 
REMARK    3  A    between atoms: C6_9  and  C9_12 
REMARK    4  A    between atoms: C10_13  and  O2_14 
REMARK    5  A    between atoms: C11_16  and  C12_17 
REMARK    6  A    between atoms: C12_17  and  O3_18 
REMARK    7  A    between atoms: C12_17  and  N2_20 
REMARK    8  A    between atoms: N3_27  and  C18_28 
ROOT
HETATM    1  C9  UNL     1       8.694   0.794   2.677  1.00  0.00     0.056 A 
HETATM    2  C10 UNL     1       7.608   1.060   3.540  1.00  0.00     0.101 A 
HETATM    3  C11 UNL     1       7.734   2.300   4.079  1.00  0.00     0.051 A 
HETATM    4  C17 UNL     1       8.881   2.806   3.564  1.00  0.00     0.106 A 
HETATM    5  N3  UNL     1       9.478   1.914   2.713  1.00  0.00    -0.352 N 
ENDROOT
BRANCH   1   6
HETATM    6  C6  UNL     1       8.991  -0.415   1.960  1.00  0.00     0.022 C 
HETATM    7  C7  UNL     1       7.682  -0.768   1.187  1.00  0.00     0.024 C 
HETATM    8  C8  UNL     1      10.083  -0.215   0.937  1.00  0.00     0.024 C 
BRANCH   6   9
HETATM    9  C3  UNL     1       9.336  -1.666   2.701  1.00  0.00     0.038 C 
HETATM   10  C4  UNL     1      10.046  -1.556   4.003  1.00  0.00     0.039 C 
HETATM   11  C5  UNL     1       8.078  -2.457   2.999  1.00  0.00     0.039 C 
BRANCH   9  12
HETATM   12  N1  UNL     1      10.058  -2.588   1.792  1.00  0.00    -0.352 N 
HETATM   13  C2  UNL     1       9.932  -3.968   1.767  1.00  0.00     0.214 C 
HETATM   14  C1  UNL     1      10.718  -4.765   0.794  1.00  0.00     0.117 C 
HETATM   15  O1  UNL     1       9.178  -4.597   2.531  1.00  0.00    -0.274 OA
ATOM     16  H1  UNL     1      10.706  -2.170   1.124  1.00  0.00     0.163 HD
ENDBRANCH   9  12
ENDBRANCH   6   9
ENDBRANCH   1   6
BRANCH   2  17
HETATM   17  O2  UNL     1       6.565   0.214   3.809  1.00  0.00    -0.358 OA
ATOM     18  H2  UNL     1       5.707   0.467   4.129  1.00  0.00     0.217 HD
ENDBRANCH   2  17
BRANCH   5  19
HETATM   19  C18 UNL     1      10.726   2.261   2.085  1.00  0.00     0.089 A 
HETATM   20  C19 UNL     1      12.003   1.871   2.883  1.00  0.00     0.028 A 
HETATM   21  C20 UNL     1      11.706   3.244   2.544  1.00  0.00     0.028 A 
ENDBRANCH   5  19
BRANCH   3  22
HETATM   22  C12 UNL     1       6.780   2.940   5.044  1.00  0.00     0.395 C 
BRANCH  22  23
HETATM   23  O3  UNL     1       6.204   4.011   4.354  1.00  0.00    -0.364 OA
ATOM     24  H3  UNL     1       6.884   4.343   3.780  1.00  0.00     0.212 HD
ENDBRANCH  22  23
BRANCH  22  25
HETATM   25  N2  UNL     1       7.484   3.450   6.203  1.00  0.00     0.126 N 
HETATM   26  C13 UNL     1       6.650   4.225   7.065  1.00  0.00     0.302 C 
HETATM   27  C14 UNL     1       7.005   4.080   8.528  1.00  0.00     0.198 C 
HETATM   28  O4  UNL     1       6.882   2.768   8.975  1.00  0.00    -0.388 OA
HETATM   29  C15 UNL     1       7.162   1.840   7.968  1.00  0.00     0.198 C 
HETATM   30  C16 UNL     1       8.137   2.437   6.965  1.00  0.00     0.302 C 
ENDBRANCH  22  25
ENDBRANCH   3  22
TORSDOF 8
ENDMDL
MODEL 5
REMARK VINA RESULT: -6.836450251      3.508      5.572
REMARK  8 active torsions:
REMARK  status: ('A' for Active; 'I' for Inactive)
REMARK       I    between atoms: C2_2  and  N1_4 
REMARK    1  A    between atoms: N1_4  and  C3_6 
REMARK    2  A    between atoms: C3_6  and  C6_9 
REMARK    3  A    between atoms: C6_9  and  C9_12 
REMARK    4  A    between atoms: C10_13  and  O2_14 
REMARK    5  A    between atoms: C11_16  and  C12_17 
REMARK    6  A    between atoms: C12_17  and  O3_18 
REMARK    7  A    between atoms: C12_17  and  N2_20 
REMARK    8  A    between atoms: N3_27  and  C18_28 
ROOT
HETATM    1  C9  UNL     1       8.204   3.410   4.242  1.00  0.00     0.056 A 
HETATM    2  C10 UNL     1       8.247   4.694   3.657  1.00  0.00     0.101 A 
HETATM    3  C11 UNL     1       7.143   5.403   4.009  1.00  0.00     0.051 A 
HETATM    4  C17 UNL     1       6.417   4.578   4.801  1.00  0.00     0.106 A 
HETATM    5  N3  UNL     1       7.039   3.367   4.957  1.00  0.00    -0.352 N 
ENDROOT
BRANCH   1   6
HETATM    6  C6  UNL     1       9.127   2.321   4.078  1.00  0.00     0.022 C 
HETATM    7  C7  UNL     1      10.498   2.989   3.751  1.00  0.00     0.024 C 
HETATM    8  C8  UNL     1       9.301   1.527   5.351  1.00  0.00     0.024 C 
BRANCH   6   9
HETATM    9  C3  UNL     1       8.928   1.321   2.985  1.00  0.00     0.038 C 
HETATM   10  C4  UNL     1       7.604   1.247   2.313  1.00  0.00     0.039 C 
HETATM   11  C5  UNL     1       9.927   1.564   1.872  1.00  0.00     0.039 C 
BRANCH   9  12
HETATM   12  N1  UNL     1       9.342  -0.018   3.468  1.00  0.00    -0.352 N 
HETATM   13  C2  UNL     1       9.409  -1.172   2.703  1.00  0.00     0.214 C 
HETATM   14  C1  UNL     1       9.847  -2.446   3.323  1.00  0.00     0.117 C 
HETATM   15  O1  UNL     1       9.117  -1.206   1.494  1.00  0.00    -0.274 OA
ATOM     16  H1  UNL     1       9.601  -0.098   4.452  1.00  0.00     0.163 HD
ENDBRANCH   9  12
ENDBRANCH   6   9
ENDBRANCH   1   6
BRANCH   2  17
HETATM   17  O2  UNL     1       9.244   5.183   2.855  1.00  0.00    -0.358 OA
ATOM     18  H2  UNL     1       9.265   5.150   1.906  1.00  0.00     0.217 HD
ENDBRANCH   2  17
BRANCH   5  19
HETATM   19  C18 UNL     1       6.406   2.343   5.747  1.00  0.00     0.089 A 
HETATM   20  C19 UNL     1       5.098   2.775   6.470  1.00  0.00     0.028 A 
HETATM   21  C20 UNL     1       6.255   2.311   7.201  1.00  0.00     0.028 A 
ENDBRANCH   5  19
BRANCH   3  22
HETATM   22  C12 UNL     1       6.829   6.807   3.583  1.00  0.00     0.395 C 
BRANCH  22  23
HETATM   23  O3  UNL     1       7.015   7.599   4.721  1.00  0.00    -0.364 OA
ATOM     24  H3  UNL     1       7.724   8.193   4.508  1.00  0.00     0.212 HD
ENDBRANCH  22  23
BRANCH  22  25
HETATM   25  N2  UNL     1       5.450   6.919   3.153  1.00  0.00     0.126 N 
HETATM   26  C13 UNL     1       4.667   7.760   4.001  1.00  0.00     0.302 C 
HETATM   27  C14 UNL     1       3.606   8.538   3.255  1.00  0.00     0.198 C 
HETATM   28  O4  UNL     1       4.148   9.383   2.293  1.00  0.00    -0.388 OA
HETATM   29  C15 UNL     1       5.325   8.869   1.742  1.00  0.00     0.198 C 
HETATM   30  C16 UNL     1       5.307   7.349   1.800  1.00  0.00     0.302 C 
ENDBRANCH  22  25
ENDBRANCH   3  22
TORSDOF 8
ENDMDL
