MODEL 1
REMARK VINA RESULT: -4.901741357      0.000      0.000
REMARK  4 active torsions:
REMARK  status: ('A' for Active; 'I' for Inactive)
REMARK    1  A    between atoms: N1_1  and  N2_4 
REMARK    2  A    between atoms: N2_4  and  C1_6 
REMARK    3  A    between atoms: C2_9  and  C3_10 
REMARK       I    between atoms: C3_10  and  N4_12 
REMARK    4  A    between atoms: N4_12  and  N5_14 
ROOT
HETATM    1  C1  UNL     1     -22.020 -37.784  25.338  1.00  0.00     0.192 A 
HETATM    2  N3  UNL     1     -20.771 -38.245  25.671  1.00  0.00    -0.317 N 
ATOM      3  H3  UNL     1     -20.032 -38.307  24.971  1.00  0.00     0.169 HD
HETATM    4  C2  UNL     1     -20.549 -38.612  26.935  1.00  0.00     0.192 A 
HETATM    5  N6  UNL     1     -21.572 -38.509  27.835  1.00  0.00    -0.278 N 
ATOM      6  H6  UNL     1     -21.391 -38.790  28.799  1.00  0.00     0.189 HD
HETATM    7  N7  UNL     1     -22.770 -38.070  27.535  1.00  0.00    -0.262 N 
ATOM      8  H7  UNL     1     -23.499 -38.014  28.247  1.00  0.00     0.190 HD
HETATM    9  C4  UNL     1     -23.016 -37.696  26.268  1.00  0.00     0.305 A 
HETATM   10  O2  UNL     1     -24.148 -37.269  25.935  1.00  0.00    -0.263 OA
ENDROOT
BRANCH   4  11
HETATM   11  C3  UNL     1     -19.246 -39.110  27.354  1.00  0.00     0.304 C 
HETATM   12  O1  UNL     1     -18.561 -39.839  26.573  1.00  0.00    -0.263 OA
HETATM   13  N4  UNL     1     -18.734 -38.789  28.622  1.00  0.00    -0.270 N 
ATOM     14  H4  UNL     1     -19.263 -38.204  29.270  1.00  0.00     0.189 HD
BRANCH  13  15
HETATM   15  N5  UNL     1     -17.465 -39.299  28.976  1.00  0.00    -0.342 N 
ATOM     16  H52 UNL     1     -16.987 -39.950  28.354  1.00  0.00     0.176 HD
ATOM     17  H51 UNL     1     -17.055 -38.997  29.859  1.00  0.00     0.176 HD
ENDBRANCH  13  15
ENDBRANCH   4  11
BRANCH   1  18
HETATM   18  N2  UNL     1     -22.208 -37.439  24.117  1.00  0.00    -0.287 N 
ATOM     19  H2  UNL     1     -22.365 -36.454  23.908  1.00  0.00     0.188 HD
BRANCH  18  20
HETATM   20  N1  UNL     1     -22.206 -38.341  23.073  1.00  0.00    -0.343 N 
ATOM     21  H12 UNL     1     -22.289 -39.331  23.306  1.00  0.00     0.176 HD
ATOM     22  H11 UNL     1     -22.128 -38.060  22.096  1.00  0.00     0.176 HD
ENDBRANCH  18  20
ENDBRANCH   1  18
TORSDOF 4
ENDMDL
MODEL 2
REMARK VINA RESULT: -4.798401286      1.612      1.678
REMARK  4 active torsions:
REMARK  status: ('A' for Active; 'I' for Inactive)
REMARK    1  A    between atoms: N1_1  and  N2_4 
REMARK    2  A    between atoms: N2_4  and  C1_6 
REMARK    3  A    between atoms: C2_9  and  C3_10 
REMARK       I    between atoms: C3_10  and  N4_12 
REMARK    4  A    between atoms: N4_12  and  N5_14 
ROOT
HETATM    1  C1  UNL     1     -22.630 -37.848  25.478  1.00  0.00     0.192 A 
HETATM    2  N3  UNL     1     -21.601 -37.987  26.375  1.00  0.00    -0.317 N 
ATOM      3  H3  UNL     1     -20.647 -37.734  26.120  1.00  0.00     0.169 HD
HETATM    4  C2  UNL     1     -21.882 -38.461  27.590  1.00  0.00     0.192 A 
HETATM    5  N6  UNL     1     -23.177 -38.784  27.884  1.00  0.00    -0.278 N 
ATOM      6  H6  UNL     1     -23.381 -39.145  28.816  1.00  0.00     0.189 HD
HETATM    7  N7  UNL     1     -24.172 -38.658  27.040  1.00  0.00    -0.262 N 
ATOM      8  H7  UNL     1     -25.122 -38.915  27.310  1.00  0.00     0.190 HD
HETATM    9  C4  UNL     1     -23.912 -38.182  25.810  1.00  0.00     0.305 A 
HETATM   10  O2  UNL     1     -24.833 -38.044  24.969  1.00  0.00    -0.263 OA
ENDROOT
BRANCH   4  11
HETATM   11  C3  UNL     1     -20.836 -38.632  28.589  1.00  0.00     0.304 C 
HETATM   12  O1  UNL     1     -21.097 -39.195  29.697  1.00  0.00    -0.263 OA
HETATM   13  N4  UNL     1     -19.529 -38.180  28.339  1.00  0.00    -0.270 N 
ATOM     14  H4  UNL     1     -19.291 -37.726  27.457  1.00  0.00     0.189 HD
BRANCH  13  15
HETATM   15  N5  UNL     1     -18.555 -38.373  29.343  1.00  0.00    -0.342 N 
ATOM     16  H52 UNL     1     -18.602 -37.835  30.209  1.00  0.00     0.176 HD
ATOM     17  H51 UNL     1     -17.818 -39.056  29.172  1.00  0.00     0.176 HD
ENDBRANCH  13  15
ENDBRANCH   4  11
BRANCH   1  18
HETATM   18  N2  UNL     1     -22.333 -37.390  24.317  1.00  0.00    -0.287 N 
ATOM     19  H2  UNL     1     -22.182 -36.388  24.213  1.00  0.00     0.188 HD
BRANCH  18  20
HETATM   20  N1  UNL     1     -22.210 -38.194  23.202  1.00  0.00    -0.343 N 
ATOM     21  H12 UNL     1     -22.987 -38.816  22.982  1.00  0.00     0.176 HD
ATOM     22  H11 UNL     1     -21.385 -38.189  22.603  1.00  0.00     0.176 HD
ENDBRANCH  18  20
ENDBRANCH   1  18
TORSDOF 4
ENDMDL
MODEL 3
REMARK VINA RESULT: -4.773378867      1.978      2.513
REMARK  4 active torsions:
REMARK  status: ('A' for Active; 'I' for Inactive)
REMARK    1  A    between atoms: N1_1  and  N2_4 
REMARK    2  A    between atoms: N2_4  and  C1_6 
REMARK    3  A    between atoms: C2_9  and  C3_10 
REMARK       I    between atoms: C3_10  and  N4_12 
REMARK    4  A    between atoms: N4_12  and  N5_14 
ROOT
HETATM    1  C1  UNL     1     -21.452 -38.394  24.577  1.00  0.00     0.192 A 
HETATM    2  N3  UNL     1     -20.836 -38.188  25.786  1.00  0.00    -0.317 N 
ATOM      3  H3  UNL     1     -21.044 -37.360  26.345  1.00  0.00     0.169 HD
HETATM    4  C2  UNL     1     -19.958 -39.098  26.211  1.00  0.00     0.192 A 
HETATM    5  N6  UNL     1     -19.716 -40.190  25.426  1.00  0.00    -0.278 N 
ATOM      6  H6  UNL     1     -19.044 -40.881  25.761  1.00  0.00     0.189 HD
HETATM    7  N7  UNL     1     -20.296 -40.403  24.270  1.00  0.00    -0.262 N 
ATOM      8  H7  UNL     1     -20.078 -41.236  23.722  1.00  0.00     0.190 HD
HETATM    9  C4  UNL     1     -21.183 -39.498  23.822  1.00  0.00     0.305 A 
HETATM   10  O2  UNL     1     -21.762 -39.661  22.721  1.00  0.00    -0.263 OA
ENDROOT
BRANCH   4  11
HETATM   11  C3  UNL     1     -19.270 -38.940  27.485  1.00  0.00     0.304 C 
HETATM   12  O1  UNL     1     -18.266 -39.665  27.762  1.00  0.00    -0.263 OA
HETATM   13  N4  UNL     1     -19.706 -37.984  28.418  1.00  0.00    -0.270 N 
ATOM     14  H4  UNL     1     -20.510 -37.387  28.221  1.00  0.00     0.189 HD
BRANCH  13  15
HETATM   15  N5  UNL     1     -19.001 -37.873  29.636  1.00  0.00    -0.342 N 
ATOM     16  H52 UNL     1     -18.079 -38.298  29.732  1.00  0.00     0.176 HD
ATOM     17  H51 UNL     1     -19.442 -37.363  30.401  1.00  0.00     0.176 HD
ENDBRANCH  13  15
ENDBRANCH   4  11
BRANCH   1  18
HETATM   18  N2  UNL     1     -22.291 -37.503  24.191  1.00  0.00    -0.287 N 
ATOM     19  H2  UNL     1     -21.967 -36.543  24.085  1.00  0.00     0.188 HD
BRANCH  18  20
HETATM   20  N1  UNL     1     -23.612 -37.786  23.914  1.00  0.00    -0.343 N 
ATOM     21  H12 UNL     1     -23.862 -38.763  23.762  1.00  0.00     0.176 HD
ATOM     22  H11 UNL     1     -24.334 -37.068  23.856  1.00  0.00     0.176 HD
ENDBRANCH  18  20
ENDBRANCH   1  18
TORSDOF 4
ENDMDL
MODEL 4
REMARK VINA RESULT: -4.728214258      2.817      4.148
REMARK  4 active torsions:
REMARK  status: ('A' for Active; 'I' for Inactive)
REMARK    1  A    between atoms: N1_1  and  N2_4 
REMARK    2  A    between atoms: N2_4  and  C1_6 
REMARK    3  A    between atoms: C2_9  and  C3_10 
REMARK       I    between atoms: C3_10  and  N4_12 
REMARK    4  A    between atoms: N4_12  and  N5_14 
ROOT
HETATM    1  C1  UNL     1     -21.345 -38.284  25.646  1.00  0.00     0.192 A 
HETATM    2  N3  UNL     1     -20.727 -39.335  25.017  1.00  0.00    -0.317 N 
ATOM      3  H3  UNL     1     -20.059 -39.923  25.515  1.00  0.00     0.169 HD
HETATM    4  C2  UNL     1     -21.021 -39.566  23.736  1.00  0.00     0.192 A 
HETATM    5  N6  UNL     1     -21.923 -38.749  23.115  1.00  0.00    -0.278 N 
ATOM      6  H6  UNL     1     -22.143 -38.935  22.136  1.00  0.00     0.189 HD
HETATM    7  N7  UNL     1     -22.524 -37.742  23.700  1.00  0.00    -0.262 N 
ATOM      8  H7  UNL     1     -23.190 -37.163  23.189  1.00  0.00     0.190 HD
HETATM    9  C4  UNL     1     -22.242 -37.491  24.990  1.00  0.00     0.305 A 
HETATM   10  O2  UNL     1     -22.793 -36.537  25.592  1.00  0.00    -0.263 OA
ENDROOT
BRANCH   4  11
HETATM   11  C3  UNL     1     -20.400 -40.665  23.009  1.00  0.00     0.304 C 
HETATM   12  O1  UNL     1     -21.066 -41.317  22.147  1.00  0.00    -0.263 OA
HETATM   13  N4  UNL     1     -19.061 -41.014  23.252  1.00  0.00    -0.270 N 
ATOM     14  H4  UNL     1     -18.502 -40.507  23.939  1.00  0.00     0.189 HD
BRANCH  13  15
HETATM   15  N5  UNL     1     -18.510 -42.088  22.519  1.00  0.00    -0.342 N 
ATOM     16  H52 UNL     1     -18.185 -41.939  21.564  1.00  0.00     0.176 HD
ATOM     17  H51 UNL     1     -18.450 -42.999  22.974  1.00  0.00     0.176 HD
ENDBRANCH  13  15
ENDBRANCH   4  11
BRANCH   1  18
HETATM   18  N2  UNL     1     -21.044 -38.083  26.877  1.00  0.00    -0.287 N 
ATOM     19  H2  UNL     1     -20.065 -37.941  27.122  1.00  0.00     0.188 HD
BRANCH  18  20
HETATM   20  N1  UNL     1     -21.985 -38.050  27.885  1.00  0.00    -0.343 N 
ATOM     21  H12 UNL     1     -21.665 -38.239  28.835  1.00  0.00     0.176 HD
ATOM     22  H11 UNL     1     -22.970 -37.846  27.718  1.00  0.00     0.176 HD
ENDBRANCH  18  20
ENDBRANCH   1  18
TORSDOF 4
ENDMDL
MODEL 5
REMARK VINA RESULT: -4.695214762      2.436      4.238
REMARK  4 active torsions:
REMARK  status: ('A' for Active; 'I' for Inactive)
REMARK    1  A    between atoms: N1_1  and  N2_4 
REMARK    2  A    between atoms: N2_4  and  C1_6 
REMARK    3  A    between atoms: C2_9  and  C3_10 
REMARK       I    between atoms: C3_10  and  N4_12 
REMARK    4  A    between atoms: N4_12  and  N5_14 
ROOT
HETATM    1  C1  UNL     1     -22.111 -38.615  25.928  1.00  0.00     0.192 A 
HETATM    2  N3  UNL     1     -21.359 -39.524  25.226  1.00  0.00    -0.317 N 
ATOM      3  H3  UNL     1     -20.883 -40.289  25.704  1.00  0.00     0.169 HD
HETATM    4  C2  UNL     1     -21.268 -39.382  23.902  1.00  0.00     0.192 A 
HETATM    5  N6  UNL     1     -21.927 -38.342  23.310  1.00  0.00    -0.278 N 
ATOM      6  H6  UNL     1     -21.852 -38.242  22.297  1.00  0.00     0.189 HD
HETATM    7  N7  UNL     1     -22.649 -37.465  23.964  1.00  0.00    -0.262 N 
ATOM      8  H7  UNL     1     -23.121 -36.706  23.471  1.00  0.00     0.190 HD
HETATM    9  C4  UNL     1     -22.754 -37.589  25.298  1.00  0.00     0.305 A 
HETATM   10  O2  UNL     1     -23.435 -36.773  25.965  1.00  0.00    -0.263 OA
ENDROOT
BRANCH   4  11
HETATM   11  C3  UNL     1     -20.487 -40.312  23.099  1.00  0.00     0.304 C 
HETATM   12  O1  UNL     1     -19.409 -39.930  22.549  1.00  0.00    -0.263 OA
HETATM   13  N4  UNL     1     -20.915 -41.639  22.926  1.00  0.00    -0.270 N 
ATOM     14  H4  UNL     1     -21.777 -41.973  23.357  1.00  0.00     0.189 HD
BRANCH  13  15
HETATM   15  N5  UNL     1     -20.118 -42.498  22.137  1.00  0.00    -0.342 N 
ATOM     16  H52 UNL     1     -19.773 -42.182  21.231  1.00  0.00     0.176 HD
ATOM     17  H51 UNL     1     -19.906 -43.426  22.502  1.00  0.00     0.176 HD
ENDBRANCH  13  15
ENDBRANCH   4  11
BRANCH   1  18
HETATM   18  N2  UNL     1     -22.182 -38.775  27.199  1.00  0.00    -0.287 N 
ATOM     19  H2  UNL     1     -22.684 -39.584  27.561  1.00  0.00     0.188 HD
BRANCH  18  20
HETATM   20  N1  UNL     1     -21.608 -37.900  28.098  1.00  0.00    -0.343 N 
ATOM     21  H12 UNL     1     -20.607 -37.991  28.271  1.00  0.00     0.176 HD
ATOM     22  H11 UNL     1     -22.139 -37.179  28.587  1.00  0.00     0.176 HD
ENDBRANCH  18  20
ENDBRANCH   1  18
TORSDOF 4
ENDMDL
