MODEL 1
REMARK VINA RESULT: -4.757649286      0.000      0.000
REMARK  3 active torsions:
REMARK  status: ('A' for Active; 'I' for Inactive)
REMARK    1  A    between atoms: N1_1  and  C1_4 
REMARK    2  A    between atoms: C2_7  and  O1_8 
REMARK    3  A    between atoms: C3_10  and  C4_11 
ROOT
HETATM    1  C1  UNL     1     -23.776 -38.737  23.978  1.00  0.00     0.679 A 
HETATM    2  N2  UNL     1     -23.028 -37.635  24.161  1.00  0.00    -0.170 N 
ATOM      3  H2  UNL     1     -23.366 -36.725  23.845  1.00  0.00     0.186 HD
HETATM    4  C2  UNL     1     -21.814 -37.743  24.773  1.00  0.00     0.174 A 
HETATM    5  C3  UNL     1     -21.331 -38.954  25.212  1.00  0.00     0.122 A 
HETATM    6  C5  UNL     1     -22.118 -40.069  25.013  1.00  0.00     0.151 A 
HETATM    7  N4  UNL     1     -21.657 -41.327  25.448  1.00  0.00    -0.081 NA
HETATM    8  N5  UNL     1     -23.313 -39.926  24.404  1.00  0.00    -0.178 N 
ATOM      9  H5  UNL     1     -23.891 -40.755  24.260  1.00  0.00     0.185 HD
ENDROOT
BRANCH   1  10
HETATM   10  N1  UNL     1     -24.937 -38.665  23.398  1.00  0.00    -0.234 N 
ATOM     11  H12 UNL     1     -25.045 -38.116  22.545  1.00  0.00     0.174 HD
ATOM     12  H11 UNL     1     -25.746 -39.153  23.784  1.00  0.00     0.174 HD
ENDBRANCH   1  10
BRANCH   4  13
HETATM   13  O1  UNL     1     -21.015 -36.620  24.977  1.00  0.00    -0.345 OA
ATOM     14  H1  UNL     1     -20.205 -36.504  24.493  1.00  0.00     0.219 HD
ENDBRANCH   4  13
BRANCH   5  15
HETATM   15  C4  UNL     1     -20.028 -39.028  25.861  1.00  0.00     0.272 C 
HETATM   16  N3  UNL     1     -18.866 -39.280  25.081  1.00  0.00    -0.057 NA
HETATM   17  O2  UNL     1     -19.865 -38.881  27.090  1.00  0.00    -0.271 OA
ENDBRANCH   5  15
TORSDOF 3
ENDMDL
MODEL 2
REMARK VINA RESULT: -4.622941829      2.414      3.104
REMARK  3 active torsions:
REMARK  status: ('A' for Active; 'I' for Inactive)
REMARK    1  A    between atoms: N1_1  and  C1_4 
REMARK    2  A    between atoms: C2_7  and  O1_8 
REMARK    3  A    between atoms: C3_10  and  C4_11 
ROOT
HETATM    1  C1  UNL     1     -22.324 -37.390  25.301  1.00  0.00     0.679 A 
HETATM    2  N2  UNL     1     -22.862 -37.901  24.180  1.00  0.00    -0.170 N 
ATOM      3  H2  UNL     1     -23.768 -37.570  23.847  1.00  0.00     0.186 HD
HETATM    4  C2  UNL     1     -22.186 -38.864  23.490  1.00  0.00     0.174 A 
HETATM    5  C3  UNL     1     -20.962 -39.330  23.910  1.00  0.00     0.122 A 
HETATM    6  C5  UNL     1     -20.431 -38.790  25.063  1.00  0.00     0.151 A 
HETATM    7  N4  UNL     1     -19.179 -39.242  25.526  1.00  0.00    -0.081 NA
HETATM    8  N5  UNL     1     -21.126 -37.839  25.721  1.00  0.00    -0.178 N 
ATOM      9  H5  UNL     1     -20.728 -37.443  26.572  1.00  0.00     0.185 HD
ENDROOT
BRANCH   1  10
HETATM   10  N1  UNL     1     -22.944 -36.472  25.979  1.00  0.00    -0.234 N 
ATOM     11  H12 UNL     1     -22.794 -36.396  26.985  1.00  0.00     0.174 HD
ATOM     12  H11 UNL     1     -23.581 -35.822  25.519  1.00  0.00     0.174 HD
ENDBRANCH   1  10
BRANCH   4  13
HETATM   13  O1  UNL     1     -22.717 -39.413  22.325  1.00  0.00    -0.345 OA
ATOM     14  H1  UNL     1     -23.647 -39.357  22.139  1.00  0.00     0.219 HD
ENDBRANCH   4  13
BRANCH   5  15
HETATM   15  C4  UNL     1     -20.271 -40.361  23.145  1.00  0.00     0.272 C 
HETATM   16  N3  UNL     1     -20.689 -41.715  23.252  1.00  0.00    -0.057 NA
HETATM   17  O2  UNL     1     -19.311 -40.122  22.383  1.00  0.00    -0.271 OA
ENDBRANCH   5  15
TORSDOF 3
ENDMDL
MODEL 3
REMARK VINA RESULT: -4.527672973      1.954      3.855
REMARK  3 active torsions:
REMARK  status: ('A' for Active; 'I' for Inactive)
REMARK    1  A    between atoms: N1_1  and  C1_4 
REMARK    2  A    between atoms: C2_7  and  O1_8 
REMARK    3  A    between atoms: C3_10  and  C4_11 
ROOT
HETATM    1  C1  UNL     1     -20.647 -38.565  26.265  1.00  0.00     0.679 A 
HETATM    2  N2  UNL     1     -21.119 -37.502  25.591  1.00  0.00    -0.170 N 
ATOM      3  H2  UNL     1     -20.654 -36.597  25.667  1.00  0.00     0.186 HD
HETATM    4  C2  UNL     1     -22.223 -37.643  24.803  1.00  0.00     0.174 A 
HETATM    5  C3  UNL     1     -22.872 -38.850  24.678  1.00  0.00     0.122 A 
HETATM    6  C5  UNL     1     -22.368 -39.926  25.379  1.00  0.00     0.151 A 
HETATM    7  N4  UNL     1     -23.005 -41.178  25.276  1.00  0.00    -0.081 NA
HETATM    8  N5  UNL     1     -21.274 -39.750  26.149  1.00  0.00    -0.178 N 
ATOM      9  H5  UNL     1     -20.906 -40.550  26.665  1.00  0.00     0.185 HD
ENDROOT
BRANCH   1  10
HETATM   10  N1  UNL     1     -19.597 -38.461  27.023  1.00  0.00    -0.234 N 
ATOM     11  H12 UNL     1     -18.965 -39.255  27.126  1.00  0.00     0.174 HD
ATOM     12  H11 UNL     1     -19.394 -37.593  27.520  1.00  0.00     0.174 HD
ENDBRANCH   1  10
BRANCH   4  13
HETATM   13  O1  UNL     1     -22.737 -36.562  24.092  1.00  0.00    -0.345 OA
ATOM     14  H1  UNL     1     -23.202 -35.862  24.537  1.00  0.00     0.219 HD
ENDBRANCH   4  13
BRANCH   5  15
HETATM   15  C4  UNL     1     -24.050 -38.961  23.826  1.00  0.00     0.272 C 
HETATM   16  N3  UNL     1     -25.277 -38.376  24.242  1.00  0.00    -0.057 NA
HETATM   17  O2  UNL     1     -24.047 -39.553  22.726  1.00  0.00    -0.271 OA
ENDBRANCH   5  15
TORSDOF 3
ENDMDL
MODEL 4
REMARK VINA RESULT: -4.466266621      2.276      2.914
REMARK  3 active torsions:
REMARK  status: ('A' for Active; 'I' for Inactive)
REMARK    1  A    between atoms: N1_1  and  C1_4 
REMARK    2  A    between atoms: C2_7  and  O1_8 
REMARK    3  A    between atoms: C3_10  and  C4_11 
ROOT
HETATM    1  C1  UNL     1     -22.243 -37.448  25.249  1.00  0.00     0.679 A 
HETATM    2  N2  UNL     1     -21.016 -37.807  25.663  1.00  0.00    -0.170 N 
ATOM      3  H2  UNL     1     -20.585 -37.340  26.461  1.00  0.00     0.186 HD
HETATM    4  C2  UNL     1     -20.351 -38.801  25.008  1.00  0.00     0.174 A 
HETATM    5  C3  UNL     1     -20.905 -39.452  23.929  1.00  0.00     0.122 A 
HETATM    6  C5  UNL     1     -22.166 -39.065  23.524  1.00  0.00     0.151 A 
HETATM    7  N4  UNL     1     -22.766 -39.708  22.424  1.00  0.00    -0.081 NA
HETATM    8  N5  UNL     1     -22.794 -38.078  24.196  1.00  0.00    -0.178 N 
ATOM      9  H5  UNL     1     -23.727 -37.797  23.891  1.00  0.00     0.185 HD
ENDROOT
BRANCH   1  10
HETATM   10  N1  UNL     1     -22.901 -36.504  25.854  1.00  0.00    -0.234 N 
ATOM     11  H12 UNL     1     -22.399 -35.813  26.412  1.00  0.00     0.174 HD
ATOM     12  H11 UNL     1     -23.917 -36.442  25.777  1.00  0.00     0.174 HD
ENDBRANCH   1  10
BRANCH   4  13
HETATM   13  O1  UNL     1     -19.078 -39.196  25.412  1.00  0.00    -0.345 OA
ATOM     14  H1  UNL     1     -18.366 -38.569  25.462  1.00  0.00     0.219 HD
ENDBRANCH   4  13
BRANCH   5  15
HETATM   15  C4  UNL     1     -20.162 -40.510  23.255  1.00  0.00     0.272 C 
HETATM   16  N3  UNL     1     -19.093 -40.172  22.382  1.00  0.00    -0.057 NA
HETATM   17  O2  UNL     1     -20.415 -41.724  23.400  1.00  0.00    -0.271 OA
ENDBRANCH   5  15
TORSDOF 3
ENDMDL
MODEL 5
REMARK VINA RESULT: -4.465897239      1.924      2.368
REMARK  3 active torsions:
REMARK  status: ('A' for Active; 'I' for Inactive)
REMARK    1  A    between atoms: N1_1  and  C1_4 
REMARK    2  A    between atoms: C2_7  and  O1_8 
REMARK    3  A    between atoms: C3_10  and  C4_11 
ROOT
HETATM    1  C1  UNL     1     -21.913 -37.785  24.466  1.00  0.00     0.679 A 
HETATM    2  N2  UNL     1     -21.150 -37.661  25.565  1.00  0.00    -0.170 N 
ATOM      3  H2  UNL     1     -21.300 -36.886  26.212  1.00  0.00     0.186 HD
HETATM    4  C2  UNL     1     -20.173 -38.581  25.811  1.00  0.00     0.174 A 
HETATM    5  C3  UNL     1     -19.945 -39.638  24.961  1.00  0.00     0.122 A 
HETATM    6  C5  UNL     1     -20.742 -39.744  23.839  1.00  0.00     0.151 A 
HETATM    7  N4  UNL     1     -20.539 -40.813  22.945  1.00  0.00    -0.081 NA
HETATM    8  N5  UNL     1     -21.699 -38.816  23.627  1.00  0.00    -0.178 N 
ATOM      9  H5  UNL     1     -22.285 -38.900  22.796  1.00  0.00     0.185 HD
ENDROOT
BRANCH   1  10
HETATM   10  N1  UNL     1     -22.851 -36.924  24.205  1.00  0.00    -0.234 N 
ATOM     11  H12 UNL     1     -23.748 -37.246  23.841  1.00  0.00     0.174 HD
ATOM     12  H11 UNL     1     -22.704 -35.927  24.360  1.00  0.00     0.174 HD
ENDBRANCH   1  10
BRANCH   4  13
HETATM   13  O1  UNL     1     -19.365 -38.481  26.941  1.00  0.00    -0.345 OA
ATOM     14  H1  UNL     1     -19.258 -37.651  27.392  1.00  0.00     0.219 HD
ENDBRANCH   4  13
BRANCH   5  15
HETATM   15  C4  UNL     1     -18.891 -40.601  25.258  1.00  0.00     0.272 C 
HETATM   16  N3  UNL     1     -17.581 -40.388  24.749  1.00  0.00    -0.057 NA
HETATM   17  O2  UNL     1     -19.073 -41.625  25.948  1.00  0.00    -0.271 OA
ENDBRANCH   5  15
TORSDOF 3
ENDMDL
