MODEL 1
REMARK VINA RESULT: -6.232686948      0.000      0.000
REMARK  8 active torsions:
REMARK  status: ('A' for Active; 'I' for Inactive)
REMARK    1  A    between atoms: C2_2  and  O1_3 
REMARK    2  A    between atoms: O1_3  and  C3_4 
REMARK    3  A    between atoms: C3_4  and  C4_6 
REMARK    4  A    between atoms: N1_9  and  N2_11 
REMARK    5  A    between atoms: C7_13  and  C8_14 
REMARK    6  A    between atoms: C8_14  and  C9_15 
REMARK    7  A    between atoms: C9_15  and  O3_16 
REMARK    8  A    between atoms: C11_20  and  C12_21 
ROOT
HETATM    1  C4  UNL     1     -11.950  -0.228  -3.925  1.00  0.00     0.132 C 
HETATM    2  C5  UNL     1     -11.996  -0.426  -2.451  1.00  0.00     0.086 C 
HETATM    3  C6  UNL     1     -13.352  -0.712  -1.973  1.00  0.00     0.067 C 
HETATM    4  N1  UNL     1     -13.712  -1.002  -0.792  1.00  0.00    -0.299 N 
ATOM      5  H1  UNL     1     -13.006  -1.055  -0.057  1.00  0.00     0.187 HD
HETATM    6  S1  UNL     1     -14.404  -0.544  -3.446  1.00  0.00    -0.079 SA
HETATM    7  C10 UNL     1     -13.204   0.524  -4.320  1.00  0.00    -0.000 C 
HETATM    8  C11 UNL     1     -13.339   1.580  -5.011  1.00  0.00     0.034 C 
ENDROOT
BRANCH   4   9
HETATM    9  N2  UNL     1     -15.023  -1.247  -0.474  1.00  0.00    -0.315 N 
HETATM   10  C7  UNL     1     -15.469  -1.712   0.617  1.00  0.00     0.082 C 
ATOM     11  H2  UNL     1     -15.713  -1.033  -1.193  1.00  0.00     0.185 HD
BRANCH  10  12
HETATM   12  C8  UNL     1     -14.684  -2.102   1.804  1.00  0.00     0.072 C 
BRANCH  12  13
HETATM   13  C9  UNL     1     -15.609  -2.667   2.870  1.00  0.00     0.169 C 
BRANCH  13  14
HETATM   14  O3  UNL     1     -16.632  -3.421   2.339  1.00  0.00    -0.401 OA
ATOM     15  H3  UNL     1     -17.371  -2.891   2.063  1.00  0.00     0.209 HD
ENDBRANCH  13  14
ENDBRANCH  12  13
ENDBRANCH  10  12
ENDBRANCH   4   9
BRANCH   1  16
HETATM   16  C3  UNL     1     -10.726   0.455  -4.321  1.00  0.00     0.268 C 
HETATM   17  O2  UNL     1     -10.199   0.125  -5.443  1.00  0.00    -0.264 OA
BRANCH  16  18
HETATM   18  O1  UNL     1     -10.065   1.423  -3.619  1.00  0.00    -0.321 OA
BRANCH  18  19
HETATM   19  C2  UNL     1      -9.398   2.490  -4.314  1.00  0.00     0.174 C 
HETATM   20  C1  UNL     1     -10.349   3.653  -4.357  1.00  0.00     0.034 C 
ENDBRANCH  18  19
ENDBRANCH  16  18
ENDBRANCH   1  16
BRANCH   8  21
HETATM   21  C12 UNL     1     -14.605   2.231  -5.337  1.00  0.00     0.006 A 
HETATM   22  C13 UNL     1     -15.667   1.814  -6.092  1.00  0.00     0.026 A 
HETATM   23  C14 UNL     1     -16.734   2.641  -6.189  1.00  0.00    -0.048 A 
HETATM   24  C15 UNL     1     -17.975   2.299  -7.020  1.00  0.00     0.049 C 
HETATM   25  C16 UNL     1     -16.663   3.835  -5.518  1.00  0.00    -0.015 A 
HETATM   26  C17 UNL     1     -17.726   4.910  -5.458  1.00  0.00     0.057 C 
HETATM   27  S2  UNL     1     -15.133   3.777  -4.783  1.00  0.00    -0.095 SA
ENDBRANCH   8  21
TORSDOF 8
ENDMDL
MODEL 2
REMARK VINA RESULT: -6.105942943      0.808      1.297
REMARK  8 active torsions:
REMARK  status: ('A' for Active; 'I' for Inactive)
REMARK    1  A    between atoms: C2_2  and  O1_3 
REMARK    2  A    between atoms: O1_3  and  C3_4 
REMARK    3  A    between atoms: C3_4  and  C4_6 
REMARK    4  A    between atoms: N1_9  and  N2_11 
REMARK    5  A    between atoms: C7_13  and  C8_14 
REMARK    6  A    between atoms: C8_14  and  C9_15 
REMARK    7  A    between atoms: C9_15  and  O3_16 
REMARK    8  A    between atoms: C11_20  and  C12_21 
ROOT
HETATM    1  C4  UNL     1     -11.766  -0.017  -4.029  1.00  0.00     0.132 C 
HETATM    2  C5  UNL     1     -11.830  -0.278  -2.566  1.00  0.00     0.086 C 
HETATM    3  C6  UNL     1     -13.184  -0.630  -2.126  1.00  0.00     0.067 C 
HETATM    4  N1  UNL     1     -13.554  -0.982  -0.965  1.00  0.00    -0.299 N 
ATOM      5  H1  UNL     1     -12.859  -1.041  -0.220  1.00  0.00     0.187 HD
HETATM    6  S1  UNL     1     -14.215  -0.436  -3.610  1.00  0.00    -0.079 SA
HETATM    7  C10 UNL     1     -13.037   0.709  -4.416  1.00  0.00    -0.000 C 
HETATM    8  C11 UNL     1     -13.197   1.788  -5.065  1.00  0.00     0.034 C 
ENDROOT
BRANCH   4   9
HETATM    9  N2  UNL     1     -14.860  -1.285  -0.682  1.00  0.00    -0.315 N 
HETATM   10  C7  UNL     1     -15.334  -1.650   0.434  1.00  0.00     0.082 C 
ATOM     11  H2  UNL     1     -15.523  -1.207  -1.454  1.00  0.00     0.185 HD
BRANCH  10  12
HETATM   12  C8  UNL     1     -14.592  -1.840   1.695  1.00  0.00     0.072 C 
BRANCH  12  13
HETATM   13  C9  UNL     1     -15.349  -2.800   2.599  1.00  0.00     0.169 C 
BRANCH  13  14
HETATM   14  O3  UNL     1     -16.531  -3.234   2.040  1.00  0.00    -0.401 OA
ATOM     15  H3  UNL     1     -16.450  -4.087   1.630  1.00  0.00     0.209 HD
ENDBRANCH  13  14
ENDBRANCH  12  13
ENDBRANCH  10  12
ENDBRANCH   4   9
BRANCH   1  16
HETATM   16  C3  UNL     1     -10.559   0.723  -4.374  1.00  0.00     0.268 C 
HETATM   17  O2  UNL     1      -9.986   0.440  -5.485  1.00  0.00    -0.264 OA
BRANCH  16  18
HETATM   18  O1  UNL     1      -9.960   1.702  -3.631  1.00  0.00    -0.321 OA
BRANCH  18  19
HETATM   19  C2  UNL     1      -9.438   2.877  -4.274  1.00  0.00     0.174 C 
HETATM   20  C1  UNL     1      -8.577   3.588  -3.267  1.00  0.00     0.034 C 
ENDBRANCH  18  19
ENDBRANCH  16  18
ENDBRANCH   1  16
BRANCH   8  21
HETATM   21  C12 UNL     1     -14.479   2.408  -5.388  1.00  0.00     0.006 A 
HETATM   22  C13 UNL     1     -15.002   3.628  -5.056  1.00  0.00     0.026 A 
HETATM   23  C14 UNL     1     -16.227   3.941  -5.538  1.00  0.00    -0.048 A 
HETATM   24  C15 UNL     1     -16.930   5.265  -5.221  1.00  0.00     0.049 C 
HETATM   25  C16 UNL     1     -16.847   3.004  -6.326  1.00  0.00    -0.015 A 
HETATM   26  C17 UNL     1     -18.200   3.126  -6.992  1.00  0.00     0.057 C 
HETATM   27  S2  UNL     1     -15.725   1.730  -6.371  1.00  0.00    -0.095 SA
ENDBRANCH   8  21
TORSDOF 8
ENDMDL
MODEL 3
REMARK VINA RESULT: -5.911200524      3.247      6.232
REMARK  8 active torsions:
REMARK  status: ('A' for Active; 'I' for Inactive)
REMARK    1  A    between atoms: C2_2  and  O1_3 
REMARK    2  A    between atoms: O1_3  and  C3_4 
REMARK    3  A    between atoms: C3_4  and  C4_6 
REMARK    4  A    between atoms: N1_9  and  N2_11 
REMARK    5  A    between atoms: C7_13  and  C8_14 
REMARK    6  A    between atoms: C8_14  and  C9_15 
REMARK    7  A    between atoms: C9_15  and  O3_16 
REMARK    8  A    between atoms: C11_20  and  C12_21 
ROOT
HETATM    1  C4  UNL     1     -12.496   0.055  -3.009  1.00  0.00     0.132 C 
HETATM    2  C5  UNL     1     -11.633  -0.680  -3.972  1.00  0.00     0.086 C 
HETATM    3  C6  UNL     1     -11.080   0.202  -5.004  1.00  0.00     0.067 C 
HETATM    4  N1  UNL     1     -10.253  -0.098  -5.918  1.00  0.00    -0.299 N 
ATOM      5  H1  UNL     1      -9.905  -1.055  -5.977  1.00  0.00     0.187 HD
HETATM    6  S1  UNL     1     -11.853   1.818  -4.691  1.00  0.00    -0.079 SA
HETATM    7  C10 UNL     1     -13.272   1.090  -3.795  1.00  0.00    -0.000 C 
HETATM    8  C11 UNL     1     -14.519   1.327  -3.825  1.00  0.00     0.034 C 
ENDROOT
BRANCH   4   9
HETATM    9  N2  UNL     1      -9.813   0.828  -6.828  1.00  0.00    -0.315 N 
HETATM   10  C7  UNL     1      -9.940   0.779  -8.088  1.00  0.00     0.082 C 
ATOM     11  H2  UNL     1      -9.331   1.644  -6.451  1.00  0.00     0.185 HD
BRANCH  10  12
HETATM   12  C8  UNL     1     -10.590  -0.287  -8.874  1.00  0.00     0.072 C 
BRANCH  12  13
HETATM   13  C9  UNL     1     -12.048   0.071  -9.120  1.00  0.00     0.169 C 
BRANCH  13  14
HETATM   14  O3  UNL     1     -12.735   0.327  -7.953  1.00  0.00    -0.401 OA
ATOM     15  H3  UNL     1     -12.672  -0.386  -7.329  1.00  0.00     0.209 HD
ENDBRANCH  13  14
ENDBRANCH  12  13
ENDBRANCH  10  12
ENDBRANCH   4   9
BRANCH   1  16
HETATM   16  C3  UNL     1     -13.354  -0.864  -2.272  1.00  0.00     0.268 C 
HETATM   17  O2  UNL     1     -14.022  -1.724  -2.949  1.00  0.00    -0.264 OA
BRANCH  16  18
HETATM   18  O1  UNL     1     -13.531  -0.911  -0.917  1.00  0.00    -0.321 OA
BRANCH  18  19
HETATM   19  C2  UNL     1     -14.781  -1.359  -0.368  1.00  0.00     0.174 C 
HETATM   20  C1  UNL     1     -14.550  -1.634   1.092  1.00  0.00     0.034 C 
ENDBRANCH  18  19
ENDBRANCH  16  18
ENDBRANCH   1  16
BRANCH   8  21
HETATM   21  C12 UNL     1     -15.173   2.360  -4.625  1.00  0.00     0.006 A 
HETATM   22  C13 UNL     1     -15.357   3.696  -4.400  1.00  0.00     0.026 A 
HETATM   23  C14 UNL     1     -15.986   4.416  -5.357  1.00  0.00    -0.048 A 
HETATM   24  C15 UNL     1     -16.271   5.915  -5.216  1.00  0.00     0.049 C 
HETATM   25  C16 UNL     1     -16.388   3.743  -6.483  1.00  0.00    -0.015 A 
HETATM   26  C17 UNL     1     -17.089   4.325  -7.691  1.00  0.00     0.057 C 
HETATM   27  S2  UNL     1     -15.890   2.147  -6.180  1.00  0.00    -0.095 SA
ENDBRANCH   8  21
TORSDOF 8
ENDMDL
MODEL 4
REMARK VINA RESULT: -5.902013227      3.099      6.398
REMARK  8 active torsions:
REMARK  status: ('A' for Active; 'I' for Inactive)
REMARK    1  A    between atoms: C2_2  and  O1_3 
REMARK    2  A    between atoms: O1_3  and  C3_4 
REMARK    3  A    between atoms: C3_4  and  C4_6 
REMARK    4  A    between atoms: N1_9  and  N2_11 
REMARK    5  A    between atoms: C7_13  and  C8_14 
REMARK    6  A    between atoms: C8_14  and  C9_15 
REMARK    7  A    between atoms: C9_15  and  O3_16 
REMARK    8  A    between atoms: C11_20  and  C12_21 
ROOT
HETATM    1  C4  UNL     1     -11.844   0.122  -3.405  1.00  0.00     0.132 C 
HETATM    2  C5  UNL     1     -11.024  -0.463  -4.499  1.00  0.00     0.086 C 
HETATM    3  C6  UNL     1     -10.695   0.525  -5.532  1.00  0.00     0.067 C 
HETATM    4  N1  UNL     1      -9.953   0.365  -6.548  1.00  0.00    -0.299 N 
ATOM      5  H1  UNL     1      -9.512  -0.541  -6.702  1.00  0.00     0.187 HD
HETATM    6  S1  UNL     1     -11.599   2.024  -5.040  1.00  0.00    -0.079 SA
HETATM    7  C10 UNL     1     -12.816   1.097  -4.037  1.00  0.00    -0.000 C 
HETATM    8  C11 UNL     1     -14.076   1.189  -3.915  1.00  0.00     0.034 C 
ENDROOT
BRANCH   4   9
HETATM    9  N2  UNL     1      -9.726   1.377  -7.445  1.00  0.00    -0.315 N 
HETATM   10  C7  UNL     1      -8.605   1.769  -7.885  1.00  0.00     0.082 C 
ATOM     11  H2  UNL     1     -10.549   1.867  -7.796  1.00  0.00     0.185 HD
BRANCH  10  12
HETATM   12  C8  UNL     1      -7.276   1.232  -7.535  1.00  0.00     0.072 C 
BRANCH  12  13
HETATM   13  C9  UNL     1      -6.707   1.996  -6.349  1.00  0.00     0.169 C 
BRANCH  13  14
HETATM   14  O3  UNL     1      -7.670   2.328  -5.421  1.00  0.00    -0.401 OA
ATOM     15  H3  UNL     1      -7.444   3.103  -4.921  1.00  0.00     0.209 HD
ENDBRANCH  13  14
ENDBRANCH  12  13
ENDBRANCH  10  12
ENDBRANCH   4   9
BRANCH   1  16
HETATM   16  C3  UNL     1     -12.505  -0.922  -2.633  1.00  0.00     0.268 C 
HETATM   17  O2  UNL     1     -12.766  -2.026  -3.231  1.00  0.00    -0.264 OA
BRANCH  16  18
HETATM   18  O1  UNL     1     -12.886  -0.855  -1.322  1.00  0.00    -0.321 OA
BRANCH  18  19
HETATM   19  C2  UNL     1     -14.209  -1.259  -0.933  1.00  0.00     0.174 C 
HETATM   20  C1  UNL     1     -14.251  -1.248   0.570  1.00  0.00     0.034 C 
ENDBRANCH  18  19
ENDBRANCH  16  18
ENDBRANCH   1  16
BRANCH   8  21
HETATM   21  C12 UNL     1     -14.928   2.175  -4.575  1.00  0.00     0.006 A 
HETATM   22  C13 UNL     1     -15.802   2.059  -5.621  1.00  0.00     0.026 A 
HETATM   23  C14 UNL     1     -16.485   3.164  -5.998  1.00  0.00    -0.048 A 
HETATM   24  C15 UNL     1     -17.476   3.169  -7.166  1.00  0.00     0.049 C 
HETATM   25  C16 UNL     1     -16.245   4.317  -5.294  1.00  0.00    -0.015 A 
HETATM   26  C17 UNL     1     -16.893   5.668  -5.510  1.00  0.00     0.057 C 
HETATM   27  S2  UNL     1     -15.088   3.838  -4.146  1.00  0.00    -0.095 SA
ENDBRANCH   8  21
TORSDOF 8
ENDMDL
MODEL 5
REMARK VINA RESULT: -5.888402478      2.991      3.408
REMARK  8 active torsions:
REMARK  status: ('A' for Active; 'I' for Inactive)
REMARK    1  A    between atoms: C2_2  and  O1_3 
REMARK    2  A    between atoms: O1_3  and  C3_4 
REMARK    3  A    between atoms: C3_4  and  C4_6 
REMARK    4  A    between atoms: N1_9  and  N2_11 
REMARK    5  A    between atoms: C7_13  and  C8_14 
REMARK    6  A    between atoms: C8_14  and  C9_15 
REMARK    7  A    between atoms: C9_15  and  O3_16 
REMARK    8  A    between atoms: C11_20  and  C12_21 
ROOT
HETATM    1  C4  UNL     1     -10.688   0.417  -4.517  1.00  0.00     0.132 C 
HETATM    2  C5  UNL     1     -11.410   0.764  -3.264  1.00  0.00     0.086 C 
HETATM    3  C6  UNL     1     -12.495  -0.179  -2.971  1.00  0.00     0.067 C 
HETATM    4  N1  UNL     1     -13.242  -0.207  -1.946  1.00  0.00    -0.299 N 
ATOM      5  H1  UNL     1     -13.106   0.491  -1.215  1.00  0.00     0.187 HD
HETATM    6  S1  UNL     1     -12.539  -1.290  -4.409  1.00  0.00    -0.079 SA
HETATM    7  C10 UNL     1     -11.718  -0.082  -5.510  1.00  0.00    -0.000 C 
HETATM    8  C11 UNL     1     -11.936   0.274  -6.708  1.00  0.00     0.034 C 
ENDROOT
BRANCH   4   9
HETATM    9  N2  UNL     1     -14.228  -1.147  -1.794  1.00  0.00    -0.315 N 
HETATM   10  C7  UNL     1     -14.684  -1.604  -0.705  1.00  0.00     0.082 C 
ATOM     11  H2  UNL     1     -14.638  -1.519  -2.651  1.00  0.00     0.185 HD
BRANCH  10  12
HETATM   12  C8  UNL     1     -14.261  -1.235   0.660  1.00  0.00     0.072 C 
BRANCH  12  13
HETATM   13  C9  UNL     1     -14.983  -2.107   1.676  1.00  0.00     0.169 C 
BRANCH  13  14
HETATM   14  O3  UNL     1     -16.229  -2.505   1.242  1.00  0.00    -0.401 OA
ATOM     15  H3  UNL     1     -16.764  -2.856   1.944  1.00  0.00     0.209 HD
ENDBRANCH  13  14
ENDBRANCH  12  13
ENDBRANCH  10  12
ENDBRANCH   4   9
BRANCH   1  16
HETATM   16  C3  UNL     1      -9.925   1.555  -5.010  1.00  0.00     0.268 C 
HETATM   17  O2  UNL     1      -8.939   1.315  -5.794  1.00  0.00    -0.264 OA
BRANCH  16  18
HETATM   18  O1  UNL     1     -10.146   2.874  -4.727  1.00  0.00    -0.321 OA
BRANCH  18  19
HETATM   19  C2  UNL     1      -9.041   3.789  -4.641  1.00  0.00     0.174 C 
HETATM   20  C1  UNL     1      -8.533   3.737  -3.226  1.00  0.00     0.034 C 
ENDBRANCH  18  19
ENDBRANCH  16  18
ENDBRANCH   1  16
BRANCH   8  21
HETATM   21  C12 UNL     1     -12.964  -0.276  -7.589  1.00  0.00     0.006 A 
HETATM   22  C13 UNL     1     -13.129  -1.529  -8.112  1.00  0.00     0.026 A 
HETATM   23  C14 UNL     1     -14.217  -1.750  -8.886  1.00  0.00    -0.048 A 
HETATM   24  C15 UNL     1     -14.504  -3.103  -9.546  1.00  0.00     0.049 C 
HETATM   25  C16 UNL     1     -15.070  -0.694  -9.081  1.00  0.00    -0.015 A 
HETATM   26  C17 UNL     1     -16.352  -0.696  -9.885  1.00  0.00     0.057 C 
HETATM   27  S2  UNL     1     -14.343   0.562  -8.199  1.00  0.00    -0.095 SA
ENDBRANCH   8  21
TORSDOF 8
ENDMDL
