MODEL 1
REMARK VINA RESULT: -7.687843750      0.000      0.000
REMARK  6 active torsions:
REMARK  status: ('A' for Active; 'I' for Inactive)
REMARK    1  A    between atoms: N1_6  and  C6_7 
REMARK    2  A    between atoms: C6_7  and  C7_8 
REMARK    3  A    between atoms: C6_7  and  C8_10 
REMARK    4  A    between atoms: C8_10  and  C9_11 
REMARK    5  A    between atoms: C9_11  and  C10_13 
REMARK    6  A    between atoms: C10_13  and  N2_14 
ROOT
HETATM    1  N2  UNL     1      62.882  33.157  39.445  1.00  0.00    -0.341 N 
HETATM    2  C11 UNL     1      63.054  34.573  39.153  1.00  0.00     0.164 C 
HETATM    3  C12 UNL     1      64.092  34.833  38.105  1.00  0.00     0.140 C 
HETATM    4  C13 UNL     1      65.321  35.404  38.826  1.00  0.00     0.048 C 
HETATM    5  C14 UNL     1      63.536  35.834  37.115  1.00  0.00     0.049 C 
HETATM    6  C15 UNL     1      62.935  35.093  35.965  1.00  0.00    -0.043 C 
HETATM    7  C16 UNL     1      63.930  35.064  34.830  1.00  0.00     0.015 C 
HETATM    8  C17 UNL     1      61.734  35.908  35.468  1.00  0.00     0.015 C 
HETATM    9  C18 UNL     1      62.410  33.729  36.311  1.00  0.00     0.057 C 
HETATM   10  C19 UNL     1      63.387  32.842  37.003  1.00  0.00     0.203 C 
HETATM   11  C20 UNL     1      63.878  31.742  36.092  1.00  0.00     0.057 C 
HETATM   12  N3  UNL     1      64.539  33.679  37.385  1.00  0.00    -0.048 N 
ATOM     13  H31 UNL     1      65.238  33.150  37.908  1.00  0.00     0.279 HD
ATOM     14  H32 UNL     1      65.112  33.930  36.580  1.00  0.00     0.279 HD
HETATM   15  C21 UNL     1      62.896  32.301  38.300  1.00  0.00     0.256 C 
HETATM   16  O3  UNL     1      62.500  31.123  38.406  1.00  0.00    -0.271 OA
ENDROOT
BRANCH   1  17
HETATM   17  C10 UNL     1      62.717  32.689  40.784  1.00  0.00     0.204 C 
BRANCH  17  18
HETATM   18  C9  UNL     1      61.363  32.808  41.348  1.00  0.00     0.147 C 
HETATM   19  O2  UNL     1      60.544  33.401  40.628  1.00  0.00    -0.296 OA
BRANCH  18  20
HETATM   20  C8  UNL     1      61.040  32.254  42.666  1.00  0.00     0.114 C 
BRANCH  20  21
HETATM   21  C6  UNL     1      61.250  30.778  42.805  1.00  0.00     0.176 C 
BRANCH  21  22
HETATM   22  N1  UNL     1      60.452  30.177  43.852  1.00  0.00    -0.285 N 
HETATM   23  C4  UNL     1      60.018  28.909  43.951  1.00  0.00     0.027 A 
HETATM   24  C3  UNL     1      59.297  28.761  45.100  1.00  0.00     0.052 A 
HETATM   25  C5  UNL     1      60.290  27.851  42.960  1.00  0.00     0.070 C 
HETATM   26  C2  UNL     1      59.293  29.982  45.721  1.00  0.00     0.024 A 
HETATM   27  C1  UNL     1      58.610  30.253  47.019  1.00  0.00     0.070 C 
HETATM   28  N4  UNL     1      59.994  30.806  44.947  1.00  0.00    -0.302 N 
ATOM     29  H4  UNL     1      60.163  31.789  45.159  1.00  0.00     0.186 HD
ENDBRANCH  21  22
BRANCH  21  30
HETATM   30  C7  UNL     1      62.676  30.384  42.893  1.00  0.00     0.258 C 
HETATM   31  O1  UNL     1      63.167  29.543  42.176  1.00  0.00    -0.305 OA
ENDBRANCH  21  30
ENDBRANCH  20  21
ENDBRANCH  18  20
ENDBRANCH  17  18
ENDBRANCH   1  17
TORSDOF 6
ENDMDL
MODEL 2
REMARK VINA RESULT: -7.350707408      5.425      8.264
REMARK  6 active torsions:
REMARK  status: ('A' for Active; 'I' for Inactive)
REMARK    1  A    between atoms: N1_6  and  C6_7 
REMARK    2  A    between atoms: C6_7  and  C7_8 
REMARK    3  A    between atoms: C6_7  and  C8_10 
REMARK    4  A    between atoms: C8_10  and  C9_11 
REMARK    5  A    between atoms: C9_11  and  C10_13 
REMARK    6  A    between atoms: C10_13  and  N2_14 
ROOT
HETATM    1  N2  UNL     1      60.013  28.822  44.358  1.00  0.00    -0.341 N 
HETATM    2  C11 UNL     1      60.867  30.001  44.363  1.00  0.00     0.164 C 
HETATM    3  C12 UNL     1      60.096  31.283  44.308  1.00  0.00     0.140 C 
HETATM    4  C13 UNL     1      60.271  31.848  42.891  1.00  0.00     0.048 C 
HETATM    5  C14 UNL     1      60.665  32.233  45.340  1.00  0.00     0.049 C 
HETATM    6  C15 UNL     1      59.869  32.111  46.599  1.00  0.00    -0.043 C 
HETATM    7  C16 UNL     1      58.861  33.233  46.648  1.00  0.00     0.015 C 
HETATM    8  C17 UNL     1      60.827  32.339  47.775  1.00  0.00     0.015 C 
HETATM    9  C18 UNL     1      59.246  30.761  46.811  1.00  0.00     0.057 C 
HETATM   10  C19 UNL     1      58.428  30.265  45.670  1.00  0.00     0.203 C 
HETATM   11  C20 UNL     1      56.951  30.309  45.985  1.00  0.00     0.057 C 
HETATM   12  N3  UNL     1      58.686  31.161  44.528  1.00  0.00    -0.048 N 
ATOM     13  H31 UNL     1      58.193  30.859  43.687  1.00  0.00     0.279 HD
ATOM     14  H32 UNL     1      58.238  32.070  44.646  1.00  0.00     0.279 HD
HETATM   15  C21 UNL     1      58.841  28.925  45.170  1.00  0.00     0.256 C 
HETATM   16  O3  UNL     1      58.189  27.898  45.444  1.00  0.00    -0.271 OA
ENDROOT
BRANCH   1  17
HETATM   17  C10 UNL     1      60.346  27.666  43.588  1.00  0.00     0.204 C 
BRANCH  17  18
HETATM   18  C9  UNL     1      60.968  27.919  42.278  1.00  0.00     0.147 C 
HETATM   19  O2  UNL     1      60.309  28.644  41.516  1.00  0.00    -0.296 OA
BRANCH  18  20
HETATM   20  C8  UNL     1      62.269  27.343  41.933  1.00  0.00     0.114 C 
BRANCH  20  21
HETATM   21  C6  UNL     1      62.261  25.869  41.662  1.00  0.00     0.176 C 
BRANCH  21  22
HETATM   22  N1  UNL     1      62.759  25.077  42.766  1.00  0.00    -0.285 N 
HETATM   23  C4  UNL     1      62.312  23.892  43.214  1.00  0.00     0.027 A 
HETATM   24  C3  UNL     1      63.068  23.490  44.277  1.00  0.00     0.052 A 
HETATM   25  C5  UNL     1      61.178  23.149  42.632  1.00  0.00     0.070 C 
HETATM   26  C2  UNL     1      64.007  24.465  44.482  1.00  0.00     0.024 A 
HETATM   27  C1  UNL     1      65.039  24.415  45.558  1.00  0.00     0.070 C 
HETATM   28  N4  UNL     1      63.793  25.400  43.559  1.00  0.00    -0.302 N 
ATOM     29  H4  UNL     1      64.345  26.253  43.467  1.00  0.00     0.186 HD
ENDBRANCH  21  22
BRANCH  21  30
HETATM   30  C7  UNL     1      62.894  25.496  40.375  1.00  0.00     0.258 C 
HETATM   31  O1  UNL     1      63.757  24.653  40.292  1.00  0.00    -0.305 OA
ENDBRANCH  21  30
ENDBRANCH  20  21
ENDBRANCH  18  20
ENDBRANCH  17  18
ENDBRANCH   1  17
TORSDOF 6
ENDMDL
MODEL 3
REMARK VINA RESULT: -7.301510437      5.604     10.720
REMARK  6 active torsions:
REMARK  status: ('A' for Active; 'I' for Inactive)
REMARK    1  A    between atoms: N1_6  and  C6_7 
REMARK    2  A    between atoms: C6_7  and  C7_8 
REMARK    3  A    between atoms: C6_7  and  C8_10 
REMARK    4  A    between atoms: C8_10  and  C9_11 
REMARK    5  A    between atoms: C9_11  and  C10_13 
REMARK    6  A    between atoms: C10_13  and  N2_14 
ROOT
HETATM    1  N2  UNL     1      63.792  24.722  44.328  1.00  0.00    -0.341 N 
HETATM    2  C11 UNL     1      62.943  23.540  44.325  1.00  0.00     0.164 C 
HETATM    3  C12 UNL     1      63.720  22.260  44.276  1.00  0.00     0.140 C 
HETATM    4  C13 UNL     1      63.560  21.694  42.859  1.00  0.00     0.048 C 
HETATM    5  C14 UNL     1      63.146  21.309  45.303  1.00  0.00     0.049 C 
HETATM    6  C15 UNL     1      63.930  21.433  46.569  1.00  0.00    -0.043 C 
HETATM    7  C16 UNL     1      64.942  20.316  46.628  1.00  0.00     0.015 C 
HETATM    8  C17 UNL     1      62.962  21.202  47.737  1.00  0.00     0.015 C 
HETATM    9  C18 UNL     1      64.545  22.786  46.788  1.00  0.00     0.057 C 
HETATM   10  C19 UNL     1      65.371  23.286  45.654  1.00  0.00     0.203 C 
HETATM   11  C20 UNL     1      66.845  23.248  45.983  1.00  0.00     0.057 C 
HETATM   12  N3  UNL     1      65.128  22.389  44.509  1.00  0.00    -0.048 N 
ATOM     13  H31 UNL     1      65.627  22.692  43.673  1.00  0.00     0.279 HD
ATOM     14  H32 UNL     1      65.578  21.482  44.633  1.00  0.00     0.279 HD
HETATM   15  C21 UNL     1      64.957  24.624  45.150  1.00  0.00     0.256 C 
HETATM   16  O3  UNL     1      65.602  25.653  45.430  1.00  0.00    -0.271 OA
ENDROOT
BRANCH   1  17
HETATM   17  C10 UNL     1      63.461  25.876  43.554  1.00  0.00     0.204 C 
BRANCH  17  18
HETATM   18  C9  UNL     1      62.801  25.622  42.263  1.00  0.00     0.147 C 
HETATM   19  O2  UNL     1      63.439  24.899  41.481  1.00  0.00    -0.296 OA
BRANCH  18  20
HETATM   20  C8  UNL     1      61.488  26.196  41.958  1.00  0.00     0.114 C 
BRANCH  20  21
HETATM   21  C6  UNL     1      61.481  27.673  41.713  1.00  0.00     0.176 C 
BRANCH  21  22
HETATM   22  N1  UNL     1      60.998  28.443  42.840  1.00  0.00    -0.285 N 
HETATM   23  C4  UNL     1      61.471  29.604  43.324  1.00  0.00     0.027 A 
HETATM   24  C3  UNL     1      60.722  29.989  44.398  1.00  0.00     0.052 A 
HETATM   25  C5  UNL     1      62.622  30.338  42.767  1.00  0.00     0.070 C 
HETATM   26  C2  UNL     1      59.761  29.029  44.572  1.00  0.00     0.024 A 
HETATM   27  C1  UNL     1      58.728  29.071  45.647  1.00  0.00     0.070 C 
HETATM   28  N4  UNL     1      59.956  28.119  43.622  1.00  0.00    -0.302 N 
ATOM     29  H4  UNL     1      59.385  27.282  43.503  1.00  0.00     0.186 HD
ENDBRANCH  21  22
BRANCH  21  30
HETATM   30  C7  UNL     1      60.820  28.064  40.445  1.00  0.00     0.258 C 
HETATM   31  O1  UNL     1      59.992  28.943  40.384  1.00  0.00    -0.305 OA
ENDBRANCH  21  30
ENDBRANCH  20  21
ENDBRANCH  18  20
ENDBRANCH  17  18
ENDBRANCH   1  17
TORSDOF 6
ENDMDL
MODEL 4
REMARK VINA RESULT: -7.167424703      7.241     11.360
REMARK  6 active torsions:
REMARK  status: ('A' for Active; 'I' for Inactive)
REMARK    1  A    between atoms: N1_6  and  C6_7 
REMARK    2  A    between atoms: C6_7  and  C7_8 
REMARK    3  A    between atoms: C6_7  and  C8_10 
REMARK    4  A    between atoms: C8_10  and  C9_11 
REMARK    5  A    between atoms: C9_11  and  C10_13 
REMARK    6  A    between atoms: C10_13  and  N2_14 
ROOT
HETATM    1  N2  UNL     1      61.248  21.805  40.745  1.00  0.00    -0.341 N 
HETATM    2  C11 UNL     1      60.253  21.638  39.696  1.00  0.00     0.164 C 
HETATM    3  C12 UNL     1      60.726  20.770  38.572  1.00  0.00     0.140 C 
HETATM    4  C13 UNL     1      61.012  21.696  37.382  1.00  0.00     0.048 C 
HETATM    5  C14 UNL     1      59.632  19.781  38.233  1.00  0.00     0.049 C 
HETATM    6  C15 UNL     1      59.883  18.509  38.976  1.00  0.00    -0.043 C 
HETATM    7  C16 UNL     1      60.560  17.529  38.049  1.00  0.00     0.015 C 
HETATM    8  C17 UNL     1      58.518  17.902  39.326  1.00  0.00     0.015 C 
HETATM    9  C18 UNL     1      60.618  18.683  40.274  1.00  0.00     0.057 C 
HETATM   10  C19 UNL     1      61.894  19.445  40.171  1.00  0.00     0.203 C 
HETATM   11  C20 UNL     1      63.094  18.541  40.327  1.00  0.00     0.057 C 
HETATM   12  N3  UNL     1      61.935  20.044  38.825  1.00  0.00    -0.048 N 
ATOM     13  H31 UNL     1      62.764  20.624  38.690  1.00  0.00     0.279 HD
ATOM     14  H32 UNL     1      62.120  19.348  38.103  1.00  0.00     0.279 HD
HETATM   15  C21 UNL     1      61.970  20.618  41.084  1.00  0.00     0.256 C 
HETATM   16  O3  UNL     1      62.646  20.586  42.131  1.00  0.00    -0.271 OA
ENDROOT
BRANCH   1  17
HETATM   17  C10 UNL     1      61.467  23.071  41.367  1.00  0.00     0.204 C 
BRANCH  17  18
HETATM   18  C9  UNL     1      62.359  23.999  40.651  1.00  0.00     0.147 C 
HETATM   19  O2  UNL     1      62.194  24.039  39.421  1.00  0.00    -0.296 OA
BRANCH  18  20
HETATM   20  C8  UNL     1      63.354  24.799  41.369  1.00  0.00     0.114 C 
BRANCH  20  21
HETATM   21  C6  UNL     1      62.890  25.373  42.672  1.00  0.00     0.176 C 
BRANCH  21  22
HETATM   22  N1  UNL     1      62.388  26.726  42.560  1.00  0.00    -0.285 N 
HETATM   23  C4  UNL     1      61.112  27.142  42.483  1.00  0.00     0.027 A 
HETATM   24  C3  UNL     1      61.080  28.503  42.392  1.00  0.00     0.052 A 
HETATM   25  C5  UNL     1      59.938  26.250  42.500  1.00  0.00     0.070 C 
HETATM   26  C2  UNL     1      62.381  28.929  42.413  1.00  0.00     0.024 A 
HETATM   27  C1  UNL     1      62.790  30.362  42.333  1.00  0.00     0.070 C 
HETATM   28  N4  UNL     1      63.138  27.839  42.515  1.00  0.00    -0.302 N 
ATOM     29  H4  UNL     1      64.157  27.849  42.555  1.00  0.00     0.186 HD
ENDBRANCH  21  22
BRANCH  21  30
HETATM   30  C7  UNL     1      63.874  25.230  43.771  1.00  0.00     0.258 C 
HETATM   31  O1  UNL     1      64.220  24.155  44.201  1.00  0.00    -0.305 OA
ENDBRANCH  21  30
ENDBRANCH  20  21
ENDBRANCH  18  20
ENDBRANCH  17  18
ENDBRANCH   1  17
TORSDOF 6
ENDMDL
MODEL 5
REMARK VINA RESULT: -7.118149667      2.423      4.297
REMARK  6 active torsions:
REMARK  status: ('A' for Active; 'I' for Inactive)
REMARK    1  A    between atoms: N1_6  and  C6_7 
REMARK    2  A    between atoms: C6_7  and  C7_8 
REMARK    3  A    between atoms: C6_7  and  C8_10 
REMARK    4  A    between atoms: C8_10  and  C9_11 
REMARK    5  A    between atoms: C9_11  and  C10_13 
REMARK    6  A    between atoms: C10_13  and  N2_14 
ROOT
HETATM    1  N2  UNL     1      62.600  31.713  40.748  1.00  0.00    -0.341 N 
HETATM    2  C11 UNL     1      63.613  31.892  39.718  1.00  0.00     0.164 C 
HETATM    3  C12 UNL     1      63.157  32.771  38.594  1.00  0.00     0.140 C 
HETATM    4  C13 UNL     1      62.894  31.856  37.391  1.00  0.00     0.048 C 
HETATM    5  C14 UNL     1      64.255  33.765  38.284  1.00  0.00     0.049 C 
HETATM    6  C15 UNL     1      63.989  35.029  39.035  1.00  0.00    -0.043 C 
HETATM    7  C16 UNL     1      63.326  36.018  38.107  1.00  0.00     0.015 C 
HETATM    8  C17 UNL     1      65.346  35.635  39.414  1.00  0.00     0.015 C 
HETATM    9  C18 UNL     1      63.233  34.841  40.319  1.00  0.00     0.057 C 
HETATM   10  C19 UNL     1      61.960  34.078  40.186  1.00  0.00     0.203 C 
HETATM   11  C20 UNL     1      60.756  34.978  40.331  1.00  0.00     0.057 C 
HETATM   12  N3  UNL     1      61.943  33.492  38.834  1.00  0.00    -0.048 N 
ATOM     13  H31 UNL     1      61.118  32.912  38.679  1.00  0.00     0.279 HD
ATOM     14  H32 UNL     1      61.769  34.195  38.116  1.00  0.00     0.279 HD
HETATM   15  C21 UNL     1      61.871  32.896  41.086  1.00  0.00     0.256 C 
HETATM   16  O3  UNL     1      61.177  32.916  42.122  1.00  0.00    -0.271 OA
ENDROOT
BRANCH   1  17
HETATM   17  C10 UNL     1      62.373  30.440  41.354  1.00  0.00     0.204 C 
BRANCH  17  18
HETATM   18  C9  UNL     1      61.443  29.545  40.647  1.00  0.00     0.147 C 
HETATM   19  O2  UNL     1      61.570  29.523  39.413  1.00  0.00    -0.296 OA
BRANCH  18  20
HETATM   20  C8  UNL     1      60.452  28.751  41.379  1.00  0.00     0.114 C 
BRANCH  20  21
HETATM   21  C6  UNL     1      60.930  28.177  42.678  1.00  0.00     0.176 C 
BRANCH  21  22
HETATM   22  N1  UNL     1      61.431  26.824  42.561  1.00  0.00    -0.285 N 
HETATM   23  C4  UNL     1      62.707  26.407  42.494  1.00  0.00     0.027 A 
HETATM   24  C3  UNL     1      62.738  25.046  42.392  1.00  0.00     0.052 A 
HETATM   25  C5  UNL     1      63.883  27.297  42.528  1.00  0.00     0.070 C 
HETATM   26  C2  UNL     1      61.436  24.622  42.397  1.00  0.00     0.024 A 
HETATM   27  C1  UNL     1      61.027  23.191  42.303  1.00  0.00     0.070 C 
HETATM   28  N4  UNL     1      60.681  25.713  42.500  1.00  0.00    -0.302 N 
ATOM     29  H4  UNL     1      59.661  25.704  42.529  1.00  0.00     0.186 HD
ENDBRANCH  21  22
BRANCH  21  30
HETATM   30  C7  UNL     1      59.958  28.320  43.786  1.00  0.00     0.258 C 
HETATM   31  O1  UNL     1      59.572  29.395  44.182  1.00  0.00    -0.305 OA
ENDBRANCH  21  30
ENDBRANCH  20  21
ENDBRANCH  18  20
ENDBRANCH  17  18
ENDBRANCH   1  17
TORSDOF 6
ENDMDL
