MODEL 1
REMARK VINA RESULT: -5.505308802      0.000      0.000
REMARK  8 active torsions:
REMARK  status: ('A' for Active; 'I' for Inactive)
REMARK    1  A    between atoms: C2_2  and  C3_3 
REMARK    2  A    between atoms: C3_3  and  N1_4 
REMARK    3  A    between atoms: C7_11  and  N3_12 
REMARK    4  A    between atoms: N3_12  and  C8_14 
REMARK    5  A    between atoms: C8_14  and  C10_16 
REMARK    6  A    between atoms: C10_16  and  C11_17 
REMARK    7  A    between atoms: N4_23  and  C17_24 
REMARK    8  A    between atoms: N5_27  and  C20_28 
ROOT
HETATM    1  N1  UNL     1      63.329  25.540  42.443  1.00  0.00    -0.262 N 
HETATM    2  C4  UNL     1      62.759  24.860  41.460  1.00  0.00     0.268 A 
HETATM    3  O1  UNL     1      62.392  25.479  40.428  1.00  0.00    -0.267 OA
HETATM    4  C5  UNL     1      62.587  23.496  41.600  1.00  0.00     0.106 A 
HETATM    5  C6  UNL     1      62.059  22.593  40.747  1.00  0.00     0.081 A 
HETATM    6  N2  UNL     1      61.529  22.746  39.520  1.00  0.00    -0.340 N 
ATOM      7  H2  UNL     1      61.493  23.682  39.117  1.00  0.00     0.167 HD
HETATM    8  C7  UNL     1      61.043  21.717  38.803  1.00  0.00     0.102 A 
HETATM    9  C13 UNL     1      61.116  20.494  39.387  1.00  0.00     0.057 A 
HETATM   10  C14 UNL     1      61.662  20.262  40.672  1.00  0.00    -0.029 A 
HETATM   11  C15 UNL     1      61.704  18.918  41.222  1.00  0.00     0.050 C 
HETATM   12  C16 UNL     1      62.148  21.343  41.374  1.00  0.00     0.070 A 
HETATM   13  N4  UNL     1      62.723  21.502  42.587  1.00  0.00    -0.330 N 
HETATM   14  C19 UNL     1      63.008  22.826  42.769  1.00  0.00     0.132 A 
HETATM   15  N5  UNL     1      63.578  23.538  43.750  1.00  0.00    -0.284 N 
HETATM   16  C22 UNL     1      63.713  24.900  43.524  1.00  0.00     0.333 A 
HETATM   17  O2  UNL     1      64.254  25.555  44.454  1.00  0.00    -0.246 OA
ENDROOT
BRANCH   8  18
HETATM   18  N3  UNL     1      60.533  21.830  37.639  1.00  0.00    -0.372 N 
ATOM     19  H3  UNL     1      60.740  22.677  37.108  1.00  0.00     0.161 HD
BRANCH  18  20
HETATM   20  C8  UNL     1      59.683  20.841  37.022  1.00  0.00     0.079 C 
HETATM   21  C9  UNL     1      58.269  21.366  37.076  1.00  0.00     0.032 C 
BRANCH  20  22
HETATM   22  C10 UNL     1      60.161  20.664  35.597  1.00  0.00     0.024 C 
BRANCH  22  23
HETATM   23  C11 UNL     1      60.117  19.212  35.172  1.00  0.00    -0.003 C 
HETATM   24  C12 UNL     1      60.565  18.350  36.335  1.00  0.00     0.005 C 
ENDBRANCH  22  23
ENDBRANCH  20  22
ENDBRANCH  18  20
ENDBRANCH   8  18
BRANCH  13  25
HETATM   25  C17 UNL     1      63.043  20.482  43.515  1.00  0.00     0.126 C 
HETATM   26  C18 UNL     1      62.168  20.224  44.679  1.00  0.00     0.027 C 
ENDBRANCH  13  25
BRANCH   1  27
HETATM   27  C3  UNL     1      63.495  26.980  42.254  1.00  0.00     0.163 C 
BRANCH  27  28
HETATM   28  C2  UNL     1      62.273  27.734  42.571  1.00  0.00    -0.017 C 
HETATM   29  C1  UNL     1      62.205  29.018  42.264  1.00  0.00     0.008 C 
ENDBRANCH  27  28
ENDBRANCH   1  27
BRANCH  15  30
HETATM   30  C20 UNL     1      63.943  23.016  44.998  1.00  0.00     0.131 C 
HETATM   31  C21 UNL     1      65.478  22.766  45.088  1.00  0.00     0.027 C 
ENDBRANCH  15  30
TORSDOF 8
ENDMDL
MODEL 2
REMARK VINA RESULT: -5.476594571      5.100     10.175
REMARK  8 active torsions:
REMARK  status: ('A' for Active; 'I' for Inactive)
REMARK    1  A    between atoms: C2_2  and  C3_3 
REMARK    2  A    between atoms: C3_3  and  N1_4 
REMARK    3  A    between atoms: C7_11  and  N3_12 
REMARK    4  A    between atoms: N3_12  and  C8_14 
REMARK    5  A    between atoms: C8_14  and  C10_16 
REMARK    6  A    between atoms: C10_16  and  C11_17 
REMARK    7  A    between atoms: N4_23  and  C17_24 
REMARK    8  A    between atoms: N5_27  and  C20_28 
ROOT
HETATM    1  N1  UNL     1      60.457  27.944  42.430  1.00  0.00    -0.262 N 
HETATM    2  C4  UNL     1      61.037  28.650  41.471  1.00  0.00     0.268 A 
HETATM    3  O1  UNL     1      61.411  28.060  40.425  1.00  0.00    -0.267 OA
HETATM    4  C5  UNL     1      61.211  30.009  41.651  1.00  0.00     0.106 A 
HETATM    5  C6  UNL     1      61.748  30.934  40.829  1.00  0.00     0.081 A 
HETATM    6  N2  UNL     1      62.288  30.814  39.602  1.00  0.00    -0.340 N 
ATOM      7  H2  UNL     1      62.325  29.890  39.173  1.00  0.00     0.167 HD
HETATM    8  C7  UNL     1      62.782  31.862  38.919  1.00  0.00     0.102 A 
HETATM    9  C13 UNL     1      62.708  33.068  39.537  1.00  0.00     0.057 A 
HETATM   10  C14 UNL     1      62.153  33.265  40.824  1.00  0.00    -0.029 A 
HETATM   11  C15 UNL     1      62.110  34.593  41.411  1.00  0.00     0.050 C 
HETATM   12  C16 UNL     1      61.657  32.166  41.490  1.00  0.00     0.070 A 
HETATM   13  N4  UNL     1      61.073  31.974  42.695  1.00  0.00    -0.330 N 
HETATM   14  C19 UNL     1      60.783  30.646  42.836  1.00  0.00     0.132 A 
HETATM   15  N5  UNL     1      60.203  29.908  43.791  1.00  0.00    -0.284 N 
HETATM   16  C22 UNL     1      60.066  28.553  43.526  1.00  0.00     0.333 A 
HETATM   17  O2  UNL     1      59.515  27.874  44.432  1.00  0.00    -0.246 OA
ENDROOT
BRANCH   8  18
HETATM   18  N3  UNL     1      63.302  31.781  37.756  1.00  0.00    -0.372 N 
ATOM     19  H3  UNL     1      63.072  30.965  37.188  1.00  0.00     0.161 HD
BRANCH  18  20
HETATM   20  C8  UNL     1      64.193  32.764  37.191  1.00  0.00     0.079 C 
HETATM   21  C9  UNL     1      65.593  32.211  37.286  1.00  0.00     0.032 C 
BRANCH  20  22
HETATM   22  C10 UNL     1      63.771  32.979  35.753  1.00  0.00     0.024 C 
BRANCH  22  23
HETATM   23  C11 UNL     1      63.786  34.447  35.383  1.00  0.00    -0.003 C 
HETATM   24  C12 UNL     1      63.448  35.264  36.613  1.00  0.00     0.005 C 
ENDBRANCH  22  23
ENDBRANCH  20  22
ENDBRANCH  18  20
ENDBRANCH   8  18
BRANCH  13  25
HETATM   25  C17 UNL     1      60.748  32.969  43.648  1.00  0.00     0.126 C 
HETATM   26  C18 UNL     1      61.676  33.277  44.757  1.00  0.00     0.027 C 
ENDBRANCH  13  25
BRANCH   1  27
HETATM   27  C3  UNL     1      60.289  26.510  42.199  1.00  0.00     0.163 C 
BRANCH  27  28
HETATM   28  C2  UNL     1      61.499  25.741  42.524  1.00  0.00    -0.017 C 
HETATM   29  C1  UNL     1      61.529  24.443  42.277  1.00  0.00     0.008 C 
ENDBRANCH  27  28
ENDBRANCH   1  27
BRANCH  15  30
HETATM   30  C20 UNL     1      59.829  30.396  45.051  1.00  0.00     0.131 C 
HETATM   31  C21 UNL     1      58.306  30.716  45.113  1.00  0.00     0.027 C 
ENDBRANCH  15  30
TORSDOF 8
ENDMDL
MODEL 3
REMARK VINA RESULT: -5.112924922      0.904      1.050
REMARK  8 active torsions:
REMARK  status: ('A' for Active; 'I' for Inactive)
REMARK    1  A    between atoms: C2_2  and  C3_3 
REMARK    2  A    between atoms: C3_3  and  N1_4 
REMARK    3  A    between atoms: C7_11  and  N3_12 
REMARK    4  A    between atoms: N3_12  and  C8_14 
REMARK    5  A    between atoms: C8_14  and  C10_16 
REMARK    6  A    between atoms: C10_16  and  C11_17 
REMARK    7  A    between atoms: N4_23  and  C17_24 
REMARK    8  A    between atoms: N5_27  and  C20_28 
ROOT
HETATM    1  N1  UNL     1      63.202  25.577  42.314  1.00  0.00    -0.262 N 
HETATM    2  C4  UNL     1      62.655  24.885  41.326  1.00  0.00     0.268 A 
HETATM    3  O1  UNL     1      62.292  25.494  40.287  1.00  0.00    -0.267 OA
HETATM    4  C5  UNL     1      62.504  23.518  41.468  1.00  0.00     0.106 A 
HETATM    5  C6  UNL     1      62.001  22.604  40.612  1.00  0.00     0.081 A 
HETATM    6  N2  UNL     1      61.484  22.745  39.378  1.00  0.00    -0.340 N 
ATOM      7  H2  UNL     1      61.439  23.679  38.971  1.00  0.00     0.167 HD
HETATM    8  C7  UNL     1      61.024  21.706  38.658  1.00  0.00     0.102 A 
HETATM    9  C13 UNL     1      61.109  20.486  39.247  1.00  0.00     0.057 A 
HETATM   10  C14 UNL     1      61.642  20.267  40.540  1.00  0.00    -0.029 A 
HETATM   11  C15 UNL     1      61.698  18.926  41.095  1.00  0.00     0.050 C 
HETATM   12  C16 UNL     1      62.102  21.358  41.244  1.00  0.00     0.070 A 
HETATM   13  N4  UNL     1      62.658  21.530  42.465  1.00  0.00    -0.330 N 
HETATM   14  C19 UNL     1      62.920  22.860  42.645  1.00  0.00     0.132 A 
HETATM   15  N5  UNL     1      63.466  23.584  43.631  1.00  0.00    -0.284 N 
HETATM   16  C22 UNL     1      63.582  24.947  43.402  1.00  0.00     0.333 A 
HETATM   17  O2  UNL     1      64.101  25.613  44.336  1.00  0.00    -0.246 OA
ENDROOT
BRANCH   8  18
HETATM   18  N3  UNL     1      60.527  21.807  37.487  1.00  0.00    -0.372 N 
ATOM     19  H3  UNL     1      59.852  22.553  37.319  1.00  0.00     0.161 HD
BRANCH  18  20
HETATM   20  C8  UNL     1      60.856  20.936  36.385  1.00  0.00     0.079 C 
HETATM   21  C9  UNL     1      59.556  20.452  35.791  1.00  0.00     0.032 C 
BRANCH  20  22
HETATM   22  C10 UNL     1      61.658  21.751  35.393  1.00  0.00     0.024 C 
BRANCH  22  23
HETATM   23  C11 UNL     1      63.079  21.242  35.276  1.00  0.00    -0.003 C 
HETATM   24  C12 UNL     1      63.108  19.780  35.669  1.00  0.00     0.005 C 
ENDBRANCH  22  23
ENDBRANCH  20  22
ENDBRANCH  18  20
ENDBRANCH   8  18
BRANCH  13  25
HETATM   25  C17 UNL     1      62.982  20.518  43.400  1.00  0.00     0.126 C 
HETATM   26  C18 UNL     1      62.057  20.193  44.506  1.00  0.00     0.027 C 
ENDBRANCH  13  25
BRANCH   1  27
HETATM   27  C3  UNL     1      63.347  27.019  42.122  1.00  0.00     0.163 C 
BRANCH  27  28
HETATM   28  C2  UNL     1      62.149  27.765  42.532  1.00  0.00    -0.017 C 
HETATM   29  C1  UNL     1      62.191  29.085  42.578  1.00  0.00     0.008 C 
ENDBRANCH  27  28
ENDBRANCH   1  27
BRANCH  15  30
HETATM   30  C20 UNL     1      63.823  23.072  44.886  1.00  0.00     0.131 C 
HETATM   31  C21 UNL     1      65.346  22.752  44.962  1.00  0.00     0.027 C 
ENDBRANCH  15  30
TORSDOF 8
ENDMDL
MODEL 4
REMARK VINA RESULT: -5.102055867      5.128      9.558
REMARK  8 active torsions:
REMARK  status: ('A' for Active; 'I' for Inactive)
REMARK    1  A    between atoms: C2_2  and  C3_3 
REMARK    2  A    between atoms: C3_3  and  N1_4 
REMARK    3  A    between atoms: C7_11  and  N3_12 
REMARK    4  A    between atoms: N3_12  and  C8_14 
REMARK    5  A    between atoms: C8_14  and  C10_16 
REMARK    6  A    between atoms: C10_16  and  C11_17 
REMARK    7  A    between atoms: N4_23  and  C17_24 
REMARK    8  A    between atoms: N5_27  and  C20_28 
ROOT
HETATM    1  N1  UNL     1      60.498  27.953  42.344  1.00  0.00    -0.262 N 
HETATM    2  C4  UNL     1      61.085  28.661  41.390  1.00  0.00     0.268 A 
HETATM    3  O1  UNL     1      61.464  28.073  40.344  1.00  0.00    -0.267 OA
HETATM    4  C5  UNL     1      61.258  30.020  41.574  1.00  0.00     0.106 A 
HETATM    5  C6  UNL     1      61.801  30.946  40.757  1.00  0.00     0.081 A 
HETATM    6  N2  UNL     1      62.348  30.829  39.534  1.00  0.00    -0.340 N 
ATOM      7  H2  UNL     1      62.386  29.906  39.102  1.00  0.00     0.167 HD
HETATM    8  C7  UNL     1      62.847  31.878  38.856  1.00  0.00     0.102 A 
HETATM    9  C13 UNL     1      62.771  33.083  39.476  1.00  0.00     0.057 A 
HETATM   10  C14 UNL     1      62.207  33.277  40.760  1.00  0.00    -0.029 A 
HETATM   11  C15 UNL     1      62.162  34.603  41.350  1.00  0.00     0.050 C 
HETATM   12  C16 UNL     1      61.707  32.177  41.421  1.00  0.00     0.070 A 
HETATM   13  N4  UNL     1      61.116  31.983  42.621  1.00  0.00    -0.330 N 
HETATM   14  C19 UNL     1      60.824  30.654  42.757  1.00  0.00     0.132 A 
HETATM   15  N5  UNL     1      60.238  29.914  43.708  1.00  0.00    -0.284 N 
HETATM   16  C22 UNL     1      60.102  28.560  43.439  1.00  0.00     0.333 A 
HETATM   17  O2  UNL     1      59.545  27.880  44.339  1.00  0.00    -0.246 OA
ENDROOT
BRANCH   8  18
HETATM   18  N3  UNL     1      63.373  31.799  37.695  1.00  0.00    -0.372 N 
ATOM     19  H3  UNL     1      64.275  31.328  37.612  1.00  0.00     0.161 HD
BRANCH  18  20
HETATM   20  C8  UNL     1      62.780  32.332  36.494  1.00  0.00     0.079 C 
HETATM   21  C9  UNL     1      63.709  33.398  35.967  1.00  0.00     0.032 C 
BRANCH  20  22
HETATM   22  C10 UNL     1      62.632  31.184  35.518  1.00  0.00     0.024 C 
BRANCH  22  23
HETATM   23  C11 UNL     1      61.242  30.588  35.568  1.00  0.00    -0.003 C 
HETATM   24  C12 UNL     1      61.332  29.185  36.131  1.00  0.00     0.005 C 
ENDBRANCH  22  23
ENDBRANCH  20  22
ENDBRANCH  18  20
ENDBRANCH   8  18
BRANCH  13  25
HETATM   25  C17 UNL     1      60.787  32.975  43.575  1.00  0.00     0.126 C 
HETATM   26  C18 UNL     1      61.714  33.290  44.682  1.00  0.00     0.027 C 
ENDBRANCH  13  25
BRANCH   1  27
HETATM   27  C3  UNL     1      60.331  26.520  42.108  1.00  0.00     0.163 C 
BRANCH  27  28
HETATM   28  C2  UNL     1      61.516  25.743  42.497  1.00  0.00    -0.017 C 
HETATM   29  C1  UNL     1      61.472  24.423  42.443  1.00  0.00     0.008 C 
ENDBRANCH  27  28
ENDBRANCH   1  27
BRANCH  15  30
HETATM   30  C20 UNL     1      59.857  30.399  44.967  1.00  0.00     0.131 C 
HETATM   31  C21 UNL     1      58.338  30.740  45.014  1.00  0.00     0.027 C 
ENDBRANCH  15  30
TORSDOF 8
ENDMDL
MODEL 5
REMARK VINA RESULT: -4.866217855      3.755      7.817
REMARK  8 active torsions:
REMARK  status: ('A' for Active; 'I' for Inactive)
REMARK    1  A    between atoms: C2_2  and  C3_3 
REMARK    2  A    between atoms: C3_3  and  N1_4 
REMARK    3  A    between atoms: C7_11  and  N3_12 
REMARK    4  A    between atoms: N3_12  and  C8_14 
REMARK    5  A    between atoms: C8_14  and  C10_16 
REMARK    6  A    between atoms: C10_16  and  C11_17 
REMARK    7  A    between atoms: N4_23  and  C17_24 
REMARK    8  A    between atoms: N5_27  and  C20_28 
ROOT
HETATM    1  N1  UNL     1      62.754  26.072  36.449  1.00  0.00    -0.262 N 
HETATM    2  C4  UNL     1      62.992  25.510  37.626  1.00  0.00     0.268 A 
HETATM    3  O1  UNL     1      63.730  24.493  37.674  1.00  0.00    -0.267 OA
HETATM    4  C5  UNL     1      62.423  26.061  38.759  1.00  0.00     0.106 A 
HETATM    5  C6  UNL     1      62.527  25.691  40.052  1.00  0.00     0.081 A 
HETATM    6  N2  UNL     1      63.195  24.674  40.626  1.00  0.00    -0.340 N 
ATOM      7  H2  UNL     1      63.731  24.044  40.030  1.00  0.00     0.167 HD
HETATM    8  C7  UNL     1      63.187  24.454  41.953  1.00  0.00     0.102 A 
HETATM    9  C13 UNL     1      62.459  25.324  42.699  1.00  0.00     0.057 A 
HETATM   10  C14 UNL     1      61.735  26.414  42.161  1.00  0.00    -0.029 A 
HETATM   11  C15 UNL     1      60.983  27.300  43.033  1.00  0.00     0.050 C 
HETATM   12  C16 UNL     1      61.769  26.604  40.797  1.00  0.00     0.070 A 
HETATM   13  N4  UNL     1      61.219  27.507  39.954  1.00  0.00    -0.330 N 
HETATM   14  C19 UNL     1      61.598  27.203  38.676  1.00  0.00     0.132 A 
HETATM   15  N5  UNL     1      61.370  27.748  37.474  1.00  0.00    -0.284 N 
HETATM   16  C22 UNL     1      61.982  27.133  36.392  1.00  0.00     0.333 A 
HETATM   17  O2  UNL     1      61.762  27.660  35.270  1.00  0.00    -0.246 OA
ENDROOT
BRANCH   8  18
HETATM   18  N3  UNL     1      63.809  23.499  42.527  1.00  0.00    -0.372 N 
ATOM     19  H3  UNL     1      64.744  23.268  42.189  1.00  0.00     0.161 HD
BRANCH  18  20
HETATM   20  C8  UNL     1      63.278  22.722  43.620  1.00  0.00     0.079 C 
HETATM   21  C9  UNL     1      62.929  21.359  43.076  1.00  0.00     0.032 C 
BRANCH  20  22
HETATM   22  C10 UNL     1      64.356  22.644  44.680  1.00  0.00     0.024 C 
BRANCH  22  23
HETATM   23  C11 UNL     1      64.049  23.552  45.852  1.00  0.00    -0.003 C 
HETATM   24  C12 UNL     1      65.138  24.599  45.956  1.00  0.00     0.005 C 
ENDBRANCH  22  23
ENDBRANCH  20  22
ENDBRANCH  18  20
ENDBRANCH   8  18
BRANCH  13  25
HETATM   25  C17 UNL     1      60.427  28.626  40.307  1.00  0.00     0.126 C 
HETATM   26  C18 UNL     1      61.053  29.845  40.860  1.00  0.00     0.027 C 
ENDBRANCH  13  25
BRANCH   1  27
HETATM   27  C3  UNL     1      63.376  25.460  35.276  1.00  0.00     0.163 C 
BRANCH  27  28
HETATM   28  C2  UNL     1      64.498  26.255  34.755  1.00  0.00    -0.017 C 
HETATM   29  C1  UNL     1      65.570  26.434  35.507  1.00  0.00     0.008 C 
ENDBRANCH  27  28
ENDBRANCH   1  27
BRANCH  15  30
HETATM   30  C20 UNL     1      60.491  28.815  37.242  1.00  0.00     0.131 C 
HETATM   31  C21 UNL     1      59.031  28.316  37.024  1.00  0.00     0.027 C 
ENDBRANCH  15  30
TORSDOF 8
ENDMDL
