MODEL 1
REMARK VINA RESULT: -6.194939285      0.000      0.000
REMARK  5 active torsions:
REMARK  status: ('A' for Active; 'I' for Inactive)
REMARK    1  A    between atoms: C2_2  and  C3_3 
REMARK    2  A    between atoms: C3_3  and  C4_4 
REMARK    3  A    between atoms: C4_4  and  N1_5 
REMARK    4  A    between atoms: C9_12  and  N3_13 
REMARK       I    between atoms: N3_13  and  C10_15 
REMARK       I    between atoms: C10_15  and  N4_17 
REMARK    5  A    between atoms: C12_22  and  N6_23 
ROOT
HETATM    1  N1  UNL     1     -20.372  -3.523 -18.168  1.00  0.00    -0.301 N 
HETATM    2  C5  UNL     1     -20.133  -4.647 -18.822  1.00  0.00     0.128 A 
HETATM    3  N2  UNL     1     -19.923  -4.734 -20.226  1.00  0.00    -0.082 NA
HETATM    4  C6  UNL     1     -20.072  -5.844 -18.143  1.00  0.00    -0.002 A 
HETATM    5  C7  UNL     1     -19.809  -7.140 -18.813  1.00  0.00     0.053 C 
HETATM    6  C8  UNL     1     -20.263  -5.865 -16.777  1.00  0.00     0.037 A 
HETATM    7  S1  UNL     1     -20.208  -7.306 -15.843  1.00  0.00    -0.052 SA
HETATM    8  C9  UNL     1     -20.485  -6.993 -14.170  1.00  0.00     0.154 A 
HETATM    9  N5  UNL     1     -20.695  -5.702 -13.875  1.00  0.00    -0.322 N 
ATOM     10  H5  UNL     1     -20.863  -5.487 -12.892  1.00  0.00     0.169 HD
HETATM   11  C12 UNL     1     -20.711  -4.675 -14.705  1.00  0.00     0.118 A 
HETATM   12  C13 UNL     1     -20.513  -4.711 -16.071  1.00  0.00     0.093 A 
HETATM   13  C14 UNL     1     -20.557  -3.544 -16.840  1.00  0.00     0.264 A 
HETATM   14  O2  UNL     1     -20.786  -2.448 -16.225  1.00  0.00    -0.267 OA
ENDROOT
BRANCH   8  15
HETATM   15  N3  UNL     1     -20.494  -7.913 -13.260  1.00  0.00    -0.289 N 
HETATM   16  C10 UNL     1     -20.068  -7.671 -11.937  1.00  0.00     0.321 C 
HETATM   17  O1  UNL     1     -20.839  -7.855 -10.934  1.00  0.00    -0.247 OA
HETATM   18  N4  UNL     1     -18.744  -7.211 -11.695  1.00  0.00    -0.347 N 
HETATM   19  C11 UNL     1     -18.277  -6.953 -10.332  1.00  0.00     0.151 C 
ATOM     20  H4  UNL     1     -18.112  -7.059 -12.481  1.00  0.00     0.163 HD
ATOM     21  H3  UNL     1     -20.822  -8.847 -13.508  1.00  0.00     0.172 HD
ENDBRANCH   8  15
BRANCH  11  22
HETATM   22  N6  UNL     1     -20.935  -3.493 -14.213  1.00  0.00    -0.385 N 
ATOM     23  H62 UNL     1     -20.303  -3.211 -13.462  1.00  0.00     0.157 HD
ATOM     24  H61 UNL     1     -21.704  -2.948 -14.602  1.00  0.00     0.157 HD
ENDBRANCH  11  22
BRANCH   1  25
HETATM   25  C4  UNL     1     -20.416  -2.301 -18.940  1.00  0.00     0.133 C 
BRANCH  25  26
HETATM   26  C3  UNL     1     -21.771  -1.922 -19.433  1.00  0.00     0.020 C 
BRANCH  26  27
HETATM   27  C2  UNL     1     -22.356  -0.682 -18.845  1.00  0.00    -0.003 C 
HETATM   28  C1  UNL     1     -23.176  -0.021 -19.964  1.00  0.00     0.005 C 
ENDBRANCH  26  27
ENDBRANCH  25  26
ENDBRANCH   1  25
TORSDOF 5
ENDMDL
MODEL 2
REMARK VINA RESULT: -5.839317682      2.650      7.595
REMARK  5 active torsions:
REMARK  status: ('A' for Active; 'I' for Inactive)
REMARK    1  A    between atoms: C2_2  and  C3_3 
REMARK    2  A    between atoms: C3_3  and  C4_4 
REMARK    3  A    between atoms: C4_4  and  N1_5 
REMARK    4  A    between atoms: C9_12  and  N3_13 
REMARK       I    between atoms: N3_13  and  C10_15 
REMARK       I    between atoms: C10_15  and  N4_17 
REMARK    5  A    between atoms: C12_22  and  N6_23 
ROOT
HETATM    1  N1  UNL     1     -20.309  -6.295 -13.917  1.00  0.00    -0.301 N 
HETATM    2  C5  UNL     1     -20.595  -5.003 -13.918  1.00  0.00     0.128 A 
HETATM    3  N2  UNL     1     -20.804  -4.223 -12.749  1.00  0.00    -0.082 NA
HETATM    4  C6  UNL     1     -20.706  -4.320 -15.110  1.00  0.00    -0.002 A 
HETATM    5  C7  UNL     1     -21.023  -2.874 -15.183  1.00  0.00     0.053 C 
HETATM    6  C8  UNL     1     -20.520  -4.990 -16.301  1.00  0.00     0.037 A 
HETATM    7  S1  UNL     1     -20.641  -4.226 -17.836  1.00  0.00    -0.052 SA
HETATM    8  C9  UNL     1     -20.354  -5.335 -19.124  1.00  0.00     0.154 A 
HETATM    9  N5  UNL     1     -20.090  -6.589 -18.729  1.00  0.00    -0.322 N 
ATOM     10  H5  UNL     1     -19.917  -7.268 -19.470  1.00  0.00     0.169 HD
HETATM   11  C12 UNL     1     -20.027  -7.050 -17.492  1.00  0.00     0.118 A 
HETATM   12  C13 UNL     1     -20.223  -6.332 -16.329  1.00  0.00     0.093 A 
HETATM   13  C14 UNL     1     -20.128  -6.944 -15.076  1.00  0.00     0.264 A 
HETATM   14  O2  UNL     1     -19.853  -8.192 -15.055  1.00  0.00    -0.267 OA
ENDROOT
BRANCH   8  15
HETATM   15  N3  UNL     1     -20.387  -5.005 -20.375  1.00  0.00    -0.289 N 
HETATM   16  C10 UNL     1     -21.598  -4.788 -21.068  1.00  0.00     0.321 C 
HETATM   17  O1  UNL     1     -21.859  -3.674 -21.637  1.00  0.00    -0.247 OA
HETATM   18  N4  UNL     1     -22.564  -5.828 -21.143  1.00  0.00    -0.347 N 
HETATM   19  C11 UNL     1     -23.827  -5.629 -21.855  1.00  0.00     0.151 C 
ATOM     20  H4  UNL     1     -22.374  -6.725 -20.696  1.00  0.00     0.163 HD
ATOM     21  H3  UNL     1     -19.506  -4.899 -20.879  1.00  0.00     0.172 HD
ENDBRANCH   8  15
BRANCH  11  22
HETATM   22  N6  UNL     1     -19.755  -8.310 -17.322  1.00  0.00    -0.385 N 
ATOM     23  H62 UNL     1     -18.761  -8.540 -17.321  1.00  0.00     0.157 HD
ATOM     24  H61 UNL     1     -20.533  -8.958 -17.204  1.00  0.00     0.157 HD
ENDBRANCH  11  22
BRANCH   1  25
HETATM   25  C4  UNL     1     -20.200  -6.950 -12.633  1.00  0.00     0.133 C 
BRANCH  25  26
HETATM   26  C3  UNL     1     -18.854  -6.864 -12.000  1.00  0.00     0.020 C 
BRANCH  26  27
HETATM   27  C2  UNL     1     -18.758  -7.368 -10.599  1.00  0.00    -0.003 C 
HETATM   28  C1  UNL     1     -17.619  -6.578  -9.935  1.00  0.00     0.005 C 
ENDBRANCH  26  27
ENDBRANCH  25  26
ENDBRANCH   1  25
TORSDOF 5
ENDMDL
MODEL 3
REMARK VINA RESULT: -5.633631102      1.890      2.776
REMARK  5 active torsions:
REMARK  status: ('A' for Active; 'I' for Inactive)
REMARK    1  A    between atoms: C2_2  and  C3_3 
REMARK    2  A    between atoms: C3_3  and  C4_4 
REMARK    3  A    between atoms: C4_4  and  N1_5 
REMARK    4  A    between atoms: C9_12  and  N3_13 
REMARK       I    between atoms: N3_13  and  C10_15 
REMARK       I    between atoms: C10_15  and  N4_17 
REMARK    5  A    between atoms: C12_22  and  N6_23 
ROOT
HETATM    1  N1  UNL     1     -19.911  -4.215 -18.356  1.00  0.00    -0.301 N 
HETATM    2  C5  UNL     1     -20.170  -3.226 -17.517  1.00  0.00     0.128 A 
HETATM    3  N2  UNL     1     -20.208  -1.852 -17.878  1.00  0.00    -0.082 NA
HETATM    4  C6  UNL     1     -20.427  -3.493 -16.190  1.00  0.00    -0.002 A 
HETATM    5  C7  UNL     1     -20.723  -2.433 -15.196  1.00  0.00     0.053 C 
HETATM    6  C8  UNL     1     -20.412  -4.797 -15.740  1.00  0.00     0.037 A 
HETATM    7  S1  UNL     1     -20.719  -5.230 -14.106  1.00  0.00    -0.052 SA
HETATM    8  C9  UNL     1     -20.627  -6.935 -13.869  1.00  0.00     0.154 A 
HETATM    9  N5  UNL     1     -20.335  -7.634 -14.977  1.00  0.00    -0.322 N 
ATOM     10  H5  UNL     1     -20.273  -8.646 -14.866  1.00  0.00     0.169 HD
HETATM   11  C12 UNL     1     -20.120  -7.167 -16.193  1.00  0.00     0.118 A 
HETATM   12  C13 UNL     1     -20.146  -5.845 -16.591  1.00  0.00     0.093 A 
HETATM   13  C14 UNL     1     -19.898  -5.482 -17.917  1.00  0.00     0.264 A 
HETATM   14  O2  UNL     1     -19.647  -6.425 -18.743  1.00  0.00    -0.267 OA
ENDROOT
BRANCH   8  15
HETATM   15  N3  UNL     1     -20.817  -7.513 -12.727  1.00  0.00    -0.289 N 
HETATM   16  C10 UNL     1     -20.117  -7.133 -11.562  1.00  0.00     0.321 C 
HETATM   17  O1  UNL     1     -20.724  -6.735 -10.509  1.00  0.00    -0.247 OA
HETATM   18  N4  UNL     1     -18.697  -7.189 -11.542  1.00  0.00    -0.347 N 
HETATM   19  C11 UNL     1     -17.947  -6.801 -10.346  1.00  0.00     0.151 C 
ATOM     20  H4  UNL     1     -18.194  -7.505 -12.371  1.00  0.00     0.163 HD
ATOM     21  H3  UNL     1     -21.498  -8.270 -12.667  1.00  0.00     0.172 HD
ENDBRANCH   8  15
BRANCH  11  22
HETATM   22  N6  UNL     1     -19.850  -8.020 -17.137  1.00  0.00    -0.385 N 
ATOM     23  H62 UNL     1     -19.105  -8.682 -16.920  1.00  0.00     0.157 HD
ATOM     24  H61 UNL     1     -20.389  -7.966 -18.002  1.00  0.00     0.157 HD
ENDBRANCH  11  22
BRANCH   1  25
HETATM   25  C4  UNL     1     -19.656  -3.867 -19.735  1.00  0.00     0.133 C 
BRANCH  25  26
HETATM   26  C3  UNL     1     -20.864  -3.850 -20.610  1.00  0.00     0.020 C 
BRANCH  26  27
HETATM   27  C2  UNL     1     -21.101  -2.590 -21.371  1.00  0.00    -0.003 C 
HETATM   28  C1  UNL     1     -22.368  -1.958 -20.774  1.00  0.00     0.005 C 
ENDBRANCH  26  27
ENDBRANCH  25  26
ENDBRANCH   1  25
TORSDOF 5
ENDMDL
MODEL 4
REMARK VINA RESULT: -5.518408023      2.014      7.164
REMARK  5 active torsions:
REMARK  status: ('A' for Active; 'I' for Inactive)
REMARK    1  A    between atoms: C2_2  and  C3_3 
REMARK    2  A    between atoms: C3_3  and  C4_4 
REMARK    3  A    between atoms: C4_4  and  N1_5 
REMARK    4  A    between atoms: C9_12  and  N3_13 
REMARK       I    between atoms: N3_13  and  C10_15 
REMARK       I    between atoms: C10_15  and  N4_17 
REMARK    5  A    between atoms: C12_22  and  N6_23 
ROOT
HETATM    1  N1  UNL     1     -20.440  -6.292 -13.310  1.00  0.00    -0.301 N 
HETATM    2  C5  UNL     1     -20.510  -7.236 -14.234  1.00  0.00     0.128 A 
HETATM    3  N2  UNL     1     -20.854  -8.591 -13.978  1.00  0.00    -0.082 NA
HETATM    4  C6  UNL     1     -20.240  -6.937 -15.552  1.00  0.00    -0.002 A 
HETATM    5  C7  UNL     1     -20.299  -7.946 -16.637  1.00  0.00     0.053 C 
HETATM    6  C8  UNL     1     -19.895  -5.648 -15.903  1.00  0.00     0.037 A 
HETATM    7  S1  UNL     1     -19.540  -5.179 -17.517  1.00  0.00    -0.052 SA
HETATM    8  C9  UNL     1     -19.147  -3.503 -17.622  1.00  0.00     0.154 A 
HETATM    9  N5  UNL     1     -19.180  -2.851 -16.450  1.00  0.00    -0.322 N 
ATOM     10  H5  UNL     1     -18.951  -1.857 -16.481  1.00  0.00     0.169 HD
HETATM   11  C12 UNL     1     -19.475  -3.342 -15.260  1.00  0.00     0.118 A 
HETATM   12  C13 UNL     1     -19.815  -4.647 -14.963  1.00  0.00     0.093 A 
HETATM   13  C14 UNL     1     -20.105  -5.040 -13.653  1.00  0.00     0.264 A 
HETATM   14  O2  UNL     1     -20.043  -4.141 -12.747  1.00  0.00    -0.267 OA
ENDROOT
BRANCH   8  15
HETATM   15  N3  UNL     1     -18.841  -2.906 -18.728  1.00  0.00    -0.289 N 
HETATM   16  C10 UNL     1     -19.734  -2.035 -19.389  1.00  0.00     0.321 C 
HETATM   17  O1  UNL     1     -19.434  -0.816 -19.631  1.00  0.00    -0.247 OA
HETATM   18  N4  UNL     1     -21.007  -2.512 -19.804  1.00  0.00    -0.347 N 
HETATM   19  C11 UNL     1     -21.952  -1.630 -20.491  1.00  0.00     0.151 C 
ATOM     20  H4  UNL     1     -21.266  -3.482 -19.620  1.00  0.00     0.163 HD
ATOM     21  H3  UNL     1     -17.921  -3.070 -19.137  1.00  0.00     0.172 HD
ENDBRANCH   8  15
BRANCH  11  22
HETATM   22  N6  UNL     1     -19.451  -2.535 -14.241  1.00  0.00    -0.385 N 
ATOM     23  H62 UNL     1     -20.367  -2.272 -13.877  1.00  0.00     0.157 HD
ATOM     24  H61 UNL     1     -18.542  -2.232 -13.890  1.00  0.00     0.157 HD
ENDBRANCH  11  22
BRANCH   1  25
HETATM   25  C4  UNL     1     -20.741  -6.671 -11.949  1.00  0.00     0.133 C 
BRANCH  25  26
HETATM   26  C3  UNL     1     -19.634  -7.370 -11.234  1.00  0.00     0.020 C 
BRANCH  26  27
HETATM   27  C2  UNL     1     -18.286  -6.742 -11.347  1.00  0.00    -0.003 C 
HETATM   28  C1  UNL     1     -17.712  -6.698  -9.921  1.00  0.00     0.005 C 
ENDBRANCH  26  27
ENDBRANCH  25  26
ENDBRANCH   1  25
TORSDOF 5
ENDMDL
MODEL 5
REMARK VINA RESULT: -5.484100876      1.991      7.280
REMARK  5 active torsions:
REMARK  status: ('A' for Active; 'I' for Inactive)
REMARK    1  A    between atoms: C2_2  and  C3_3 
REMARK    2  A    between atoms: C3_3  and  C4_4 
REMARK    3  A    between atoms: C4_4  and  N1_5 
REMARK    4  A    between atoms: C9_12  and  N3_13 
REMARK       I    between atoms: N3_13  and  C10_15 
REMARK       I    between atoms: C10_15  and  N4_17 
REMARK    5  A    between atoms: C12_22  and  N6_23 
ROOT
HETATM    1  N1  UNL     1     -20.495  -5.870 -14.296  1.00  0.00    -0.301 N 
HETATM    2  C5  UNL     1     -20.280  -6.796 -15.215  1.00  0.00     0.128 A 
HETATM    3  N2  UNL     1     -20.109  -8.181 -14.940  1.00  0.00    -0.082 NA
HETATM    4  C6  UNL     1     -20.208  -6.448 -16.546  1.00  0.00    -0.002 A 
HETATM    5  C7  UNL     1     -19.969  -7.434 -17.627  1.00  0.00     0.053 C 
HETATM    6  C8  UNL     1     -20.360  -5.127 -16.916  1.00  0.00     0.037 A 
HETATM    7  S1  UNL     1     -20.285  -4.594 -18.547  1.00  0.00    -0.052 SA
HETATM    8  C9  UNL     1     -20.516  -2.890 -18.673  1.00  0.00     0.154 A 
HETATM    9  N5  UNL     1     -20.711  -2.269 -17.501  1.00  0.00    -0.322 N 
ATOM     10  H5  UNL     1     -20.849  -1.259 -17.544  1.00  0.00     0.169 HD
HETATM   11  C12 UNL     1     -20.746  -2.809 -16.296  1.00  0.00     0.118 A 
HETATM   12  C13 UNL     1     -20.585  -4.143 -15.981  1.00  0.00     0.093 A 
HETATM   13  C14 UNL     1     -20.644  -4.587 -14.657  1.00  0.00     0.264 A 
HETATM   14  O2  UNL     1     -20.853  -3.706 -13.755  1.00  0.00    -0.267 OA
ENDROOT
BRANCH   8  15
HETATM   15  N3  UNL     1     -20.503  -2.245 -19.795  1.00  0.00    -0.289 N 
HETATM   16  C10 UNL     1     -21.184  -1.022 -19.971  1.00  0.00     0.321 C 
HETATM   17  O1  UNL     1     -20.575   0.046 -20.320  1.00  0.00    -0.247 OA
HETATM   18  N4  UNL     1     -22.589  -0.959 -19.758  1.00  0.00    -0.347 N 
HETATM   19  C11 UNL     1     -23.319   0.297 -19.934  1.00  0.00     0.151 C 
ATOM     20  H4  UNL     1     -23.094  -1.800 -19.480  1.00  0.00     0.163 HD
ATOM     21  H3  UNL     1     -19.982  -2.635 -20.581  1.00  0.00     0.172 HD
ENDBRANCH   8  15
BRANCH  11  22
HETATM   22  N6  UNL     1     -20.950  -2.024 -15.279  1.00  0.00    -0.385 N 
ATOM     23  H62 UNL     1     -20.109  -1.606 -14.881  1.00  0.00     0.157 HD
ATOM     24  H61 UNL     1     -21.910  -1.888 -14.963  1.00  0.00     0.157 HD
ENDBRANCH  11  22
BRANCH   1  25
HETATM   25  C4  UNL     1     -20.566  -6.304 -12.919  1.00  0.00     0.133 C 
BRANCH  25  26
HETATM   26  C3  UNL     1     -19.264  -6.297 -12.193  1.00  0.00     0.020 C 
BRANCH  26  27
HETATM   27  C2  UNL     1     -19.188  -7.163 -10.981  1.00  0.00    -0.003 C 
HETATM   28  C1  UNL     1     -17.927  -6.725 -10.218  1.00  0.00     0.005 C 
ENDBRANCH  26  27
ENDBRANCH  25  26
ENDBRANCH   1  25
TORSDOF 5
ENDMDL
