MODEL 1
REMARK VINA RESULT: -5.905158461      0.000      0.000
REMARK  9 active torsions:
REMARK  status: ('A' for Active; 'I' for Inactive)
REMARK    1  A    between atoms: C2_2  and  C3_3 
REMARK    2  A    between atoms: C3_3  and  N1_4 
REMARK    3  A    between atoms: C6_12  and  C7_13 
REMARK    4  A    between atoms: C11_22  and  N7_23 
REMARK    5  A    between atoms: C12_28  and  N9_29 
REMARK    6  A    between atoms: N9_29  and  C13_31 
REMARK    7  A    between atoms: N10_35  and  C17_36 
REMARK    8  A    between atoms: C17_36  and  C18_37 
REMARK    9  A    between atoms: C18_37  and  O2_39 
ROOT
HETATM    1  C7  UNL     1     -28.506  -7.231 -10.653  1.00  0.00     0.067 A 
HETATM    2  C8  UNL     1     -28.552  -6.925  -9.271  1.00  0.00     0.109 A 
HETATM    3  N4  UNL     1     -27.689  -7.459  -8.401  1.00  0.00    -0.343 N 
ATOM      4  H4  UNL     1     -27.751  -7.216  -7.412  1.00  0.00     0.167 HD
HETATM    5  C9  UNL     1     -26.743  -8.312  -8.818  1.00  0.00     0.189 A 
HETATM    6  C10 UNL     1     -25.831  -8.866  -7.850  1.00  0.00     0.137 C 
HETATM    7  N5  UNL     1     -25.094  -9.293  -7.065  1.00  0.00    -0.188 NA
HETATM    8  N6  UNL     1     -26.657  -8.633 -10.094  1.00  0.00    -0.319 N 
ATOM      9  H6  UNL     1     -25.933  -9.284 -10.400  1.00  0.00     0.169 HD
HETATM   10  C11 UNL     1     -27.529  -8.105 -11.023  1.00  0.00     0.116 A 
ENDROOT
BRANCH  10  11
HETATM   11  N7  UNL     1     -27.404  -8.544 -12.179  1.00  0.00    -0.385 N 
ATOM     12  H72 UNL     1     -28.278  -8.740 -12.668  1.00  0.00     0.157 HD
ATOM     13  H71 UNL     1     -26.504  -8.646 -12.648  1.00  0.00     0.157 HD
ENDBRANCH  10  11
BRANCH   1  14
HETATM   14  C6  UNL     1     -29.513  -6.614 -11.491  1.00  0.00     0.123 A 
HETATM   15  N3  UNL     1     -30.613  -7.403 -11.779  1.00  0.00    -0.325 N 
HETATM   16  C5  UNL     1     -31.587  -6.997 -12.597  1.00  0.00     0.154 A 
ATOM     17  H3  UNL     1     -30.681  -8.327 -11.352  1.00  0.00     0.169 HD
HETATM   18  N2  UNL     1     -32.743  -7.603 -13.016  1.00  0.00    -0.174 N 
HETATM   19  C16 UNL     1     -31.549  -5.771 -13.197  1.00  0.00     0.140 A 
HETATM   20  C4  UNL     1     -33.373  -6.774 -13.834  1.00  0.00     0.687 A 
ATOM     21  H2  UNL     1     -33.063  -8.533 -12.745  1.00  0.00     0.186 HD
HETATM   22  N1  UNL     1     -34.468  -6.902 -14.457  1.00  0.00    -0.202 N 
HETATM   23  N10 UNL     1     -32.630  -5.607 -13.960  1.00  0.00    -0.166 N 
ATOM     24  H1  UNL     1     -34.710  -6.089 -15.024  1.00  0.00     0.183 HD
HETATM   25  C12 UNL     1     -30.454  -4.960 -12.921  1.00  0.00     0.135 A 
HETATM   26  N8  UNL     1     -29.505  -5.428 -12.085  1.00  0.00    -0.326 N 
ATOM     27  H8  UNL     1     -28.711  -4.816 -11.893  1.00  0.00     0.169 HD
BRANCH  22  28
HETATM   28  C3  UNL     1     -35.400  -7.914 -14.528  1.00  0.00     0.105 C 
BRANCH  28  29
HETATM   29  C2  UNL     1     -36.311  -8.163 -13.399  1.00  0.00     0.007 C 
HETATM   30  C1  UNL     1     -36.033  -9.103 -12.505  1.00  0.00     0.012 C 
ENDBRANCH  28  29
ENDBRANCH  22  28
BRANCH  23  31
HETATM   31  C17 UNL     1     -32.975  -4.459 -14.762  1.00  0.00     0.259 C 
BRANCH  31  32
HETATM   32  C18 UNL     1     -33.792  -3.476 -14.000  1.00  0.00     0.277 C 
HETATM   33  O1  UNL     1     -35.040  -3.616 -13.936  1.00  0.00    -0.263 OA
BRANCH  32  34
HETATM   34  O2  UNL     1     -33.252  -2.382 -13.339  1.00  0.00    -0.325 OA
HETATM   35  C19 UNL     1     -32.965  -1.160 -14.037  1.00  0.00     0.213 C 
ENDBRANCH  32  34
ENDBRANCH  31  32
ENDBRANCH  23  31
BRANCH  25  36
HETATM   36  N9  UNL     1     -30.368  -3.833 -13.439  1.00  0.00    -0.370 N 
ATOM     37  H9  UNL     1     -31.274  -3.432 -13.682  1.00  0.00     0.161 HD
BRANCH  36  38
HETATM   38  C13 UNL     1     -29.285  -2.989 -13.765  1.00  0.00     0.075 C 
HETATM   39  C14 UNL     1     -29.026  -3.019 -15.247  1.00  0.00     0.031 C 
HETATM   40  C15 UNL     1     -29.394  -1.587 -13.239  1.00  0.00     0.031 C 
ENDBRANCH  36  38
ENDBRANCH  25  36
ENDBRANCH   1  14
TORSDOF 9
ENDMDL
MODEL 2
REMARK VINA RESULT: -5.904772169      4.986      7.802
REMARK  9 active torsions:
REMARK  status: ('A' for Active; 'I' for Inactive)
REMARK    1  A    between atoms: C2_2  and  C3_3 
REMARK    2  A    between atoms: C3_3  and  N1_4 
REMARK    3  A    between atoms: C6_12  and  C7_13 
REMARK    4  A    between atoms: C11_22  and  N7_23 
REMARK    5  A    between atoms: C12_28  and  N9_29 
REMARK    6  A    between atoms: N9_29  and  C13_31 
REMARK    7  A    between atoms: N10_35  and  C17_36 
REMARK    8  A    between atoms: C17_36  and  C18_37 
REMARK    9  A    between atoms: C18_37  and  O2_39 
ROOT
HETATM    1  C7  UNL     1     -24.367 -12.323 -12.326  1.00  0.00     0.067 A 
HETATM    2  C8  UNL     1     -23.313 -12.041 -13.228  1.00  0.00     0.109 A 
HETATM    3  N4  UNL     1     -22.589 -13.014 -13.792  1.00  0.00    -0.343 N 
ATOM      4  H4  UNL     1     -21.836 -12.775 -14.439  1.00  0.00     0.167 HD
HETATM    5  C9  UNL     1     -22.844 -14.300 -13.514  1.00  0.00     0.189 A 
HETATM    6  C10 UNL     1     -22.042 -15.318 -14.143  1.00  0.00     0.137 C 
HETATM    7  N5  UNL     1     -21.401 -16.129 -14.665  1.00  0.00    -0.188 NA
HETATM    8  N6  UNL     1     -23.813 -14.618 -12.679  1.00  0.00    -0.319 N 
ATOM      9  H6  UNL     1     -23.998 -15.600 -12.474  1.00  0.00     0.169 HD
HETATM   10  C11 UNL     1     -24.582 -13.644 -12.075  1.00  0.00     0.116 A 
ENDROOT
BRANCH  10  11
HETATM   11  N7  UNL     1     -25.409 -14.060 -11.245  1.00  0.00    -0.385 N 
ATOM     12  H72 UNL     1     -26.023 -14.803 -11.577  1.00  0.00     0.157 HD
ATOM     13  H71 UNL     1     -25.444 -13.741 -10.277  1.00  0.00     0.157 HD
ENDBRANCH  10  11
BRANCH   1  14
HETATM   14  C6  UNL     1     -25.059 -11.184 -11.757  1.00  0.00     0.123 A 
HETATM   15  N3  UNL     1     -26.411 -11.106 -12.041  1.00  0.00    -0.325 N 
HETATM   16  C5  UNL     1     -27.163 -10.077 -11.645  1.00  0.00     0.154 A 
ATOM     17  H3  UNL     1     -26.847 -11.861 -12.570  1.00  0.00     0.169 HD
HETATM   18  N2  UNL     1     -28.495  -9.798 -11.813  1.00  0.00    -0.174 N 
HETATM   19  C16 UNL     1     -26.634  -9.038 -10.935  1.00  0.00     0.140 A 
HETATM   20  C4  UNL     1     -28.753  -8.640 -11.227  1.00  0.00     0.687 A 
ATOM     21  H2  UNL     1     -29.171 -10.382 -12.306  1.00  0.00     0.186 HD
HETATM   22  N1  UNL     1     -29.836  -7.989 -11.125  1.00  0.00    -0.202 N 
HETATM   23  N10 UNL     1     -27.585  -8.143 -10.664  1.00  0.00    -0.166 N 
ATOM     24  H1  UNL     1     -29.736  -7.113 -10.611  1.00  0.00     0.183 HD
HETATM   25  C12 UNL     1     -25.278  -9.095 -10.637  1.00  0.00     0.135 A 
HETATM   26  N8  UNL     1     -24.572 -10.163 -11.063  1.00  0.00    -0.326 N 
ATOM     27  H8  UNL     1     -23.579 -10.188 -10.831  1.00  0.00     0.169 HD
BRANCH  22  28
HETATM   28  C3  UNL     1     -31.120  -8.219 -11.566  1.00  0.00     0.105 C 
BRANCH  28  29
HETATM   29  C2  UNL     1     -32.071  -8.960 -10.723  1.00  0.00     0.007 C 
HETATM   30  C1  UNL     1     -32.072 -10.287 -10.716  1.00  0.00     0.012 C 
ENDBRANCH  28  29
ENDBRANCH  22  28
BRANCH  23  31
HETATM   31  C17 UNL     1     -27.447  -6.905  -9.938  1.00  0.00     0.259 C 
BRANCH  31  32
HETATM   32  C18 UNL     1     -27.768  -7.071  -8.494  1.00  0.00     0.277 C 
HETATM   33  O1  UNL     1     -28.776  -6.498  -8.007  1.00  0.00    -0.263 OA
BRANCH  32  34
HETATM   34  O2  UNL     1     -27.004  -7.837  -7.624  1.00  0.00    -0.325 OA
HETATM   35  C19 UNL     1     -27.349  -9.202  -7.339  1.00  0.00     0.213 C 
ENDBRANCH  32  34
ENDBRANCH  31  32
ENDBRANCH  23  31
BRANCH  25  36
HETATM   36  N9  UNL     1     -24.742  -8.177  -9.991  1.00  0.00    -0.370 N 
ATOM     37  H9  UNL     1     -25.006  -7.249 -10.320  1.00  0.00     0.161 HD
BRANCH  36  38
HETATM   38  C13 UNL     1     -23.846  -8.144  -8.901  1.00  0.00     0.075 C 
HETATM   39  C14 UNL     1     -23.984  -9.394  -8.074  1.00  0.00     0.031 C 
HETATM   40  C15 UNL     1     -22.417  -7.862  -9.264  1.00  0.00     0.031 C 
ENDBRANCH  36  38
ENDBRANCH  25  36
ENDBRANCH   1  14
TORSDOF 9
ENDMDL
MODEL 3
REMARK VINA RESULT: -5.823737043      5.129      7.811
REMARK  9 active torsions:
REMARK  status: ('A' for Active; 'I' for Inactive)
REMARK    1  A    between atoms: C2_2  and  C3_3 
REMARK    2  A    between atoms: C3_3  and  N1_4 
REMARK    3  A    between atoms: C6_12  and  C7_13 
REMARK    4  A    between atoms: C11_22  and  N7_23 
REMARK    5  A    between atoms: C12_28  and  N9_29 
REMARK    6  A    between atoms: N9_29  and  C13_31 
REMARK    7  A    between atoms: N10_35  and  C17_36 
REMARK    8  A    between atoms: C17_36  and  C18_37 
REMARK    9  A    between atoms: C18_37  and  O2_39 
ROOT
HETATM    1  C7  UNL     1     -23.900 -12.414 -13.033  1.00  0.00     0.067 A 
HETATM    2  C8  UNL     1     -23.345 -11.787 -14.174  1.00  0.00     0.109 A 
HETATM    3  N4  UNL     1     -22.487 -12.420 -14.980  1.00  0.00    -0.343 N 
ATOM      4  H4  UNL     1     -22.107 -11.938 -15.795  1.00  0.00     0.167 HD
HETATM    5  C9  UNL     1     -22.121 -13.685 -14.726  1.00  0.00     0.189 A 
HETATM    6  C10 UNL     1     -21.195 -14.333 -15.619  1.00  0.00     0.137 C 
HETATM    7  N5  UNL     1     -20.462 -14.849 -16.352  1.00  0.00    -0.188 NA
HETATM    8  N6  UNL     1     -22.606 -14.315 -13.674  1.00  0.00    -0.319 N 
ATOM      9  H6  UNL     1     -22.320 -15.277 -13.490  1.00  0.00     0.169 HD
HETATM   10  C11 UNL     1     -23.493 -13.696 -12.818  1.00  0.00     0.116 A 
ENDROOT
BRANCH  10  11
HETATM   11  N7  UNL     1     -23.816 -14.360 -11.817  1.00  0.00    -0.385 N 
ATOM     12  H72 UNL     1     -24.341 -13.850 -11.107  1.00  0.00     0.157 HD
ATOM     13  H71 UNL     1     -23.637 -15.360 -11.723  1.00  0.00     0.157 HD
ENDBRANCH  10  11
BRANCH   1  14
HETATM   14  C6  UNL     1     -24.793 -11.615 -12.220  1.00  0.00     0.123 A 
HETATM   15  N3  UNL     1     -26.142 -11.881 -12.381  1.00  0.00    -0.325 N 
HETATM   16  C5  UNL     1     -27.087 -11.177 -11.754  1.00  0.00     0.154 A 
ATOM     17  H3  UNL     1     -26.423 -12.640 -13.001  1.00  0.00     0.169 HD
HETATM   18  N2  UNL     1     -28.455 -11.263 -11.767  1.00  0.00    -0.174 N 
HETATM   19  C16 UNL     1     -26.769 -10.148 -10.913  1.00  0.00     0.140 A 
HETATM   20  C4  UNL     1     -28.938 -10.326 -10.967  1.00  0.00     0.687 A 
ATOM     21  H2  UNL     1     -29.006 -11.935 -12.302  1.00  0.00     0.186 HD
HETATM   22  N1  UNL     1     -30.134 -10.030 -10.669  1.00  0.00    -0.202 N 
HETATM   23  N10 UNL     1     -27.883  -9.609 -10.417  1.00  0.00    -0.166 N 
ATOM     24  H1  UNL     1     -30.208  -9.249 -10.018  1.00  0.00     0.183 HD
HETATM   25  C12 UNL     1     -25.421  -9.864 -10.734  1.00  0.00     0.135 A 
HETATM   26  N8  UNL     1     -24.515 -10.614 -11.395  1.00  0.00    -0.326 N 
ATOM     27  H8  UNL     1     -23.530 -10.392 -11.249  1.00  0.00     0.169 HD
BRANCH  22  28
HETATM   28  C3  UNL     1     -31.354 -10.545 -11.045  1.00  0.00     0.105 C 
BRANCH  28  29
HETATM   29  C2  UNL     1     -32.599  -9.886 -10.620  1.00  0.00     0.007 C 
HETATM   30  C1  UNL     1     -33.188  -8.992 -11.402  1.00  0.00     0.012 C 
ENDBRANCH  28  29
ENDBRANCH  22  28
BRANCH  23  31
HETATM   31  C17 UNL     1     -27.992  -8.505  -9.495  1.00  0.00     0.259 C 
BRANCH  31  32
HETATM   32  C18 UNL     1     -27.956  -7.192 -10.195  1.00  0.00     0.277 C 
HETATM   33  O1  UNL     1     -26.856  -6.615 -10.388  1.00  0.00    -0.263 OA
BRANCH  32  34
HETATM   34  O2  UNL     1     -29.091  -6.543 -10.661  1.00  0.00    -0.325 OA
HETATM   35  C19 UNL     1     -29.539  -6.711 -12.016  1.00  0.00     0.213 C 
ENDBRANCH  32  34
ENDBRANCH  31  32
ENDBRANCH  23  31
BRANCH  25  36
HETATM   36  N9  UNL     1     -25.073  -8.939  -9.980  1.00  0.00    -0.370 N 
ATOM     37  H9  UNL     1     -25.452  -8.033 -10.256  1.00  0.00     0.161 HD
BRANCH  36  38
HETATM   38  C13 UNL     1     -24.267  -8.873  -8.823  1.00  0.00     0.075 C 
HETATM   39  C14 UNL     1     -23.012  -8.092  -9.105  1.00  0.00     0.031 C 
HETATM   40  C15 UNL     1     -24.970  -8.387  -7.588  1.00  0.00     0.031 C 
ENDBRANCH  36  38
ENDBRANCH  25  36
ENDBRANCH   1  14
TORSDOF 9
ENDMDL
MODEL 4
REMARK VINA RESULT: -5.738256154      3.631      8.656
REMARK  9 active torsions:
REMARK  status: ('A' for Active; 'I' for Inactive)
REMARK    1  A    between atoms: C2_2  and  C3_3 
REMARK    2  A    between atoms: C3_3  and  N1_4 
REMARK    3  A    between atoms: C6_12  and  C7_13 
REMARK    4  A    between atoms: C11_22  and  N7_23 
REMARK    5  A    between atoms: C12_28  and  N9_29 
REMARK    6  A    between atoms: N9_29  and  C13_31 
REMARK    7  A    between atoms: N10_35  and  C17_36 
REMARK    8  A    between atoms: C17_36  and  C18_37 
REMARK    9  A    between atoms: C18_37  and  O2_39 
ROOT
HETATM    1  C7  UNL     1     -30.915  -5.192 -13.165  1.00  0.00     0.067 A 
HETATM    2  C8  UNL     1     -29.972  -4.145 -13.301  1.00  0.00     0.109 A 
HETATM    3  N4  UNL     1     -30.252  -3.028 -13.982  1.00  0.00    -0.343 N 
ATOM      4  H4  UNL     1     -29.549  -2.293 -14.060  1.00  0.00     0.167 HD
HETATM    5  C9  UNL     1     -31.449  -2.868 -14.564  1.00  0.00     0.189 A 
HETATM    6  C10 UNL     1     -31.712  -1.651 -15.287  1.00  0.00     0.137 C 
HETATM    7  N5  UNL     1     -31.918  -0.662 -15.854  1.00  0.00    -0.188 NA
HETATM    8  N6  UNL     1     -32.363  -3.814 -14.470  1.00  0.00    -0.319 N 
ATOM      9  H6  UNL     1     -33.270  -3.682 -14.917  1.00  0.00     0.169 HD
HETATM   10  C11 UNL     1     -32.113  -4.981 -13.778  1.00  0.00     0.116 A 
ENDROOT
BRANCH  10  11
HETATM   11  N7  UNL     1     -33.018  -5.832 -13.829  1.00  0.00    -0.385 N 
ATOM     12  H72 UNL     1     -32.803  -6.663 -14.382  1.00  0.00     0.157 HD
ATOM     13  H71 UNL     1     -33.892  -5.757 -13.309  1.00  0.00     0.157 HD
ENDBRANCH  10  11
BRANCH   1  14
HETATM   14  C6  UNL     1     -30.485  -6.364 -12.431  1.00  0.00     0.123 A 
HETATM   15  N3  UNL     1     -29.380  -6.185 -11.617  1.00  0.00    -0.325 N 
HETATM   16  C5  UNL     1     -28.826  -7.190 -10.936  1.00  0.00     0.154 A 
ATOM     17  H3  UNL     1     -28.976  -5.252 -11.535  1.00  0.00     0.169 HD
HETATM   18  N2  UNL     1     -27.749  -7.240 -10.089  1.00  0.00    -0.174 N 
HETATM   19  C16 UNL     1     -29.324  -8.460 -11.008  1.00  0.00     0.140 A 
HETATM   20  C4  UNL     1     -27.608  -8.487  -9.670  1.00  0.00     0.687 A 
ATOM     21  H2  UNL     1     -27.158  -6.450  -9.827  1.00  0.00     0.186 HD
HETATM   22  N1  UNL     1     -26.758  -9.003  -8.883  1.00  0.00    -0.202 N 
HETATM   23  N10 UNL     1     -28.598  -9.275 -10.242  1.00  0.00    -0.166 N 
ATOM     24  H1  UNL     1     -26.893 -10.003  -8.740  1.00  0.00     0.183 HD
HETATM   25  C12 UNL     1     -30.434  -8.664 -11.818  1.00  0.00     0.135 A 
HETATM   26  N8  UNL     1     -30.949  -7.606 -12.479  1.00  0.00    -0.326 N 
ATOM     27  H8  UNL     1     -31.765  -7.776 -13.065  1.00  0.00     0.169 HD
BRANCH  22  28
HETATM   28  C3  UNL     1     -25.690  -8.490  -8.181  1.00  0.00     0.105 C 
BRANCH  28  29
HETATM   29  C2  UNL     1     -24.327  -8.976  -8.446  1.00  0.00     0.007 C 
HETATM   30  C1  UNL     1     -23.482  -8.250  -9.167  1.00  0.00     0.012 C 
ENDBRANCH  28  29
ENDBRANCH  22  28
BRANCH  23  31
HETATM   31  C17 UNL     1     -28.786 -10.690 -10.037  1.00  0.00     0.259 C 
BRANCH  31  32
HETATM   32  C18 UNL     1     -28.001 -11.500 -11.008  1.00  0.00     0.277 C 
HETATM   33  O1  UNL     1     -28.572 -12.008 -12.006  1.00  0.00    -0.263 OA
BRANCH  32  34
HETATM   34  O2  UNL     1     -26.640 -11.741 -10.879  1.00  0.00    -0.325 OA
HETATM   35  C19 UNL     1     -25.681 -11.027 -11.675  1.00  0.00     0.213 C 
ENDBRANCH  32  34
ENDBRANCH  31  32
ENDBRANCH  23  31
BRANCH  25  36
HETATM   36  N9  UNL     1     -30.931  -9.800 -11.920  1.00  0.00    -0.370 N 
ATOM     37  H9  UNL     1     -30.292 -10.481 -12.332  1.00  0.00     0.161 HD
BRANCH  36  38
HETATM   38  C13 UNL     1     -32.188 -10.349 -11.590  1.00  0.00     0.075 C 
HETATM   39  C14 UNL     1     -32.167 -11.843 -11.764  1.00  0.00     0.031 C 
HETATM   40  C15 UNL     1     -32.723  -9.944 -10.247  1.00  0.00     0.031 C 
ENDBRANCH  36  38
ENDBRANCH  25  36
ENDBRANCH   1  14
TORSDOF 9
ENDMDL
MODEL 5
REMARK VINA RESULT: -5.643152506      1.993      2.949
REMARK  9 active torsions:
REMARK  status: ('A' for Active; 'I' for Inactive)
REMARK    1  A    between atoms: C2_2  and  C3_3 
REMARK    2  A    between atoms: C3_3  and  N1_4 
REMARK    3  A    between atoms: C6_12  and  C7_13 
REMARK    4  A    between atoms: C11_22  and  N7_23 
REMARK    5  A    between atoms: C12_28  and  N9_29 
REMARK    6  A    between atoms: N9_29  and  C13_31 
REMARK    7  A    between atoms: N10_35  and  C17_36 
REMARK    8  A    between atoms: C17_36  and  C18_37 
REMARK    9  A    between atoms: C18_37  and  O2_39 
ROOT
HETATM    1  C7  UNL     1     -28.311  -7.851 -10.330  1.00  0.00     0.067 A 
HETATM    2  C8  UNL     1     -27.339  -8.621 -11.014  1.00  0.00     0.109 A 
HETATM    3  N4  UNL     1     -26.135  -8.867 -10.486  1.00  0.00    -0.343 N 
ATOM      4  H4  UNL     1     -25.458  -9.426 -11.006  1.00  0.00     0.167 HD
HETATM    5  C9  UNL     1     -25.810  -8.385  -9.278  1.00  0.00     0.189 A 
HETATM    6  C10 UNL     1     -24.504  -8.674  -8.743  1.00  0.00     0.137 C 
HETATM    7  N5  UNL     1     -23.457  -8.925  -8.317  1.00  0.00    -0.188 NA
HETATM    8  N6  UNL     1     -26.678  -7.661  -8.599  1.00  0.00    -0.319 N 
ATOM      9  H6  UNL     1     -26.420  -7.299  -7.681  1.00  0.00     0.169 HD
HETATM   10  C11 UNL     1     -27.929  -7.383  -9.109  1.00  0.00     0.116 A 
ENDROOT
BRANCH  10  11
HETATM   11  N7  UNL     1     -28.628  -6.623  -8.416  1.00  0.00    -0.385 N 
ATOM     12  H72 UNL     1     -29.619  -6.862  -8.372  1.00  0.00     0.157 HD
ATOM     13  H71 UNL     1     -28.248  -5.850  -7.870  1.00  0.00     0.157 HD
ENDBRANCH  10  11
BRANCH   1  14
HETATM   14  C6  UNL     1     -29.566  -7.627 -11.017  1.00  0.00     0.123 A 
HETATM   15  N3  UNL     1     -30.572  -8.532 -10.730  1.00  0.00    -0.325 N 
HETATM   16  C5  UNL     1     -31.759  -8.496 -11.340  1.00  0.00     0.154 A 
ATOM     17  H3  UNL     1     -30.401  -9.251 -10.027  1.00  0.00     0.169 HD
HETATM   18  N2  UNL     1     -32.878  -9.278 -11.215  1.00  0.00    -0.174 N 
HETATM   19  C16 UNL     1     -32.044  -7.556 -12.289  1.00  0.00     0.140 A 
HETATM   20  C4  UNL     1     -33.797  -8.825 -12.053  1.00  0.00     0.687 A 
ATOM     21  H2  UNL     1     -32.984 -10.072 -10.584  1.00  0.00     0.186 HD
HETATM   22  N1  UNL     1     -34.976  -9.228 -12.283  1.00  0.00    -0.202 N 
HETATM   23  N10 UNL     1     -33.285  -7.733 -12.743  1.00  0.00    -0.166 N 
ATOM     24  H1  UNL     1     -35.461  -8.679 -12.993  1.00  0.00     0.183 HD
HETATM   25  C12 UNL     1     -31.049  -6.635 -12.593  1.00  0.00     0.135 A 
HETATM   26  N8  UNL     1     -29.872  -6.724 -11.940  1.00  0.00    -0.326 N 
ATOM     27  H8  UNL     1     -29.155  -6.037 -12.175  1.00  0.00     0.169 HD
BRANCH  22  28
HETATM   28  C3  UNL     1     -35.738 -10.255 -11.772  1.00  0.00     0.105 C 
BRANCH  28  29
HETATM   29  C2  UNL     1     -36.581 -10.033 -10.587  1.00  0.00     0.007 C 
HETATM   30  C1  UNL     1     -36.199 -10.477  -9.396  1.00  0.00     0.012 C 
ENDBRANCH  28  29
ENDBRANCH  22  28
BRANCH  23  31
HETATM   31  C17 UNL     1     -33.974  -6.959 -13.747  1.00  0.00     0.259 C 
BRANCH  31  32
HETATM   32  C18 UNL     1     -33.748  -7.499 -15.115  1.00  0.00     0.277 C 
HETATM   33  O1  UNL     1     -34.467  -8.437 -15.544  1.00  0.00    -0.263 OA
BRANCH  32  34
HETATM   34  O2  UNL     1     -32.767  -7.022 -15.973  1.00  0.00    -0.325 OA
HETATM   35  C19 UNL     1     -32.942  -5.789 -16.688  1.00  0.00     0.213 C 
ENDBRANCH  32  34
ENDBRANCH  31  32
ENDBRANCH  23  31
BRANCH  25  36
HETATM   36  N9  UNL     1     -31.253  -5.756 -13.449  1.00  0.00    -0.370 N 
ATOM     37  H9  UNL     1     -31.600  -6.130 -14.332  1.00  0.00     0.161 HD
BRANCH  36  38
HETATM   38  C13 UNL     1     -31.108  -4.353 -13.460  1.00  0.00     0.075 C 
HETATM   39  C14 UNL     1     -30.060  -3.944 -14.459  1.00  0.00     0.031 C 
HETATM   40  C15 UNL     1     -32.387  -3.585 -13.637  1.00  0.00     0.031 C 
ENDBRANCH  36  38
ENDBRANCH  25  36
ENDBRANCH   1  14
TORSDOF 9
ENDMDL
