MODEL 1
REMARK VINA RESULT: -6.156680089      0.000      0.000
REMARK  7 active torsions:
REMARK  status: ('A' for Active; 'I' for Inactive)
REMARK       I    between atoms: C2_2  and  N1_4 
REMARK    1  A    between atoms: C4_7  and  C5_8 
REMARK       I    between atoms: C5_8  and  N2_10 
REMARK    2  A    between atoms: N2_10  and  C6_12 
REMARK    3  A    between atoms: N3_15  and  N4_16 
REMARK    4  A    between atoms: N4_16  and  S1_18 
REMARK    5  A    between atoms: S1_18  and  N5_21 
REMARK       I    between atoms: N5_21  and  C8_23 
REMARK    6  A    between atoms: C8_23  and  C9_25 
REMARK    7  A    between atoms: N6_34  and  O10_35 
ROOT
HETATM    1  C6  UNL     1      11.046  17.684 -17.205  1.00  0.00     0.203 A 
HETATM    2  C7  UNL     1      10.729  16.933 -15.941  1.00  0.00     0.264 A 
HETATM    3  O3  UNL     1      11.506  16.326 -15.143  1.00  0.00    -0.269 OA
HETATM    4  N3  UNL     1       9.345  17.204 -16.079  1.00  0.00    -0.242 N 
HETATM    5  C10 UNL     1       9.579  17.812 -17.342  1.00  0.00     0.140 A 
HETATM    6  C11 UNL     1       8.973  17.115 -18.552  1.00  0.00     0.037 C 
ENDROOT
BRANCH   1   7
HETATM    7  N2  UNL     1      11.730  16.764 -18.092  1.00  0.00    -0.343 N 
HETATM    8  C5  UNL     1      12.483  17.132 -19.204  1.00  0.00     0.255 C 
HETATM    9  O2  UNL     1      12.589  18.380 -19.469  1.00  0.00    -0.270 OA
ATOM     10  H2  UNL     1      11.654  15.768 -17.885  1.00  0.00     0.163 HD
BRANCH   8  11
HETATM   11  C4  UNL     1      13.175  16.193 -20.108  1.00  0.00     0.285 C 
HETATM   12  C3  UNL     1      14.363  16.752 -20.750  1.00  0.00     0.148 C 
HETATM   13  N1  UNL     1      15.251  17.572 -20.285  1.00  0.00    -0.313 N 
HETATM   14  N6  UNL     1      14.392  16.220 -22.069  1.00  0.00    -0.210 N 
HETATM   15  C2  UNL     1      16.352  18.012 -21.053  1.00  0.00     0.219 C 
ATOM     16  H1  UNL     1      15.152  17.914 -19.329  1.00  0.00     0.170 HD
HETATM   17  C1  UNL     1      16.465  19.341 -21.698  1.00  0.00     0.117 C 
HETATM   18  O1  UNL     1      17.318  17.209 -21.203  1.00  0.00    -0.274 OA
HETATM   19  C12 UNL     1      13.270  15.304 -22.101  1.00  0.00     0.156 C 
HETATM   20  O9  UNL     1      12.386  15.749 -21.139  1.00  0.00    -0.337 OA
HETATM   21  C13 UNL     1      12.664  15.392 -23.497  1.00  0.00     0.073 C 
HETATM   22  C14 UNL     1      13.696  13.865 -21.855  1.00  0.00     0.073 C 
BRANCH  14  23
HETATM   23  O10 UNL     1      15.229  16.460 -23.101  1.00  0.00    -0.283 OA
ATOM     24  H10 UNL     1      16.142  16.721 -23.113  1.00  0.00     0.245 HD
ENDBRANCH  14  23
ENDBRANCH   8  11
ENDBRANCH   1   7
BRANCH   4  25
HETATM   25  N4  UNL     1       8.307  16.900 -15.189  1.00  0.00    -0.204 N 
ATOM     26  H4  UNL     1       7.903  17.581 -14.546  1.00  0.00     0.202 HD
BRANCH  25  27
HETATM   27  S1  UNL     1       7.788  15.297 -15.280  1.00  0.00     0.339 S 
HETATM   28  O4  UNL     1       6.527  15.153 -14.443  1.00  0.00    -0.181 OA
HETATM   29  O5  UNL     1       7.419  14.831 -16.653  1.00  0.00    -0.181 OA
BRANCH  27  30
HETATM   30  N5  UNL     1       8.987  14.269 -14.597  1.00  0.00    -0.227 N 
HETATM   31  C8  UNL     1       9.510  14.463 -13.286  1.00  0.00     0.332 C 
HETATM   32  O6  UNL     1       9.065  15.425 -12.612  1.00  0.00    -0.260 OA
ATOM     33  H5  UNL     1       9.338  13.489 -15.153  1.00  0.00     0.183 HD
BRANCH  31  34
HETATM   34  C9  UNL     1      10.525  13.592 -12.723  1.00  0.00     0.271 C 
HETATM   35  O7  UNL     1      10.303  12.886 -11.711  1.00  0.00    -0.640 OA
HETATM   36  O8  UNL     1      11.787  13.509 -13.291  1.00  0.00    -0.640 OA
ENDBRANCH  31  34
ENDBRANCH  27  30
ENDBRANCH  25  27
ENDBRANCH   4  25
TORSDOF 7
ENDMDL
MODEL 2
REMARK VINA RESULT: -6.102188529      1.620      2.783
REMARK  7 active torsions:
REMARK  status: ('A' for Active; 'I' for Inactive)
REMARK       I    between atoms: C2_2  and  N1_4 
REMARK    1  A    between atoms: C4_7  and  C5_8 
REMARK       I    between atoms: C5_8  and  N2_10 
REMARK    2  A    between atoms: N2_10  and  C6_12 
REMARK    3  A    between atoms: N3_15  and  N4_16 
REMARK    4  A    between atoms: N4_16  and  S1_18 
REMARK    5  A    between atoms: S1_18  and  N5_21 
REMARK       I    between atoms: N5_21  and  C8_23 
REMARK    6  A    between atoms: C8_23  and  C9_25 
REMARK    7  A    between atoms: N6_34  and  O10_35 
ROOT
HETATM    1  C6  UNL     1      10.651  15.309 -18.357  1.00  0.00     0.203 A 
HETATM    2  C7  UNL     1       9.220  15.766 -18.279  1.00  0.00     0.264 A 
HETATM    3  O3  UNL     1       8.419  16.081 -19.210  1.00  0.00    -0.269 OA
HETATM    4  N3  UNL     1       9.227  15.680 -16.864  1.00  0.00    -0.242 N 
HETATM    5  C10 UNL     1      10.614  15.370 -16.879  1.00  0.00     0.140 A 
HETATM    6  C11 UNL     1      11.545  16.394 -16.245  1.00  0.00     0.037 C 
ENDROOT
BRANCH   1   7
HETATM    7  N2  UNL     1      11.393  16.336 -19.058  1.00  0.00    -0.343 N 
HETATM    8  C5  UNL     1      12.351  16.104 -20.042  1.00  0.00     0.255 C 
HETATM    9  O2  UNL     1      12.598  14.890 -20.363  1.00  0.00    -0.270 OA
ATOM     10  H2  UNL     1      11.199  17.307 -18.811  1.00  0.00     0.163 HD
BRANCH   8  11
HETATM   11  C4  UNL     1      13.109  17.152 -20.751  1.00  0.00     0.285 C 
HETATM   12  C3  UNL     1      14.545  16.893 -20.838  1.00  0.00     0.148 C 
HETATM   13  N1  UNL     1      15.179  15.775 -20.999  1.00  0.00    -0.313 N 
HETATM   14  N6  UNL     1      15.188  18.154 -20.700  1.00  0.00    -0.210 N 
HETATM   15  C2  UNL     1      16.588  15.707 -21.065  1.00  0.00     0.219 C 
ATOM     16  H1  UNL     1      14.641  14.912 -21.082  1.00  0.00     0.170 HD
HETATM   17  C1  UNL     1      17.472  15.252 -19.966  1.00  0.00     0.117 C 
HETATM   18  O1  UNL     1      17.141  16.061 -22.146  1.00  0.00    -0.274 OA
HETATM   19  C12 UNL     1      14.093  19.099 -20.632  1.00  0.00     0.156 C 
HETATM   20  O9  UNL     1      13.004  18.390 -20.168  1.00  0.00    -0.337 OA
HETATM   21  C13 UNL     1      14.506  20.189 -19.651  1.00  0.00     0.073 C 
HETATM   22  C14 UNL     1      13.812  19.750 -21.978  1.00  0.00     0.073 C 
BRANCH  14  23
HETATM   23  O10 UNL     1      16.497  18.476 -20.637  1.00  0.00    -0.283 OA
ATOM     24  H10 UNL     1      17.008  18.872 -19.940  1.00  0.00     0.245 HD
ENDBRANCH  14  23
ENDBRANCH   8  11
ENDBRANCH   1   7
BRANCH   4  25
HETATM   25  N4  UNL     1       8.160  15.871 -15.976  1.00  0.00    -0.204 N 
ATOM     26  H4  UNL     1       7.826  16.792 -15.694  1.00  0.00     0.202 HD
BRANCH  25  27
HETATM   27  S1  UNL     1       7.481  14.431 -15.418  1.00  0.00     0.339 S 
HETATM   28  O4  UNL     1       6.334  14.773 -14.482  1.00  0.00    -0.181 OA
HETATM   29  O5  UNL     1       6.891  13.559 -16.481  1.00  0.00    -0.181 OA
BRANCH  27  30
HETATM   30  N5  UNL     1       8.655  13.562 -14.508  1.00  0.00    -0.227 N 
HETATM   31  C8  UNL     1       9.517  14.192 -13.564  1.00  0.00     0.332 C 
HETATM   32  O6  UNL     1       9.401  15.431 -13.398  1.00  0.00    -0.260 OA
ATOM     33  H5  UNL     1       8.737  12.555 -14.650  1.00  0.00     0.183 HD
BRANCH  31  34
HETATM   34  C9  UNL     1      10.507  13.448 -12.807  1.00  0.00     0.271 C 
HETATM   35  O7  UNL     1      10.204  12.816 -11.767  1.00  0.00    -0.640 OA
HETATM   36  O8  UNL     1      11.832  13.409 -13.210  1.00  0.00    -0.640 OA
ENDBRANCH  31  34
ENDBRANCH  27  30
ENDBRANCH  25  27
ENDBRANCH   4  25
TORSDOF 7
ENDMDL
MODEL 3
REMARK VINA RESULT: -6.037305128      2.383      2.754
REMARK  7 active torsions:
REMARK  status: ('A' for Active; 'I' for Inactive)
REMARK       I    between atoms: C2_2  and  N1_4 
REMARK    1  A    between atoms: C4_7  and  C5_8 
REMARK       I    between atoms: C5_8  and  N2_10 
REMARK    2  A    between atoms: N2_10  and  C6_12 
REMARK    3  A    between atoms: N3_15  and  N4_16 
REMARK    4  A    between atoms: N4_16  and  S1_18 
REMARK    5  A    between atoms: S1_18  and  N5_21 
REMARK       I    between atoms: N5_21  and  C8_23 
REMARK    6  A    between atoms: C8_23  and  C9_25 
REMARK    7  A    between atoms: N6_34  and  O10_35 
ROOT
HETATM    1  C6  UNL     1      10.653  18.079 -16.941  1.00  0.00     0.203 A 
HETATM    2  C7  UNL     1      10.546  16.769 -16.211  1.00  0.00     0.264 A 
HETATM    3  O3  UNL     1      11.424  16.135 -15.550  1.00  0.00    -0.269 OA
HETATM    4  N3  UNL     1       9.185  16.627 -16.582  1.00  0.00    -0.242 N 
HETATM    5  C10 UNL     1       9.274  17.793 -17.390  1.00  0.00     0.140 A 
HETATM    6  C11 UNL     1       9.104  17.593 -18.890  1.00  0.00     0.037 C 
ENDROOT
BRANCH   1   7
HETATM    7  N2  UNL     1      11.722  17.945 -17.910  1.00  0.00    -0.343 N 
HETATM    8  C5  UNL     1      12.315  18.999 -18.601  1.00  0.00     0.255 C 
HETATM    9  O2  UNL     1      11.894  20.184 -18.364  1.00  0.00    -0.270 OA
ATOM     10  H2  UNL     1      12.066  17.004 -18.102  1.00  0.00     0.163 HD
BRANCH   8  11
HETATM   11  C4  UNL     1      13.400  18.859 -19.592  1.00  0.00     0.285 C 
HETATM   12  C3  UNL     1      14.069  20.116 -19.923  1.00  0.00     0.148 C 
HETATM   13  N1  UNL     1      14.357  21.128 -19.168  1.00  0.00    -0.313 N 
HETATM   14  N6  UNL     1      14.371  20.053 -21.311  1.00  0.00    -0.210 N 
HETATM   15  C2  UNL     1      15.018  22.276 -19.660  1.00  0.00     0.219 C 
ATOM     16  H1  UNL     1      14.098  21.095 -18.182  1.00  0.00     0.170 HD
HETATM   17  C1  UNL     1      14.365  23.570 -19.965  1.00  0.00     0.117 C 
HETATM   18  O1  UNL     1      16.265  22.193 -19.855  1.00  0.00    -0.274 OA
HETATM   19  C12 UNL     1      13.947  18.725 -21.702  1.00  0.00     0.156 C 
HETATM   20  O9  UNL     1      12.978  18.351 -20.794  1.00  0.00    -0.337 OA
HETATM   21  C13 UNL     1      13.376  18.837 -23.111  1.00  0.00     0.073 C 
HETATM   22  C14 UNL     1      15.104  17.738 -21.733  1.00  0.00     0.073 C 
BRANCH  14  23
HETATM   23  O10 UNL     1      14.920  20.969 -22.138  1.00  0.00    -0.283 OA
ATOM     24  H10 UNL     1      15.803  21.047 -22.481  1.00  0.00     0.245 HD
ENDBRANCH  14  23
ENDBRANCH   8  11
ENDBRANCH   1   7
BRANCH   4  25
HETATM   25  N4  UNL     1       8.276  15.637 -16.190  1.00  0.00    -0.204 N 
ATOM     26  H4  UNL     1       7.975  14.880 -16.804  1.00  0.00     0.202 HD
BRANCH  25  27
HETATM   27  S1  UNL     1       7.725  15.815 -14.606  1.00  0.00     0.339 S 
HETATM   28  O4  UNL     1       7.646  17.299 -14.289  1.00  0.00    -0.181 OA
HETATM   29  O5  UNL     1       6.354  15.272 -14.350  1.00  0.00    -0.181 OA
BRANCH  27  30
HETATM   30  N5  UNL     1       8.862  15.111 -13.523  1.00  0.00    -0.227 N 
HETATM   31  C8  UNL     1       9.539  13.889 -13.807  1.00  0.00     0.332 C 
HETATM   32  O6  UNL     1       9.287  13.317 -14.896  1.00  0.00    -0.260 OA
ATOM     33  H5  UNL     1       9.061  15.587 -12.643  1.00  0.00     0.183 HD
BRANCH  31  34
HETATM   34  C9  UNL     1      10.493  13.303 -12.882  1.00  0.00     0.271 C 
HETATM   35  O7  UNL     1      10.127  12.757 -11.815  1.00  0.00    -0.640 OA
HETATM   36  O8  UNL     1      11.852  13.327 -13.150  1.00  0.00    -0.640 OA
ENDBRANCH  31  34
ENDBRANCH  27  30
ENDBRANCH  25  27
ENDBRANCH   4  25
TORSDOF 7
ENDMDL
MODEL 4
REMARK VINA RESULT: -6.025805754      4.414      6.222
REMARK  7 active torsions:
REMARK  status: ('A' for Active; 'I' for Inactive)
REMARK       I    between atoms: C2_2  and  N1_4 
REMARK    1  A    between atoms: C4_7  and  C5_8 
REMARK       I    between atoms: C5_8  and  N2_10 
REMARK    2  A    between atoms: N2_10  and  C6_12 
REMARK    3  A    between atoms: N3_15  and  N4_16 
REMARK    4  A    between atoms: N4_16  and  S1_18 
REMARK    5  A    between atoms: S1_18  and  N5_21 
REMARK       I    between atoms: N5_21  and  C8_23 
REMARK    6  A    between atoms: C8_23  and  C9_25 
REMARK    7  A    between atoms: N6_34  and  O10_35 
ROOT
HETATM    1  C6  UNL     1       7.496  15.772 -16.001  1.00  0.00     0.203 A 
HETATM    2  C7  UNL     1       7.877  15.129 -14.696  1.00  0.00     0.264 A 
HETATM    3  O3  UNL     1       8.068  15.657 -13.558  1.00  0.00    -0.269 OA
HETATM    4  N3  UNL     1       7.910  13.844 -15.292  1.00  0.00    -0.242 N 
HETATM    5  C10 UNL     1       7.677  14.419 -16.570  1.00  0.00     0.140 A 
HETATM    6  C11 UNL     1       8.802  14.284 -17.588  1.00  0.00     0.037 C 
ENDROOT
BRANCH   1   7
HETATM    7  N2  UNL     1       8.502  16.771 -16.298  1.00  0.00    -0.343 N 
HETATM    8  C5  UNL     1       8.260  17.995 -16.917  1.00  0.00     0.255 C 
HETATM    9  O2  UNL     1       7.055  18.270 -17.249  1.00  0.00    -0.270 OA
ATOM     10  H2  UNL     1       9.465  16.562 -16.033  1.00  0.00     0.163 HD
BRANCH   8  11
HETATM   11  C4  UNL     1       9.287  19.009 -17.223  1.00  0.00     0.285 C 
HETATM   12  C3  UNL     1       8.864  20.383 -16.959  1.00  0.00     0.148 C 
HETATM   13  N1  UNL     1       8.118  20.856 -16.012  1.00  0.00    -0.313 N 
HETATM   14  N6  UNL     1       9.436  21.181 -17.988  1.00  0.00    -0.210 N 
HETATM   15  C2  UNL     1       7.809  22.230 -15.905  1.00  0.00     0.219 C 
ATOM     16  H1  UNL     1       7.740  20.212 -15.316  1.00  0.00     0.170 HD
HETATM   17  C1  UNL     1       6.517  22.845 -16.288  1.00  0.00     0.117 C 
HETATM   18  O1  UNL     1       8.705  22.996 -15.447  1.00  0.00    -0.274 OA
HETATM   19  C12 UNL     1      10.241  20.248 -18.749  1.00  0.00     0.156 C 
HETATM   20  O9  UNL     1       9.685  19.003 -18.536  1.00  0.00    -0.337 OA
HETATM   21  C13 UNL     1      10.138  20.661 -20.212  1.00  0.00     0.073 C 
HETATM   22  C14 UNL     1      11.706  20.290 -18.343  1.00  0.00     0.073 C 
BRANCH  14  23
HETATM   23  O10 UNL     1       9.308  22.498 -18.260  1.00  0.00    -0.283 OA
ATOM     24  H10 UNL     1       8.598  22.983 -18.662  1.00  0.00     0.245 HD
ENDBRANCH  14  23
ENDBRANCH   8  11
ENDBRANCH   1   7
BRANCH   4  25
HETATM   25  N4  UNL     1       8.113  12.604 -14.672  1.00  0.00    -0.204 N 
ATOM     26  H4  UNL     1       7.376  11.908 -14.560  1.00  0.00     0.202 HD
BRANCH  25  27
HETATM   27  S1  UNL     1       9.693  12.371 -14.130  1.00  0.00     0.339 S 
HETATM   28  O4  UNL     1       9.660  12.179 -12.623  1.00  0.00    -0.181 OA
HETATM   29  O5  UNL     1      10.375  11.156 -14.678  1.00  0.00    -0.181 OA
BRANCH  27  30
HETATM   30  N5  UNL     1      10.623  13.781 -14.456  1.00  0.00    -0.227 N 
HETATM   31  C8  UNL     1      11.825  14.089 -13.754  1.00  0.00     0.332 C 
HETATM   32  O6  UNL     1      12.209  13.287 -12.868  1.00  0.00    -0.260 OA
ATOM     33  H5  UNL     1      10.301  14.424 -15.180  1.00  0.00     0.183 HD
BRANCH  31  34
HETATM   34  C9  UNL     1      12.597  15.286 -14.034  1.00  0.00     0.271 C 
HETATM   35  O7  UNL     1      13.396  15.767 -13.197  1.00  0.00    -0.640 OA
HETATM   36  O8  UNL     1      12.477  15.943 -15.249  1.00  0.00    -0.640 OA
ENDBRANCH  31  34
ENDBRANCH  27  30
ENDBRANCH  25  27
ENDBRANCH   4  25
TORSDOF 7
ENDMDL
MODEL 5
REMARK VINA RESULT: -5.949911623      1.750      2.112
REMARK  7 active torsions:
REMARK  status: ('A' for Active; 'I' for Inactive)
REMARK       I    between atoms: C2_2  and  N1_4 
REMARK    1  A    between atoms: C4_7  and  C5_8 
REMARK       I    between atoms: C5_8  and  N2_10 
REMARK    2  A    between atoms: N2_10  and  C6_12 
REMARK    3  A    between atoms: N3_15  and  N4_16 
REMARK    4  A    between atoms: N4_16  and  S1_18 
REMARK    5  A    between atoms: S1_18  and  N5_21 
REMARK       I    between atoms: N5_21  and  C8_23 
REMARK    6  A    between atoms: C8_23  and  C9_25 
REMARK    7  A    between atoms: N6_34  and  O10_35 
ROOT
HETATM    1  C6  UNL     1       9.806  16.311 -18.823  1.00  0.00     0.203 A 
HETATM    2  C7  UNL     1      10.158  16.738 -17.425  1.00  0.00     0.264 A 
HETATM    3  O3  UNL     1      11.223  17.267 -16.983  1.00  0.00    -0.269 OA
HETATM    4  N3  UNL     1       8.897  16.316 -16.935  1.00  0.00    -0.242 N 
HETATM    5  C10 UNL     1       8.569  15.781 -18.210  1.00  0.00     0.140 A 
HETATM    6  C11 UNL     1       8.399  14.270 -18.287  1.00  0.00     0.037 C 
ENDROOT
BRANCH   1   7
HETATM    7  N2  UNL     1      10.813  15.359 -19.247  1.00  0.00    -0.343 N 
HETATM    8  C5  UNL     1      11.874  15.642 -20.104  1.00  0.00     0.255 C 
HETATM    9  O2  UNL     1      11.980  16.835 -20.554  1.00  0.00    -0.270 OA
ATOM     10  H2  UNL     1      10.739  14.406 -18.890  1.00  0.00     0.163 HD
BRANCH   8  11
HETATM   11  C4  UNL     1      12.895  14.669 -20.539  1.00  0.00     0.285 C 
HETATM   12  C3  UNL     1      14.206  15.260 -20.800  1.00  0.00     0.148 C 
HETATM   13  N1  UNL     1      14.820  16.224 -20.191  1.00  0.00    -0.313 N 
HETATM   14  N6  UNL     1      14.743  14.562 -21.917  1.00  0.00    -0.210 N 
HETATM   15  C2  UNL     1      16.102  16.671 -20.580  1.00  0.00     0.219 C 
ATOM     16  H1  UNL     1      14.360  16.678 -19.401  1.00  0.00     0.170 HD
HETATM   17  C1  UNL     1      16.377  17.907 -21.349  1.00  0.00     0.117 C 
HETATM   18  O1  UNL     1      17.095  15.962 -20.244  1.00  0.00    -0.274 OA
HETATM   19  C12 UNL     1      13.759  13.537 -22.195  1.00  0.00     0.156 C 
HETATM   20  O9  UNL     1      12.563  14.010 -21.695  1.00  0.00    -0.337 OA
HETATM   21  C13 UNL     1      13.703  13.373 -23.709  1.00  0.00     0.073 C 
HETATM   22  C14 UNL     1      14.137  12.197 -21.584  1.00  0.00     0.073 C 
BRANCH  14  23
HETATM   23  O10 UNL     1      15.887  14.750 -22.610  1.00  0.00    -0.283 OA
ATOM     24  H10 UNL     1      16.036  14.893 -23.537  1.00  0.00     0.245 HD
ENDBRANCH  14  23
ENDBRANCH   8  11
ENDBRANCH   1   7
BRANCH   4  25
HETATM   25  N4  UNL     1       8.371  16.465 -15.645  1.00  0.00    -0.204 N 
ATOM     26  H4  UNL     1       7.685  17.179 -15.401  1.00  0.00     0.202 HD
BRANCH  25  27
HETATM   27  S1  UNL     1       8.980  15.351 -14.535  1.00  0.00     0.339 S 
HETATM   28  O4  UNL     1       8.436  15.699 -13.159  1.00  0.00    -0.181 OA
HETATM   29  O5  UNL     1       8.579  13.931 -14.782  1.00  0.00    -0.181 OA
BRANCH  27  30
HETATM   30  N5  UNL     1      10.694  15.490 -14.468  1.00  0.00    -0.227 N 
HETATM   31  C8  UNL     1      11.482  14.812 -13.493  1.00  0.00     0.332 C 
HETATM   32  O6  UNL     1      10.889  14.086 -12.659  1.00  0.00    -0.260 OA
ATOM     33  H5  UNL     1      11.164  16.081 -15.153  1.00  0.00     0.183 HD
BRANCH  31  34
HETATM   34  C9  UNL     1      12.927  14.942 -13.444  1.00  0.00     0.271 C 
HETATM   35  O7  UNL     1      13.686  14.044 -13.878  1.00  0.00    -0.640 OA
HETATM   36  O8  UNL     1      13.524  16.075 -12.912  1.00  0.00    -0.640 OA
ENDBRANCH  31  34
ENDBRANCH  27  30
ENDBRANCH  25  27
ENDBRANCH   4  25
TORSDOF 7
ENDMDL
