MODEL 1
REMARK VINA RESULT: -8.075325581      0.000      0.000
REMARK  9 active torsions:
REMARK  status: ('A' for Active; 'I' for Inactive)
REMARK    1  A    between atoms: O1_2  and  C2_3 
REMARK    2  A    between atoms: C5_7  and  C6_8 
REMARK       I    between atoms: C6_8  and  N1_10 
REMARK    3  A    between atoms: C11_16  and  N2_17 
REMARK    4  A    between atoms: N2_17  and  C12_19 
REMARK    5  A    between atoms: N3_21  and  C14_22 
REMARK    6  A    between atoms: N4_24  and  O3_26 
REMARK    7  A    between atoms: C17_29  and  C18_30 
REMARK    8  A    between atoms: C18_30  and  O4_31 
REMARK    9  A    between atoms: C25_40  and  O5_41 
ROOT
HETATM    1  C6  UNL     1      16.355   8.662   9.639  1.00  0.00     0.264 C 
HETATM    2  O2  UNL     1      16.549   7.970   8.570  1.00  0.00    -0.267 OA
HETATM    3  N1  UNL     1      16.878   9.959   9.779  1.00  0.00    -0.304 N 
HETATM    4  C7  UNL     1      17.658  10.583   8.709  1.00  0.00     0.048 A 
HETATM    5  C8  UNL     1      17.652  10.388   7.339  1.00  0.00     0.054 A 
HETATM    6  C9  UNL     1      18.502  11.117   6.536  1.00  0.00     0.038 A 
HETATM    7 CL2  UNL     1      18.509  10.886   4.815  1.00  0.00    -0.084 Cl
HETATM    8  C10 UNL     1      19.338  12.024   7.110  1.00  0.00     0.053 A 
HETATM    9  C11 UNL     1      19.393  12.266   8.467  1.00  0.00     0.038 A 
HETATM   10  C19 UNL     1      18.515  11.507   9.257  1.00  0.00    -0.002 A 
HETATM   11  C20 UNL     1      18.297  11.499  10.721  1.00  0.00     0.074 C 
HETATM   12  C21 UNL     1      16.847  10.969  10.793  1.00  0.00     0.037 C 
HETATM   13  C22 UNL     1      16.584  10.541  12.193  1.00  0.00     0.039 C 
HETATM   14  C23 UNL     1      15.980  12.154  10.380  1.00  0.00     0.039 C 
ENDROOT
BRANCH   9  15
HETATM   15  N2  UNL     1      20.233  13.209   9.097  1.00  0.00    -0.383 N 
ATOM     16  H2  UNL     1      19.809  13.965   9.635  1.00  0.00     0.160 HD
BRANCH  15  17
HETATM   17  C12 UNL     1      21.643  13.141   9.009  1.00  0.00     0.107 C 
HETATM   18  C13 UNL     1      22.237  13.481   7.663  1.00  0.00     0.149 C 
HETATM   19  N3  UNL     1      23.398  12.593   7.523  1.00  0.00    -0.367 N 
HETATM   20  C16 UNL     1      23.613  11.921   8.784  1.00  0.00     0.133 C 
HETATM   21  C17 UNL     1      22.177  11.728   9.220  1.00  0.00     0.051 C 
BRANCH  19  22
HETATM   22  C14 UNL     1      24.163  12.433   6.353  1.00  0.00     0.095 C 
HETATM   23  C15 UNL     1      25.160  13.462   5.983  1.00  0.00     0.091 C 
HETATM   24  N4  UNL     1      24.032  11.412   5.575  1.00  0.00    -0.258 N 
ATOM     25  H4  UNL     1      24.627  11.374   4.747  1.00  0.00     0.195 HD
BRANCH  24  26
HETATM   26  O3  UNL     1      23.172  10.386   5.768  1.00  0.00    -0.288 OA
ATOM     27  H3  UNL     1      23.288   9.502   5.441  1.00  0.00     0.244 HD
ENDBRANCH  24  26
ENDBRANCH  19  22
BRANCH  21  28
HETATM   28  C18 UNL     1      22.063  11.289  10.649  1.00  0.00     0.172 C 
BRANCH  28  29
HETATM   29  O4  UNL     1      21.863  12.360  11.505  1.00  0.00    -0.400 OA
ATOM     30  H4  UNL     1      22.516  12.389  12.195  1.00  0.00     0.209 HD
ENDBRANCH  28  29
ENDBRANCH  21  28
ENDBRANCH  15  17
ENDBRANCH   9  15
BRANCH   1  31
HETATM   31  C5  UNL     1      15.557   7.968  10.644  1.00  0.00     0.095 A 
HETATM   32  C4  UNL     1      16.115   7.354  11.738  1.00  0.00     0.055 A 
HETATM   33  C3  UNL     1      15.303   6.717  12.644  1.00  0.00     0.064 A 
HETATM   34 CL1  UNL     1      17.867   7.365  11.951  1.00  0.00    -0.083 Cl
HETATM   35  C2  UNL     1      13.933   6.650  12.522  1.00  0.00     0.106 A 
HETATM   36  C25 UNL     1      13.384   7.260  11.432  1.00  0.00     0.141 A 
HETATM   37  C24 UNL     1      14.164   7.905  10.511  1.00  0.00     0.169 A 
HETATM   38  F1  UNL     1      13.605   8.512   9.424  1.00  0.00    -0.202 F 
BRANCH  35  39
HETATM   39  O1  UNL     1      13.167   5.999  13.458  1.00  0.00    -0.353 OA
HETATM   40  C1  UNL     1      13.224   6.205  14.835  1.00  0.00     0.210 C 
ENDBRANCH  35  39
BRANCH  36  41
HETATM   41  O5  UNL     1      11.986   7.199  11.297  1.00  0.00    -0.350 OA
HETATM   42  C26 UNL     1      11.274   8.355  11.698  1.00  0.00     0.210 C 
ENDBRANCH  36  41
ENDBRANCH   1  31
TORSDOF 9
ENDMDL
MODEL 2
REMARK VINA RESULT: -7.950127042      3.893      5.882
REMARK  9 active torsions:
REMARK  status: ('A' for Active; 'I' for Inactive)
REMARK    1  A    between atoms: O1_2  and  C2_3 
REMARK    2  A    between atoms: C5_7  and  C6_8 
REMARK       I    between atoms: C6_8  and  N1_10 
REMARK    3  A    between atoms: C11_16  and  N2_17 
REMARK    4  A    between atoms: N2_17  and  C12_19 
REMARK    5  A    between atoms: N3_21  and  C14_22 
REMARK    6  A    between atoms: N4_24  and  O3_26 
REMARK    7  A    between atoms: C17_29  and  C18_30 
REMARK    8  A    between atoms: C18_30  and  O4_31 
REMARK    9  A    between atoms: C25_40  and  O5_41 
ROOT
HETATM    1  C6  UNL     1      12.809  10.555  10.136  1.00  0.00     0.264 C 
HETATM    2  O2  UNL     1      12.491  10.240  11.343  1.00  0.00    -0.267 OA
HETATM    3  N1  UNL     1      14.024  10.138   9.563  1.00  0.00    -0.304 N 
HETATM    4  C7  UNL     1      14.975   9.318  10.316  1.00  0.00     0.048 A 
HETATM    5  C8  UNL     1      14.792   8.427  11.358  1.00  0.00     0.054 A 
HETATM    6  C9  UNL     1      15.874   7.770  11.902  1.00  0.00     0.038 A 
HETATM    7 CL2  UNL     1      15.663   6.648  13.210  1.00  0.00    -0.084 Cl
HETATM    8  C10 UNL     1      17.115   8.012  11.398  1.00  0.00     0.053 A 
HETATM    9  C11 UNL     1      17.365   8.886  10.361  1.00  0.00     0.038 A 
HETATM   10  C19 UNL     1      16.242   9.539   9.830  1.00  0.00    -0.002 A 
HETATM   11  C20 UNL     1      16.129  10.524   8.730  1.00  0.00     0.074 C 
HETATM   12  C21 UNL     1      14.663  10.300   8.293  1.00  0.00     0.037 C 
HETATM   13  C22 UNL     1      14.253  11.454   7.451  1.00  0.00     0.039 C 
HETATM   14  C23 UNL     1      14.688   8.993   7.507  1.00  0.00     0.039 C 
ENDROOT
BRANCH   9  15
HETATM   15  N2  UNL     1      18.634   9.150   9.800  1.00  0.00    -0.383 N 
ATOM     16  H2  UNL     1      18.809   8.883   8.832  1.00  0.00     0.160 HD
BRANCH  15  17
HETATM   17  C12 UNL     1      19.670   9.771  10.536  1.00  0.00     0.107 C 
HETATM   18  C13 UNL     1      20.128  11.116  10.026  1.00  0.00     0.149 C 
HETATM   19  N3  UNL     1      21.572  11.151  10.285  1.00  0.00    -0.367 N 
HETATM   20  C16 UNL     1      21.919  10.001  11.088  1.00  0.00     0.133 C 
HETATM   21  C17 UNL     1      20.973   8.979  10.496  1.00  0.00     0.051 C 
BRANCH  19  22
HETATM   22  C14 UNL     1      22.458  12.142   9.823  1.00  0.00     0.095 C 
HETATM   23  C15 UNL     1      22.988  12.065   8.443  1.00  0.00     0.091 C 
HETATM   24  N4  UNL     1      22.836  13.131  10.561  1.00  0.00    -0.258 N 
ATOM     25  H4  UNL     1      23.481  13.804  10.147  1.00  0.00     0.195 HD
BRANCH  24  26
HETATM   26  O3  UNL     1      22.447  13.348  11.838  1.00  0.00    -0.288 OA
ATOM     27  H3  UNL     1      22.914  13.879  12.472  1.00  0.00     0.244 HD
ENDBRANCH  24  26
ENDBRANCH  19  22
BRANCH  21  28
HETATM   28  C18 UNL     1      20.896   7.724  11.313  1.00  0.00     0.172 C 
BRANCH  28  29
HETATM   29  O4  UNL     1      22.151   7.268  11.680  1.00  0.00    -0.400 OA
ATOM     30  H4  UNL     1      22.194   6.319  11.694  1.00  0.00     0.209 HD
ENDBRANCH  28  29
ENDBRANCH  21  28
ENDBRANCH  15  17
ENDBRANCH   9  15
BRANCH   1  31
HETATM   31  C5  UNL     1      11.798  11.360   9.460  1.00  0.00     0.095 A 
HETATM   32  C4  UNL     1      11.660  12.708   9.674  1.00  0.00     0.055 A 
HETATM   33  C3  UNL     1      10.683  13.404   9.004  1.00  0.00     0.064 A 
HETATM   34 CL1  UNL     1      12.715  13.525  10.830  1.00  0.00    -0.083 Cl
HETATM   35  C2  UNL     1       9.813  12.822   8.110  1.00  0.00     0.106 A 
HETATM   36  C25 UNL     1       9.953  11.482   7.901  1.00  0.00     0.141 A 
HETATM   37  C24 UNL     1      10.917  10.759   8.552  1.00  0.00     0.169 A 
HETATM   38  F1  UNL     1      11.049   9.417   8.336  1.00  0.00    -0.202 F 
BRANCH  35  39
HETATM   39  O1  UNL     1       8.854  13.565   7.466  1.00  0.00    -0.353 OA
HETATM   40  C1  UNL     1       7.637  13.967   8.015  1.00  0.00     0.210 C 
ENDBRANCH  35  39
BRANCH  36  41
HETATM   41  O5  UNL     1       9.070  10.876   6.991  1.00  0.00    -0.350 OA
HETATM   42  C26 UNL     1       9.540  10.754   5.660  1.00  0.00     0.210 C 
ENDBRANCH  36  41
ENDBRANCH   1  31
TORSDOF 9
ENDMDL
MODEL 3
REMARK VINA RESULT: -7.909799302      2.529      3.382
REMARK  9 active torsions:
REMARK  status: ('A' for Active; 'I' for Inactive)
REMARK    1  A    between atoms: O1_2  and  C2_3 
REMARK    2  A    between atoms: C5_7  and  C6_8 
REMARK       I    between atoms: C6_8  and  N1_10 
REMARK    3  A    between atoms: C11_16  and  N2_17 
REMARK    4  A    between atoms: N2_17  and  C12_19 
REMARK    5  A    between atoms: N3_21  and  C14_22 
REMARK    6  A    between atoms: N4_24  and  O3_26 
REMARK    7  A    between atoms: C17_29  and  C18_30 
REMARK    8  A    between atoms: C18_30  and  O4_31 
REMARK    9  A    between atoms: C25_40  and  O5_41 
ROOT
HETATM    1  C6  UNL     1      16.651   8.271  11.158  1.00  0.00     0.264 C 
HETATM    2  O2  UNL     1      17.081   7.223  11.771  1.00  0.00    -0.267 OA
HETATM    3  N1  UNL     1      17.528   9.280  10.725  1.00  0.00    -0.304 N 
HETATM    4  C7  UNL     1      18.972   9.176  10.945  1.00  0.00     0.048 A 
HETATM    5  C8  UNL     1      19.799   8.077  11.092  1.00  0.00     0.054 A 
HETATM    6  C9  UNL     1      21.151   8.253  11.293  1.00  0.00     0.038 A 
HETATM    7 CL2  UNL     1      22.204   6.885  11.480  1.00  0.00    -0.084 Cl
HETATM    8  C10 UNL     1      21.652   9.517  11.343  1.00  0.00     0.053 A 
HETATM    9  C11 UNL     1      20.883  10.654  11.203  1.00  0.00     0.038 A 
HETATM   10  C19 UNL     1      19.510  10.440  11.000  1.00  0.00    -0.002 A 
HETATM   11  C20 UNL     1      18.402  11.402  10.809  1.00  0.00     0.074 C 
HETATM   12  C21 UNL     1      17.391  10.526  10.035  1.00  0.00     0.037 C 
HETATM   13  C22 UNL     1      16.068  11.204  10.080  1.00  0.00     0.039 C 
HETATM   14  C23 UNL     1      17.950  10.448   8.618  1.00  0.00     0.039 C 
ENDROOT
BRANCH   9  15
HETATM   15  N2  UNL     1      21.368  11.979  11.231  1.00  0.00    -0.383 N 
ATOM     16  H2  UNL     1      21.663  12.377  12.123  1.00  0.00     0.160 HD
BRANCH  15  17
HETATM   17  C12 UNL     1      21.458  12.775  10.065  1.00  0.00     0.107 C 
HETATM   18  C13 UNL     1      21.611  12.025   8.764  1.00  0.00     0.149 C 
HETATM   19  N3  UNL     1      22.488  12.864   7.940  1.00  0.00    -0.367 N 
HETATM   20  C16 UNL     1      22.674  14.129   8.614  1.00  0.00     0.133 C 
HETATM   21  C17 UNL     1      22.706  13.652  10.049  1.00  0.00     0.051 C 
BRANCH  19  22
HETATM   22  C14 UNL     1      23.047  12.490   6.703  1.00  0.00     0.095 C 
HETATM   23  C15 UNL     1      22.219  12.550   5.478  1.00  0.00     0.091 C 
HETATM   24  N4  UNL     1      24.267  12.089   6.589  1.00  0.00    -0.258 N 
ATOM     25  H4  UNL     1      24.592  11.836   5.655  1.00  0.00     0.195 HD
BRANCH  24  26
HETATM   26  O3  UNL     1      25.153  11.977   7.605  1.00  0.00    -0.288 OA
ATOM     27  H3  UNL     1      25.286  11.200   8.136  1.00  0.00     0.244 HD
ENDBRANCH  24  26
ENDBRANCH  19  22
BRANCH  21  28
HETATM   28  C18 UNL     1      22.616  14.780  11.033  1.00  0.00     0.172 C 
BRANCH  28  29
HETATM   29  O4  UNL     1      23.207  15.936  10.551  1.00  0.00    -0.400 OA
ATOM     30  H4  UNL     1      24.051  15.763  10.151  1.00  0.00     0.209 HD
ENDBRANCH  28  29
ENDBRANCH  21  28
ENDBRANCH  15  17
ENDBRANCH   9  15
BRANCH   1  31
HETATM   31  C5  UNL     1      15.205   8.283  10.971  1.00  0.00     0.095 A 
HETATM   32  C4  UNL     1      14.333   8.662  11.961  1.00  0.00     0.055 A 
HETATM   33  C3  UNL     1      12.981   8.647  11.716  1.00  0.00     0.064 A 
HETATM   34 CL1  UNL     1      14.955   9.133  13.544  1.00  0.00    -0.083 Cl
HETATM   35  C2  UNL     1      12.431   8.266  10.512  1.00  0.00     0.106 A 
HETATM   36  C25 UNL     1      13.301   7.888   9.532  1.00  0.00     0.141 A 
HETATM   37  C24 UNL     1      14.654   7.892   9.743  1.00  0.00     0.169 A 
HETATM   38  F1  UNL     1      15.516   7.512   8.756  1.00  0.00    -0.202 F 
BRANCH  35  39
HETATM   39  O1  UNL     1      11.071   8.269  10.320  1.00  0.00    -0.353 OA
HETATM   40  C1  UNL     1      10.228   9.361  10.520  1.00  0.00     0.210 C 
ENDBRANCH  35  39
BRANCH  36  41
HETATM   41  O5  UNL     1      12.752   7.496   8.300  1.00  0.00    -0.350 OA
HETATM   42  C26 UNL     1      12.815   8.456   7.260  1.00  0.00     0.210 C 
ENDBRANCH  36  41
ENDBRANCH   1  31
TORSDOF 9
ENDMDL
MODEL 4
REMARK VINA RESULT: -7.799132203      3.963      5.964
REMARK  9 active torsions:
REMARK  status: ('A' for Active; 'I' for Inactive)
REMARK    1  A    between atoms: O1_2  and  C2_3 
REMARK    2  A    between atoms: C5_7  and  C6_8 
REMARK       I    between atoms: C6_8  and  N1_10 
REMARK    3  A    between atoms: C11_16  and  N2_17 
REMARK    4  A    between atoms: N2_17  and  C12_19 
REMARK    5  A    between atoms: N3_21  and  C14_22 
REMARK    6  A    between atoms: N4_24  and  O3_26 
REMARK    7  A    between atoms: C17_29  and  C18_30 
REMARK    8  A    between atoms: C18_30  and  O4_31 
REMARK    9  A    between atoms: C25_40  and  O5_41 
ROOT
HETATM    1  C6  UNL     1      12.761  10.531  10.452  1.00  0.00     0.264 C 
HETATM    2  O2  UNL     1      12.496  10.191  11.665  1.00  0.00    -0.267 OA
HETATM    3  N1  UNL     1      13.958  10.144   9.825  1.00  0.00    -0.304 N 
HETATM    4  C7  UNL     1      14.952   9.327  10.525  1.00  0.00     0.048 A 
HETATM    5  C8  UNL     1      14.824   8.416  11.558  1.00  0.00     0.054 A 
HETATM    6  C9  UNL     1      15.938   7.769  12.047  1.00  0.00     0.038 A 
HETATM    7 CL2  UNL     1      15.797   6.622  13.343  1.00  0.00    -0.084 Cl
HETATM    8  C10 UNL     1      17.154   8.040  11.499  1.00  0.00     0.053 A 
HETATM    9  C11 UNL     1      17.349   8.935  10.468  1.00  0.00     0.038 A 
HETATM   10  C19 UNL     1      16.194   9.578   9.993  1.00  0.00    -0.002 A 
HETATM   11  C20 UNL     1      16.022  10.579   8.916  1.00  0.00     0.074 C 
HETATM   12  C21 UNL     1      14.543  10.337   8.533  1.00  0.00     0.037 C 
HETATM   13  C22 UNL     1      14.082  11.499   7.728  1.00  0.00     0.039 C 
HETATM   14  C23 UNL     1      14.559   9.044   7.724  1.00  0.00     0.039 C 
ENDROOT
BRANCH   9  15
HETATM   15  N2  UNL     1      18.589   9.229   9.862  1.00  0.00    -0.383 N 
ATOM     16  H2  UNL     1      18.719   9.010   8.875  1.00  0.00     0.160 HD
BRANCH  15  17
HETATM   17  C12 UNL     1      19.658   9.817  10.578  1.00  0.00     0.107 C 
HETATM   18  C13 UNL     1      20.128  11.161  10.077  1.00  0.00     0.149 C 
HETATM   19  N3  UNL     1      21.579  11.164  10.295  1.00  0.00    -0.367 N 
HETATM   20  C16 UNL     1      21.926   9.994  11.068  1.00  0.00     0.133 C 
HETATM   21  C17 UNL     1      20.944   9.001  10.487  1.00  0.00     0.051 C 
BRANCH  19  22
HETATM   22  C14 UNL     1      22.472  12.146   9.824  1.00  0.00     0.095 C 
HETATM   23  C15 UNL     1      23.020  12.040   8.454  1.00  0.00     0.091 C 
HETATM   24  N4  UNL     1      22.839  13.150  10.546  1.00  0.00    -0.258 N 
ATOM     25  H4  UNL     1      23.489  13.815  10.127  1.00  0.00     0.195 HD
BRANCH  24  26
HETATM   26  O3  UNL     1      22.432  13.394  11.813  1.00  0.00    -0.288 OA
ATOM     27  H3  UNL     1      22.969  13.297  12.591  1.00  0.00     0.244 HD
ENDBRANCH  24  26
ENDBRANCH  19  22
BRANCH  21  28
HETATM   28  C18 UNL     1      20.865   7.734  11.285  1.00  0.00     0.172 C 
BRANCH  28  29
HETATM   29  O4  UNL     1      22.118   7.288  11.672  1.00  0.00    -0.400 OA
ATOM     30  H4  UNL     1      22.065   6.634  12.360  1.00  0.00     0.209 HD
ENDBRANCH  28  29
ENDBRANCH  21  28
ENDBRANCH  15  17
ENDBRANCH   9  15
BRANCH   1  31
HETATM   31  C5  UNL     1      11.711  11.330   9.830  1.00  0.00     0.095 A 
HETATM   32  C4  UNL     1      10.757  10.788   9.006  1.00  0.00     0.055 A 
HETATM   33  C3  UNL     1       9.798  11.601   8.452  1.00  0.00     0.064 A 
HETATM   34 CL1  UNL     1      10.791   9.061   8.642  1.00  0.00    -0.083 Cl
HETATM   35  C2  UNL     1       9.732  12.959   8.676  1.00  0.00     0.106 A 
HETATM   36  C25 UNL     1      10.683  13.493   9.494  1.00  0.00     0.141 A 
HETATM   37  C24 UNL     1      11.652  12.710  10.062  1.00  0.00     0.169 A 
HETATM   38  F1  UNL     1      12.600  13.255  10.879  1.00  0.00    -0.202 F 
BRANCH  35  39
HETATM   39  O1  UNL     1       8.751  13.727   8.097  1.00  0.00    -0.353 OA
HETATM   40  C1  UNL     1       7.401  13.392   8.021  1.00  0.00     0.210 C 
ENDBRANCH  35  39
BRANCH  36  41
HETATM   41  O5  UNL     1      10.626  14.877   9.729  1.00  0.00    -0.350 OA
HETATM   42  C26 UNL     1       9.956  15.278  10.911  1.00  0.00     0.210 C 
ENDBRANCH  36  41
ENDBRANCH   1  31
TORSDOF 9
ENDMDL
MODEL 5
REMARK VINA RESULT: -7.793133133      4.138      9.194
REMARK  9 active torsions:
REMARK  status: ('A' for Active; 'I' for Inactive)
REMARK    1  A    between atoms: O1_2  and  C2_3 
REMARK    2  A    between atoms: C5_7  and  C6_8 
REMARK       I    between atoms: C6_8  and  N1_10 
REMARK    3  A    between atoms: C11_16  and  N2_17 
REMARK    4  A    between atoms: N2_17  and  C12_19 
REMARK    5  A    between atoms: N3_21  and  C14_22 
REMARK    6  A    between atoms: N4_24  and  O3_26 
REMARK    7  A    between atoms: C17_29  and  C18_30 
REMARK    8  A    between atoms: C18_30  and  O4_31 
REMARK    9  A    between atoms: C25_40  and  O5_41 
ROOT
HETATM    1  C6  UNL     1      16.691   9.209   9.184  1.00  0.00     0.264 C 
HETATM    2  O2  UNL     1      16.460   7.965   9.424  1.00  0.00    -0.267 OA
HETATM    3  N1  UNL     1      15.772  10.210   9.544  1.00  0.00    -0.304 N 
HETATM    4  C7  UNL     1      14.515   9.879  10.217  1.00  0.00     0.048 A 
HETATM    5  C8  UNL     1      14.164   8.817  11.031  1.00  0.00     0.054 A 
HETATM    6  C9  UNL     1      12.890   8.737  11.549  1.00  0.00     0.038 A 
HETATM    7 CL2  UNL     1      12.432   7.412  12.573  1.00  0.00    -0.084 Cl
HETATM    8  C10 UNL     1      11.991   9.713  11.246  1.00  0.00     0.053 A 
HETATM    9  C11 UNL     1      12.277  10.797  10.442  1.00  0.00     0.038 A 
HETATM   10  C19 UNL     1      13.583  10.849   9.931  1.00  0.00    -0.002 A 
HETATM   11  C20 UNL     1      14.236  11.846   9.053  1.00  0.00     0.074 C 
HETATM   12  C21 UNL     1      15.720  11.636   9.434  1.00  0.00     0.037 C 
HETATM   13  C22 UNL     1      16.558  12.285   8.391  1.00  0.00     0.039 C 
HETATM   14  C23 UNL     1      15.870  12.310  10.794  1.00  0.00     0.039 C 
ENDROOT
BRANCH   9  15
HETATM   15  N2  UNL     1      11.378  11.837  10.120  1.00  0.00    -0.383 N 
ATOM     16  H2  UNL     1      11.315  12.643  10.742  1.00  0.00     0.160 HD
BRANCH  15  17
HETATM   17  C12 UNL     1      10.563  11.799   8.965  1.00  0.00     0.107 C 
HETATM   18  C13 UNL     1      10.832  10.667   8.004  1.00  0.00     0.149 C 
HETATM   19  N3  UNL     1      10.599  11.234   6.671  1.00  0.00    -0.367 N 
HETATM   20  C16 UNL     1      10.023  12.550   6.829  1.00  0.00     0.133 C 
HETATM   21  C17 UNL     1      10.770  13.010   8.061  1.00  0.00     0.051 C 
BRANCH  19  22
HETATM   22  C14 UNL     1      10.891  10.595   5.451  1.00  0.00     0.095 C 
HETATM   23  C15 UNL     1      12.250  10.704   4.875  1.00  0.00     0.091 C 
HETATM   24  N4  UNL     1      10.014   9.907   4.802  1.00  0.00    -0.258 N 
ATOM     25  H4  UNL     1      10.310   9.477   3.926  1.00  0.00     0.195 HD
BRANCH  24  26
HETATM   26  O3  UNL     1       8.732   9.708   5.189  1.00  0.00    -0.288 OA
ATOM     27  H3  UNL     1       8.252   8.894   5.101  1.00  0.00     0.244 HD
ENDBRANCH  24  26
ENDBRANCH  19  22
BRANCH  21  28
HETATM   28  C18 UNL     1      10.192  14.261   8.652  1.00  0.00     0.172 C 
BRANCH  28  29
HETATM   29  O4  UNL     1       9.289  13.985   9.665  1.00  0.00    -0.400 OA
ATOM     30  H4  UNL     1       9.120  14.747  10.207  1.00  0.00     0.209 HD
ENDBRANCH  28  29
ENDBRANCH  21  28
ENDBRANCH  15  17
ENDBRANCH   9  15
BRANCH   1  31
HETATM   31  C5  UNL     1      17.971   9.446   8.525  1.00  0.00     0.095 A 
HETATM   32  C4  UNL     1      18.129   9.367   7.163  1.00  0.00     0.055 A 
HETATM   33  C3  UNL     1      19.364   9.600   6.610  1.00  0.00     0.064 A 
HETATM   34 CL1  UNL     1      16.752   8.937   6.145  1.00  0.00    -0.083 Cl
HETATM   35  C2  UNL     1      20.481   9.914   7.350  1.00  0.00     0.106 A 
HETATM   36  C25 UNL     1      20.320   9.990   8.702  1.00  0.00     0.141 A 
HETATM   37  C24 UNL     1      19.103   9.764   9.286  1.00  0.00     0.169 A 
HETATM   38  F1  UNL     1      18.952   9.842  10.641  1.00  0.00    -0.202 F 
BRANCH  35  39
HETATM   39  O1  UNL     1      21.694  10.138   6.746  1.00  0.00    -0.353 OA
HETATM   40  C1  UNL     1      22.052  11.293   6.052  1.00  0.00     0.210 C 
ENDBRANCH  35  39
BRANCH  36  41
HETATM   41  O5  UNL     1      21.454  10.310   9.469  1.00  0.00    -0.350 OA
HETATM   42  C26 UNL     1      21.560  11.659   9.885  1.00  0.00     0.210 C 
ENDBRANCH  36  41
ENDBRANCH   1  31
TORSDOF 9
ENDMDL
