MODEL 1
REMARK VINA RESULT: -7.709456152      0.000      0.000
REMARK  13 active torsions:
REMARK  status: ('A' for Active; 'I' for Inactive)
REMARK    1  A    between atoms: C2_2  and  C3_3 
REMARK    2  A    between atoms: C2_2  and  C5_7 
REMARK    3  A    between atoms: C5_7  and  O1_9 
REMARK    4  A    between atoms: C5_7  and  C7_11 
REMARK    5  A    between atoms: C12_17  and  O3_18 
REMARK    6  A    between atoms: O3_18  and  C13_19 
REMARK    7  A    between atoms: C13_19  and  C14_21 
REMARK    8  A    between atoms: C14_21  and  C15_22 
REMARK    9  A    between atoms: C14_21  and  N1_29 
REMARK   10  A    between atoms: C15_22  and  C16_23 
REMARK       I    between atoms: N1_29  and  C22_31 
REMARK   11  A    between atoms: C22_31  and  O6_33 
REMARK   12  A    between atoms: O6_33  and  C23_34 
REMARK   13  A    between atoms: C28_39  and  O7_41 
ROOT
HETATM    1  C7  UNL     1      16.181   8.842   8.012  1.00  0.00     0.156 C 
HETATM    2  C8  UNL     1      14.988   8.016   8.333  1.00  0.00     0.035 C 
HETATM    3  C9  UNL     1      14.677   8.147   9.838  1.00  0.00     0.013 C 
HETATM    4  C10 UNL     1      15.935   7.793  10.542  1.00  0.00     0.051 C 
HETATM    5  C11 UNL     1      16.937   8.894  10.150  1.00  0.00     0.158 C 
HETATM    6  O2  UNL     1      17.273   8.598   8.850  1.00  0.00    -0.374 OA
HETATM    7  C12 UNL     1      18.042   8.582  11.132  1.00  0.00     0.164 C 
HETATM    8  C27 UNL     1      17.353   8.323  12.404  1.00  0.00     0.073 C 
HETATM    9  C28 UNL     1      15.922   7.935  12.013  1.00  0.00     0.063 C 
HETATM   10  C29 UNL     1      14.897   8.887  12.546  1.00  0.00     0.046 C 
ENDROOT
BRANCH   7  11
HETATM   11  O3  UNL     1      19.039   9.560  11.156  1.00  0.00    -0.312 OA
BRANCH  11  12
HETATM   12  C13 UNL     1      20.382   9.307  10.772  1.00  0.00     0.282 C 
HETATM   13  O4  UNL     1      20.843   8.255  11.259  1.00  0.00    -0.263 OA
BRANCH  12  14
HETATM   14  C14 UNL     1      21.096  10.229   9.881  1.00  0.00     0.190 C 
BRANCH  14  15
HETATM   15  C15 UNL     1      20.270  10.567   8.654  1.00  0.00     0.074 C 
BRANCH  15  16
HETATM   16  C16 UNL     1      20.982  11.329   7.632  1.00  0.00    -0.056 A 
HETATM   17  C17 UNL     1      22.120  10.779   7.047  1.00  0.00     0.007 A 
HETATM   18  C18 UNL     1      22.817  11.489   6.094  1.00  0.00     0.001 A 
HETATM   19  C19 UNL     1      22.384  12.746   5.720  1.00  0.00     0.000 A 
HETATM   20  C20 UNL     1      21.258  13.308   6.288  1.00  0.00     0.001 A 
HETATM   21  C21 UNL     1      20.566  12.592   7.241  1.00  0.00     0.007 A 
ENDBRANCH  15  16
ENDBRANCH  14  15
BRANCH  14  22
HETATM   22  N1  UNL     1      21.346  11.528  10.518  1.00  0.00    -0.323 N 
HETATM   23  C22 UNL     1      22.681  11.943  10.780  1.00  0.00     0.362 C 
HETATM   24  O5  UNL     1      23.672  11.213  10.464  1.00  0.00    -0.238 OA
ATOM     25  H1  UNL     1      20.564  12.132  10.772  1.00  0.00     0.165 HD
BRANCH  23  26
HETATM   26  O6  UNL     1      22.966  13.154  11.388  1.00  0.00    -0.294 OA
BRANCH  26  27
HETATM   27  C23 UNL     1      22.817  14.355  10.631  1.00  0.00     0.061 C 
HETATM   28  C24 UNL     1      21.355  14.714  10.485  1.00  0.00     0.046 C 
HETATM   29  C25 UNL     1      23.536  15.455  11.355  1.00  0.00     0.046 C 
HETATM   30  C26 UNL     1      23.403  14.199   9.234  1.00  0.00     0.046 C 
ENDBRANCH  26  27
ENDBRANCH  23  26
ENDBRANCH  14  22
ENDBRANCH  12  14
ENDBRANCH  11  12
ENDBRANCH   7  11
BRANCH   9  31
HETATM   31  O7  UNL     1      15.671   6.684  12.578  1.00  0.00    -0.390 OA
ATOM     32  H7  UNL     1      15.777   6.751  13.519  1.00  0.00     0.210 HD
ENDBRANCH   9  31
BRANCH   1  33
HETATM   33  C5  UNL     1      16.715   8.609   6.611  1.00  0.00     0.089 C 
HETATM   34  C6  UNL     1      16.287   7.266   6.134  1.00  0.00     0.049 C 
BRANCH  33  35
HETATM   35  C2  UNL     1      16.516   9.740   5.679  1.00  0.00     0.090 C 
HETATM   36  C1  UNL     1      16.106   9.431   4.285  1.00  0.00     0.019 C 
BRANCH  35  37
HETATM   37  C3  UNL     1      17.661  10.751   5.681  1.00  0.00     0.246 C 
HETATM   38  C4  UNL     1      17.472  11.850   4.690  1.00  0.00     0.090 C 
HETATM   39  F1  UNL     1      18.865  10.140   5.598  1.00  0.00    -0.206 F 
HETATM   40  F2  UNL     1      17.598  11.336   6.959  1.00  0.00    -0.206 F 
ENDBRANCH  35  37
ENDBRANCH  33  35
BRANCH  33  41
HETATM   41  O1  UNL     1      18.137   8.489   6.839  1.00  0.00    -0.387 OA
ATOM     42  H1  UNL     1      18.294   7.616   7.180  1.00  0.00     0.210 HD
ENDBRANCH  33  41
ENDBRANCH   1  33
TORSDOF 13
ENDMDL
MODEL 2
REMARK VINA RESULT: -7.600571746      1.762      2.253
REMARK  13 active torsions:
REMARK  status: ('A' for Active; 'I' for Inactive)
REMARK    1  A    between atoms: C2_2  and  C3_3 
REMARK    2  A    between atoms: C2_2  and  C5_7 
REMARK    3  A    between atoms: C5_7  and  O1_9 
REMARK    4  A    between atoms: C5_7  and  C7_11 
REMARK    5  A    between atoms: C12_17  and  O3_18 
REMARK    6  A    between atoms: O3_18  and  C13_19 
REMARK    7  A    between atoms: C13_19  and  C14_21 
REMARK    8  A    between atoms: C14_21  and  C15_22 
REMARK    9  A    between atoms: C14_21  and  N1_29 
REMARK   10  A    between atoms: C15_22  and  C16_23 
REMARK       I    between atoms: N1_29  and  C22_31 
REMARK   11  A    between atoms: C22_31  and  O6_33 
REMARK   12  A    between atoms: O6_33  and  C23_34 
REMARK   13  A    between atoms: C28_39  and  O7_41 
ROOT
HETATM    1  C7  UNL     1      16.137   8.628   7.808  1.00  0.00     0.156 C 
HETATM    2  C8  UNL     1      15.032   7.795   8.351  1.00  0.00     0.035 C 
HETATM    3  C9  UNL     1      14.877   8.085   9.858  1.00  0.00     0.013 C 
HETATM    4  C10 UNL     1      16.221   7.867  10.450  1.00  0.00     0.051 C 
HETATM    5  C11 UNL     1      17.114   8.957   9.829  1.00  0.00     0.158 C 
HETATM    6  O2  UNL     1      17.324   8.527   8.540  1.00  0.00    -0.374 OA
HETATM    7  C12 UNL     1      18.333   8.807  10.708  1.00  0.00     0.164 C 
HETATM    8  C27 UNL     1      17.800   8.667  12.070  1.00  0.00     0.073 C 
HETATM    9  C28 UNL     1      16.359   8.177  11.888  1.00  0.00     0.063 C 
HETATM   10  C29 UNL     1      15.347   9.140  12.426  1.00  0.00     0.046 C 
ENDROOT
BRANCH   7  11
HETATM   11  O3  UNL     1      19.272   9.822  10.512  1.00  0.00    -0.312 OA
BRANCH  11  12
HETATM   12  C13 UNL     1      20.412   9.673   9.679  1.00  0.00     0.282 C 
HETATM   13  O4  UNL     1      21.084   8.655   9.942  1.00  0.00    -0.263 OA
BRANCH  12  14
HETATM   14  C14 UNL     1      20.707  10.651   8.627  1.00  0.00     0.190 C 
BRANCH  14  15
HETATM   15  C15 UNL     1      19.456  11.389   8.186  1.00  0.00     0.074 C 
BRANCH  15  16
HETATM   16  C16 UNL     1      19.457  11.808   6.788  1.00  0.00    -0.056 A 
HETATM   17  C17 UNL     1      19.985  10.952   5.824  1.00  0.00     0.007 A 
HETATM   18  C18 UNL     1      20.012  11.337   4.501  1.00  0.00     0.001 A 
HETATM   19  C19 UNL     1      19.513  12.571   4.134  1.00  0.00     0.000 A 
HETATM   20  C20 UNL     1      18.985  13.434   5.074  1.00  0.00     0.001 A 
HETATM   21  C21 UNL     1      18.962  13.043   6.395  1.00  0.00     0.007 A 
ENDBRANCH  15  16
ENDBRANCH  14  15
BRANCH  14  22
HETATM   22  N1  UNL     1      21.605  11.714   9.097  1.00  0.00    -0.323 N 
HETATM   23  C22 UNL     1      22.822  11.969   8.406  1.00  0.00     0.362 C 
HETATM   24  O5  UNL     1      23.149  11.302   7.375  1.00  0.00    -0.238 OA
ATOM     25  H1  UNL     1      21.358  12.266   9.918  1.00  0.00     0.165 HD
BRANCH  23  26
HETATM   26  O6  UNL     1      23.706  12.952   8.818  1.00  0.00    -0.294 OA
BRANCH  26  27
HETATM   27  C23 UNL     1      23.618  14.248   8.227  1.00  0.00     0.061 C 
HETATM   28  C24 UNL     1      23.487  15.313   9.294  1.00  0.00     0.046 C 
HETATM   29  C25 UNL     1      24.867  14.485   7.431  1.00  0.00     0.046 C 
HETATM   30  C26 UNL     1      22.405  14.352   7.312  1.00  0.00     0.046 C 
ENDBRANCH  26  27
ENDBRANCH  23  26
ENDBRANCH  14  22
ENDBRANCH  12  14
ENDBRANCH  11  12
ENDBRANCH   7  11
BRANCH   9  31
HETATM   31  O7  UNL     1      16.238   6.989  12.611  1.00  0.00    -0.390 OA
ATOM     32  H7  UNL     1      16.914   6.972  13.278  1.00  0.00     0.210 HD
ENDBRANCH   9  31
BRANCH   1  33
HETATM   33  C5  UNL     1      16.529   8.258   6.390  1.00  0.00     0.089 C 
HETATM   34  C6  UNL     1      16.170   6.838   6.130  1.00  0.00     0.049 C 
BRANCH  33  35
HETATM   35  C2  UNL     1      16.128   9.244   5.362  1.00  0.00     0.090 C 
HETATM   36  C1  UNL     1      16.104  10.679   5.745  1.00  0.00     0.019 C 
BRANCH  35  37
HETATM   37  C3  UNL     1      14.847   8.873   4.618  1.00  0.00     0.246 C 
HETATM   38  C4  UNL     1      14.346   9.967   3.737  1.00  0.00     0.090 C 
HETATM   39  F1  UNL     1      13.911   8.373   5.456  1.00  0.00    -0.206 F 
HETATM   40  F2  UNL     1      15.235   7.814   3.776  1.00  0.00    -0.206 F 
ENDBRANCH  35  37
ENDBRANCH  33  35
BRANCH  33  41
HETATM   41  O1  UNL     1      17.972   8.272   6.456  1.00  0.00    -0.387 OA
ATOM     42  H1  UNL     1      18.262   9.105   6.103  1.00  0.00     0.210 HD
ENDBRANCH  33  41
ENDBRANCH   1  33
TORSDOF 13
ENDMDL
MODEL 3
REMARK VINA RESULT: -7.504128104      6.304      9.275
REMARK  13 active torsions:
REMARK  status: ('A' for Active; 'I' for Inactive)
REMARK    1  A    between atoms: C2_2  and  C3_3 
REMARK    2  A    between atoms: C2_2  and  C5_7 
REMARK    3  A    between atoms: C5_7  and  O1_9 
REMARK    4  A    between atoms: C5_7  and  C7_11 
REMARK    5  A    between atoms: C12_17  and  O3_18 
REMARK    6  A    between atoms: O3_18  and  C13_19 
REMARK    7  A    between atoms: C13_19  and  C14_21 
REMARK    8  A    between atoms: C14_21  and  C15_22 
REMARK    9  A    between atoms: C14_21  and  N1_29 
REMARK   10  A    between atoms: C15_22  and  C16_23 
REMARK       I    between atoms: N1_29  and  C22_31 
REMARK   11  A    between atoms: C22_31  and  O6_33 
REMARK   12  A    between atoms: O6_33  and  C23_34 
REMARK   13  A    between atoms: C28_39  and  O7_41 
ROOT
HETATM    1  C7  UNL     1      13.368   8.742  10.298  1.00  0.00     0.156 C 
HETATM    2  C8  UNL     1      12.931   7.722   9.309  1.00  0.00     0.035 C 
HETATM    3  C9  UNL     1      12.556   8.427   7.990  1.00  0.00     0.013 C 
HETATM    4  C10 UNL     1      11.557   9.462   8.356  1.00  0.00     0.051 C 
HETATM    5  C11 UNL     1      12.322  10.459   9.247  1.00  0.00     0.158 C 
HETATM    6  O2  UNL     1      12.466   9.799  10.445  1.00  0.00    -0.374 OA
HETATM    7  C12 UNL     1      11.302  11.572   9.303  1.00  0.00     0.164 C 
HETATM    8  C27 UNL     1      10.810  11.701   7.925  1.00  0.00     0.073 C 
HETATM    9  C28 UNL     1      11.107  10.350   7.264  1.00  0.00     0.063 C 
HETATM   10  C29 UNL     1      12.056  10.464   6.112  1.00  0.00     0.046 C 
ENDROOT
BRANCH   7  11
HETATM   11  O3  UNL     1      11.799  12.735   9.895  1.00  0.00    -0.312 OA
BRANCH  11  12
HETATM   12  C13 UNL     1      11.358  13.211  11.158  1.00  0.00     0.282 C 
HETATM   13  O4  UNL     1      10.903  12.309  11.891  1.00  0.00    -0.263 OA
BRANCH  12  14
HETATM   14  C14 UNL     1      11.463  14.632  11.505  1.00  0.00     0.190 C 
BRANCH  14  15
HETATM   15  C15 UNL     1      10.531  14.996  12.646  1.00  0.00     0.074 C 
BRANCH  15  16
HETATM   16  C16 UNL     1       9.460  15.921  12.285  1.00  0.00    -0.056 A 
HETATM   17  C17 UNL     1       8.862  16.687  13.282  1.00  0.00     0.007 A 
HETATM   18  C18 UNL     1       7.838  17.552  12.965  1.00  0.00     0.001 A 
HETATM   19  C19 UNL     1       7.408  17.660  11.658  1.00  0.00     0.000 A 
HETATM   20  C20 UNL     1       7.989  16.909  10.654  1.00  0.00     0.001 A 
HETATM   21  C21 UNL     1       9.012  16.045  10.979  1.00  0.00     0.007 A 
ENDBRANCH  15  16
ENDBRANCH  14  15
BRANCH  14  22
HETATM   22  N1  UNL     1      12.799  14.981  12.005  1.00  0.00    -0.323 N 
HETATM   23  C22 UNL     1      13.695  15.714  11.179  1.00  0.00     0.362 C 
HETATM   24  O5  UNL     1      13.360  16.088  10.011  1.00  0.00    -0.238 OA
ATOM     25  H1  UNL     1      13.084  14.698  12.943  1.00  0.00     0.165 HD
BRANCH  23  26
HETATM   26  O6  UNL     1      14.968  16.057  11.602  1.00  0.00    -0.294 OA
BRANCH  26  27
HETATM   27  C23 UNL     1      16.038  15.141  11.374  1.00  0.00     0.061 C 
HETATM   28  C24 UNL     1      16.135  14.790   9.905  1.00  0.00     0.046 C 
HETATM   29  C25 UNL     1      17.314  15.791  11.821  1.00  0.00     0.046 C 
HETATM   30  C26 UNL     1      15.828  13.848  12.150  1.00  0.00     0.046 C 
ENDBRANCH  26  27
ENDBRANCH  23  26
ENDBRANCH  14  22
ENDBRANCH  12  14
ENDBRANCH  11  12
ENDBRANCH   7  11
BRANCH   9  31
HETATM   31  O7  UNL     1       9.896   9.864   6.769  1.00  0.00    -0.390 OA
ATOM     32  H7  UNL     1       9.640  10.397   6.025  1.00  0.00     0.210 HD
ENDBRANCH   9  31
BRANCH   1  33
HETATM   33  C5  UNL     1      13.540   8.188  11.700  1.00  0.00     0.089 C 
HETATM   34  C6  UNL     1      12.225   7.716  12.211  1.00  0.00     0.049 C 
BRANCH  33  35
HETATM   35  C2  UNL     1      14.685   7.266  11.862  1.00  0.00     0.090 C 
HETATM   36  C1  UNL     1      14.859   6.594  13.175  1.00  0.00     0.019 C 
BRANCH  35  37
HETATM   37  C3  UNL     1      16.016   7.845  11.385  1.00  0.00     0.246 C 
HETATM   38  C4  UNL     1      17.186   7.327  12.150  1.00  0.00     0.090 C 
HETATM   39  F1  UNL     1      15.970   9.194  11.301  1.00  0.00    -0.206 F 
HETATM   40  F2  UNL     1      16.143   7.368  10.067  1.00  0.00    -0.206 F 
ENDBRANCH  35  37
ENDBRANCH  33  35
BRANCH  33  41
HETATM   41  O1  UNL     1      13.835   9.376  12.466  1.00  0.00    -0.387 OA
ATOM     42  H1  UNL     1      13.478  10.115  11.988  1.00  0.00     0.210 HD
ENDBRANCH  33  41
ENDBRANCH   1  33
TORSDOF 13
ENDMDL
MODEL 4
REMARK VINA RESULT: -7.470044339      5.068      8.183
REMARK  13 active torsions:
REMARK  status: ('A' for Active; 'I' for Inactive)
REMARK    1  A    between atoms: C2_2  and  C3_3 
REMARK    2  A    between atoms: C2_2  and  C5_7 
REMARK    3  A    between atoms: C5_7  and  O1_9 
REMARK    4  A    between atoms: C5_7  and  C7_11 
REMARK    5  A    between atoms: C12_17  and  O3_18 
REMARK    6  A    between atoms: O3_18  and  C13_19 
REMARK    7  A    between atoms: C13_19  and  C14_21 
REMARK    8  A    between atoms: C14_21  and  C15_22 
REMARK    9  A    between atoms: C14_21  and  N1_29 
REMARK   10  A    between atoms: C15_22  and  C16_23 
REMARK       I    between atoms: N1_29  and  C22_31 
REMARK   11  A    between atoms: C22_31  and  O6_33 
REMARK   12  A    between atoms: O6_33  and  C23_34 
REMARK   13  A    between atoms: C28_39  and  O7_41 
ROOT
HETATM    1  C7  UNL     1      15.452  11.469  11.164  1.00  0.00     0.156 C 
HETATM    2  C8  UNL     1      16.831  11.347  11.704  1.00  0.00     0.035 C 
HETATM    3  C9  UNL     1      17.229   9.858  11.738  1.00  0.00     0.013 C 
HETATM    4  C10 UNL     1      16.157   9.172  12.502  1.00  0.00     0.051 C 
HETATM    5  C11 UNL     1      14.891   9.323  11.640  1.00  0.00     0.158 C 
HETATM    6  O2  UNL     1      14.526  10.639  11.803  1.00  0.00    -0.374 OA
HETATM    7  C12 UNL     1      13.980   8.362  12.369  1.00  0.00     0.164 C 
HETATM    8  C27 UNL     1      14.817   7.186  12.644  1.00  0.00     0.073 C 
HETATM    9  C28 UNL     1      16.260   7.700  12.594  1.00  0.00     0.063 C 
HETATM   10  C29 UNL     1      17.069   7.056  11.512  1.00  0.00     0.046 C 
ENDROOT
BRANCH   7  11
HETATM   11  O3  UNL     1      12.784   8.126  11.688  1.00  0.00    -0.312 OA
BRANCH  11  12
HETATM   12  C13 UNL     1      12.720   7.433  10.451  1.00  0.00     0.282 C 
HETATM   13  O4  UNL     1      12.289   6.267  10.562  1.00  0.00    -0.263 OA
BRANCH  12  14
HETATM   14  C14 UNL     1      13.128   8.084   9.202  1.00  0.00     0.190 C 
BRANCH  14  15
HETATM   15  C15 UNL     1      13.960   7.156   8.336  1.00  0.00     0.074 C 
BRANCH  15  16
HETATM   16  C16 UNL     1      15.136   7.776   7.734  1.00  0.00    -0.056 A 
HETATM   17  C17 UNL     1      15.561   7.347   6.479  1.00  0.00     0.007 A 
HETATM   18  C18 UNL     1      16.679   7.907   5.902  1.00  0.00     0.001 A 
HETATM   19  C19 UNL     1      17.377   8.895   6.569  1.00  0.00     0.000 A 
HETATM   20  C20 UNL     1      16.971   9.334   7.814  1.00  0.00     0.001 A 
HETATM   21  C21 UNL     1      15.852   8.769   8.386  1.00  0.00     0.007 A 
ENDBRANCH  15  16
ENDBRANCH  14  15
BRANCH  14  22
HETATM   22  N1  UNL     1      11.977   8.430   8.358  1.00  0.00    -0.323 N 
HETATM   23  C22 UNL     1      11.188   9.572   8.671  1.00  0.00     0.362 C 
HETATM   24  O5  UNL     1      11.463  10.312   9.666  1.00  0.00    -0.238 OA
ATOM     25  H1  UNL     1      11.744   7.854   7.550  1.00  0.00     0.165 HD
BRANCH  23  26
HETATM   26  O6  UNL     1      10.087   9.932   7.911  1.00  0.00    -0.294 OA
BRANCH  26  27
HETATM   27  C23 UNL     1      10.209  11.020   6.996  1.00  0.00     0.061 C 
HETATM   28  C24 UNL     1       9.383  10.767   5.754  1.00  0.00     0.046 C 
HETATM   29  C25 UNL     1       9.722  12.263   7.680  1.00  0.00     0.046 C 
HETATM   30  C26 UNL     1      11.657  11.213   6.563  1.00  0.00     0.046 C 
ENDBRANCH  26  27
ENDBRANCH  23  26
ENDBRANCH  14  22
ENDBRANCH  12  14
ENDBRANCH  11  12
ENDBRANCH   7  11
BRANCH   9  31
HETATM   31  O7  UNL     1      16.851   7.373  13.815  1.00  0.00    -0.390 OA
ATOM     32  H7  UNL     1      16.662   6.462  14.007  1.00  0.00     0.210 HD
ENDBRANCH   9  31
BRANCH   1  33
HETATM   33  C5  UNL     1      14.872  12.864  11.300  1.00  0.00     0.089 C 
HETATM   34  C6  UNL     1      15.811  13.852  10.706  1.00  0.00     0.049 C 
BRANCH  33  35
HETATM   35  C2  UNL     1      13.449  12.981  10.911  1.00  0.00     0.090 C 
HETATM   36  C1  UNL     1      13.138  13.313   9.496  1.00  0.00     0.019 C 
BRANCH  35  37
HETATM   37  C3  UNL     1      12.622  13.854  11.852  1.00  0.00     0.246 C 
HETATM   38  C4  UNL     1      11.208  14.018  11.405  1.00  0.00     0.090 C 
HETATM   39  F1  UNL     1      13.247  15.021  12.128  1.00  0.00    -0.206 F 
HETATM   40  F2  UNL     1      12.590  13.125  13.055  1.00  0.00    -0.206 F 
ENDBRANCH  35  37
ENDBRANCH  33  35
BRANCH  33  41
HETATM   41  O1  UNL     1      14.945  13.090  12.725  1.00  0.00    -0.387 OA
ATOM     42  H1  UNL     1      15.796  13.470  12.907  1.00  0.00     0.210 HD
ENDBRANCH  33  41
ENDBRANCH   1  33
TORSDOF 13
ENDMDL
MODEL 5
REMARK VINA RESULT: -7.443649256      6.038      8.834
REMARK  13 active torsions:
REMARK  status: ('A' for Active; 'I' for Inactive)
REMARK    1  A    between atoms: C2_2  and  C3_3 
REMARK    2  A    between atoms: C2_2  and  C5_7 
REMARK    3  A    between atoms: C5_7  and  O1_9 
REMARK    4  A    between atoms: C5_7  and  C7_11 
REMARK    5  A    between atoms: C12_17  and  O3_18 
REMARK    6  A    between atoms: O3_18  and  C13_19 
REMARK    7  A    between atoms: C13_19  and  C14_21 
REMARK    8  A    between atoms: C14_21  and  C15_22 
REMARK    9  A    between atoms: C14_21  and  N1_29 
REMARK   10  A    between atoms: C15_22  and  C16_23 
REMARK       I    between atoms: N1_29  and  C22_31 
REMARK   11  A    between atoms: C22_31  and  O6_33 
REMARK   12  A    between atoms: O6_33  and  C23_34 
REMARK   13  A    between atoms: C28_39  and  O7_41 
ROOT
HETATM    1  C7  UNL     1      14.465   8.444  11.738  1.00  0.00     0.156 C 
HETATM    2  C8  UNL     1      13.612   7.227  11.763  1.00  0.00     0.035 C 
HETATM    3  C9  UNL     1      12.384   7.454  10.858  1.00  0.00     0.013 C 
HETATM    4  C10 UNL     1      11.756   8.711  11.338  1.00  0.00     0.051 C 
HETATM    5  C11 UNL     1      12.792   9.812  11.047  1.00  0.00     0.158 C 
HETATM    6  O2  UNL     1      13.763   9.624  12.003  1.00  0.00    -0.374 OA
HETATM    7  C12 UNL     1      11.936  11.029  11.307  1.00  0.00     0.164 C 
HETATM    8  C27 UNL     1      10.650  10.730  10.662  1.00  0.00     0.073 C 
HETATM    9  C28 UNL     1      10.599   9.201  10.560  1.00  0.00     0.063 C 
HETATM   10  C29 UNL     1      10.538   8.715   9.146  1.00  0.00     0.046 C 
ENDROOT
BRANCH   7  11
HETATM   11  O3  UNL     1      12.556  12.221  10.926  1.00  0.00    -0.312 OA
BRANCH  11  12
HETATM   12  C13 UNL     1      11.841  13.345  10.436  1.00  0.00     0.282 C 
HETATM   13  O4  UNL     1      11.247  13.120   9.362  1.00  0.00    -0.263 OA
BRANCH  12  14
HETATM   14  C14 UNL     1      11.838  14.614  11.171  1.00  0.00     0.190 C 
BRANCH  14  15
HETATM   15  C15 UNL     1      10.856  14.584  12.329  1.00  0.00     0.074 C 
BRANCH  15  16
HETATM   16  C16 UNL     1       9.780  15.567  12.240  1.00  0.00    -0.056 A 
HETATM   17  C17 UNL     1       9.238  15.868  10.993  1.00  0.00     0.007 A 
HETATM   18  C18 UNL     1       8.234  16.806  10.886  1.00  0.00     0.001 A 
HETATM   19  C19 UNL     1       7.767  17.444  12.017  1.00  0.00     0.000 A 
HETATM   20  C20 UNL     1       8.291  17.159  13.263  1.00  0.00     0.001 A 
HETATM   21  C21 UNL     1       9.295  16.221  13.362  1.00  0.00     0.007 A 
ENDBRANCH  15  16
ENDBRANCH  14  15
BRANCH  14  22
HETATM   22  N1  UNL     1      13.134  14.888  11.805  1.00  0.00    -0.323 N 
HETATM   23  C22 UNL     1      14.067  15.749  11.164  1.00  0.00     0.362 C 
HETATM   24  O5  UNL     1      13.799  16.301  10.051  1.00  0.00    -0.238 OA
ATOM     25  H1  UNL     1      13.365  14.462  12.702  1.00  0.00     0.165 HD
BRANCH  23  26
HETATM   26  O6  UNL     1      15.305  16.029  11.716  1.00  0.00    -0.294 OA
BRANCH  26  27
HETATM   27  C23 UNL     1      16.381  15.119  11.489  1.00  0.00     0.061 C 
HETATM   28  C24 UNL     1      16.218  14.425  10.154  1.00  0.00     0.046 C 
HETATM   29  C25 UNL     1      17.663  15.898  11.497  1.00  0.00     0.046 C 
HETATM   30  C26 UNL     1      16.431  14.047  12.570  1.00  0.00     0.046 C 
ENDBRANCH  26  27
ENDBRANCH  23  26
ENDBRANCH  14  22
ENDBRANCH  12  14
ENDBRANCH  11  12
ENDBRANCH   7  11
BRANCH   9  31
HETATM   31  O7  UNL     1       9.429   8.789  11.200  1.00  0.00    -0.390 OA
ATOM     32  H7  UNL     1       8.799   8.529  10.538  1.00  0.00     0.210 HD
ENDBRANCH   9  31
BRANCH   1  33
HETATM   33  C5  UNL     1      15.577   8.421  12.770  1.00  0.00     0.089 C 
HETATM   34  C6  UNL     1      15.675   7.062  13.365  1.00  0.00     0.049 C 
BRANCH  33  35
HETATM   35  C2  UNL     1      16.843   9.045  12.325  1.00  0.00     0.090 C 
HETATM   36  C1  UNL     1      16.816  10.479  11.938  1.00  0.00     0.019 C 
BRANCH  35  37
HETATM   37  C3  UNL     1      17.597   8.229  11.277  1.00  0.00     0.246 C 
HETATM   38  C4  UNL     1      18.280   9.077  10.258  1.00  0.00     0.090 C 
HETATM   39  F1  UNL     1      16.821   7.256  10.749  1.00  0.00    -0.206 F 
HETATM   40  F2  UNL     1      18.606   7.579  12.012  1.00  0.00    -0.206 F 
ENDBRANCH  35  37
ENDBRANCH  33  35
BRANCH  33  41
HETATM   41  O1  UNL     1      15.038   9.252  13.822  1.00  0.00    -0.387 OA
ATOM     42  H1  UNL     1      15.127   8.769  14.635  1.00  0.00     0.210 HD
ENDBRANCH  33  41
ENDBRANCH   1  33
TORSDOF 13
ENDMDL
