MODEL 1
REMARK VINA RESULT: -7.878900903      0.000      0.000
REMARK  11 active torsions:
REMARK  status: ('A' for Active; 'I' for Inactive)
REMARK    1  A    between atoms: C2_2  and  C3_4 
REMARK    2  A    between atoms: C3_4  and  C4_5 
REMARK    3  A    between atoms: C4_5  and  O2_6 
REMARK    4  A    between atoms: C6_12  and  C7_13 
REMARK    5  A    between atoms: C7_13  and  C8_14 
REMARK    6  A    between atoms: C8_14  and  O4_15 
REMARK    7  A    between atoms: C9_17  and  C10_18 
REMARK    8  A    between atoms: C13_22  and  C14_23 
REMARK    9  A    between atoms: C14_23  and  O5_24 
REMARK   10  A    between atoms: O5_24  and  C15_25 
REMARK   11  A    between atoms: C15_25  and  C16_27 
ROOT
HETATM    1  C10 UNL     1      20.545 -42.302  -6.993  1.00  0.00    -0.006 C 
HETATM    2  C11 UNL     1      19.888 -43.071  -7.823  1.00  0.00     0.090 C 
HETATM    3  C12 UNL     1      20.196 -43.067  -9.217  1.00  0.00     0.087 C 
HETATM    4  N2  UNL     1      20.449 -43.069 -10.364  1.00  0.00    -0.192 NA
ENDROOT
BRANCH   1   5
HETATM    5  C9  UNL     1      21.627 -41.405  -7.482  1.00  0.00     0.054 C 
HETATM    6  C6  UNL     1      22.891 -42.170  -7.590  1.00  0.00    -0.002 C 
HETATM    7  C5  UNL     1      24.083 -41.301  -7.644  1.00  0.00     0.246 C 
HETATM    8  N1  UNL     1      23.858 -39.928  -7.883  1.00  0.00    -0.325 N 
HETATM    9  O3  UNL     1      25.247 -41.697  -7.495  1.00  0.00    -0.268 OA
HETATM   10  C4  UNL     1      22.759 -39.208  -7.210  1.00  0.00     0.147 C 
ATOM     11  H1  UNL     1      24.464 -39.425  -8.531  1.00  0.00     0.165 HD
HETATM   12  C13 UNL     1      21.632 -40.076  -6.804  1.00  0.00     0.078 C 
BRANCH   6  13
HETATM   13  C7  UNL     1      23.045 -43.396  -6.780  1.00  0.00     0.066 C 
BRANCH  13  14
HETATM   14  C8  UNL     1      23.415 -43.291  -5.358  1.00  0.00     0.168 C 
BRANCH  14  15
HETATM   15  O4  UNL     1      24.818 -43.459  -5.191  1.00  0.00    -0.401 OA
ATOM     16  H4  UNL     1      25.287 -43.127  -5.947  1.00  0.00     0.209 HD
ENDBRANCH  14  15
ENDBRANCH  13  14
ENDBRANCH   6  13
BRANCH  10  17
HETATM   17  C3  UNL     1      23.451 -38.452  -6.099  1.00  0.00     0.139 C 
BRANCH  17  18
HETATM   18  C2  UNL     1      24.496 -37.561  -6.705  1.00  0.00     0.127 C 
HETATM   19  C1  UNL     1      24.465 -36.088  -6.581  1.00  0.00     0.091 C 
HETATM   20  O1  UNL     1      25.408 -38.068  -7.326  1.00  0.00    -0.298 OA
ENDBRANCH  17  18
ENDBRANCH  10  17
BRANCH  10  21
HETATM   21  O2  UNL     1      22.362 -38.235  -8.134  1.00  0.00    -0.370 OA
ATOM     22  H2  UNL     1      23.166 -37.838  -8.447  1.00  0.00     0.212 HD
ENDBRANCH  10  21
BRANCH  12  23
HETATM   23  C14 UNL     1      21.262 -40.072  -5.358  1.00  0.00     0.189 C 
BRANCH  23  24
HETATM   24  O5  UNL     1      20.106 -39.350  -5.066  1.00  0.00    -0.320 OA
BRANCH  24  25
HETATM   25  C15 UNL     1      18.984 -39.760  -4.386  1.00  0.00     0.266 C 
HETATM   26  O6  UNL     1      19.044 -39.814  -3.125  1.00  0.00    -0.264 OA
BRANCH  25  27
HETATM   27  C16 UNL     1      17.715 -40.137  -5.072  1.00  0.00     0.037 C 
HETATM   28  C17 UNL     1      17.388 -41.603  -4.930  1.00  0.00     0.025 C 
HETATM   29  C18 UNL     1      17.773 -39.745  -6.543  1.00  0.00     0.025 C 
HETATM   30  C19 UNL     1      16.580 -39.355  -4.460  1.00  0.00     0.025 C 
ENDBRANCH  25  27
ENDBRANCH  24  25
ENDBRANCH  23  24
ENDBRANCH  12  23
ENDBRANCH   1   5
TORSDOF 11
ENDMDL
MODEL 2
REMARK VINA RESULT: -7.511374972      2.490      5.549
REMARK  11 active torsions:
REMARK  status: ('A' for Active; 'I' for Inactive)
REMARK    1  A    between atoms: C2_2  and  C3_4 
REMARK    2  A    between atoms: C3_4  and  C4_5 
REMARK    3  A    between atoms: C4_5  and  O2_6 
REMARK    4  A    between atoms: C6_12  and  C7_13 
REMARK    5  A    between atoms: C7_13  and  C8_14 
REMARK    6  A    between atoms: C8_14  and  O4_15 
REMARK    7  A    between atoms: C9_17  and  C10_18 
REMARK    8  A    between atoms: C13_22  and  C14_23 
REMARK    9  A    between atoms: C14_23  and  O5_24 
REMARK   10  A    between atoms: O5_24  and  C15_25 
REMARK   11  A    between atoms: C15_25  and  C16_27 
ROOT
HETATM    1  C10 UNL     1      23.506 -42.052  -7.175  1.00  0.00    -0.006 C 
HETATM    2  C11 UNL     1      24.292 -42.495  -6.228  1.00  0.00     0.090 C 
HETATM    3  C12 UNL     1      23.773 -43.312  -5.178  1.00  0.00     0.087 C 
HETATM    4  N2  UNL     1      23.351 -43.988  -4.315  1.00  0.00    -0.192 NA
ENDROOT
BRANCH   1   5
HETATM    5  C9  UNL     1      22.057 -42.387  -7.182  1.00  0.00     0.054 C 
HETATM    6  C6  UNL     1      21.749 -43.222  -8.366  1.00  0.00    -0.002 C 
HETATM    7  C5  UNL     1      20.309 -43.242  -8.693  1.00  0.00     0.246 C 
HETATM    8  N1  UNL     1      19.428 -42.742  -7.710  1.00  0.00    -0.325 N 
HETATM    9  O3  UNL     1      19.838 -43.663  -9.757  1.00  0.00    -0.268 OA
HETATM   10  C4  UNL     1      19.741 -41.508  -6.962  1.00  0.00     0.147 C 
ATOM     11  H1  UNL     1      18.561 -43.241  -7.513  1.00  0.00     0.165 HD
HETATM   12  C13 UNL     1      21.188 -41.215  -6.866  1.00  0.00     0.078 C 
BRANCH   6  13
HETATM   13  C7  UNL     1      22.656 -43.157  -9.531  1.00  0.00     0.066 C 
BRANCH  13  14
HETATM   14  C8  UNL     1      23.093 -44.401 -10.187  1.00  0.00     0.168 C 
BRANCH  14  15
HETATM   15  O4  UNL     1      22.162 -44.793 -11.190  1.00  0.00    -0.401 OA
ATOM     16  H4  UNL     1      21.614 -45.503 -10.879  1.00  0.00     0.209 HD
ENDBRANCH  14  15
ENDBRANCH  13  14
ENDBRANCH   6  13
BRANCH  10  17
HETATM   17  C3  UNL     1      18.891 -40.454  -7.633  1.00  0.00     0.139 C 
BRANCH  17  18
HETATM   18  C2  UNL     1      18.033 -39.797  -6.591  1.00  0.00     0.127 C 
HETATM   19  C1  UNL     1      16.568 -39.980  -6.527  1.00  0.00     0.091 C 
HETATM   20  O1  UNL     1      18.561 -39.084  -5.763  1.00  0.00    -0.298 OA
ENDBRANCH  17  18
ENDBRANCH  10  17
BRANCH  10  21
HETATM   21  O2  UNL     1      19.165 -41.709  -5.702  1.00  0.00    -0.370 OA
ATOM     22  H2  UNL     1      19.112 -40.847  -5.307  1.00  0.00     0.212 HD
ENDBRANCH  10  21
BRANCH  12  23
HETATM   23  C14 UNL     1      21.646 -39.894  -7.388  1.00  0.00     0.189 C 
BRANCH  23  24
HETATM   24  O5  UNL     1      22.086 -39.012  -6.403  1.00  0.00    -0.320 OA
BRANCH  24  25
HETATM   25  C15 UNL     1      23.308 -38.393  -6.284  1.00  0.00     0.266 C 
HETATM   26  O6  UNL     1      24.076 -38.777  -5.358  1.00  0.00    -0.264 OA
BRANCH  25  27
HETATM   27  C16 UNL     1      23.754 -37.301  -7.196  1.00  0.00     0.037 C 
HETATM   28  C17 UNL     1      24.588 -36.258  -6.494  1.00  0.00     0.025 C 
HETATM   29  C18 UNL     1      22.552 -36.654  -7.873  1.00  0.00     0.025 C 
HETATM   30  C19 UNL     1      24.599 -37.898  -8.293  1.00  0.00     0.025 C 
ENDBRANCH  25  27
ENDBRANCH  24  25
ENDBRANCH  23  24
ENDBRANCH  12  23
ENDBRANCH   1   5
TORSDOF 11
ENDMDL
MODEL 3
REMARK VINA RESULT: -7.445873399      1.346      1.429
REMARK  11 active torsions:
REMARK  status: ('A' for Active; 'I' for Inactive)
REMARK    1  A    between atoms: C2_2  and  C3_4 
REMARK    2  A    between atoms: C3_4  and  C4_5 
REMARK    3  A    between atoms: C4_5  and  O2_6 
REMARK    4  A    between atoms: C6_12  and  C7_13 
REMARK    5  A    between atoms: C7_13  and  C8_14 
REMARK    6  A    between atoms: C8_14  and  O4_15 
REMARK    7  A    between atoms: C9_17  and  C10_18 
REMARK    8  A    between atoms: C13_22  and  C14_23 
REMARK    9  A    between atoms: C14_23  and  O5_24 
REMARK   10  A    between atoms: O5_24  and  C15_25 
REMARK   11  A    between atoms: C15_25  and  C16_27 
ROOT
HETATM    1  C10 UNL     1      20.256 -42.154  -7.325  1.00  0.00    -0.006 C 
HETATM    2  C11 UNL     1      19.645 -42.791  -8.291  1.00  0.00     0.090 C 
HETATM    3  C12 UNL     1      20.298 -43.011  -9.542  1.00  0.00     0.087 C 
HETATM    4  N2  UNL     1      20.834 -43.198 -10.570  1.00  0.00    -0.192 NA
ENDROOT
BRANCH   1   5
HETATM    5  C9  UNL     1      21.641 -41.644  -7.506  1.00  0.00     0.054 C 
HETATM    6  C6  UNL     1      22.606 -42.642  -6.991  1.00  0.00    -0.002 C 
HETATM    7  C5  UNL     1      23.941 -42.067  -6.730  1.00  0.00     0.246 C 
HETATM    8  N1  UNL     1      24.195 -40.785  -7.265  1.00  0.00    -0.325 N 
HETATM    9  O3  UNL     1      24.832 -42.631  -6.082  1.00  0.00    -0.268 OA
HETATM   10  C4  UNL     1      23.181 -39.715  -7.196  1.00  0.00     0.147 C 
ATOM     11  H1  UNL     1      25.095 -40.596  -7.707  1.00  0.00     0.165 HD
HETATM   12  C13 UNL     1      21.790 -40.211  -7.112  1.00  0.00     0.078 C 
BRANCH   6  13
HETATM   13  C7  UNL     1      22.139 -43.623  -5.989  1.00  0.00     0.066 C 
BRANCH  13  14
HETATM   14  C8  UNL     1      21.859 -45.010  -6.400  1.00  0.00     0.168 C 
BRANCH  14  15
HETATM   15  O4  UNL     1      20.523 -45.371  -6.068  1.00  0.00    -0.401 OA
ATOM     16  H4  UNL     1      19.959 -45.302  -6.829  1.00  0.00     0.209 HD
ENDBRANCH  14  15
ENDBRANCH  13  14
ENDBRANCH   6  13
BRANCH  10  17
HETATM   17  C3  UNL     1      23.649 -38.849  -6.049  1.00  0.00     0.139 C 
BRANCH  17  18
HETATM   18  C2  UNL     1      24.745 -37.951  -6.545  1.00  0.00     0.127 C 
HETATM   19  C1  UNL     1      24.677 -36.477  -6.454  1.00  0.00     0.091 C 
HETATM   20  O1  UNL     1      25.732 -38.452  -7.043  1.00  0.00    -0.298 OA
ENDBRANCH  17  18
ENDBRANCH  10  17
BRANCH  10  21
HETATM   21  O2  UNL     1      23.396 -38.956  -8.352  1.00  0.00    -0.370 OA
ATOM     22  H2  UNL     1      23.076 -38.086  -8.147  1.00  0.00     0.212 HD
ENDBRANCH  10  21
BRANCH  12  23
HETATM   23  C14 UNL     1      20.981 -39.762  -5.941  1.00  0.00     0.189 C 
BRANCH  23  24
HETATM   24  O5  UNL     1      19.859 -39.007  -6.278  1.00  0.00    -0.320 OA
BRANCH  24  25
HETATM   25  C15 UNL     1      18.715 -38.791  -5.547  1.00  0.00     0.266 C 
HETATM   26  O6  UNL     1      18.694 -37.801  -4.762  1.00  0.00    -0.264 OA
BRANCH  25  27
HETATM   27  C16 UNL     1      17.514 -39.670  -5.644  1.00  0.00     0.037 C 
HETATM   28  C17 UNL     1      17.667 -40.954  -4.868  1.00  0.00     0.025 C 
HETATM   29  C18 UNL     1      17.194 -39.966  -7.104  1.00  0.00     0.025 C 
HETATM   30  C19 UNL     1      16.326 -38.934  -5.080  1.00  0.00     0.025 C 
ENDBRANCH  25  27
ENDBRANCH  24  25
ENDBRANCH  23  24
ENDBRANCH  12  23
ENDBRANCH   1   5
TORSDOF 11
ENDMDL
MODEL 4
REMARK VINA RESULT: -7.442030382      2.026      2.734
REMARK  11 active torsions:
REMARK  status: ('A' for Active; 'I' for Inactive)
REMARK    1  A    between atoms: C2_2  and  C3_4 
REMARK    2  A    between atoms: C3_4  and  C4_5 
REMARK    3  A    between atoms: C4_5  and  O2_6 
REMARK    4  A    between atoms: C6_12  and  C7_13 
REMARK    5  A    between atoms: C7_13  and  C8_14 
REMARK    6  A    between atoms: C8_14  and  O4_15 
REMARK    7  A    between atoms: C9_17  and  C10_18 
REMARK    8  A    between atoms: C13_22  and  C14_23 
REMARK    9  A    between atoms: C14_23  and  O5_24 
REMARK   10  A    between atoms: O5_24  and  C15_25 
REMARK   11  A    between atoms: C15_25  and  C16_27 
ROOT
HETATM    1  C10 UNL     1      20.983 -42.814  -8.630  1.00  0.00    -0.006 C 
HETATM    2  C11 UNL     1      20.943 -43.298  -9.846  1.00  0.00     0.090 C 
HETATM    3  C12 UNL     1      22.150 -43.611 -10.543  1.00  0.00     0.087 C 
HETATM    4  N2  UNL     1      23.140 -43.873 -11.117  1.00  0.00    -0.192 NA
ENDROOT
BRANCH   1   5
HETATM    5  C9  UNL     1      22.283 -42.579  -7.947  1.00  0.00     0.054 C 
HETATM    6  C6  UNL     1      22.456 -43.571  -6.860  1.00  0.00    -0.002 C 
HETATM    7  C5  UNL     1      23.475 -43.165  -5.872  1.00  0.00     0.246 C 
HETATM    8  N1  UNL     1      24.320 -42.094  -6.235  1.00  0.00    -0.325 N 
HETATM    9  O3  UNL     1      23.628 -43.697  -4.765  1.00  0.00    -0.268 OA
HETATM   10  C4  UNL     1      23.785 -40.893  -6.905  1.00  0.00     0.147 C 
ATOM     11  H1  UNL     1      25.318 -42.152  -6.031  1.00  0.00     0.165 HD
HETATM   12  C13 UNL     1      22.541 -41.136  -7.668  1.00  0.00     0.078 C 
BRANCH   6  13
HETATM   13  C7  UNL     1      21.252 -44.214  -6.294  1.00  0.00     0.066 C 
BRANCH  13  14
HETATM   14  C8  UNL     1      21.002 -45.644  -6.542  1.00  0.00     0.168 C 
BRANCH  14  15
HETATM   15  O4  UNL     1      19.703 -45.839  -7.088  1.00  0.00    -0.401 OA
ATOM     16  H4  UNL     1      19.749 -45.950  -8.030  1.00  0.00     0.209 HD
ENDBRANCH  14  15
ENDBRANCH  13  14
ENDBRANCH   6  13
BRANCH  10  17
HETATM   17  C3  UNL     1      23.695 -39.871  -5.795  1.00  0.00     0.139 C 
BRANCH  17  18
HETATM   18  C2  UNL     1      24.944 -39.037  -5.812  1.00  0.00     0.127 C 
HETATM   19  C1  UNL     1      24.954 -37.617  -6.223  1.00  0.00     0.091 C 
HETATM   20  O1  UNL     1      25.993 -39.546  -5.474  1.00  0.00    -0.298 OA
ENDBRANCH  17  18
ENDBRANCH  10  17
BRANCH  10  21
HETATM   21  O2  UNL     1      24.828 -40.460  -7.731  1.00  0.00    -0.370 OA
ATOM     22  H2  UNL     1      25.021 -41.193  -8.302  1.00  0.00     0.212 HD
ENDBRANCH  10  21
BRANCH  12  23
HETATM   23  C14 UNL     1      21.351 -40.312  -7.303  1.00  0.00     0.189 C 
BRANCH  23  24
HETATM   24  O5  UNL     1      20.755 -40.673  -6.097  1.00  0.00    -0.320 OA
BRANCH  24  25
HETATM   25  C15 UNL     1      19.554 -40.259  -5.572  1.00  0.00     0.266 C 
HETATM   26  O6  UNL     1      18.503 -40.827  -5.982  1.00  0.00    -0.264 OA
BRANCH  25  27
HETATM   27  C16 UNL     1      19.447 -39.179  -4.550  1.00  0.00     0.037 C 
HETATM   28  C17 UNL     1      20.778 -38.546  -4.227  1.00  0.00     0.025 C 
HETATM   29  C18 UNL     1      18.792 -39.714  -3.283  1.00  0.00     0.025 C 
HETATM   30  C19 UNL     1      18.543 -38.095  -5.080  1.00  0.00     0.025 C 
ENDBRANCH  25  27
ENDBRANCH  24  25
ENDBRANCH  23  24
ENDBRANCH  12  23
ENDBRANCH   1   5
TORSDOF 11
ENDMDL
MODEL 5
REMARK VINA RESULT: -7.404815939      3.095      6.474
REMARK  11 active torsions:
REMARK  status: ('A' for Active; 'I' for Inactive)
REMARK    1  A    between atoms: C2_2  and  C3_4 
REMARK    2  A    between atoms: C3_4  and  C4_5 
REMARK    3  A    between atoms: C4_5  and  O2_6 
REMARK    4  A    between atoms: C6_12  and  C7_13 
REMARK    5  A    between atoms: C7_13  and  C8_14 
REMARK    6  A    between atoms: C8_14  and  O4_15 
REMARK    7  A    between atoms: C9_17  and  C10_18 
REMARK    8  A    between atoms: C13_22  and  C14_23 
REMARK    9  A    between atoms: C14_23  and  O5_24 
REMARK   10  A    between atoms: O5_24  and  C15_25 
REMARK   11  A    between atoms: C15_25  and  C16_27 
ROOT
HETATM    1  C10 UNL     1      17.273 -41.453  -4.313  1.00  0.00    -0.006 C 
HETATM    2  C11 UNL     1      16.950 -42.232  -3.313  1.00  0.00     0.090 C 
HETATM    3  C12 UNL     1      17.346 -41.906  -1.981  1.00  0.00     0.087 C 
HETATM    4  N2  UNL     1      17.667 -41.639  -0.883  1.00  0.00    -0.192 NA
ENDROOT
BRANCH   1   5
HETATM    5  C9  UNL     1      18.060 -40.211  -4.087  1.00  0.00     0.054 C 
HETATM    6  C6  UNL     1      17.156 -39.038  -4.136  1.00  0.00    -0.002 C 
HETATM    7  C5  UNL     1      17.878 -37.768  -4.354  1.00  0.00     0.246 C 
HETATM    8  N1  UNL     1      19.280 -37.798  -4.187  1.00  0.00    -0.325 N 
HETATM    9  O3  UNL     1      17.337 -36.700  -4.667  1.00  0.00    -0.268 OA
HETATM   10  C4  UNL     1      20.086 -38.914  -4.718  1.00  0.00     0.147 C 
ATOM     11  H1  UNL     1      19.742 -37.036  -3.692  1.00  0.00     0.165 HD
HETATM   12  C13 UNL     1      19.338 -40.183  -4.857  1.00  0.00     0.078 C 
BRANCH   6  13
HETATM   13  C7  UNL     1      15.876 -39.164  -4.863  1.00  0.00     0.066 C 
BRANCH  13  14
HETATM   14  C8  UNL     1      14.649 -38.585  -4.287  1.00  0.00     0.168 C 
BRANCH  14  15
HETATM   15  O4  UNL     1      14.361 -37.326  -4.885  1.00  0.00    -0.401 OA
ATOM     16  H4  UNL     1      15.040 -36.695  -4.679  1.00  0.00     0.209 HD
ENDBRANCH  14  15
ENDBRANCH  13  14
ENDBRANCH   6  13
BRANCH  10  17
HETATM   17  C3  UNL     1      20.688 -38.354  -5.985  1.00  0.00     0.139 C 
BRANCH  17  18
HETATM   18  C2  UNL     1      22.179 -38.518  -5.920  1.00  0.00     0.127 C 
HETATM   19  C1  UNL     1      22.881 -39.698  -6.468  1.00  0.00     0.091 C 
HETATM   20  O1  UNL     1      22.842 -37.646  -5.396  1.00  0.00    -0.298 OA
ENDBRANCH  17  18
ENDBRANCH  10  17
BRANCH  10  21
HETATM   21  O2  UNL     1      21.152 -39.033  -3.817  1.00  0.00    -0.370 OA
ATOM     22  H2  UNL     1      21.732 -39.683  -4.195  1.00  0.00     0.212 HD
ENDBRANCH  10  21
BRANCH  12  23
HETATM   23  C14 UNL     1      19.303 -40.801  -6.215  1.00  0.00     0.189 C 
BRANCH  23  24
HETATM   24  O5  UNL     1      20.149 -41.898  -6.365  1.00  0.00    -0.320 OA
BRANCH  24  25
HETATM   25  C15 UNL     1      20.714 -42.399  -7.513  1.00  0.00     0.266 C 
HETATM   26  O6  UNL     1      20.336 -41.915  -8.617  1.00  0.00    -0.264 OA
BRANCH  25  27
HETATM   27  C16 UNL     1      21.744 -43.477  -7.506  1.00  0.00     0.037 C 
HETATM   28  C17 UNL     1      22.628 -43.449  -8.728  1.00  0.00     0.025 C 
HETATM   29  C18 UNL     1      21.080 -44.841  -7.361  1.00  0.00     0.025 C 
HETATM   30  C19 UNL     1      22.630 -43.296  -6.299  1.00  0.00     0.025 C 
ENDBRANCH  25  27
ENDBRANCH  24  25
ENDBRANCH  23  24
ENDBRANCH  12  23
ENDBRANCH   1   5
TORSDOF 11
ENDMDL
