MODEL 1
REMARK VINA RESULT: -7.799128953      0.000      0.000
REMARK  8 active torsions:
REMARK  status: ('A' for Active; 'I' for Inactive)
REMARK    1  A    between atoms: C3_4  and  S2_5 
REMARK    2  A    between atoms: S2_5  and  N1_8 
REMARK    3  A    between atoms: C6_11  and  C7_12 
REMARK    4  A    between atoms: C7_12  and  O4_14 
REMARK    5  A    between atoms: O4_14  and  C8_15 
REMARK    6  A    between atoms: C8_15  and  C10_17 
REMARK    7  A    between atoms: C10_17  and  C11_18 
REMARK    8  A    between atoms: C11_18  and  N2_19 
ROOT
HETATM    1  C1  UNL     1      18.899 -38.906  -5.832  1.00  0.00     0.058 C 
HETATM    2  C2  UNL     1      20.191 -39.563  -6.260  1.00  0.00     0.005 A 
HETATM    3  S1  UNL     1      21.718 -38.866  -6.419  1.00  0.00    -0.079 SA
HETATM    4  C3  UNL     1      22.616 -40.270  -6.941  1.00  0.00     0.134 A 
HETATM    5  C6  UNL     1      21.657 -41.231  -6.967  1.00  0.00     0.094 A 
HETATM    6  C13 UNL     1      20.396 -40.859  -6.612  1.00  0.00     0.077 A 
HETATM    7  N5  UNL     1      19.246 -41.767  -6.584  1.00  0.00    -0.100 NA
ENDROOT
BRANCH   5   8
HETATM    8  C7  UNL     1      21.935 -42.644  -7.364  1.00  0.00     0.297 C 
HETATM    9  O3  UNL     1      22.460 -43.464  -6.614  1.00  0.00    -0.259 OA
BRANCH   8  10
HETATM   10  O4  UNL     1      21.613 -43.129  -8.635  1.00  0.00    -0.312 OA
BRANCH  10  11
HETATM   11  C8  UNL     1      21.756 -44.503  -8.976  1.00  0.00     0.129 C 
HETATM   12  C9  UNL     1      22.604 -44.619 -10.217  1.00  0.00     0.040 C 
BRANCH  11  13
HETATM   13  C10 UNL     1      20.446 -45.194  -9.100  1.00  0.00     0.051 C 
BRANCH  13  14
HETATM   14  C11 UNL     1      20.280 -45.994 -10.351  1.00  0.00     0.124 C 
BRANCH  14  15
HETATM   15  N2  UNL     1      18.916 -46.264 -10.728  1.00  0.00    -0.367 N 
HETATM   16  C12 UNL     1      18.688 -47.290 -11.473  1.00  0.00     0.196 C 
HETATM   17  N3  UNL     1      19.731 -48.145 -11.922  1.00  0.00    -0.067 NA
HETATM   18  N4  UNL     1      17.342 -47.577 -11.860  1.00  0.00    -0.067 NA
ATOM     19  H2  UNL     1      18.154 -45.661 -10.415  1.00  0.00     0.161 HD
ENDBRANCH  14  15
ENDBRANCH  13  14
ENDBRANCH  11  13
ENDBRANCH  10  11
ENDBRANCH   8  10
ENDBRANCH   5   8
BRANCH   4  20
HETATM   20  S2  UNL     1      24.336 -40.236  -7.300  1.00  0.00     0.250 S 
HETATM   21  O1  UNL     1      24.830 -38.986  -7.906  1.00  0.00    -0.205 OA
HETATM   22  O2  UNL     1      24.644 -41.426  -8.219  1.00  0.00    -0.205 OA
BRANCH  20  23
HETATM   23  N1  UNL     1      25.198 -40.549  -5.848  1.00  0.00    -0.214 NA
HETATM   24  C4  UNL     1      26.078 -41.681  -6.001  1.00  0.00     0.129 C 
HETATM   25  C5  UNL     1      25.967 -39.388  -5.473  1.00  0.00     0.129 C 
ENDBRANCH  20  23
ENDBRANCH   4  20
TORSDOF 8
ENDMDL
MODEL 2
REMARK VINA RESULT: -7.791373191      1.710      2.189
REMARK  8 active torsions:
REMARK  status: ('A' for Active; 'I' for Inactive)
REMARK    1  A    between atoms: C3_4  and  S2_5 
REMARK    2  A    between atoms: S2_5  and  N1_8 
REMARK    3  A    between atoms: C6_11  and  C7_12 
REMARK    4  A    between atoms: C7_12  and  O4_14 
REMARK    5  A    between atoms: O4_14  and  C8_15 
REMARK    6  A    between atoms: C8_15  and  C10_17 
REMARK    7  A    between atoms: C10_17  and  C11_18 
REMARK    8  A    between atoms: C11_18  and  N2_19 
ROOT
HETATM    1  C1  UNL     1      18.912 -38.911  -6.011  1.00  0.00     0.058 C 
HETATM    2  C2  UNL     1      20.236 -39.528  -6.398  1.00  0.00     0.005 A 
HETATM    3  S1  UNL     1      21.753 -38.796  -6.464  1.00  0.00    -0.079 SA
HETATM    4  C3  UNL     1      22.705 -40.164  -6.986  1.00  0.00     0.134 A 
HETATM    5  C6  UNL     1      21.769 -41.144  -7.084  1.00  0.00     0.094 A 
HETATM    6  C13 UNL     1      20.486 -40.809  -6.778  1.00  0.00     0.077 A 
HETATM    7  N5  UNL     1      19.355 -41.740  -6.830  1.00  0.00    -0.100 NA
ENDROOT
BRANCH   5   8
HETATM    8  C7  UNL     1      22.096 -42.538  -7.510  1.00  0.00     0.297 C 
HETATM    9  O3  UNL     1      22.602 -43.370  -6.760  1.00  0.00    -0.259 OA
BRANCH   8  10
HETATM   10  O4  UNL     1      21.845 -42.990  -8.809  1.00  0.00    -0.312 OA
BRANCH  10  11
HETATM   11  C8  UNL     1      22.536 -44.102  -9.368  1.00  0.00     0.129 C 
HETATM   12  C9  UNL     1      23.568 -43.602 -10.345  1.00  0.00     0.040 C 
BRANCH  11  13
HETATM   13  C10 UNL     1      21.610 -45.103  -9.959  1.00  0.00     0.051 C 
BRANCH  13  14
HETATM   14  C11 UNL     1      20.943 -45.996  -8.964  1.00  0.00     0.124 C 
BRANCH  14  15
HETATM   15  N2  UNL     1      19.799 -45.424  -8.299  1.00  0.00    -0.367 N 
HETATM   16  C12 UNL     1      19.726 -45.541  -7.017  1.00  0.00     0.196 C 
HETATM   17  N3  UNL     1      20.728 -46.208  -6.261  1.00  0.00    -0.067 NA
HETATM   18  N4  UNL     1      18.601 -44.981  -6.337  1.00  0.00    -0.067 NA
ATOM     19  H2  UNL     1      19.071 -44.940  -8.825  1.00  0.00     0.161 HD
ENDBRANCH  14  15
ENDBRANCH  13  14
ENDBRANCH  11  13
ENDBRANCH  10  11
ENDBRANCH   8  10
ENDBRANCH   5   8
BRANCH   4  20
HETATM   20  S2  UNL     1      24.438 -40.084  -7.262  1.00  0.00     0.250 S 
HETATM   21  O1  UNL     1      24.935 -38.800  -7.790  1.00  0.00    -0.205 OA
HETATM   22  O2  UNL     1      24.811 -41.226  -8.218  1.00  0.00    -0.205 OA
BRANCH  20  23
HETATM   23  N1  UNL     1      25.240 -40.447  -5.788  1.00  0.00    -0.214 NA
HETATM   24  C4  UNL     1      26.091 -41.602  -5.930  1.00  0.00     0.129 C 
HETATM   25  C5  UNL     1      26.029 -39.316  -5.367  1.00  0.00     0.129 C 
ENDBRANCH  20  23
ENDBRANCH   4  20
TORSDOF 8
ENDMDL
MODEL 3
REMARK VINA RESULT: -7.758435192      0.881      1.061
REMARK  8 active torsions:
REMARK  status: ('A' for Active; 'I' for Inactive)
REMARK    1  A    between atoms: C3_4  and  S2_5 
REMARK    2  A    between atoms: S2_5  and  N1_8 
REMARK    3  A    between atoms: C6_11  and  C7_12 
REMARK    4  A    between atoms: C7_12  and  O4_14 
REMARK    5  A    between atoms: O4_14  and  C8_15 
REMARK    6  A    between atoms: C8_15  and  C10_17 
REMARK    7  A    between atoms: C10_17  and  C11_18 
REMARK    8  A    between atoms: C11_18  and  N2_19 
ROOT
HETATM    1  C1  UNL     1      18.778 -39.484  -5.531  1.00  0.00     0.058 C 
HETATM    2  C2  UNL     1      20.100 -40.087  -5.948  1.00  0.00     0.005 A 
HETATM    3  S1  UNL     1      21.646 -39.436  -5.782  1.00  0.00    -0.079 SA
HETATM    4  C3  UNL     1      22.576 -40.732  -6.496  1.00  0.00     0.134 A 
HETATM    5  C6  UNL     1      21.609 -41.625  -6.834  1.00  0.00     0.094 A 
HETATM    6  C13 UNL     1      20.323 -41.286  -6.548  1.00  0.00     0.077 A 
HETATM    7  N5  UNL     1      19.162 -42.130  -6.843  1.00  0.00    -0.100 NA
ENDROOT
BRANCH   5   8
HETATM    8  C7  UNL     1      21.909 -42.930  -7.495  1.00  0.00     0.297 C 
HETATM    9  O3  UNL     1      22.124 -43.968  -6.872  1.00  0.00    -0.259 OA
BRANCH   8  10
HETATM   10  O4  UNL     1      21.965 -43.056  -8.887  1.00  0.00    -0.312 OA
BRANCH  10  11
HETATM   11  C8  UNL     1      21.834 -44.315  -9.536  1.00  0.00     0.129 C 
HETATM   12  C9  UNL     1      22.820 -44.389 -10.674  1.00  0.00     0.040 C 
BRANCH  11  13
HETATM   13  C10 UNL     1      20.435 -44.591  -9.958  1.00  0.00     0.051 C 
BRANCH  13  14
HETATM   14  C11 UNL     1      20.174 -46.007 -10.357  1.00  0.00     0.124 C 
BRANCH  14  15
HETATM   15  N2  UNL     1      18.817 -46.290 -10.750  1.00  0.00    -0.367 N 
HETATM   16  C12 UNL     1      18.609 -47.317 -11.501  1.00  0.00     0.196 C 
HETATM   17  N3  UNL     1      19.667 -48.159 -11.942  1.00  0.00    -0.067 NA
HETATM   18  N4  UNL     1      17.271 -47.618 -11.903  1.00  0.00    -0.067 NA
ATOM     19  H2  UNL     1      18.045 -45.698 -10.443  1.00  0.00     0.161 HD
ENDBRANCH  14  15
ENDBRANCH  13  14
ENDBRANCH  11  13
ENDBRANCH  10  11
ENDBRANCH   8  10
ENDBRANCH   5   8
BRANCH   4  20
HETATM   20  S2  UNL     1      24.326 -40.693  -6.647  1.00  0.00     0.250 S 
HETATM   21  O1  UNL     1      24.843 -40.816  -8.023  1.00  0.00    -0.205 OA
HETATM   22  O2  UNL     1      24.894 -41.816  -5.768  1.00  0.00    -0.205 OA
BRANCH  20  23
HETATM   23  N1  UNL     1      24.898 -39.234  -5.946  1.00  0.00    -0.214 NA
HETATM   24  C4  UNL     1      26.134 -39.449  -5.236  1.00  0.00     0.129 C 
HETATM   25  C5  UNL     1      25.100 -38.242  -6.974  1.00  0.00     0.129 C 
ENDBRANCH  20  23
ENDBRANCH   4  20
TORSDOF 8
ENDMDL
MODEL 4
REMARK VINA RESULT: -7.599655843      2.575      3.334
REMARK  8 active torsions:
REMARK  status: ('A' for Active; 'I' for Inactive)
REMARK    1  A    between atoms: C3_4  and  S2_5 
REMARK    2  A    between atoms: S2_5  and  N1_8 
REMARK    3  A    between atoms: C6_11  and  C7_12 
REMARK    4  A    between atoms: C7_12  and  O4_14 
REMARK    5  A    between atoms: O4_14  and  C8_15 
REMARK    6  A    between atoms: C8_15  and  C10_17 
REMARK    7  A    between atoms: C10_17  and  C11_18 
REMARK    8  A    between atoms: C11_18  and  N2_19 
ROOT
HETATM    1  C1  UNL     1      18.379 -38.587  -3.940  1.00  0.00     0.058 C 
HETATM    2  C2  UNL     1      19.528 -39.153  -4.742  1.00  0.00     0.005 A 
HETATM    3  S1  UNL     1      21.136 -38.650  -4.768  1.00  0.00    -0.079 SA
HETATM    4  C3  UNL     1      21.774 -39.798  -5.920  1.00  0.00     0.134 A 
HETATM    5  C6  UNL     1      20.674 -40.531  -6.232  1.00  0.00     0.094 A 
HETATM    6  C13 UNL     1      19.507 -40.193  -5.618  1.00  0.00     0.077 A 
HETATM    7  N5  UNL     1      18.230 -40.877  -5.838  1.00  0.00    -0.100 NA
ENDROOT
BRANCH   5   8
HETATM    8  C7  UNL     1      20.705 -41.665  -7.205  1.00  0.00     0.297 C 
HETATM    9  O3  UNL     1      20.672 -41.508  -8.423  1.00  0.00    -0.259 OA
BRANCH   8  10
HETATM   10  O4  UNL     1      20.774 -42.996  -6.784  1.00  0.00    -0.312 OA
BRANCH  10  11
HETATM   11  C8  UNL     1      19.989 -44.019  -7.384  1.00  0.00     0.129 C 
HETATM   12  C9  UNL     1      18.860 -44.385  -6.455  1.00  0.00     0.040 C 
BRANCH  11  13
HETATM   13  C10 UNL     1      20.807 -45.190  -7.798  1.00  0.00     0.051 C 
BRANCH  13  14
HETATM   14  C11 UNL     1      21.611 -44.978  -9.039  1.00  0.00     0.124 C 
BRANCH  14  15
HETATM   15  N2  UNL     1      22.723 -44.073  -8.900  1.00  0.00    -0.367 N 
HETATM   16  C12 UNL     1      23.244 -43.589  -9.975  1.00  0.00     0.196 C 
HETATM   17  N3  UNL     1      22.756 -43.920 -11.268  1.00  0.00    -0.067 NA
HETATM   18  N4  UNL     1      24.349 -42.689  -9.861  1.00  0.00    -0.067 NA
ATOM     19  H2  UNL     1      23.087 -43.823  -7.980  1.00  0.00     0.161 HD
ENDBRANCH  14  15
ENDBRANCH  13  14
ENDBRANCH  11  13
ENDBRANCH  10  11
ENDBRANCH   8  10
ENDBRANCH   5   8
BRANCH   4  20
HETATM   20  S2  UNL     1      23.457 -39.828  -6.421  1.00  0.00     0.250 S 
HETATM   21  O1  UNL     1      23.694 -39.575  -7.855  1.00  0.00    -0.205 OA
HETATM   22  O2  UNL     1      24.038 -41.192  -6.024  1.00  0.00    -0.205 OA
BRANCH  20  23
HETATM   23  N1  UNL     1      24.322 -38.677  -5.485  1.00  0.00    -0.214 NA
HETATM   24  C4  UNL     1      25.654 -39.143  -5.190  1.00  0.00     0.129 C 
HETATM   25  C5  UNL     1      24.397 -37.423  -6.195  1.00  0.00     0.129 C 
ENDBRANCH  20  23
ENDBRANCH   4  20
TORSDOF 8
ENDMDL
MODEL 5
REMARK VINA RESULT: -7.591538440      3.052      6.946
REMARK  8 active torsions:
REMARK  status: ('A' for Active; 'I' for Inactive)
REMARK    1  A    between atoms: C3_4  and  S2_5 
REMARK    2  A    between atoms: S2_5  and  N1_8 
REMARK    3  A    between atoms: C6_11  and  C7_12 
REMARK    4  A    between atoms: C7_12  and  O4_14 
REMARK    5  A    between atoms: O4_14  and  C8_15 
REMARK    6  A    between atoms: C8_15  and  C10_17 
REMARK    7  A    between atoms: C10_17  and  C11_18 
REMARK    8  A    between atoms: C11_18  and  N2_19 
ROOT
HETATM    1  C1  UNL     1      24.812 -40.104  -6.522  1.00  0.00     0.058 C 
HETATM    2  C2  UNL     1      23.707 -40.946  -7.118  1.00  0.00     0.005 A 
HETATM    3  S1  UNL     1      23.841 -42.363  -8.021  1.00  0.00    -0.079 SA
HETATM    4  C3  UNL     1      22.147 -42.677  -8.308  1.00  0.00     0.134 A 
HETATM    5  C6  UNL     1      21.551 -41.637  -7.670  1.00  0.00     0.094 A 
HETATM    6  C13 UNL     1      22.365 -40.738  -7.052  1.00  0.00     0.077 A 
HETATM    7  N5  UNL     1      21.890 -39.561  -6.319  1.00  0.00    -0.100 NA
ENDROOT
BRANCH   5   8
HETATM    8  C7  UNL     1      20.069 -41.453  -7.630  1.00  0.00     0.297 C 
HETATM    9  O3  UNL     1      19.401 -41.148  -8.616  1.00  0.00    -0.259 OA
BRANCH   8  10
HETATM   10  O4  UNL     1      19.337 -41.618  -6.450  1.00  0.00    -0.312 OA
BRANCH  10  11
HETATM   11  C8  UNL     1      18.109 -40.936  -6.222  1.00  0.00     0.129 C 
HETATM   12  C9  UNL     1      18.396 -39.485  -5.934  1.00  0.00     0.040 C 
BRANCH  11  13
HETATM   13  C10 UNL     1      17.288 -41.589  -5.169  1.00  0.00     0.051 C 
BRANCH  13  14
HETATM   14  C11 UNL     1      16.922 -40.699  -4.026  1.00  0.00     0.124 C 
BRANCH  14  15
HETATM   15  N2  UNL     1      17.091 -41.283  -2.719  1.00  0.00    -0.367 N 
HETATM   16  C12 UNL     1      18.048 -40.838  -1.979  1.00  0.00     0.196 C 
HETATM   17  N3  UNL     1      18.923 -39.806  -2.415  1.00  0.00    -0.067 NA
HETATM   18  N4  UNL     1      18.234 -41.402  -0.680  1.00  0.00    -0.067 NA
ATOM     19  H2  UNL     1      16.472 -42.024  -2.389  1.00  0.00     0.161 HD
ENDBRANCH  14  15
ENDBRANCH  13  14
ENDBRANCH  11  13
ENDBRANCH  10  11
ENDBRANCH   8  10
ENDBRANCH   5   8
BRANCH   4  20
HETATM   20  S2  UNL     1      21.564 -44.057  -9.226  1.00  0.00     0.250 S 
HETATM   21  O1  UNL     1      22.609 -44.965  -9.734  1.00  0.00    -0.205 OA
HETATM   22  O2  UNL     1      20.721 -43.519 -10.391  1.00  0.00    -0.205 OA
BRANCH  20  23
HETATM   23  N1  UNL     1      20.467 -44.938  -8.243  1.00  0.00    -0.214 NA
HETATM   24  C4  UNL     1      20.232 -46.256  -8.778  1.00  0.00     0.129 C 
HETATM   25  C5  UNL     1      20.989 -45.049  -6.902  1.00  0.00     0.129 C 
ENDBRANCH  20  23
ENDBRANCH   4  20
TORSDOF 8
ENDMDL
