MODEL 1
REMARK VINA RESULT: -7.699595651      0.000      0.000
REMARK  7 active torsions:
REMARK  status: ('A' for Active; 'I' for Inactive)
REMARK    1  A    between atoms: C2_2  and  O1_3 
REMARK    2  A    between atoms: O1_3  and  C3_4 
REMARK    3  A    between atoms: C5_6  and  C6_7 
REMARK    4  A    between atoms: C6_7  and  C7_8 
REMARK    5  A    between atoms: C9_14  and  C10_15 
REMARK    6  A    between atoms: C10_15  and  C11_16 
REMARK    7  A    between atoms: C22_31  and  O3_32 
ROOT
HETATM    1  C7  UNL     1      12.660  10.170 -21.353  1.00  0.00     0.099 A 
HETATM    2  N1  UNL     1      12.770   9.610 -22.571  1.00  0.00    -0.297 N 
ATOM      3  H1  UNL     1      12.050   9.804 -23.267  1.00  0.00     0.187 HD
HETATM    4  N2  UNL     1      13.780   8.816 -22.901  1.00  0.00    -0.310 N 
ATOM      5  H2  UNL     1      13.803   8.425 -23.843  1.00  0.00     0.186 HD
HETATM    6  C8  UNL     1      14.774   8.501 -22.053  1.00  0.00     0.122 A 
HETATM    7  C9  UNL     1      14.729   9.038 -20.784  1.00  0.00     0.034 A 
HETATM    8  C19 UNL     1      13.657   9.876 -20.449  1.00  0.00     0.211 A 
HETATM    9  O2  UNL     1      13.619  10.362 -19.293  1.00  0.00    -0.285 OA
ENDROOT
BRANCH   1  10
HETATM   10  C6  UNL     1      11.657  10.964 -21.009  1.00  0.00     0.046 C 
BRANCH  10  11
HETATM   11  C5  UNL     1      10.460  10.456 -20.349  1.00  0.00    -0.031 A 
HETATM   12  C4  UNL     1       9.838   9.289 -20.745  1.00  0.00     0.051 A 
HETATM   13  C3  UNL     1       8.705   8.826 -20.105  1.00  0.00     0.102 A 
HETATM   14  C22 UNL     1       8.132   9.506 -19.033  1.00  0.00     0.099 A 
HETATM   15  C21 UNL     1       8.757  10.666 -18.644  1.00  0.00     0.040 A 
HETATM   16  C20 UNL     1       9.890  11.129 -19.283  1.00  0.00     0.014 A 
BRANCH  13  17
HETATM   17  O1  UNL     1       8.072   7.660 -20.493  1.00  0.00    -0.349 OA
BRANCH  17  18
HETATM   18  C2  UNL     1       8.140   7.033 -21.730  1.00  0.00     0.171 C 
HETATM   19  C1  UNL     1       6.988   7.299 -22.655  1.00  0.00     0.034 C 
ENDBRANCH  17  18
ENDBRANCH  13  17
BRANCH  14  20
HETATM   20  O3  UNL     1       6.990   9.024 -18.399  1.00  0.00    -0.358 OA
ATOM     21  H3  UNL     1       6.178   8.897 -18.877  1.00  0.00     0.217 HD
ENDBRANCH  14  20
ENDBRANCH  10  11
ENDBRANCH   1  10
BRANCH   7  22
HETATM   22  C10 UNL     1      15.677   8.755 -19.930  1.00  0.00     0.030 C 
BRANCH  22  23
HETATM   23  C11 UNL     1      15.607   7.566 -19.099  1.00  0.00    -0.004 A 
HETATM   24  C12 UNL     1      14.965   7.464 -17.884  1.00  0.00     0.100 A 
HETATM   25  N3  UNL     1      15.110   6.216 -17.406  1.00  0.00    -0.364 N 
HETATM   26  C13 UNL     1      15.843   5.469 -18.283  1.00  0.00     0.046 A 
ATOM     27  H3  UNL     1      14.730   5.879 -16.522  1.00  0.00     0.165 HD
HETATM   28  C14 UNL     1      16.259   4.157 -18.256  1.00  0.00     0.030 A 
HETATM   29  C18 UNL     1      16.145   6.317 -19.328  1.00  0.00     0.041 A 
HETATM   30  C15 UNL     1      17.003   3.658 -19.299  1.00  0.00     0.005 A 
HETATM   31  C16 UNL     1      17.311   4.495 -20.349  1.00  0.00     0.043 A 
HETATM   32  C17 UNL     1      16.893   5.804 -20.372  1.00  0.00     0.129 A 
HETATM   33  F1  UNL     1      17.182   6.655 -21.394  1.00  0.00    -0.205 F 
ENDBRANCH  22  23
ENDBRANCH   7  22
TORSDOF 7
ENDMDL
MODEL 2
REMARK VINA RESULT: -7.626179522      1.250      1.504
REMARK  7 active torsions:
REMARK  status: ('A' for Active; 'I' for Inactive)
REMARK    1  A    between atoms: C2_2  and  O1_3 
REMARK    2  A    between atoms: O1_3  and  C3_4 
REMARK    3  A    between atoms: C5_6  and  C6_7 
REMARK    4  A    between atoms: C6_7  and  C7_8 
REMARK    5  A    between atoms: C9_14  and  C10_15 
REMARK    6  A    between atoms: C10_15  and  C11_16 
REMARK    7  A    between atoms: C22_31  and  O3_32 
ROOT
HETATM    1  C7  UNL     1      12.623  10.045 -21.405  1.00  0.00     0.099 A 
HETATM    2  N1  UNL     1      12.929   9.457 -22.575  1.00  0.00    -0.297 N 
ATOM      3  H1  UNL     1      12.308   9.598 -23.372  1.00  0.00     0.187 HD
HETATM    4  N2  UNL     1      14.008   8.701 -22.733  1.00  0.00    -0.310 N 
ATOM      5  H2  UNL     1      14.181   8.286 -23.648  1.00  0.00     0.186 HD
HETATM    6  C8  UNL     1      14.884   8.456 -21.743  1.00  0.00     0.122 A 
HETATM    7  C9  UNL     1      14.636   9.026 -20.512  1.00  0.00     0.034 A 
HETATM    8  C19 UNL     1      13.493   9.822 -20.360  1.00  0.00     0.211 A 
HETATM    9  O2  UNL     1      13.271  10.338 -19.238  1.00  0.00    -0.285 OA
ENDROOT
BRANCH   1  10
HETATM   10  C6  UNL     1      11.550  10.801 -21.232  1.00  0.00     0.046 C 
BRANCH  10  11
HETATM   11  C5  UNL     1      10.379  10.326 -20.505  1.00  0.00    -0.031 A 
HETATM   12  C4  UNL     1       9.675   9.202 -20.890  1.00  0.00     0.051 A 
HETATM   13  C3  UNL     1       8.569   8.770 -20.186  1.00  0.00     0.102 A 
HETATM   14  C22 UNL     1       8.105   9.439 -19.056  1.00  0.00     0.099 A 
HETATM   15  C21 UNL     1       8.810  10.555 -18.678  1.00  0.00     0.040 A 
HETATM   16  C20 UNL     1       9.917  10.987 -19.381  1.00  0.00     0.014 A 
BRANCH  13  17
HETATM   17  O1  UNL     1       7.856   7.647 -20.563  1.00  0.00    -0.349 OA
BRANCH  17  18
HETATM   18  C2  UNL     1       7.980   6.923 -21.741  1.00  0.00     0.171 C 
HETATM   19  C1  UNL     1       6.988   7.260 -22.817  1.00  0.00     0.034 C 
ENDBRANCH  17  18
ENDBRANCH  13  17
BRANCH  14  20
HETATM   20  O3  UNL     1       6.988   8.988 -18.358  1.00  0.00    -0.358 OA
ATOM     21  H3  UNL     1       6.779   9.323 -17.494  1.00  0.00     0.217 HD
ENDBRANCH  14  20
ENDBRANCH  10  11
ENDBRANCH   1  10
BRANCH   7  22
HETATM   22  C10 UNL     1      15.465   8.811 -19.524  1.00  0.00     0.030 C 
BRANCH  22  23
HETATM   23  C11 UNL     1      16.459   7.755 -19.597  1.00  0.00    -0.004 A 
HETATM   24  C12 UNL     1      17.804   7.925 -19.844  1.00  0.00     0.100 A 
HETATM   25  N3  UNL     1      18.414   6.728 -19.838  1.00  0.00    -0.364 N 
HETATM   26  C13 UNL     1      17.499   5.746 -19.588  1.00  0.00     0.046 A 
ATOM     27  H3  UNL     1      19.410   6.576 -19.996  1.00  0.00     0.165 HD
HETATM   28  C14 UNL     1      17.617   4.378 -19.481  1.00  0.00     0.030 A 
HETATM   29  C18 UNL     1      16.291   6.395 -19.441  1.00  0.00     0.041 A 
HETATM   30  C15 UNL     1      16.502   3.618 -19.218  1.00  0.00     0.005 A 
HETATM   31  C16 UNL     1      15.290   4.255 -19.069  1.00  0.00     0.043 A 
HETATM   32  C17 UNL     1      15.177   5.621 -19.176  1.00  0.00     0.129 A 
HETATM   33  F1  UNL     1      13.994   6.278 -19.034  1.00  0.00    -0.205 F 
ENDBRANCH  22  23
ENDBRANCH   7  22
TORSDOF 7
ENDMDL
MODEL 3
REMARK VINA RESULT: -7.444427843      1.566      2.766
REMARK  7 active torsions:
REMARK  status: ('A' for Active; 'I' for Inactive)
REMARK    1  A    between atoms: C2_2  and  O1_3 
REMARK    2  A    between atoms: O1_3  and  C3_4 
REMARK    3  A    between atoms: C5_6  and  C6_7 
REMARK    4  A    between atoms: C6_7  and  C7_8 
REMARK    5  A    between atoms: C9_14  and  C10_15 
REMARK    6  A    between atoms: C10_15  and  C11_16 
REMARK    7  A    between atoms: C22_31  and  O3_32 
ROOT
HETATM    1  C7  UNL     1      12.597  10.075 -21.350  1.00  0.00     0.099 A 
HETATM    2  N1  UNL     1      12.890   9.476 -22.517  1.00  0.00    -0.297 N 
ATOM      3  H1  UNL     1      12.274   9.630 -23.316  1.00  0.00     0.187 HD
HETATM    4  N2  UNL     1      13.951   8.695 -22.671  1.00  0.00    -0.310 N 
ATOM      5  H2  UNL     1      14.116   8.272 -23.585  1.00  0.00     0.186 HD
HETATM    6  C8  UNL     1      14.820   8.432 -21.679  1.00  0.00     0.122 A 
HETATM    7  C9  UNL     1      14.584   9.011 -20.450  1.00  0.00     0.034 A 
HETATM    8  C19 UNL     1      13.460   9.835 -20.302  1.00  0.00     0.211 A 
HETATM    9  O2  UNL     1      13.248  10.360 -19.182  1.00  0.00    -0.285 OA
ENDROOT
BRANCH   1  10
HETATM   10  C6  UNL     1      11.541  10.857 -21.181  1.00  0.00     0.046 C 
BRANCH  10  11
HETATM   11  C5  UNL     1      10.374  10.426 -20.419  1.00  0.00    -0.031 A 
HETATM   12  C4  UNL     1       9.830  11.191 -19.407  1.00  0.00     0.051 A 
HETATM   13  C3  UNL     1       8.725  10.764 -18.698  1.00  0.00     0.102 A 
HETATM   14  C22 UNL     1       8.102   9.547 -18.964  1.00  0.00     0.099 A 
HETATM   15  C21 UNL     1       8.649   8.792 -19.972  1.00  0.00     0.040 A 
HETATM   16  C20 UNL     1       9.753   9.219 -20.682  1.00  0.00     0.014 A 
BRANCH  13  17
HETATM   17  O1  UNL     1       8.172  11.521 -17.681  1.00  0.00    -0.349 OA
BRANCH  17  18
HETATM   18  C2  UNL     1       7.335  12.622 -17.807  1.00  0.00     0.171 C 
HETATM   19  C1  UNL     1       8.012  13.913 -18.168  1.00  0.00     0.034 C 
ENDBRANCH  17  18
ENDBRANCH  13  17
BRANCH  14  20
HETATM   20  O3  UNL     1       6.988   9.133 -18.239  1.00  0.00    -0.358 OA
ATOM     21  H3  UNL     1       6.527   8.332 -18.460  1.00  0.00     0.217 HD
ENDBRANCH  14  20
ENDBRANCH  10  11
ENDBRANCH   1  10
BRANCH   7  22
HETATM   22  C10 UNL     1      15.406   8.780 -19.460  1.00  0.00     0.030 C 
BRANCH  22  23
HETATM   23  C11 UNL     1      16.412   7.737 -19.550  1.00  0.00    -0.004 A 
HETATM   24  C12 UNL     1      17.756   7.927 -19.789  1.00  0.00     0.100 A 
HETATM   25  N3  UNL     1      18.379   6.736 -19.804  1.00  0.00    -0.364 N 
HETATM   26  C13 UNL     1      17.473   5.739 -19.579  1.00  0.00     0.046 A 
ATOM     27  H3  UNL     1      19.377   6.598 -19.961  1.00  0.00     0.165 HD
HETATM   28  C14 UNL     1      17.606   4.371 -19.499  1.00  0.00     0.030 A 
HETATM   29  C18 UNL     1      16.258   6.372 -19.423  1.00  0.00     0.041 A 
HETATM   30  C15 UNL     1      16.498   3.593 -19.257  1.00  0.00     0.005 A 
HETATM   31  C16 UNL     1      15.279   4.214 -19.100  1.00  0.00     0.043 A 
HETATM   32  C17 UNL     1      15.151   5.581 -19.179  1.00  0.00     0.129 A 
HETATM   33  F1  UNL     1      13.961   6.221 -19.029  1.00  0.00    -0.205 F 
ENDBRANCH  22  23
ENDBRANCH   7  22
TORSDOF 7
ENDMDL
MODEL 4
REMARK VINA RESULT: -7.338525227      1.023      2.257
REMARK  7 active torsions:
REMARK  status: ('A' for Active; 'I' for Inactive)
REMARK    1  A    between atoms: C2_2  and  O1_3 
REMARK    2  A    between atoms: O1_3  and  C3_4 
REMARK    3  A    between atoms: C5_6  and  C6_7 
REMARK    4  A    between atoms: C6_7  and  C7_8 
REMARK    5  A    between atoms: C9_14  and  C10_15 
REMARK    6  A    between atoms: C10_15  and  C11_16 
REMARK    7  A    between atoms: C22_31  and  O3_32 
ROOT
HETATM    1  C7  UNL     1      12.675  10.234 -21.156  1.00  0.00     0.099 A 
HETATM    2  N1  UNL     1      12.716   9.695 -22.387  1.00  0.00    -0.297 N 
ATOM      3  H1  UNL     1      11.972   9.921 -23.047  1.00  0.00     0.187 HD
HETATM    4  N2  UNL     1      13.688   8.879 -22.776  1.00  0.00    -0.310 N 
ATOM      5  H2  UNL     1      13.658   8.506 -23.725  1.00  0.00     0.186 HD
HETATM    6  C8  UNL     1      14.710   8.522 -21.979  1.00  0.00     0.122 A 
HETATM    7  C9  UNL     1      14.735   9.035 -20.700  1.00  0.00     0.034 A 
HETATM    8  C19 UNL     1      13.703   9.896 -20.302  1.00  0.00     0.211 A 
HETATM    9  O2  UNL     1      13.729  10.360 -19.137  1.00  0.00    -0.285 OA
ENDROOT
BRANCH   1  10
HETATM   10  C6  UNL     1      11.711  11.047 -20.753  1.00  0.00     0.046 C 
BRANCH  10  11
HETATM   11  C5  UNL     1      10.499  10.552 -20.111  1.00  0.00    -0.031 A 
HETATM   12  C4  UNL     1       9.780  11.309 -19.207  1.00  0.00     0.051 A 
HETATM   13  C3  UNL     1       8.634  10.819 -18.611  1.00  0.00     0.102 A 
HETATM   14  C22 UNL     1       8.145   9.545 -18.887  1.00  0.00     0.099 A 
HETATM   15  C21 UNL     1       8.865   8.799 -19.787  1.00  0.00     0.040 A 
HETATM   16  C20 UNL     1      10.010   9.287 -20.384  1.00  0.00     0.014 A 
BRANCH  13  17
HETATM   17  O1  UNL     1       7.907  11.567 -17.704  1.00  0.00    -0.349 OA
BRANCH  17  18
HETATM   18  C2  UNL     1       7.660  12.933 -17.740  1.00  0.00     0.171 C 
HETATM   19  C1  UNL     1       6.988  13.437 -18.985  1.00  0.00     0.034 C 
ENDBRANCH  17  18
ENDBRANCH  13  17
BRANCH  14  20
HETATM   20  O3  UNL     1       6.988   9.069 -18.276  1.00  0.00    -0.358 OA
ATOM     21  H3  UNL     1       6.161   9.039 -18.744  1.00  0.00     0.217 HD
ENDBRANCH  14  20
ENDBRANCH  10  11
ENDBRANCH   1  10
BRANCH   7  22
HETATM   22  C10 UNL     1      15.712   8.711 -19.894  1.00  0.00     0.030 C 
BRANCH  22  23
HETATM   23  C11 UNL     1      15.651   7.501 -19.093  1.00  0.00    -0.004 A 
HETATM   24  C12 UNL     1      15.037   7.374 -17.866  1.00  0.00     0.100 A 
HETATM   25  N3  UNL     1      15.183   6.114 -17.423  1.00  0.00    -0.364 N 
HETATM   26  C13 UNL     1      15.888   5.383 -18.335  1.00  0.00     0.046 A 
ATOM     27  H3  UNL     1      14.821   5.757 -16.539  1.00  0.00     0.165 HD
HETATM   28  C14 UNL     1      16.294   4.067 -18.351  1.00  0.00     0.030 A 
HETATM   29  C18 UNL     1      16.174   6.254 -19.365  1.00  0.00     0.041 A 
HETATM   30  C15 UNL     1      17.010   3.589 -19.423  1.00  0.00     0.005 A 
HETATM   31  C16 UNL     1      17.300   4.450 -20.458  1.00  0.00     0.043 A 
HETATM   32  C17 UNL     1      16.893   5.763 -20.439  1.00  0.00     0.129 A 
HETATM   33  F1  UNL     1      17.165   6.636 -21.446  1.00  0.00    -0.205 F 
ENDBRANCH  22  23
ENDBRANCH   7  22
TORSDOF 7
ENDMDL
MODEL 5
REMARK VINA RESULT: -7.242701132      1.466      1.867
REMARK  7 active torsions:
REMARK  status: ('A' for Active; 'I' for Inactive)
REMARK    1  A    between atoms: C2_2  and  O1_3 
REMARK    2  A    between atoms: O1_3  and  C3_4 
REMARK    3  A    between atoms: C5_6  and  C6_7 
REMARK    4  A    between atoms: C6_7  and  C7_8 
REMARK    5  A    between atoms: C9_14  and  C10_15 
REMARK    6  A    between atoms: C10_15  and  C11_16 
REMARK    7  A    between atoms: C22_31  and  O3_32 
ROOT
HETATM    1  C7  UNL     1      12.432  11.320 -21.113  1.00  0.00     0.099 A 
HETATM    2  N1  UNL     1      12.003  10.692 -22.222  1.00  0.00    -0.297 N 
ATOM      3  H1  UNL     1      11.172  11.046 -22.697  1.00  0.00     0.187 HD
HETATM    4  N2  UNL     1      12.620   9.629 -22.723  1.00  0.00    -0.310 N 
ATOM      5  H2  UNL     1      12.241   9.201 -23.568  1.00  0.00     0.186 HD
HETATM    6  C8  UNL     1      13.719   9.089 -22.169  1.00  0.00     0.122 A 
HETATM    7  C9  UNL     1      14.218   9.680 -21.028  1.00  0.00     0.034 A 
HETATM    8  C19 UNL     1      13.557  10.802 -20.510  1.00  0.00     0.211 A 
HETATM    9  O2  UNL     1      14.014  11.336 -19.470  1.00  0.00    -0.285 OA
ENDROOT
BRANCH   1  10
HETATM   10  C6  UNL     1      11.826  12.381 -20.602  1.00  0.00     0.046 C 
BRANCH  10  11
HETATM   11  C5  UNL     1      10.666  12.261 -19.726  1.00  0.00    -0.031 A 
HETATM   12  C4  UNL     1      10.102  11.041 -19.410  1.00  0.00     0.051 A 
HETATM   13  C3  UNL     1       9.004  10.951 -18.578  1.00  0.00     0.102 A 
HETATM   14  C22 UNL     1       8.408  12.077 -18.017  1.00  0.00     0.099 A 
HETATM   15  C21 UNL     1       8.975  13.287 -18.335  1.00  0.00     0.040 A 
HETATM   16  C20 UNL     1      10.074  13.378 -19.166  1.00  0.00     0.014 A 
BRANCH  13  17
HETATM   17  O1  UNL     1       8.430   9.734 -18.256  1.00  0.00    -0.349 OA
BRANCH  17  18
HETATM   18  C2  UNL     1       7.821   8.832 -19.117  1.00  0.00     0.171 C 
HETATM   19  C1  UNL     1       6.988   9.441 -20.209  1.00  0.00     0.034 C 
ENDBRANCH  17  18
ENDBRANCH  13  17
BRANCH  14  20
HETATM   20  O3  UNL     1       7.301  11.966 -17.179  1.00  0.00    -0.358 OA
ATOM     21  H3  UNL     1       7.370  12.136 -16.247  1.00  0.00     0.217 HD
ENDBRANCH  14  20
ENDBRANCH  10  11
ENDBRANCH   1  10
BRANCH   7  22
HETATM   22  C10 UNL     1      15.286   9.184 -20.459  1.00  0.00     0.030 C 
BRANCH  22  23
HETATM   23  C11 UNL     1      15.203   8.016 -19.600  1.00  0.00    -0.004 A 
HETATM   24  C12 UNL     1      14.863   8.016 -18.265  1.00  0.00     0.100 A 
HETATM   25  N3  UNL     1      14.891   6.756 -17.798  1.00  0.00    -0.364 N 
HETATM   26  C13 UNL     1      15.244   5.900 -18.801  1.00  0.00     0.046 A 
ATOM     27  H3  UNL     1      14.679   6.481 -16.839  1.00  0.00     0.165 HD
HETATM   28  C14 UNL     1      15.411   4.534 -18.834  1.00  0.00     0.030 A 
HETATM   29  C18 UNL     1      15.436   6.693 -19.913  1.00  0.00     0.041 A 
HETATM   30  C15 UNL     1      15.781   3.922 -20.009  1.00  0.00     0.005 A 
HETATM   31  C16 UNL     1      15.974   4.704 -21.126  1.00  0.00     0.043 A 
HETATM   32  C17 UNL     1      15.806   6.068 -21.089  1.00  0.00     0.129 A 
HETATM   33  F1  UNL     1      15.991   6.865 -22.175  1.00  0.00    -0.205 F 
ENDBRANCH  22  23
ENDBRANCH   7  22
TORSDOF 7
ENDMDL
