MODEL 1
REMARK VINA RESULT: -7.178581387      0.000      0.000
REMARK  7 active torsions:
REMARK  status: ('A' for Active; 'I' for Inactive)
REMARK    1  A    between atoms: C4_7  and  N3_8 
REMARK    2  A    between atoms: N3_8  and  C5_10 
REMARK    3  A    between atoms: C5_10  and  C6_11 
REMARK    4  A    between atoms: C6_11  and  N4_12 
REMARK    5  A    between atoms: N4_12  and  C7_14 
REMARK    6  A    between atoms: C14_25  and  N7_26 
REMARK    7  A    between atoms: N7_26  and  C15_28 
ROOT
HETATM    1  C7  UNL     1      17.617   6.621 -22.573  1.00  0.00     0.147 A 
HETATM    2  N5  UNL     1      17.735   5.859 -23.663  1.00  0.00    -0.338 N 
ATOM      3  H5  UNL     1      17.256   6.145 -24.516  1.00  0.00     0.167 HD
HETATM    4  C8  UNL     1      18.473   4.715 -23.677  1.00  0.00     0.060 A 
HETATM    5  C9  UNL     1      18.559   3.974 -24.824  1.00  0.00     0.032 A 
HETATM    6  C10 UNL     1      19.309   2.816 -24.829  1.00  0.00     0.002 A 
HETATM    7  C11 UNL     1      19.979   2.383 -23.705  1.00  0.00     0.002 A 
HETATM    8  C12 UNL     1      19.863   3.167 -22.567  1.00  0.00     0.032 A 
HETATM    9  C13 UNL     1      19.116   4.329 -22.542  1.00  0.00     0.060 A 
HETATM   10  N6  UNL     1      19.005   5.082 -21.448  1.00  0.00    -0.338 N 
ATOM     11  H6  UNL     1      19.488   4.789 -20.598  1.00  0.00     0.167 HD
HETATM   12  C14 UNL     1      18.264   6.236 -21.423  1.00  0.00     0.151 A 
ENDROOT
BRANCH   1  13
HETATM   13  N4  UNL     1      16.921   7.679 -22.597  1.00  0.00    -0.368 N 
ATOM     14  H4  UNL     1      17.410   8.569 -22.702  1.00  0.00     0.161 HD
BRANCH  13  15
HETATM   15  C6  UNL     1      15.495   7.710 -22.486  1.00  0.00     0.165 C 
BRANCH  15  16
HETATM   16  C5  UNL     1      15.032   8.100 -21.112  1.00  0.00     0.082 C 
BRANCH  16  17
HETATM   17  N3  UNL     1      14.541   7.125 -20.269  1.00  0.00    -0.353 N 
ATOM     18  H3  UNL     1      13.536   7.235 -20.135  1.00  0.00     0.166 HD
BRANCH  17  19
HETATM   19  C4  UNL     1      14.973   6.144 -19.621  1.00  0.00     0.122 A 
HETATM   20  N1  UNL     1      15.258   6.246 -18.281  1.00  0.00    -0.281 N 
HETATM   21  C1  UNL     1      15.103   7.447 -17.479  1.00  0.00     0.179 C 
HETATM   22  N2  UNL     1      15.693   5.092 -17.836  1.00  0.00    -0.308 N 
HETATM   23  C2  UNL     1      15.726   4.175 -18.812  1.00  0.00     0.111 A 
ATOM     24  H2  UNL     1      15.970   4.915 -16.871  1.00  0.00     0.186 HD
HETATM   25  C3  UNL     1      15.267   4.848 -19.953  1.00  0.00     0.068 A 
ENDBRANCH  17  19
ENDBRANCH  16  17
ENDBRANCH  15  16
ENDBRANCH  13  15
ENDBRANCH   1  13
BRANCH  12  26
HETATM   26  N7  UNL     1      18.245   6.850 -20.321  1.00  0.00    -0.339 N 
ATOM     27  H7  UNL     1      17.550   6.529 -19.647  1.00  0.00     0.167 HD
BRANCH  26  28
HETATM   28  C15 UNL     1      19.056   7.915 -19.902  1.00  0.00     0.036 A 
HETATM   29  C16 UNL     1      18.684   9.250 -20.046  1.00  0.00     0.029 A 
HETATM   30  C17 UNL     1      19.475  10.289 -19.626  1.00  0.00     0.005 A 
HETATM   31  C18 UNL     1      20.690  10.027 -19.035  1.00  0.00     0.042 A 
HETATM   32  C19 UNL     1      21.093   8.724 -18.875  1.00  0.00     0.118 A 
HETATM   33  F1  UNL     1      22.304   8.450 -18.286  1.00  0.00    -0.206 F 
HETATM   34  C20 UNL     1      20.295   7.685 -19.298  1.00  0.00     0.071 A 
ENDBRANCH  26  28
ENDBRANCH  12  26
TORSDOF 7
ENDMDL
MODEL 2
REMARK VINA RESULT: -7.031975142      2.673      5.363
REMARK  7 active torsions:
REMARK  status: ('A' for Active; 'I' for Inactive)
REMARK    1  A    between atoms: C4_7  and  N3_8 
REMARK    2  A    between atoms: N3_8  and  C5_10 
REMARK    3  A    between atoms: C5_10  and  C6_11 
REMARK    4  A    between atoms: C6_11  and  N4_12 
REMARK    5  A    between atoms: N4_12  and  C7_14 
REMARK    6  A    between atoms: C14_25  and  N7_26 
REMARK    7  A    between atoms: N7_26  and  C15_28 
ROOT
HETATM    1  C7  UNL     1      18.594   8.796 -20.960  1.00  0.00     0.147 A 
HETATM    2  N5  UNL     1      19.088   9.843 -20.296  1.00  0.00    -0.338 N 
ATOM      3  H5  UNL     1      18.697  10.767 -20.476  1.00  0.00     0.167 HD
HETATM    4  C8  UNL     1      20.094   9.723 -19.387  1.00  0.00     0.060 A 
HETATM    5  C9  UNL     1      20.560  10.833 -18.736  1.00  0.00     0.032 A 
HETATM    6  C10 UNL     1      21.580  10.701 -17.816  1.00  0.00     0.002 A 
HETATM    7  C11 UNL     1      22.145   9.476 -17.533  1.00  0.00     0.002 A 
HETATM    8  C12 UNL     1      21.640   8.381 -18.216  1.00  0.00     0.032 A 
HETATM    9  C13 UNL     1      20.620   8.492 -19.141  1.00  0.00     0.060 A 
HETATM   10  N6  UNL     1      20.135   7.439 -19.798  1.00  0.00    -0.338 N 
ATOM     11  H6  UNL     1      20.531   6.518 -19.612  1.00  0.00     0.167 HD
HETATM   12  C14 UNL     1      19.122   7.550 -20.716  1.00  0.00     0.151 A 
ENDROOT
BRANCH   1  13
HETATM   13  N4  UNL     1      17.658   8.945 -21.799  1.00  0.00    -0.368 N 
ATOM     14  H4  UNL     1      17.792   8.565 -22.737  1.00  0.00     0.161 HD
BRANCH  13  15
HETATM   15  C6  UNL     1      16.422   9.612 -21.519  1.00  0.00     0.165 C 
BRANCH  15  16
HETATM   16  C5  UNL     1      15.225   8.768 -21.850  1.00  0.00     0.082 C 
BRANCH  16  17
HETATM   17  N3  UNL     1      14.478   8.233 -20.822  1.00  0.00    -0.353 N 
ATOM     18  H3  UNL     1      13.628   7.798 -21.179  1.00  0.00     0.166 HD
BRANCH  17  19
HETATM   19  C4  UNL     1      14.543   8.129 -19.574  1.00  0.00     0.122 A 
HETATM   20  N1  UNL     1      13.933   9.044 -18.751  1.00  0.00    -0.281 N 
HETATM   21  C1  UNL     1      13.171  10.197 -19.197  1.00  0.00     0.179 C 
HETATM   22  N2  UNL     1      14.146   8.717 -17.500  1.00  0.00    -0.308 N 
HETATM   23  C2  UNL     1      14.884   7.604 -17.405  1.00  0.00     0.111 A 
ATOM     24  H2  UNL     1      13.795   9.244 -16.700  1.00  0.00     0.186 HD
HETATM   25  C3  UNL     1      15.138   7.228 -18.732  1.00  0.00     0.068 A 
ENDBRANCH  17  19
ENDBRANCH  16  17
ENDBRANCH  15  16
ENDBRANCH  13  15
ENDBRANCH   1  13
BRANCH  12  26
HETATM   26  N7  UNL     1      18.760   6.472 -21.263  1.00  0.00    -0.339 N 
ATOM     27  H7  UNL     1      19.258   6.219 -22.118  1.00  0.00     0.167 HD
BRANCH  26  28
HETATM   28  C15 UNL     1      17.763   5.575 -20.851  1.00  0.00     0.036 A 
HETATM   29  C16 UNL     1      16.611   5.333 -21.595  1.00  0.00     0.029 A 
HETATM   30  C17 UNL     1      15.641   4.448 -21.193  1.00  0.00     0.005 A 
HETATM   31  C18 UNL     1      15.793   3.759 -20.012  1.00  0.00     0.042 A 
HETATM   32  C19 UNL     1      16.916   3.970 -19.250  1.00  0.00     0.118 A 
HETATM   33  F1  UNL     1      17.078   3.288 -18.067  1.00  0.00    -0.206 F 
HETATM   34  C20 UNL     1      17.885   4.859 -19.658  1.00  0.00     0.071 A 
ENDBRANCH  26  28
ENDBRANCH  12  26
TORSDOF 7
ENDMDL
MODEL 3
REMARK VINA RESULT: -6.970109560      1.765      5.114
REMARK  7 active torsions:
REMARK  status: ('A' for Active; 'I' for Inactive)
REMARK    1  A    between atoms: C4_7  and  N3_8 
REMARK    2  A    between atoms: N3_8  and  C5_10 
REMARK    3  A    between atoms: C5_10  and  C6_11 
REMARK    4  A    between atoms: C6_11  and  N4_12 
REMARK    5  A    between atoms: N4_12  and  C7_14 
REMARK    6  A    between atoms: C14_25  and  N7_26 
REMARK    7  A    between atoms: N7_26  and  C15_28 
ROOT
HETATM    1  C7  UNL     1      18.286   8.691 -20.590  1.00  0.00     0.147 A 
HETATM    2  N5  UNL     1      18.909   9.755 -20.078  1.00  0.00    -0.338 N 
ATOM      3  H5  UNL     1      18.537  10.683 -20.274  1.00  0.00     0.167 HD
HETATM    4  C8  UNL     1      20.025   9.646 -19.304  1.00  0.00     0.060 A 
HETATM    5  C9  UNL     1      20.621  10.773 -18.807  1.00  0.00     0.032 A 
HETATM    6  C10 UNL     1      21.751  10.653 -18.024  1.00  0.00     0.002 A 
HETATM    7  C11 UNL     1      22.298   9.423 -17.727  1.00  0.00     0.002 A 
HETATM    8  C12 UNL     1      21.658   8.310 -18.252  1.00  0.00     0.032 A 
HETATM    9  C13 UNL     1      20.527   8.410 -19.039  1.00  0.00     0.060 A 
HETATM   10  N6  UNL     1      19.913   7.340 -19.544  1.00  0.00    -0.338 N 
ATOM     11  H6  UNL     1      20.292   6.415 -19.343  1.00  0.00     0.167 HD
HETATM   12  C14 UNL     1      18.789   7.440 -20.324  1.00  0.00     0.151 A 
ENDROOT
BRANCH   1  13
HETATM   13  N4  UNL     1      17.251   8.831 -21.305  1.00  0.00    -0.368 N 
ATOM     14  H4  UNL     1      17.357   8.756 -22.317  1.00  0.00     0.161 HD
BRANCH  13  15
HETATM   15  C6  UNL     1      15.941   9.086 -20.788  1.00  0.00     0.165 C 
BRANCH  15  16
HETATM   16  C5  UNL     1      14.948   8.035 -21.193  1.00  0.00     0.082 C 
BRANCH  16  17
HETATM   17  N3  UNL     1      14.513   7.127 -20.251  1.00  0.00    -0.353 N 
ATOM     18  H3  UNL     1      13.535   7.290 -20.013  1.00  0.00     0.166 HD
BRANCH  17  19
HETATM   19  C4  UNL     1      14.974   6.158 -19.602  1.00  0.00     0.122 A 
HETATM   20  N1  UNL     1      15.271   6.274 -18.266  1.00  0.00    -0.281 N 
HETATM   21  C1  UNL     1      15.100   7.477 -17.469  1.00  0.00     0.179 C 
HETATM   22  N2  UNL     1      15.736   5.133 -17.820  1.00  0.00    -0.308 N 
HETATM   23  C2  UNL     1      15.778   4.211 -18.790  1.00  0.00     0.111 A 
ATOM     24  H2  UNL     1      16.028   4.968 -16.857  1.00  0.00     0.186 HD
HETATM   25  C3  UNL     1      15.291   4.867 -19.930  1.00  0.00     0.068 A 
ENDBRANCH  17  19
ENDBRANCH  16  17
ENDBRANCH  15  16
ENDBRANCH  13  15
ENDBRANCH   1  13
BRANCH  12  26
HETATM   26  N7  UNL     1      18.312   6.346 -20.736  1.00  0.00    -0.339 N 
ATOM     27  H7  UNL     1      17.406   6.084 -20.347  1.00  0.00     0.167 HD
BRANCH  26  28
HETATM   28  C15 UNL     1      18.864   5.446 -21.659  1.00  0.00     0.036 A 
HETATM   29  C16 UNL     1      18.509   4.099 -21.704  1.00  0.00     0.029 A 
HETATM   30  C17 UNL     1      19.044   3.222 -22.614  1.00  0.00     0.005 A 
HETATM   31  C18 UNL     1      19.969   3.668 -23.530  1.00  0.00     0.042 A 
HETATM   32  C19 UNL     1      20.344   4.989 -23.518  1.00  0.00     0.118 A 
HETATM   33  F1  UNL     1      21.268   5.446 -24.428  1.00  0.00    -0.206 F 
HETATM   34  C20 UNL     1      19.805   5.864 -22.602  1.00  0.00     0.071 A 
ENDBRANCH  26  28
ENDBRANCH  12  26
TORSDOF 7
ENDMDL
MODEL 4
REMARK VINA RESULT: -6.936553653      2.825      6.619
REMARK  7 active torsions:
REMARK  status: ('A' for Active; 'I' for Inactive)
REMARK    1  A    between atoms: C4_7  and  N3_8 
REMARK    2  A    between atoms: N3_8  and  C5_10 
REMARK    3  A    between atoms: C5_10  and  C6_11 
REMARK    4  A    between atoms: C6_11  and  N4_12 
REMARK    5  A    between atoms: N4_12  and  C7_14 
REMARK    6  A    between atoms: C14_25  and  N7_26 
REMARK    7  A    between atoms: N7_26  and  C15_28 
ROOT
HETATM    1  C7  UNL     1      18.100   6.987 -21.818  1.00  0.00     0.147 A 
HETATM    2  N5  UNL     1      17.608   7.446 -20.666  1.00  0.00    -0.338 N 
ATOM      3  H5  UNL     1      18.026   8.278 -20.250  1.00  0.00     0.167 HD
HETATM    4  C8  UNL     1      16.568   6.845 -20.024  1.00  0.00     0.060 A 
HETATM    5  C9  UNL     1      16.105   7.361 -18.844  1.00  0.00     0.032 A 
HETATM    6  C10 UNL     1      15.051   6.745 -18.202  1.00  0.00     0.002 A 
HETATM    7  C11 UNL     1      14.448   5.618 -18.718  1.00  0.00     0.002 A 
HETATM    8  C12 UNL     1      14.950   5.132 -19.915  1.00  0.00     0.032 A 
HETATM    9  C13 UNL     1      16.005   5.735 -20.574  1.00  0.00     0.060 A 
HETATM   10  N6  UNL     1      16.488   5.267 -21.724  1.00  0.00    -0.338 N 
ATOM     11  H6  UNL     1      16.064   4.434 -22.133  1.00  0.00     0.167 HD
HETATM   12  C14 UNL     1      17.535   5.865 -22.378  1.00  0.00     0.151 A 
ENDROOT
BRANCH   1  13
HETATM   13  N4  UNL     1      19.068   7.572 -22.387  1.00  0.00    -0.368 N 
ATOM     14  H4  UNL     1      18.852   8.309 -23.059  1.00  0.00     0.161 HD
BRANCH  13  15
HETATM   15  C6  UNL     1      20.447   7.269 -22.148  1.00  0.00     0.165 C 
BRANCH  15  16
HETATM   16  C5  UNL     1      21.130   8.316 -21.315  1.00  0.00     0.082 C 
BRANCH  16  17
HETATM   17  N3  UNL     1      20.857   8.380 -19.965  1.00  0.00    -0.353 N 
ATOM     18  H3  UNL     1      20.176   7.669 -19.698  1.00  0.00     0.166 HD
BRANCH  17  19
HETATM   19  C4  UNL     1      21.204   9.061 -18.972  1.00  0.00     0.122 A 
HETATM   20  N1  UNL     1      20.640  10.289 -18.719  1.00  0.00    -0.281 N 
HETATM   21  C1  UNL     1      19.620  10.927 -19.531  1.00  0.00     0.179 C 
HETATM   22  N2  UNL     1      21.168  10.796 -17.632  1.00  0.00    -0.308 N 
HETATM   23  C2  UNL     1      22.084   9.974 -17.103  1.00  0.00     0.111 A 
ATOM     24  H2  UNL     1      20.914  11.702 -17.238  1.00  0.00     0.186 HD
HETATM   25  C3  UNL     1      22.107   8.864 -17.961  1.00  0.00     0.068 A 
ENDBRANCH  17  19
ENDBRANCH  16  17
ENDBRANCH  15  16
ENDBRANCH  13  15
ENDBRANCH   1  13
BRANCH  12  26
HETATM   26  N7  UNL     1      17.890   5.317 -23.457  1.00  0.00    -0.339 N 
ATOM     27  H7  UNL     1      17.571   5.773 -24.312  1.00  0.00     0.167 HD
BRANCH  26  28
HETATM   28  C15 UNL     1      18.667   4.162 -23.635  1.00  0.00     0.036 A 
HETATM   29  C16 UNL     1      19.456   3.619 -22.623  1.00  0.00     0.029 A 
HETATM   30  C17 UNL     1      20.207   2.484 -22.797  1.00  0.00     0.005 A 
HETATM   31  C18 UNL     1      20.196   1.838 -24.012  1.00  0.00     0.042 A 
HETATM   32  C19 UNL     1      19.431   2.341 -25.034  1.00  0.00     0.118 A 
HETATM   33  F1  UNL     1      19.412   1.704 -26.252  1.00  0.00    -0.206 F 
HETATM   34  C20 UNL     1      18.679   3.481 -24.854  1.00  0.00     0.071 A 
ENDBRANCH  26  28
ENDBRANCH  12  26
TORSDOF 7
ENDMDL
MODEL 5
REMARK VINA RESULT: -6.873944948      1.156      1.341
REMARK  7 active torsions:
REMARK  status: ('A' for Active; 'I' for Inactive)
REMARK    1  A    between atoms: C4_7  and  N3_8 
REMARK    2  A    between atoms: N3_8  and  C5_10 
REMARK    3  A    between atoms: C5_10  and  C6_11 
REMARK    4  A    between atoms: C6_11  and  N4_12 
REMARK    5  A    between atoms: N4_12  and  C7_14 
REMARK    6  A    between atoms: C14_25  and  N7_26 
REMARK    7  A    between atoms: N7_26  and  C15_28 
ROOT
HETATM    1  C7  UNL     1      17.932   6.450 -22.982  1.00  0.00     0.147 A 
HETATM    2  N5  UNL     1      17.869   5.610 -24.017  1.00  0.00    -0.338 N 
ATOM      3  H5  UNL     1      17.270   5.848 -24.807  1.00  0.00     0.167 HD
HETATM    4  C8  UNL     1      18.576   4.447 -24.059  1.00  0.00     0.060 A 
HETATM    5  C9  UNL     1      18.471   3.625 -25.148  1.00  0.00     0.032 A 
HETATM    6  C10 UNL     1      19.191   2.448 -25.181  1.00  0.00     0.002 A 
HETATM    7  C11 UNL     1      20.018   2.076 -24.142  1.00  0.00     0.002 A 
HETATM    8  C12 UNL     1      20.092   2.941 -23.061  1.00  0.00     0.032 A 
HETATM    9  C13 UNL     1      19.378   4.123 -23.009  1.00  0.00     0.060 A 
HETATM   10  N6  UNL     1      19.450   4.954 -21.970  1.00  0.00    -0.338 N 
ATOM     11  H6  UNL     1      20.052   4.708 -21.184  1.00  0.00     0.167 HD
HETATM   12  C14 UNL     1      18.742   6.127 -21.918  1.00  0.00     0.151 A 
ENDROOT
BRANCH   1  13
HETATM   13  N4  UNL     1      17.261   7.523 -22.978  1.00  0.00    -0.368 N 
ATOM     14  H4  UNL     1      17.766   8.402 -23.092  1.00  0.00     0.161 HD
BRANCH  13  15
HETATM   15  C6  UNL     1      15.839   7.584 -22.824  1.00  0.00     0.165 C 
BRANCH  15  16
HETATM   16  C5  UNL     1      15.427   7.983 -21.436  1.00  0.00     0.082 C 
BRANCH  16  17
HETATM   17  N3  UNL     1      14.908   7.025 -20.592  1.00  0.00    -0.353 N 
ATOM     18  H3  UNL     1      13.895   7.121 -20.512  1.00  0.00     0.166 HD
BRANCH  17  19
HETATM   19  C4  UNL     1      15.322   6.070 -19.893  1.00  0.00     0.122 A 
HETATM   20  N1  UNL     1      15.428   6.181 -18.527  1.00  0.00    -0.281 N 
HETATM   21  C1  UNL     1      15.092   7.363 -17.753  1.00  0.00     0.179 C 
HETATM   22  N2  UNL     1      15.881   5.056 -18.031  1.00  0.00    -0.308 N 
HETATM   23  C2  UNL     1      16.100   4.150 -18.993  1.00  0.00     0.111 A 
ATOM     24  H2  UNL     1      16.047   4.892 -17.038  1.00  0.00     0.186 HD
HETATM   25  C3  UNL     1      15.742   4.799 -20.184  1.00  0.00     0.068 A 
ENDBRANCH  17  19
ENDBRANCH  16  17
ENDBRANCH  15  16
ENDBRANCH  13  15
ENDBRANCH   1  13
BRANCH  12  26
HETATM   26  N7  UNL     1      18.903   6.818 -20.874  1.00  0.00    -0.339 N 
ATOM     27  H7  UNL     1      18.100   6.868 -20.247  1.00  0.00     0.167 HD
BRANCH  26  28
HETATM   28  C15 UNL     1      20.043   7.525 -20.464  1.00  0.00     0.036 A 
HETATM   29  C16 UNL     1      20.336   7.773 -19.124  1.00  0.00     0.029 A 
HETATM   30  C17 UNL     1      21.457   8.458 -18.725  1.00  0.00     0.005 A 
HETATM   31  C18 UNL     1      22.342   8.926 -19.668  1.00  0.00     0.042 A 
HETATM   32  C19 UNL     1      22.089   8.701 -20.999  1.00  0.00     0.118 A 
HETATM   33  F1  UNL     1      22.967   9.165 -21.951  1.00  0.00    -0.206 F 
HETATM   34  C20 UNL     1      20.963   8.015 -21.394  1.00  0.00     0.071 A 
ENDBRANCH  26  28
ENDBRANCH  12  26
TORSDOF 7
ENDMDL
