MODEL 1
REMARK VINA RESULT: -7.659902103      0.000      0.000
REMARK  2 active torsions:
REMARK  status: ('A' for Active; 'I' for Inactive)
REMARK    1  A    between atoms: C1_2  and  N1_3 
REMARK    2  A    between atoms: N1_3  and  C2_5 
ROOT
HETATM    1  C2  UNL     1      40.433  12.854 -15.957  1.00  0.00     0.131 A 
HETATM    2  N2  UNL     1      39.655  12.144 -16.795  1.00  0.00    -0.293 N 
ATOM      3  H2  UNL     1      40.033  11.848 -17.695  1.00  0.00     0.172 HD
HETATM    4  C3  UNL     1      38.389  11.817 -16.471  1.00  0.00     0.327 A 
HETATM    5  O2  UNL     1      37.708  11.153 -17.292  1.00  0.00    -0.247 OA
HETATM    6  N3  UNL     1      37.835  12.182 -15.298  1.00  0.00    -0.293 N 
ATOM      7  H3  UNL     1      36.874  11.923 -15.076  1.00  0.00     0.172 HD
HETATM    8  C4  UNL     1      38.571  12.895 -14.421  1.00  0.00     0.132 A 
HETATM    9  N4  UNL     1      38.015  13.264 -13.237  1.00  0.00    -0.293 N 
ATOM     10  H4  UNL     1      37.056  13.015 -12.994  1.00  0.00     0.172 HD
HETATM   11  C5  UNL     1      38.792  13.971 -12.403  1.00  0.00     0.328 A 
HETATM   12  O3  UNL     1      38.300  14.324 -11.301  1.00  0.00    -0.247 OA
HETATM   13  N5  UNL     1      40.060  14.315 -12.695  1.00  0.00    -0.275 N 
ATOM     14  H5  UNL     1      40.600  14.855 -12.019  1.00  0.00     0.173 HD
HETATM   15  C6  UNL     1      40.627  13.958 -13.864  1.00  0.00     0.267 A 
HETATM   16  O4  UNL     1      41.808  14.260 -14.169  1.00  0.00    -0.267 OA
HETATM   17  C7  UNL     1      39.878  13.234 -14.750  1.00  0.00     0.120 A 
ENDROOT
BRANCH   1  18
HETATM   18  N1  UNL     1      41.629  13.187 -16.213  1.00  0.00    -0.319 N 
ATOM     19  H1  UNL     1      42.203  13.506 -15.432  1.00  0.00     0.169 HD
BRANCH  18  20
HETATM   20  C1  UNL     1      42.233  13.156 -17.483  1.00  0.00     0.354 C 
HETATM   21  O1  UNL     1      42.304  12.152 -18.225  1.00  0.00    -0.283 OA
ENDBRANCH  18  20
ENDBRANCH   1  18
TORSDOF 2
ENDMDL
MODEL 2
REMARK VINA RESULT: -7.339082401      1.802      4.478
REMARK  2 active torsions:
REMARK  status: ('A' for Active; 'I' for Inactive)
REMARK    1  A    between atoms: C1_2  and  N1_3 
REMARK    2  A    between atoms: N1_3  and  C2_5 
ROOT
HETATM    1  C2  UNL     1      41.130  13.942 -14.726  1.00  0.00     0.131 A 
HETATM    2  N2  UNL     1      40.062  13.949 -13.907  1.00  0.00    -0.293 N 
ATOM      3  H2  UNL     1      40.151  14.353 -12.975  1.00  0.00     0.172 HD
HETATM    4  C3  UNL     1      38.878  13.433 -14.292  1.00  0.00     0.327 A 
HETATM    5  O2  UNL     1      37.914  13.466 -13.488  1.00  0.00    -0.247 OA
HETATM    6  N3  UNL     1      38.701  12.884 -15.511  1.00  0.00    -0.293 N 
ATOM      7  H3  UNL     1      37.796  12.499 -15.779  1.00  0.00     0.172 HD
HETATM    8  C4  UNL     1      39.740  12.851 -16.370  1.00  0.00     0.132 A 
HETATM    9  N4  UNL     1      39.564  12.298 -17.600  1.00  0.00    -0.293 N 
ATOM     10  H4  UNL     1      38.667  11.908 -17.888  1.00  0.00     0.172 HD
HETATM   11  C5  UNL     1      40.630  12.292 -18.414  1.00  0.00     0.328 A 
HETATM   12  O3  UNL     1      40.492  11.786 -19.556  1.00  0.00    -0.247 OA
HETATM   13  N5  UNL     1      41.826  12.798 -18.061  1.00  0.00    -0.275 N 
ATOM     14  H5  UNL     1      42.599  12.764 -18.725  1.00  0.00     0.173 HD
HETATM   15  C6  UNL     1      42.018  13.350 -16.847  1.00  0.00     0.267 A 
HETATM   16  O4  UNL     1      43.120  13.833 -16.484  1.00  0.00    -0.267 OA
HETATM   17  C7  UNL     1      40.962  13.382 -15.978  1.00  0.00     0.120 A 
ENDROOT
BRANCH   1  18
HETATM   18  N1  UNL     1      42.265  14.414 -14.412  1.00  0.00    -0.319 N 
ATOM     19  H1  UNL     1      43.080  14.018 -14.880  1.00  0.00     0.169 HD
BRANCH  18  20
HETATM   20  C1  UNL     1      42.495  15.435 -13.474  1.00  0.00     0.354 C 
HETATM   21  O1  UNL     1      42.213  15.377 -12.257  1.00  0.00    -0.283 OA
ENDBRANCH  18  20
ENDBRANCH   1  18
TORSDOF 2
ENDMDL
MODEL 3
REMARK VINA RESULT: -7.200143616      1.314      4.373
REMARK  2 active torsions:
REMARK  status: ('A' for Active; 'I' for Inactive)
REMARK    1  A    between atoms: C1_2  and  N1_3 
REMARK    2  A    between atoms: N1_3  and  C2_5 
ROOT
HETATM    1  C2  UNL     1      40.246  14.469 -13.357  1.00  0.00     0.131 A 
HETATM    2  N2  UNL     1      39.437  14.608 -12.291  1.00  0.00    -0.293 N 
ATOM      3  H2  UNL     1      39.734  15.195 -11.512  1.00  0.00     0.172 HD
HETATM    4  C3  UNL     1      38.242  13.987 -12.231  1.00  0.00     0.327 A 
HETATM    5  O2  UNL     1      37.526  14.152 -11.212  1.00  0.00    -0.247 OA
HETATM    6  N3  UNL     1      37.796  13.198 -13.229  1.00  0.00    -0.293 N 
ATOM      7  H3  UNL     1      36.889  12.737 -13.159  1.00  0.00     0.172 HD
HETATM    8  C4  UNL     1      38.570  13.025 -14.320  1.00  0.00     0.132 A 
HETATM    9  N4  UNL     1      38.122  12.229 -15.328  1.00  0.00    -0.293 N 
ATOM     10  H4  UNL     1      37.218  11.760 -15.280  1.00  0.00     0.172 HD
HETATM   11  C5  UNL     1      38.931  12.092 -16.390  1.00  0.00     0.328 A 
HETATM   12  O3  UNL     1      38.539  11.362 -17.335  1.00  0.00    -0.247 OA
HETATM   13  N5  UNL     1      40.129  12.697 -16.482  1.00  0.00    -0.275 N 
ATOM     14  H5  UNL     1      40.700  12.554 -17.315  1.00  0.00     0.173 HD
HETATM   15  C6  UNL     1      40.589  13.489 -15.493  1.00  0.00     0.267 A 
HETATM   16  O4  UNL     1      41.702  14.070 -15.545  1.00  0.00    -0.267 OA
HETATM   17  C7  UNL     1      39.802  13.663 -14.388  1.00  0.00     0.120 A 
ENDROOT
BRANCH   1  18
HETATM   18  N1  UNL     1      41.379  15.031 -13.463  1.00  0.00    -0.319 N 
ATOM     19  H1  UNL     1      41.858  14.949 -14.360  1.00  0.00     0.169 HD
BRANCH  18  20
HETATM   20  C1  UNL     1      42.030  15.756 -12.450  1.00  0.00     0.354 C 
HETATM   21  O1  UNL     1      41.920  15.542 -11.223  1.00  0.00    -0.283 OA
ENDBRANCH  18  20
ENDBRANCH   1  18
TORSDOF 2
ENDMDL
MODEL 4
REMARK VINA RESULT: -7.185259217      1.420      5.247
REMARK  2 active torsions:
REMARK  status: ('A' for Active; 'I' for Inactive)
REMARK    1  A    between atoms: C1_2  and  N1_3 
REMARK    2  A    between atoms: N1_3  and  C2_5 
ROOT
HETATM    1  C2  UNL     1      39.595  13.586 -13.896  1.00  0.00     0.131 A 
HETATM    2  N2  UNL     1      40.651  14.233 -13.370  1.00  0.00    -0.293 N 
ATOM      3  H2  UNL     1      40.602  14.567 -12.408  1.00  0.00     0.172 HD
HETATM    4  C3  UNL     1      41.771  14.449 -14.088  1.00  0.00     0.327 A 
HETATM    5  O2  UNL     1      42.727  15.059 -13.547  1.00  0.00    -0.247 OA
HETATM    6  N3  UNL     1      41.893  14.033 -15.364  1.00  0.00    -0.293 N 
ATOM      7  H3  UNL     1      42.750  14.210 -15.887  1.00  0.00     0.172 HD
HETATM    8  C4  UNL     1      40.863  13.379 -15.939  1.00  0.00     0.132 A 
HETATM    9  N4  UNL     1      40.983  12.958 -17.227  1.00  0.00    -0.293 N 
ATOM     10  H4  UNL     1      41.832  13.124 -17.768  1.00  0.00     0.172 HD
HETATM   11  C5  UNL     1      39.929  12.313 -17.749  1.00  0.00     0.328 A 
HETATM   12  O3  UNL     1      40.017  11.914 -18.937  1.00  0.00    -0.247 OA
HETATM   13  N5  UNL     1      38.796  12.081 -17.060  1.00  0.00    -0.275 N 
ATOM     14  H5  UNL     1      38.028  11.585 -17.513  1.00  0.00     0.173 HD
HETATM   15  C6  UNL     1      38.659  12.491 -15.784  1.00  0.00     0.267 A 
HETATM   16  O4  UNL     1      37.617  12.290 -15.111  1.00  0.00    -0.267 OA
HETATM   17  C7  UNL     1      39.706  13.153 -15.204  1.00  0.00     0.120 A 
ENDROOT
BRANCH   1  18
HETATM   18  N1  UNL     1      38.519  13.357 -13.264  1.00  0.00    -0.319 N 
ATOM     19  H1  UNL     1      37.745  12.952 -13.791  1.00  0.00     0.169 HD
BRANCH  18  20
HETATM   20  C1  UNL     1      38.302  13.615 -11.899  1.00  0.00     0.354 C 
HETATM   21  O1  UNL     1      39.165  13.524 -10.999  1.00  0.00    -0.283 OA
ENDBRANCH  18  20
ENDBRANCH   1  18
TORSDOF 2
ENDMDL
MODEL 5
REMARK VINA RESULT: -7.103329964      1.487      3.242
REMARK  2 active torsions:
REMARK  status: ('A' for Active; 'I' for Inactive)
REMARK    1  A    between atoms: C1_2  and  N1_3 
REMARK    2  A    between atoms: N1_3  and  C2_5 
ROOT
HETATM    1  C2  UNL     1      40.896  13.136 -16.586  1.00  0.00     0.131 A 
HETATM    2  N2  UNL     1      42.059  13.736 -16.902  1.00  0.00    -0.293 N 
ATOM      3  H2  UNL     1      42.488  13.547 -17.807  1.00  0.00     0.172 HD
HETATM    4  C3  UNL     1      42.668  14.581 -16.047  1.00  0.00     0.327 A 
HETATM    5  O2  UNL     1      43.752  15.114 -16.392  1.00  0.00    -0.247 OA
HETATM    6  N3  UNL     1      42.150  14.867 -14.835  1.00  0.00    -0.293 N 
ATOM      7  H3  UNL     1      42.630  15.509 -14.205  1.00  0.00     0.172 HD
HETATM    8  C4  UNL     1      40.985  14.292 -14.470  1.00  0.00     0.132 A 
HETATM    9  N4  UNL     1      40.460  14.580 -13.249  1.00  0.00    -0.293 N 
ATOM     10  H4  UNL     1      40.924  15.219 -12.603  1.00  0.00     0.172 HD
HETATM   11  C5  UNL     1      39.302  13.981 -12.937  1.00  0.00     0.328 A 
HETATM   12  O3  UNL     1      38.796  14.231 -11.814  1.00  0.00    -0.247 OA
HETATM   13  N5  UNL     1      38.667  13.132 -13.767  1.00  0.00    -0.275 N 
ATOM     14  H5  UNL     1      37.789  12.707 -13.473  1.00  0.00     0.173 HD
HETATM   15  C6  UNL     1      39.173  12.835 -14.981  1.00  0.00     0.267 A 
HETATM   16  O4  UNL     1      38.608  12.049 -15.781  1.00  0.00    -0.267 OA
HETATM   17  C7  UNL     1      40.353  13.421 -15.348  1.00  0.00     0.120 A 
ENDROOT
BRANCH   1  18
HETATM   18  N1  UNL     1      40.283  12.334 -17.355  1.00  0.00    -0.319 N 
ATOM     19  H1  UNL     1      39.413  11.930 -17.009  1.00  0.00     0.169 HD
BRANCH  18  20
HETATM   20  C1  UNL     1      40.702  11.953 -18.642  1.00  0.00     0.354 C 
HETATM   21  O1  UNL     1      41.871  11.647 -18.961  1.00  0.00    -0.283 OA
ENDBRANCH  18  20
ENDBRANCH   1  18
TORSDOF 2
ENDMDL
