MODEL 1
REMARK VINA RESULT: -7.332423090      0.000      0.000
REMARK  12 active torsions:
REMARK  status: ('A' for Active; 'I' for Inactive)
REMARK    1  A    between atoms: C2_2  and  N1_3 
REMARK       I    between atoms: N1_3  and  C3_5 
REMARK       I    between atoms: C3_5  and  N3_9 
REMARK    2  A    between atoms: N3_9  and  C4_11 
REMARK    3  A    between atoms: C4_11  and  C5_12 
REMARK    4  A    between atoms: C5_12  and  C6_13 
REMARK    5  A    between atoms: C6_13  and  C7_14 
REMARK    6  A    between atoms: C7_14  and  N4_15 
REMARK    7  A    between atoms: N4_15  and  C8_17 
REMARK    8  A    between atoms: C8_17  and  C9_19 
REMARK    9  A    between atoms: C10_23  and  C11_24 
REMARK   10  A    between atoms: C11_24  and  C12_25 
REMARK   11  A    between atoms: C17_30  and  C18_31 
REMARK   12  A    between atoms: C21_35  and  O1_36 
ROOT
HETATM    1  C9  UNL     1      37.302 -19.618  24.516  1.00  0.00     0.255 C 
HETATM    2  N5  UNL     1      36.917 -20.689  23.634  1.00  0.00    -0.060 N 
ATOM      3  H51 UNL     1      37.709 -21.096  23.135  1.00  0.00     0.278 HD
ATOM      4  H52 UNL     1      36.397 -20.365  22.819  1.00  0.00     0.278 HD
HETATM    5  C10 UNL     1      36.176 -21.675  24.428  1.00  0.00     0.188 C 
HETATM    6  C16 UNL     1      36.776 -21.496  25.820  1.00  0.00     0.045 C 
HETATM    7  C17 UNL     1      36.822 -19.973  25.865  1.00  0.00     0.058 C 
ENDROOT
BRANCH   1   8
HETATM    8  C8  UNL     1      38.673 -19.149  24.376  1.00  0.00     0.105 C 
HETATM    9  S1  UNL     1      39.969 -20.077  23.997  1.00  0.00    -0.063 SA
BRANCH   8  10
HETATM   10  N4  UNL     1      38.952 -17.755  24.559  1.00  0.00    -0.383 N 
ATOM     11  H4  UNL     1      38.250 -17.074  24.270  1.00  0.00     0.160 HD
BRANCH  10  12
HETATM   12  C7  UNL     1      40.185 -17.276  25.136  1.00  0.00     0.120 C 
BRANCH  12  13
HETATM   13  C6  UNL     1      39.961 -16.362  26.301  1.00  0.00     0.021 C 
BRANCH  13  14
HETATM   14  C5  UNL     1      38.769 -15.451  26.121  1.00  0.00     0.022 C 
BRANCH  14  15
HETATM   15  C4  UNL     1      38.788 -14.395  27.197  1.00  0.00     0.138 C 
BRANCH  15  16
HETATM   16  N3  UNL     1      37.582 -14.272  27.945  1.00  0.00    -0.227 N 
HETATM   17  C3  UNL     1      36.598 -13.281  27.758  1.00  0.00     0.667 C 
HETATM   18  N1  UNL     1      35.666 -13.031  28.792  1.00  0.00    -0.227 N 
HETATM   19  N2  UNL     1      36.521 -12.597  26.680  1.00  0.00    -0.235 N 
ATOM     20  H1  UNL     1      35.840 -12.294  29.476  1.00  0.00     0.177 HD
ATOM     21  H22 UNL     1      35.810 -11.880  26.545  1.00  0.00     0.174 HD
ATOM     22  H21 UNL     1      37.194 -12.777  25.934  1.00  0.00     0.174 HD
ATOM     23  H3  UNL     1      37.416 -14.961  28.679  1.00  0.00     0.177 HD
BRANCH  18  24
HETATM   24  C2  UNL     1      34.463 -13.833  28.869  1.00  0.00     0.133 C 
HETATM   25  C1  UNL     1      33.896 -13.851  30.285  1.00  0.00     0.027 C 
ENDBRANCH  18  24
ENDBRANCH  15  16
ENDBRANCH  14  15
ENDBRANCH  13  14
ENDBRANCH  12  13
ENDBRANCH  10  12
ENDBRANCH   8  10
ENDBRANCH   1   8
BRANCH   7  26
HETATM   26  C18 UNL     1      37.588 -19.524  27.009  1.00  0.00    -0.048 A 
HETATM   27  C19 UNL     1      37.205 -18.414  27.737  1.00  0.00     0.034 A 
HETATM   28  C20 UNL     1      37.914 -17.992  28.833  1.00  0.00     0.069 A 
HETATM   29 CL1  UNL     1      37.446 -16.584  29.772  1.00  0.00    -0.081 Cl
HETATM   30  C21 UNL     1      39.038 -18.671  29.243  1.00  0.00     0.104 A 
HETATM   31  C22 UNL     1      39.447 -19.790  28.534  1.00  0.00     0.046 A 
HETATM   32 BR1  UNL     1      41.008 -20.721  29.106  1.00  0.00    -0.048 Br
HETATM   33  C23 UNL     1      38.711 -20.200  27.423  1.00  0.00     0.029 A 
BRANCH  30  34
HETATM   34  O1  UNL     1      39.775 -18.251  30.363  1.00  0.00    -0.358 OA
ATOM     35  H1  UNL     1      40.724 -18.224  30.346  1.00  0.00     0.217 HD
ENDBRANCH  30  34
ENDBRANCH   7  26
BRANCH   5  36
HETATM   36  C11 UNL     1      36.374 -23.013  23.836  1.00  0.00     0.041 C 
BRANCH  36  37
HETATM   37  C12 UNL     1      35.209 -23.710  23.254  1.00  0.00    -0.050 C 
HETATM   38  C13 UNL     1      35.680 -24.277  21.896  1.00  0.00     0.014 C 
HETATM   39  C14 UNL     1      34.068 -22.774  22.905  1.00  0.00     0.014 C 
HETATM   40  C15 UNL     1      34.678 -24.867  24.052  1.00  0.00     0.014 C 
ENDBRANCH  36  37
ENDBRANCH   5  36
TORSDOF 12
ENDMDL
MODEL 2
REMARK VINA RESULT: -6.824145628      3.829      8.031
REMARK  12 active torsions:
REMARK  status: ('A' for Active; 'I' for Inactive)
REMARK    1  A    between atoms: C2_2  and  N1_3 
REMARK       I    between atoms: N1_3  and  C3_5 
REMARK       I    between atoms: C3_5  and  N3_9 
REMARK    2  A    between atoms: N3_9  and  C4_11 
REMARK    3  A    between atoms: C4_11  and  C5_12 
REMARK    4  A    between atoms: C5_12  and  C6_13 
REMARK    5  A    between atoms: C6_13  and  C7_14 
REMARK    6  A    between atoms: C7_14  and  N4_15 
REMARK    7  A    between atoms: N4_15  and  C8_17 
REMARK    8  A    between atoms: C8_17  and  C9_19 
REMARK    9  A    between atoms: C10_23  and  C11_24 
REMARK   10  A    between atoms: C11_24  and  C12_25 
REMARK   11  A    between atoms: C17_30  and  C18_31 
REMARK   12  A    between atoms: C21_35  and  O1_36 
ROOT
HETATM    1  C9  UNL     1      38.583 -20.674  27.752  1.00  0.00     0.255 C 
HETATM    2  N5  UNL     1      39.487 -21.786  27.892  1.00  0.00    -0.060 N 
ATOM      3  H51 UNL     1      39.840 -22.125  26.997  1.00  0.00     0.278 HD
ATOM      4  H52 UNL     1      39.018 -22.643  28.185  1.00  0.00     0.278 HD
HETATM    5  C10 UNL     1      40.556 -21.378  28.809  1.00  0.00     0.188 C 
HETATM    6  C16 UNL     1      40.622 -19.869  28.589  1.00  0.00     0.045 C 
HETATM    7  C17 UNL     1      39.128 -19.568  28.562  1.00  0.00     0.058 C 
ENDROOT
BRANCH   1   8
HETATM    8  C8  UNL     1      38.151 -20.381  26.393  1.00  0.00     0.105 C 
HETATM    9  S1  UNL     1      39.105 -20.386  25.062  1.00  0.00    -0.063 SA
BRANCH   8  10
HETATM   10  N4  UNL     1      36.771 -20.076  26.155  1.00  0.00    -0.383 N 
ATOM     11  H4  UNL     1      36.503 -19.103  26.005  1.00  0.00     0.160 HD
BRANCH  10  12
HETATM   12  C7  UNL     1      35.744 -21.089  26.118  1.00  0.00     0.120 C 
BRANCH  12  13
HETATM   13  C6  UNL     1      35.749 -21.873  24.841  1.00  0.00     0.021 C 
BRANCH  13  14
HETATM   14  C5  UNL     1      35.927 -23.358  25.059  1.00  0.00     0.022 C 
BRANCH  14  15
HETATM   15  C4  UNL     1      37.274 -23.776  24.523  1.00  0.00     0.138 C 
BRANCH  15  16
HETATM   16  N3  UNL     1      38.247 -24.093  25.514  1.00  0.00    -0.227 N 
HETATM   17  C3  UNL     1      38.294 -25.285  26.266  1.00  0.00     0.667 C 
HETATM   18  N1  UNL     1      39.047 -25.315  27.462  1.00  0.00    -0.227 N 
HETATM   19  N2  UNL     1      37.675 -26.342  25.899  1.00  0.00    -0.235 N 
ATOM     20  H1  UNL     1      38.597 -25.130  28.359  1.00  0.00     0.177 HD
ATOM     21  H22 UNL     1      37.709 -27.203  26.443  1.00  0.00     0.174 HD
ATOM     22  H21 UNL     1      37.131 -26.320  25.036  1.00  0.00     0.174 HD
ATOM     23  H3  UNL     1      38.971 -23.398  25.695  1.00  0.00     0.177 HD
BRANCH  18  24
HETATM   24  C2  UNL     1      40.463 -25.613  27.400  1.00  0.00     0.133 C 
HETATM   25  C1  UNL     1      40.842 -26.716  28.382  1.00  0.00     0.027 C 
ENDBRANCH  18  24
ENDBRANCH  15  16
ENDBRANCH  14  15
ENDBRANCH  13  14
ENDBRANCH  12  13
ENDBRANCH  10  12
ENDBRANCH   8  10
ENDBRANCH   1   8
BRANCH   7  26
HETATM   26  C18 UNL     1      38.894 -18.209  28.120  1.00  0.00    -0.048 A 
HETATM   27  C19 UNL     1      39.724 -17.603  27.196  1.00  0.00     0.034 A 
HETATM   28  C20 UNL     1      39.499 -16.323  26.758  1.00  0.00     0.069 A 
HETATM   29 CL1  UNL     1      40.541 -15.533  25.585  1.00  0.00    -0.081 Cl
HETATM   30  C21 UNL     1      38.429 -15.599  27.231  1.00  0.00     0.104 A 
HETATM   31  C22 UNL     1      37.578 -16.180  28.158  1.00  0.00     0.046 A 
HETATM   32 BR1  UNL     1      36.102 -15.168  28.811  1.00  0.00    -0.048 Br
HETATM   33  C23 UNL     1      37.826 -17.482  28.589  1.00  0.00     0.029 A 
BRANCH  30  34
HETATM   34  O1  UNL     1      38.187 -14.286  26.792  1.00  0.00    -0.358 OA
ATOM     35  H1  UNL     1      37.916 -13.606  27.398  1.00  0.00     0.217 HD
ENDBRANCH  30  34
ENDBRANCH   7  26
BRANCH   5  36
HETATM   36  C11 UNL     1      41.791 -22.108  28.459  1.00  0.00     0.041 C 
BRANCH  36  37
HETATM   37  C12 UNL     1      42.516 -22.825  29.528  1.00  0.00    -0.050 C 
HETATM   38  C13 UNL     1      41.441 -23.552  30.367  1.00  0.00     0.014 C 
HETATM   39  C14 UNL     1      43.206 -21.896  30.508  1.00  0.00     0.014 C 
HETATM   40  C15 UNL     1      43.490 -23.872  29.063  1.00  0.00     0.014 C 
ENDBRANCH  36  37
ENDBRANCH   5  36
TORSDOF 12
ENDMDL
MODEL 3
REMARK VINA RESULT: -6.788495235      3.583      7.955
REMARK  12 active torsions:
REMARK  status: ('A' for Active; 'I' for Inactive)
REMARK    1  A    between atoms: C2_2  and  N1_3 
REMARK       I    between atoms: N1_3  and  C3_5 
REMARK       I    between atoms: C3_5  and  N3_9 
REMARK    2  A    between atoms: N3_9  and  C4_11 
REMARK    3  A    between atoms: C4_11  and  C5_12 
REMARK    4  A    between atoms: C5_12  and  C6_13 
REMARK    5  A    between atoms: C6_13  and  C7_14 
REMARK    6  A    between atoms: C7_14  and  N4_15 
REMARK    7  A    between atoms: N4_15  and  C8_17 
REMARK    8  A    between atoms: C8_17  and  C9_19 
REMARK    9  A    between atoms: C10_23  and  C11_24 
REMARK   10  A    between atoms: C11_24  and  C12_25 
REMARK   11  A    between atoms: C17_30  and  C18_31 
REMARK   12  A    between atoms: C21_35  and  O1_36 
ROOT
HETATM    1  C9  UNL     1      38.473 -20.552  27.742  1.00  0.00     0.255 C 
HETATM    2  N5  UNL     1      39.514 -21.531  27.919  1.00  0.00    -0.060 N 
ATOM      3  H51 UNL     1      39.839 -21.928  27.037  1.00  0.00     0.278 HD
ATOM      4  H52 UNL     1      39.177 -22.396  28.340  1.00  0.00     0.278 HD
HETATM    5  C10 UNL     1      40.590 -20.902  28.693  1.00  0.00     0.188 C 
HETATM    6  C16 UNL     1      40.453 -19.430  28.311  1.00  0.00     0.045 C 
HETATM    7  C17 UNL     1      38.935 -19.306  28.381  1.00  0.00     0.058 C 
ENDROOT
BRANCH   1   8
HETATM    8  C8  UNL     1      37.909 -20.468  26.402  1.00  0.00     0.105 C 
HETATM    9  S1  UNL     1      38.761 -20.462  25.003  1.00  0.00    -0.063 SA
BRANCH   8  10
HETATM   10  N4  UNL     1      36.485 -20.403  26.251  1.00  0.00    -0.383 N 
ATOM     11  H4  UNL     1      35.958 -19.769  26.852  1.00  0.00     0.160 HD
BRANCH  10  12
HETATM   12  C7  UNL     1      35.767 -21.197  25.284  1.00  0.00     0.120 C 
BRANCH  12  13
HETATM   13  C6  UNL     1      35.850 -22.666  25.565  1.00  0.00     0.021 C 
BRANCH  13  14
HETATM   14  C5  UNL     1      36.043 -23.499  24.318  1.00  0.00     0.022 C 
BRANCH  14  15
HETATM   15  C4  UNL     1      37.465 -23.997  24.273  1.00  0.00     0.138 C 
BRANCH  15  16
HETATM   16  N3  UNL     1      38.079 -24.190  25.543  1.00  0.00    -0.227 N 
HETATM   17  C3  UNL     1      38.660 -25.390  26.000  1.00  0.00     0.667 C 
HETATM   18  N1  UNL     1      38.875 -25.568  27.386  1.00  0.00    -0.227 N 
HETATM   19  N2  UNL     1      38.998 -26.327  25.198  1.00  0.00    -0.235 N 
ATOM     20  H1  UNL     1      38.179 -26.046  27.959  1.00  0.00     0.177 HD
ATOM     21  H22 UNL     1      39.417 -27.196  25.529  1.00  0.00     0.174 HD
ATOM     22  H21 UNL     1      38.842 -26.199  24.198  1.00  0.00     0.174 HD
ATOM     23  H3  UNL     1      38.101 -23.391  26.177  1.00  0.00     0.177 HD
BRANCH  18  24
HETATM   24  C2  UNL     1      40.094 -25.063  27.984  1.00  0.00     0.133 C 
HETATM   25  C1  UNL     1      39.936 -24.867  29.488  1.00  0.00     0.027 C 
ENDBRANCH  18  24
ENDBRANCH  15  16
ENDBRANCH  14  15
ENDBRANCH  13  14
ENDBRANCH  12  13
ENDBRANCH  10  12
ENDBRANCH   8  10
ENDBRANCH   1   8
BRANCH   7  26
HETATM   26  C18 UNL     1      38.505 -18.042  27.821  1.00  0.00    -0.048 A 
HETATM   27  C19 UNL     1      37.461 -17.329  28.378  1.00  0.00     0.034 A 
HETATM   28  C20 UNL     1      37.059 -16.123  27.864  1.00  0.00     0.069 A 
HETATM   29 CL1  UNL     1      35.735 -15.199  28.557  1.00  0.00    -0.081 Cl
HETATM   30  C21 UNL     1      37.691 -15.583  26.768  1.00  0.00     0.104 A 
HETATM   31  C22 UNL     1      38.742 -16.275  26.187  1.00  0.00     0.046 A 
HETATM   32 BR1  UNL     1      39.608 -15.522  24.666  1.00  0.00    -0.048 Br
HETATM   33  C23 UNL     1      39.134 -17.499  26.726  1.00  0.00     0.029 A 
BRANCH  30  34
HETATM   34  O1  UNL     1      37.289 -14.349  26.230  1.00  0.00    -0.358 OA
ATOM     35  H1  UNL     1      37.794 -13.921  25.549  1.00  0.00     0.217 HD
ENDBRANCH  30  34
ENDBRANCH   7  26
BRANCH   5  36
HETATM   36  C11 UNL     1      41.875 -21.521  28.316  1.00  0.00     0.041 C 
BRANCH  36  37
HETATM   37  C12 UNL     1      42.837 -21.863  29.385  1.00  0.00    -0.050 C 
HETATM   38  C13 UNL     1      42.060 -21.750  30.716  1.00  0.00     0.014 C 
HETATM   39  C14 UNL     1      43.967 -20.860  29.513  1.00  0.00     0.014 C 
HETATM   40  C15 UNL     1      43.407 -23.252  29.327  1.00  0.00     0.014 C 
ENDBRANCH  36  37
ENDBRANCH   5  36
TORSDOF 12
ENDMDL
MODEL 4
REMARK VINA RESULT: -6.781932424      3.321      4.375
REMARK  12 active torsions:
REMARK  status: ('A' for Active; 'I' for Inactive)
REMARK    1  A    between atoms: C2_2  and  N1_3 
REMARK       I    between atoms: N1_3  and  C3_5 
REMARK       I    between atoms: C3_5  and  N3_9 
REMARK    2  A    between atoms: N3_9  and  C4_11 
REMARK    3  A    between atoms: C4_11  and  C5_12 
REMARK    4  A    between atoms: C5_12  and  C6_13 
REMARK    5  A    between atoms: C6_13  and  C7_14 
REMARK    6  A    between atoms: C7_14  and  N4_15 
REMARK    7  A    between atoms: N4_15  and  C8_17 
REMARK    8  A    between atoms: C8_17  and  C9_19 
REMARK    9  A    between atoms: C10_23  and  C11_24 
REMARK   10  A    between atoms: C11_24  and  C12_25 
REMARK   11  A    between atoms: C17_30  and  C18_31 
REMARK   12  A    between atoms: C21_35  and  O1_36 
ROOT
HETATM    1  C9  UNL     1      38.379 -22.153  25.739  1.00  0.00     0.255 C 
HETATM    2  N5  UNL     1      37.973 -23.528  25.613  1.00  0.00    -0.060 N 
ATOM      3  H51 UNL     1      36.980 -23.667  25.803  1.00  0.00     0.278 HD
ATOM      4  H52 UNL     1      38.337 -24.119  26.360  1.00  0.00     0.278 HD
HETATM    5  C10 UNL     1      38.369 -23.989  24.278  1.00  0.00     0.188 C 
HETATM    6  C16 UNL     1      38.325 -22.702  23.458  1.00  0.00     0.045 C 
HETATM    7  C17 UNL     1      38.994 -21.763  24.456  1.00  0.00     0.058 C 
ENDROOT
BRANCH   1   8
HETATM    8  C8  UNL     1      37.394 -21.257  26.329  1.00  0.00     0.105 C 
HETATM    9  S1  UNL     1      35.793 -21.235  25.986  1.00  0.00    -0.063 SA
BRANCH   8  10
HETATM   10  N4  UNL     1      37.822 -20.309  27.315  1.00  0.00    -0.383 N 
ATOM     11  H4  UNL     1      37.246 -19.484  27.483  1.00  0.00     0.160 HD
BRANCH  10  12
HETATM   12  C7  UNL     1      39.034 -20.474  28.080  1.00  0.00     0.120 C 
BRANCH  12  13
HETATM   13  C6  UNL     1      39.875 -19.234  28.107  1.00  0.00     0.021 C 
BRANCH  13  14
HETATM   14  C5  UNL     1      39.124 -18.020  28.604  1.00  0.00     0.022 C 
BRANCH  14  15
HETATM   15  C4  UNL     1      39.242 -16.916  27.584  1.00  0.00     0.138 C 
BRANCH  15  16
HETATM   16  N3  UNL     1      38.445 -15.764  27.844  1.00  0.00    -0.227 N 
HETATM   17  C3  UNL     1      38.083 -14.786  26.897  1.00  0.00     0.667 C 
HETATM   18  N1  UNL     1      37.638 -13.522  27.347  1.00  0.00    -0.227 N 
HETATM   19  N2  UNL     1      38.146 -15.006  25.638  1.00  0.00    -0.235 N 
ATOM     20  H1  UNL     1      38.295 -12.747  27.439  1.00  0.00     0.177 HD
ATOM     21  H22 UNL     1      37.884 -14.299  24.953  1.00  0.00     0.174 HD
ATOM     22  H21 UNL     1      38.467 -15.919  25.313  1.00  0.00     0.174 HD
ATOM     23  H3  UNL     1      38.108 -15.636  28.799  1.00  0.00     0.177 HD
BRANCH  18  24
HETATM   24  C2  UNL     1      36.240 -13.339  27.674  1.00  0.00     0.133 C 
HETATM   25  C1  UNL     1      35.791 -14.312  28.759  1.00  0.00     0.027 C 
ENDBRANCH  18  24
ENDBRANCH  15  16
ENDBRANCH  14  15
ENDBRANCH  13  14
ENDBRANCH  12  13
ENDBRANCH  10  12
ENDBRANCH   8  10
ENDBRANCH   1   8
BRANCH   7  26
HETATM   26  C18 UNL     1      38.866 -20.388  24.020  1.00  0.00    -0.048 A 
HETATM   27  C19 UNL     1      39.790 -19.430  24.388  1.00  0.00     0.034 A 
HETATM   28  C20 UNL     1      39.687 -18.129  23.964  1.00  0.00     0.069 A 
HETATM   29 CL1  UNL     1      40.851 -16.895  24.420  1.00  0.00    -0.081 Cl
HETATM   30  C21 UNL     1      38.648 -17.738  23.152  1.00  0.00     0.104 A 
HETATM   31  C22 UNL     1      37.704 -18.677  22.765  1.00  0.00     0.046 A 
HETATM   32 BR1  UNL     1      36.266 -18.126  21.643  1.00  0.00    -0.048 Br
HETATM   33  C23 UNL     1      37.830 -19.993  23.207  1.00  0.00     0.029 A 
BRANCH  30  34
HETATM   34  O1  UNL     1      38.528 -16.410  22.710  1.00  0.00    -0.358 OA
ATOM     35  H1  UNL     1      39.012 -16.095  21.957  1.00  0.00     0.217 HD
ENDBRANCH  30  34
ENDBRANCH   7  26
BRANCH   5  36
HETATM   36  C11 UNL     1      37.427 -25.036  23.835  1.00  0.00     0.041 C 
BRANCH  36  37
HETATM   37  C12 UNL     1      37.686 -26.435  24.232  1.00  0.00    -0.050 C 
HETATM   38  C13 UNL     1      37.449 -27.294  22.969  1.00  0.00     0.014 C 
HETATM   39  C14 UNL     1      36.690 -26.961  25.247  1.00  0.00     0.014 C 
HETATM   40  C15 UNL     1      39.082 -26.729  24.704  1.00  0.00     0.014 C 
ENDBRANCH  36  37
ENDBRANCH   5  36
TORSDOF 12
ENDMDL
MODEL 5
REMARK VINA RESULT: -6.778838262      1.923      2.350
REMARK  12 active torsions:
REMARK  status: ('A' for Active; 'I' for Inactive)
REMARK    1  A    between atoms: C2_2  and  N1_3 
REMARK       I    between atoms: N1_3  and  C3_5 
REMARK       I    between atoms: C3_5  and  N3_9 
REMARK    2  A    between atoms: N3_9  and  C4_11 
REMARK    3  A    between atoms: C4_11  and  C5_12 
REMARK    4  A    between atoms: C5_12  and  C6_13 
REMARK    5  A    between atoms: C6_13  and  C7_14 
REMARK    6  A    between atoms: C7_14  and  N4_15 
REMARK    7  A    between atoms: N4_15  and  C8_17 
REMARK    8  A    between atoms: C8_17  and  C9_19 
REMARK    9  A    between atoms: C10_23  and  C11_24 
REMARK   10  A    between atoms: C11_24  and  C12_25 
REMARK   11  A    between atoms: C17_30  and  C18_31 
REMARK   12  A    between atoms: C21_35  and  O1_36 
ROOT
HETATM    1  C9  UNL     1      37.548 -21.081  24.232  1.00  0.00     0.255 C 
HETATM    2  N5  UNL     1      37.213 -22.149  23.328  1.00  0.00    -0.060 N 
ATOM      3  H51 UNL     1      38.006 -22.453  22.762  1.00  0.00     0.278 HD
ATOM      4  H52 UNL     1      36.611 -21.846  22.563  1.00  0.00     0.278 HD
HETATM    5  C10 UNL     1      36.627 -23.236  24.119  1.00  0.00     0.188 C 
HETATM    6  C16 UNL     1      37.298 -23.053  25.478  1.00  0.00     0.045 C 
HETATM    7  C17 UNL     1      37.198 -21.536  25.591  1.00  0.00     0.058 C 
ENDROOT
BRANCH   1   8
HETATM    8  C8  UNL     1      38.855 -20.470  24.029  1.00  0.00     0.105 C 
HETATM    9  S1  UNL     1      40.230 -21.262  23.624  1.00  0.00    -0.063 SA
BRANCH   8  10
HETATM   10  N4  UNL     1      38.985 -19.049  24.168  1.00  0.00    -0.383 N 
ATOM     11  H4  UNL     1      38.216 -18.455  23.860  1.00  0.00     0.160 HD
BRANCH  10  12
HETATM   12  C7  UNL     1      40.161 -18.426  24.726  1.00  0.00     0.120 C 
BRANCH  12  13
HETATM   13  C6  UNL     1      39.832 -17.294  25.651  1.00  0.00     0.021 C 
BRANCH  13  14
HETATM   14  C5  UNL     1      38.420 -16.781  25.481  1.00  0.00     0.022 C 
BRANCH  14  15
HETATM   15  C4  UNL     1      38.355 -15.350  25.951  1.00  0.00     0.138 C 
BRANCH  15  16
HETATM   16  N3  UNL     1      37.318 -15.066  26.885  1.00  0.00    -0.227 N 
HETATM   17  C3  UNL     1      37.206 -13.890  27.653  1.00  0.00     0.667 C 
HETATM   18  N1  UNL     1      36.380 -13.893  28.801  1.00  0.00    -0.227 N 
HETATM   19  N2  UNL     1      37.830 -12.817  27.345  1.00  0.00    -0.235 N 
ATOM     20  H1  UNL     1      36.776 -14.089  29.721  1.00  0.00     0.177 HD
ATOM     21  H22 UNL     1      37.749 -11.967  27.901  1.00  0.00     0.174 HD
ATOM     22  H21 UNL     1      38.426 -12.815  26.517  1.00  0.00     0.174 HD
ATOM     23  H3  UNL     1      36.594 -15.774  27.008  1.00  0.00     0.177 HD
BRANCH  18  24
HETATM   24  C2  UNL     1      34.966 -13.615  28.656  1.00  0.00     0.133 C 
HETATM   25  C1  UNL     1      34.130 -14.482  29.593  1.00  0.00     0.027 C 
ENDBRANCH  18  24
ENDBRANCH  15  16
ENDBRANCH  14  15
ENDBRANCH  13  14
ENDBRANCH  12  13
ENDBRANCH  10  12
ENDBRANCH   8  10
ENDBRANCH   1   8
BRANCH   7  26
HETATM   26  C18 UNL     1      37.990 -21.058  26.705  1.00  0.00    -0.048 A 
HETATM   27  C19 UNL     1      39.056 -21.789  27.192  1.00  0.00     0.034 A 
HETATM   28  C20 UNL     1      39.823 -21.335  28.235  1.00  0.00     0.069 A 
HETATM   29 CL1  UNL     1      41.183 -22.247  28.870  1.00  0.00    -0.081 Cl
HETATM   30  C21 UNL     1      39.549 -20.126  28.831  1.00  0.00     0.104 A 
HETATM   31  C22 UNL     1      38.485 -19.370  28.364  1.00  0.00     0.046 A 
HETATM   32 BR1  UNL     1      38.109 -17.699  29.199  1.00  0.00    -0.048 Br
HETATM   33  C23 UNL     1      37.719 -19.851  27.303  1.00  0.00     0.029 A 
BRANCH  30  34
HETATM   34  O1  UNL     1      40.324 -19.649  29.900  1.00  0.00    -0.358 OA
ATOM     35  H1  UNL     1      39.943 -19.114  30.586  1.00  0.00     0.217 HD
ENDBRANCH  30  34
ENDBRANCH   7  26
BRANCH   5  36
HETATM   36  C11 UNL     1      36.917 -24.522  23.455  1.00  0.00     0.041 C 
BRANCH  36  37
HETATM   37  C12 UNL     1      35.984 -25.650  23.658  1.00  0.00    -0.050 C 
HETATM   38  C13 UNL     1      36.637 -26.564  24.718  1.00  0.00     0.014 C 
HETATM   39  C14 UNL     1      35.835 -26.528  22.431  1.00  0.00     0.014 C 
HETATM   40  C15 UNL     1      34.623 -25.281  24.177  1.00  0.00     0.014 C 
ENDBRANCH  36  37
ENDBRANCH   5  36
TORSDOF 12
ENDMDL
