MODEL 1
REMARK VINA RESULT: -8.745104806      0.000      0.000
REMARK  9 active torsions:
REMARK  status: ('A' for Active; 'I' for Inactive)
REMARK    1  A    between atoms: C6_6  and  N1_7 
REMARK       I    between atoms: N1_7  and  C7_8 
REMARK    2  A    between atoms: N1_7  and  C22_31 
REMARK    3  A    between atoms: C7_8  and  C8_10 
REMARK    4  A    between atoms: C8_10  and  C9_11 
REMARK    5  A    between atoms: C8_10  and  N2_16 
REMARK    6  A    between atoms: C9_11  and  C10_12 
REMARK       I    between atoms: N2_16  and  C14_18 
REMARK    7  A    between atoms: C14_18  and  C15_20 
REMARK    8  A    between atoms: C18_23  and  C19_24 
REMARK    9  A    between atoms: C19_24  and  N3_25 
ROOT
HETATM    1  C8  UNL     1      30.783 -21.732 -12.988  1.00  0.00     0.177 C 
ENDROOT
BRANCH   1   2
HETATM    2  C7  UNL     1      32.093 -22.313 -13.473  1.00  0.00     0.243 C 
HETATM    3  N1  UNL     1      32.987 -22.989 -12.655  1.00  0.00    -0.341 N 
HETATM    4  O1  UNL     1      32.357 -22.157 -14.683  1.00  0.00    -0.271 OA
BRANCH   3   5
HETATM    5  C6  UNL     1      32.775 -23.136 -11.238  1.00  0.00     0.088 C 
HETATM    6  C5  UNL     1      33.880 -22.320 -10.572  1.00  0.00     0.031 C 
HETATM    7  C4  UNL     1      33.740 -22.368  -9.098  1.00  0.00     0.005 A 
HETATM    8  C2  UNL     1      34.782 -23.155  -8.356  1.00  0.00    -0.036 A 
HETATM    9  C29 UNL     1      33.327 -23.633  -8.506  1.00  0.00    -0.032 A 
HETATM   10  C1  UNL     1      35.870 -23.892  -9.065  1.00  0.00     0.016 C 
HETATM   11  C3  UNL     1      35.204 -22.570  -7.028  1.00  0.00     0.016 C 
HETATM   12  C28 UNL     1      33.134 -24.802  -9.376  1.00  0.00     0.012 C 
HETATM   13  C30 UNL     1      32.548 -23.554  -7.185  1.00  0.00     0.016 C 
HETATM   14  C27 UNL     1      32.787 -24.572 -10.786  1.00  0.00     0.026 C 
ENDBRANCH   3   5
BRANCH   3  15
HETATM   15  C22 UNL     1      34.188 -23.551 -13.289  1.00  0.00     0.087 C 
HETATM   16  C23 UNL     1      35.445 -22.938 -12.886  1.00  0.00     0.025 C 
HETATM   17  C24 UNL     1      36.522 -23.983 -12.801  1.00  0.00     0.002 C 
HETATM   18  C25 UNL     1      35.749 -25.237 -12.604  1.00  0.00     0.002 C 
HETATM   19  C26 UNL     1      34.314 -24.998 -12.933  1.00  0.00     0.025 C 
ENDBRANCH   3  15
ENDBRANCH   1   2
BRANCH   1  20
HETATM   20  C9  UNL     1      30.863 -20.230 -12.850  1.00  0.00     0.039 C 
BRANCH  20  21
HETATM   21  C10 UNL     1      31.473 -19.801 -11.559  1.00  0.00    -0.012 C 
HETATM   22  C11 UNL     1      30.761 -18.570 -10.963  1.00  0.00     0.005 C 
HETATM   23  C12 UNL     1      32.139 -18.192 -10.414  1.00  0.00     0.001 C 
HETATM   24  C13 UNL     1      32.683 -18.939 -11.650  1.00  0.00     0.005 C 
ENDBRANCH  20  21
ENDBRANCH   1  20
BRANCH   1  25
HETATM   25  N2  UNL     1      30.393 -22.409 -11.771  1.00  0.00    -0.347 N 
HETATM   26  C14 UNL     1      29.099 -22.713 -11.315  1.00  0.00     0.222 C 
HETATM   27  O2  UNL     1      28.095 -22.409 -12.005  1.00  0.00    -0.273 OA
ATOM     28  H2  UNL     1      31.158 -22.704 -11.163  1.00  0.00     0.163 HD
BRANCH  26  29
HETATM   29  C15 UNL     1      28.892 -23.393 -10.004  1.00  0.00     0.078 C 
HETATM   30  C16 UNL     1      29.542 -24.745 -10.012  1.00  0.00     0.014 C 
HETATM   31  C17 UNL     1      28.928 -25.529  -8.858  1.00  0.00     0.007 C 
HETATM   32  C18 UNL     1      29.230 -24.822  -7.581  1.00  0.00     0.011 C 
HETATM   33  C20 UNL     1      28.984 -23.351  -7.574  1.00  0.00     0.007 C 
HETATM   34  C21 UNL     1      29.397 -22.633  -8.830  1.00  0.00     0.014 C 
BRANCH  32  35
HETATM   35  C19 UNL     1      28.327 -25.446  -6.510  1.00  0.00     0.234 C 
BRANCH  35  36
HETATM   36  N3  UNL     1      26.986 -24.899  -6.592  1.00  0.00    -0.079 N 
ATOM     37  H33 UNL     1      26.767 -24.573  -7.533  1.00  0.00     0.274 HD
ATOM     38  H32 UNL     1      26.276 -25.626  -6.513  1.00  0.00     0.274 HD
ATOM     39  H31 UNL     1      26.855 -24.165  -5.896  1.00  0.00     0.274 HD
ENDBRANCH  35  36
ENDBRANCH  32  35
ENDBRANCH  26  29
ENDBRANCH   1  25
TORSDOF 9
ENDMDL
MODEL 2
REMARK VINA RESULT: -8.695756308      2.160      4.335
REMARK  9 active torsions:
REMARK  status: ('A' for Active; 'I' for Inactive)
REMARK    1  A    between atoms: C6_6  and  N1_7 
REMARK       I    between atoms: N1_7  and  C7_8 
REMARK    2  A    between atoms: N1_7  and  C22_31 
REMARK    3  A    between atoms: C7_8  and  C8_10 
REMARK    4  A    between atoms: C8_10  and  C9_11 
REMARK    5  A    between atoms: C8_10  and  N2_16 
REMARK    6  A    between atoms: C9_11  and  C10_12 
REMARK       I    between atoms: N2_16  and  C14_18 
REMARK    7  A    between atoms: C14_18  and  C15_20 
REMARK    8  A    between atoms: C18_23  and  C19_24 
REMARK    9  A    between atoms: C19_24  and  N3_25 
ROOT
HETATM    1  C8  UNL     1      33.294 -23.728  -9.345  1.00  0.00     0.177 C 
ENDROOT
BRANCH   1   2
HETATM    2  C7  UNL     1      33.525 -23.859 -10.833  1.00  0.00     0.243 C 
HETATM    3  N1  UNL     1      34.293 -22.973 -11.576  1.00  0.00    -0.341 N 
HETATM    4  O1  UNL     1      32.977 -24.828 -11.400  1.00  0.00    -0.271 OA
BRANCH   3   5
HETATM    5  C6  UNL     1      34.888 -21.797 -10.996  1.00  0.00     0.088 C 
HETATM    6  C5  UNL     1      33.846 -20.692 -11.151  1.00  0.00     0.031 C 
HETATM    7  C4  UNL     1      34.338 -19.431 -10.552  1.00  0.00     0.005 A 
HETATM    8  C2  UNL     1      34.685 -18.328 -11.511  1.00  0.00    -0.036 A 
HETATM    9  C29 UNL     1      35.749 -19.113 -10.724  1.00  0.00    -0.032 A 
HETATM   10  C1  UNL     1      34.590 -18.509 -12.990  1.00  0.00     0.016 C 
HETATM   11  C3  UNL     1      34.338 -16.934 -11.042  1.00  0.00     0.016 C 
HETATM   12  C28 UNL     1      36.592 -20.011 -11.525  1.00  0.00     0.012 C 
HETATM   13  C30 UNL     1      36.403 -18.265  -9.624  1.00  0.00     0.016 C 
HETATM   14  C27 UNL     1      36.200 -21.423 -11.633  1.00  0.00     0.026 C 
ENDBRANCH   3   5
BRANCH   3  15
HETATM   15  C22 UNL     1      34.475 -23.272 -13.004  1.00  0.00     0.087 C 
HETATM   16  C23 UNL     1      34.448 -24.685 -13.349  1.00  0.00     0.025 C 
HETATM   17  C24 UNL     1      33.767 -24.877 -14.676  1.00  0.00     0.002 C 
HETATM   18  C25 UNL     1      32.926 -23.658 -14.793  1.00  0.00     0.002 C 
HETATM   19  C26 UNL     1      33.370 -22.643 -13.793  1.00  0.00     0.025 C 
ENDBRANCH   3  15
ENDBRANCH   1   2
BRANCH   1  20
HETATM   20  C9  UNL     1      34.372 -24.433  -8.555  1.00  0.00     0.039 C 
BRANCH  20  21
HETATM   21  C10 UNL     1      35.003 -23.553  -7.529  1.00  0.00    -0.012 C 
HETATM   22  C11 UNL     1      33.968 -22.979  -6.542  1.00  0.00     0.005 C 
HETATM   23  C12 UNL     1      34.880 -21.752  -6.488  1.00  0.00     0.001 C 
HETATM   24  C13 UNL     1      35.260 -22.143  -7.932  1.00  0.00     0.005 C 
ENDBRANCH  20  21
ENDBRANCH   1  20
BRANCH   1  25
HETATM   25  N2  UNL     1      31.955 -24.181  -9.036  1.00  0.00    -0.347 N 
HETATM   26  C14 UNL     1      30.734 -23.531  -9.281  1.00  0.00     0.222 C 
HETATM   27  O2  UNL     1      30.712 -22.415  -9.857  1.00  0.00    -0.273 OA
ATOM     28  H2  UNL     1      31.890 -25.091  -8.581  1.00  0.00     0.163 HD
BRANCH  26  29
HETATM   29  C15 UNL     1      29.444 -24.146  -8.857  1.00  0.00     0.078 C 
HETATM   30  C16 UNL     1      29.569 -25.640  -8.818  1.00  0.00     0.014 C 
HETATM   31  C17 UNL     1      28.150 -26.196  -8.818  1.00  0.00     0.007 C 
HETATM   32  C18 UNL     1      27.442 -25.709  -7.600  1.00  0.00     0.011 C 
HETATM   33  C20 UNL     1      27.572 -24.253  -7.307  1.00  0.00     0.007 C 
HETATM   34  C21 UNL     1      28.944 -23.680  -7.536  1.00  0.00     0.014 C 
BRANCH  32  35
HETATM   35  C19 UNL     1      25.952 -26.006  -7.811  1.00  0.00     0.234 C 
BRANCH  35  36
HETATM   36  N3  UNL     1      25.772 -27.005  -8.847  1.00  0.00    -0.079 N 
ATOM     37  H33 UNL     1      25.364 -26.606  -9.692  1.00  0.00     0.274 HD
ATOM     38  H32 UNL     1      26.663 -27.310  -9.237  1.00  0.00     0.274 HD
ATOM     39  H31 UNL     1      25.224 -27.790  -8.496  1.00  0.00     0.274 HD
ENDBRANCH  35  36
ENDBRANCH  32  35
ENDBRANCH  26  29
ENDBRANCH   1  25
TORSDOF 9
ENDMDL
MODEL 3
REMARK VINA RESULT: -8.549761016      1.967      3.789
REMARK  9 active torsions:
REMARK  status: ('A' for Active; 'I' for Inactive)
REMARK    1  A    between atoms: C6_6  and  N1_7 
REMARK       I    between atoms: N1_7  and  C7_8 
REMARK    2  A    between atoms: N1_7  and  C22_31 
REMARK    3  A    between atoms: C7_8  and  C8_10 
REMARK    4  A    between atoms: C8_10  and  C9_11 
REMARK    5  A    between atoms: C8_10  and  N2_16 
REMARK    6  A    between atoms: C9_11  and  C10_12 
REMARK       I    between atoms: N2_16  and  C14_18 
REMARK    7  A    between atoms: C14_18  and  C15_20 
REMARK    8  A    between atoms: C18_23  and  C19_24 
REMARK    9  A    between atoms: C19_24  and  N3_25 
ROOT
HETATM    1  C8  UNL     1      31.653 -22.113 -12.470  1.00  0.00     0.177 C 
ENDROOT
BRANCH   1   2
HETATM    2  C7  UNL     1      32.136 -20.749 -12.030  1.00  0.00     0.243 C 
HETATM    3  N1  UNL     1      33.311 -20.539 -11.323  1.00  0.00    -0.341 N 
HETATM    4  O1  UNL     1      31.414 -19.777 -12.333  1.00  0.00    -0.271 OA
BRANCH   3   5
HETATM    5  C6  UNL     1      34.148 -21.624 -10.879  1.00  0.00     0.088 C 
HETATM    6  C5  UNL     1      33.589 -22.044  -9.522  1.00  0.00     0.031 C 
HETATM    7  C4  UNL     1      34.356 -23.189  -8.980  1.00  0.00     0.005 A 
HETATM    8  C2  UNL     1      35.229 -22.903  -7.791  1.00  0.00    -0.036 A 
HETATM    9  C29 UNL     1      35.797 -23.190  -9.192  1.00  0.00    -0.032 A 
HETATM   10  C1  UNL     1      35.358 -21.530  -7.218  1.00  0.00     0.016 C 
HETATM   11  C3  UNL     1      35.291 -24.004  -6.759  1.00  0.00     0.016 C 
HETATM   12  C28 UNL     1      36.422 -22.044  -9.866  1.00  0.00     0.012 C 
HETATM   13  C30 UNL     1      36.480 -24.563  -9.274  1.00  0.00     0.016 C 
HETATM   14  C27 UNL     1      35.604 -21.250 -10.794  1.00  0.00     0.026 C 
ENDBRANCH   3   5
BRANCH   3  15
HETATM   15  C22 UNL     1      33.677 -19.147 -11.023  1.00  0.00     0.087 C 
HETATM   16  C23 UNL     1      34.525 -18.969  -9.854  1.00  0.00     0.025 C 
HETATM   17  C24 UNL     1      35.513 -17.862 -10.099  1.00  0.00     0.002 C 
HETATM   18  C25 UNL     1      35.590 -17.814 -11.582  1.00  0.00     0.002 C 
HETATM   19  C26 UNL     1      34.447 -18.572 -12.169  1.00  0.00     0.025 C 
ENDBRANCH   3  15
ENDBRANCH   1   2
BRANCH   1  20
HETATM   20  C9  UNL     1      31.154 -22.089 -13.895  1.00  0.00     0.039 C 
BRANCH  20  21
HETATM   21  C10 UNL     1      31.920 -23.005 -14.789  1.00  0.00    -0.012 C 
HETATM   22  C11 UNL     1      31.928 -24.454 -14.264  1.00  0.00     0.005 C 
HETATM   23  C12 UNL     1      33.320 -24.546 -14.892  1.00  0.00     0.001 C 
HETATM   24  C13 UNL     1      33.397 -23.031 -14.605  1.00  0.00     0.005 C 
ENDBRANCH  20  21
ENDBRANCH   1  20
BRANCH   1  25
HETATM   25  N2  UNL     1      30.674 -22.593 -11.518  1.00  0.00    -0.347 N 
HETATM   26  C14 UNL     1      30.678 -23.794 -10.790  1.00  0.00     0.222 C 
HETATM   27  O2  UNL     1      31.630 -24.606 -10.907  1.00  0.00    -0.273 OA
ATOM     28  H2  UNL     1      29.877 -21.978 -11.355  1.00  0.00     0.163 HD
BRANCH  26  29
HETATM   29  C15 UNL     1      29.553 -24.133  -9.872  1.00  0.00     0.078 C 
HETATM   30  C16 UNL     1      29.635 -25.573  -9.460  1.00  0.00     0.014 C 
HETATM   31  C17 UNL     1      28.262 -25.949  -8.914  1.00  0.00     0.007 C 
HETATM   32  C18 UNL     1      27.964 -25.092  -7.731  1.00  0.00     0.011 C 
HETATM   33  C20 UNL     1      28.223 -23.633  -7.898  1.00  0.00     0.007 C 
HETATM   34  C21 UNL     1      29.483 -23.294  -8.647  1.00  0.00     0.014 C 
BRANCH  32  35
HETATM   35  C19 UNL     1      26.470 -25.264  -7.431  1.00  0.00     0.234 C 
BRANCH  35  36
HETATM   36  N3  UNL     1      25.949 -26.444  -8.093  1.00  0.00    -0.079 N 
ATOM     37  H33 UNL     1      24.933 -26.503  -8.020  1.00  0.00     0.274 HD
ATOM     38  H32 UNL     1      26.024 -26.373  -9.108  1.00  0.00     0.274 HD
ATOM     39  H31 UNL     1      26.403 -27.285  -7.738  1.00  0.00     0.274 HD
ENDBRANCH  35  36
ENDBRANCH  32  35
ENDBRANCH  26  29
ENDBRANCH   1  25
TORSDOF 9
ENDMDL
MODEL 4
REMARK VINA RESULT: -8.540170381      2.324      4.766
REMARK  9 active torsions:
REMARK  status: ('A' for Active; 'I' for Inactive)
REMARK    1  A    between atoms: C6_6  and  N1_7 
REMARK       I    between atoms: N1_7  and  C7_8 
REMARK    2  A    between atoms: N1_7  and  C22_31 
REMARK    3  A    between atoms: C7_8  and  C8_10 
REMARK    4  A    between atoms: C8_10  and  C9_11 
REMARK    5  A    between atoms: C8_10  and  N2_16 
REMARK    6  A    between atoms: C9_11  and  C10_12 
REMARK       I    between atoms: N2_16  and  C14_18 
REMARK    7  A    between atoms: C14_18  and  C15_20 
REMARK    8  A    between atoms: C18_23  and  C19_24 
REMARK    9  A    between atoms: C19_24  and  N3_25 
ROOT
HETATM    1  C8  UNL     1      31.157 -23.494 -11.295  1.00  0.00     0.177 C 
ENDROOT
BRANCH   1   2
HETATM    2  C7  UNL     1      30.897 -22.005 -11.265  1.00  0.00     0.243 C 
HETATM    3  N1  UNL     1      31.877 -21.047 -11.483  1.00  0.00    -0.341 N 
HETATM    4  O1  UNL     1      29.726 -21.648 -11.025  1.00  0.00    -0.271 OA
BRANCH   3   5
HETATM    5  C6  UNL     1      33.260 -21.393 -11.691  1.00  0.00     0.088 C 
HETATM    6  C5  UNL     1      34.023 -20.735 -10.543  1.00  0.00     0.031 C 
HETATM    7  C4  UNL     1      35.466 -21.056 -10.633  1.00  0.00     0.005 A 
HETATM    8  C2  UNL     1      36.377 -19.923 -11.012  1.00  0.00    -0.036 A 
HETATM    9  C29 UNL     1      36.063 -21.092 -11.961  1.00  0.00    -0.032 A 
HETATM   10  C1  UNL     1      35.855 -18.561 -11.331  1.00  0.00     0.016 C 
HETATM   11  C3  UNL     1      37.717 -19.915 -10.314  1.00  0.00     0.016 C 
HETATM   12  C28 UNL     1      35.236 -20.753 -13.127  1.00  0.00     0.012 C 
HETATM   13  C30 UNL     1      37.265 -22.029 -12.151  1.00  0.00     0.016 C 
HETATM   14  C27 UNL     1      33.783 -20.956 -13.034  1.00  0.00     0.026 C 
ENDBRANCH   3   5
BRANCH   3  15
HETATM   15  C22 UNL     1      31.455 -19.639 -11.484  1.00  0.00     0.087 C 
HETATM   16  C23 UNL     1      32.271 -18.748 -10.673  1.00  0.00     0.025 C 
HETATM   17  C24 UNL     1      32.400 -17.411 -11.350  1.00  0.00     0.002 C 
HETATM   18  C25 UNL     1      32.140 -17.738 -12.776  1.00  0.00     0.002 C 
HETATM   19  C26 UNL     1      31.526 -19.094 -12.876  1.00  0.00     0.025 C 
ENDBRANCH   3  15
ENDBRANCH   1   2
BRANCH   1  20
HETATM   20  C9  UNL     1      31.546 -23.960 -12.678  1.00  0.00     0.039 C 
BRANCH  20  21
HETATM   21  C10 UNL     1      32.761 -24.824 -12.675  1.00  0.00    -0.012 C 
HETATM   22  C11 UNL     1      33.725 -24.465 -11.527  1.00  0.00     0.005 C 
HETATM   23  C12 UNL     1      34.837 -24.885 -12.490  1.00  0.00     0.001 C 
HETATM   24  C13 UNL     1      33.862 -24.427 -13.595  1.00  0.00     0.005 C 
ENDBRANCH  20  21
ENDBRANCH   1  20
BRANCH   1  25
HETATM   25  N2  UNL     1      30.006 -24.182 -10.752  1.00  0.00    -0.347 N 
HETATM   26  C14 UNL     1      29.969 -25.177  -9.761  1.00  0.00     0.222 C 
HETATM   27  O2  UNL     1      31.028 -25.565  -9.209  1.00  0.00    -0.273 OA
ATOM     28  H2  UNL     1      29.103 -23.908 -11.140  1.00  0.00     0.163 HD
BRANCH  26  29
HETATM   29  C15 UNL     1      28.676 -25.798  -9.352  1.00  0.00     0.078 C 
HETATM   30  C16 UNL     1      28.897 -26.761  -8.223  1.00  0.00     0.014 C 
HETATM   31  C17 UNL     1      27.662 -27.654  -8.166  1.00  0.00     0.007 C 
HETATM   32  C18 UNL     1      26.468 -26.806  -7.890  1.00  0.00     0.011 C 
HETATM   33  C20 UNL     1      26.340 -25.569  -8.713  1.00  0.00     0.007 C 
HETATM   34  C21 UNL     1      27.627 -24.826  -8.945  1.00  0.00     0.014 C 
BRANCH  32  35
HETATM   35  C19 UNL     1      25.238 -27.677  -8.174  1.00  0.00     0.234 C 
BRANCH  35  36
HETATM   36  N3  UNL     1      24.084 -27.184  -7.447  1.00  0.00    -0.079 N 
ATOM     37  H33 UNL     1      23.224 -27.645  -7.742  1.00  0.00     0.274 HD
ATOM     38  H32 UNL     1      24.092 -27.486  -6.473  1.00  0.00     0.274 HD
ATOM     39  H31 UNL     1      24.016 -26.169  -7.527  1.00  0.00     0.274 HD
ENDBRANCH  35  36
ENDBRANCH  32  35
ENDBRANCH  26  29
ENDBRANCH   1  25
TORSDOF 9
ENDMDL
MODEL 5
REMARK VINA RESULT: -8.507689380      2.678      4.824
REMARK  9 active torsions:
REMARK  status: ('A' for Active; 'I' for Inactive)
REMARK    1  A    between atoms: C6_6  and  N1_7 
REMARK       I    between atoms: N1_7  and  C7_8 
REMARK    2  A    between atoms: N1_7  and  C22_31 
REMARK    3  A    between atoms: C7_8  and  C8_10 
REMARK    4  A    between atoms: C8_10  and  C9_11 
REMARK    5  A    between atoms: C8_10  and  N2_16 
REMARK    6  A    between atoms: C9_11  and  C10_12 
REMARK       I    between atoms: N2_16  and  C14_18 
REMARK    7  A    between atoms: C14_18  and  C15_20 
REMARK    8  A    between atoms: C18_23  and  C19_24 
REMARK    9  A    between atoms: C19_24  and  N3_25 
ROOT
HETATM    1  C8  UNL     1      34.212 -22.784  -8.067  1.00  0.00     0.177 C 
ENDROOT
BRANCH   1   2
HETATM    2  C7  UNL     1      35.115 -23.530  -9.024  1.00  0.00     0.243 C 
HETATM    3  N1  UNL     1      35.939 -22.908  -9.951  1.00  0.00    -0.341 N 
HETATM    4  O1  UNL     1      35.093 -24.777  -8.955  1.00  0.00    -0.271 OA
BRANCH   3   5
HETATM    5  C6  UNL     1      35.954 -21.479 -10.131  1.00  0.00     0.088 C 
HETATM    6  C5  UNL     1      34.687 -21.152 -10.919  1.00  0.00     0.031 C 
HETATM    7  C4  UNL     1      34.575 -19.692 -11.134  1.00  0.00     0.005 A 
HETATM    8  C2  UNL     1      34.782 -19.208 -12.542  1.00  0.00    -0.036 A 
HETATM    9  C29 UNL     1      35.803 -18.961 -11.418  1.00  0.00    -0.032 A 
HETATM   10  C1  UNL     1      35.131 -20.141 -13.654  1.00  0.00     0.016 C 
HETATM   11  C3  UNL     1      33.896 -18.059 -12.963  1.00  0.00     0.016 C 
HETATM   12  C28 UNL     1      37.066 -19.702 -11.538  1.00  0.00     0.012 C 
HETATM   13  C30 UNL     1      35.845 -17.489 -10.981  1.00  0.00     0.016 C 
HETATM   14  C27 UNL     1      37.192 -20.984 -10.831  1.00  0.00     0.026 C 
ENDBRANCH   3   5
BRANCH   3  15
HETATM   15  C22 UNL     1      36.806 -23.769 -10.768  1.00  0.00     0.087 C 
HETATM   16  C23 UNL     1      37.474 -24.839 -10.044  1.00  0.00     0.025 C 
HETATM   17  C24 UNL     1      37.549 -26.071 -10.903  1.00  0.00     0.002 C 
HETATM   18  C25 UNL     1      36.438 -25.867 -11.868  1.00  0.00     0.002 C 
HETATM   19  C26 UNL     1      35.989 -24.445 -11.824  1.00  0.00     0.025 C 
ENDBRANCH   3  15
ENDBRANCH   1   2
BRANCH   1  20
HETATM   20  C9  UNL     1      34.853 -22.633  -6.708  1.00  0.00     0.039 C 
BRANCH  20  21
HETATM   21  C10 UNL     1      35.434 -21.276  -6.493  1.00  0.00    -0.012 C 
HETATM   22  C11 UNL     1      34.732 -20.520  -5.348  1.00  0.00     0.005 C 
HETATM   23  C12 UNL     1      35.032 -19.258  -6.160  1.00  0.00     0.001 C 
HETATM   24  C13 UNL     1      34.939 -20.192  -7.385  1.00  0.00     0.005 C 
ENDBRANCH  20  21
ENDBRANCH   1  20
BRANCH   1  25
HETATM   25  N2  UNL     1      32.923 -23.439  -8.033  1.00  0.00    -0.347 N 
HETATM   26  C14 UNL     1      31.887 -23.381  -8.982  1.00  0.00     0.222 C 
HETATM   27  O2  UNL     1      32.026 -22.712 -10.035  1.00  0.00    -0.273 OA
ATOM     28  H2  UNL     1      32.741 -24.017  -7.213  1.00  0.00     0.163 HD
BRANCH  26  29
HETATM   29  C15 UNL     1      30.604 -24.104  -8.754  1.00  0.00     0.078 C 
HETATM   30  C16 UNL     1      29.447 -23.154  -8.854  1.00  0.00     0.014 C 
HETATM   31  C17 UNL     1      28.260 -23.842  -8.190  1.00  0.00     0.007 C 
HETATM   32  C18 UNL     1      27.956 -25.100  -8.930  1.00  0.00     0.011 C 
HETATM   33  C20 UNL     1      29.124 -25.972  -9.243  1.00  0.00     0.007 C 
HETATM   34  C21 UNL     1      30.363 -25.241  -9.682  1.00  0.00     0.014 C 
BRANCH  32  35
HETATM   35  C19 UNL     1      27.000 -25.909  -8.045  1.00  0.00     0.234 C 
BRANCH  35  36
HETATM   36  N3  UNL     1      26.081 -26.681  -8.859  1.00  0.00    -0.079 N 
ATOM     37  H33 UNL     1      25.108 -26.444  -8.660  1.00  0.00     0.274 HD
ATOM     38  H32 UNL     1      26.110 -26.395  -9.837  1.00  0.00     0.274 HD
ATOM     39  H31 UNL     1      26.257 -27.679  -8.751  1.00  0.00     0.274 HD
ENDBRANCH  35  36
ENDBRANCH  32  35
ENDBRANCH  26  29
ENDBRANCH   1  25
TORSDOF 9
ENDMDL
