MODEL 1
REMARK VINA RESULT: -6.532954587      0.000      0.000
REMARK  4 active torsions:
REMARK  status: ('A' for Active; 'I' for Inactive)
REMARK    1  A    between atoms: C4_4  and  C5_5 
REMARK    2  A    between atoms: C5_5  and  N1_6 
REMARK    3  A    between atoms: N1_6  and  C6_8 
REMARK    4  A    between atoms: C9_13  and  N3_14 
ROOT
HETATM    1  C1  UNL     1      56.298 -29.433   7.512  1.00  0.00     0.027 C 
HETATM    2  C2  UNL     1      55.373 -28.669   7.687  1.00  0.00    -0.026 C 
HETATM    3  C3  UNL     1      54.278 -27.796   7.892  1.00  0.00    -0.014 C 
HETATM    4  C4  UNL     1      53.341 -27.045   8.049  1.00  0.00    -0.073 C 
ENDROOT
BRANCH   4   5
HETATM    5  C5  UNL     1      52.215 -26.109   8.247  1.00  0.00     0.216 C 
BRANCH   5   6
HETATM    6  N1  UNL     1      51.020 -26.878   8.376  1.00  0.00    -0.365 N 
ATOM      7  H1  UNL     1      50.742 -27.516   7.630  1.00  0.00     0.162 HD
BRANCH   6   8
HETATM    8  C6  UNL     1      50.294 -26.770   9.431  1.00  0.00     0.118 A 
HETATM    9  C7  UNL     1      49.214 -25.910   9.410  1.00  0.00     0.066 A 
HETATM   10  C8  UNL     1      48.451 -25.809  10.547  1.00  0.00     0.110 A 
HETATM   11  N2  UNL     1      48.763 -26.536  11.648  1.00  0.00    -0.202 N 
HETATM   12  C9  UNL     1      49.803 -27.358  11.652  1.00  0.00     0.679 A 
ATOM     13  H2  UNL     1      48.188 -26.450  12.486  1.00  0.00     0.183 HD
HETATM   14  N4  UNL     1      50.581 -27.491  10.560  1.00  0.00    -0.177 N 
ATOM     15  H4  UNL     1      51.379 -28.125  10.573  1.00  0.00     0.185 HD
BRANCH  12  16
HETATM   16  N3  UNL     1      50.119 -28.057  12.680  1.00  0.00    -0.230 N 
HETATM   17  C10 UNL     1      49.304 -29.025  13.324  1.00  0.00     0.165 C 
ATOM     18  H3  UNL     1      51.047 -27.903  13.073  1.00  0.00     0.177 HD
ENDBRANCH  12  16
ENDBRANCH   6   8
ENDBRANCH   5   6
ENDBRANCH   4   5
TORSDOF 4
ENDMDL
MODEL 2
REMARK VINA RESULT: -6.119302730      1.593      2.006
REMARK  4 active torsions:
REMARK  status: ('A' for Active; 'I' for Inactive)
REMARK    1  A    between atoms: C4_4  and  C5_5 
REMARK    2  A    between atoms: C5_5  and  N1_6 
REMARK    3  A    between atoms: N1_6  and  C6_8 
REMARK    4  A    between atoms: C9_13  and  N3_14 
ROOT
HETATM    1  C1  UNL     1      56.091 -29.131   7.776  1.00  0.00     0.027 C 
HETATM    2  C2  UNL     1      55.117 -28.414   7.855  1.00  0.00    -0.026 C 
HETATM    3  C3  UNL     1      53.968 -27.593   7.958  1.00  0.00    -0.014 C 
HETATM    4  C4  UNL     1      52.980 -26.896   8.029  1.00  0.00    -0.073 C 
ENDROOT
BRANCH   4   5
HETATM    5  C5  UNL     1      51.790 -26.024   8.109  1.00  0.00     0.216 C 
BRANCH   5   6
HETATM    6  N1  UNL     1      51.916 -25.212   9.275  1.00  0.00    -0.365 N 
ATOM      7  H1  UNL     1      52.164 -24.227   9.186  1.00  0.00     0.162 HD
BRANCH   6   8
HETATM    8  C6  UNL     1      51.716 -25.720  10.439  1.00  0.00     0.118 A 
HETATM    9  C7  UNL     1      52.632 -25.470  11.440  1.00  0.00     0.066 A 
HETATM   10  C8  UNL     1      52.400 -26.023  12.676  1.00  0.00     0.110 A 
HETATM   11  N2  UNL     1      51.302 -26.788  12.889  1.00  0.00    -0.202 N 
HETATM   12  C9  UNL     1      50.432 -27.019  11.916  1.00  0.00     0.679 A 
ATOM     13  H2  UNL     1      51.143 -27.193  13.811  1.00  0.00     0.183 HD
HETATM   14  N4  UNL     1      50.616 -26.498  10.687  1.00  0.00    -0.177 N 
ATOM     15  H4  UNL     1      49.941 -26.683   9.946  1.00  0.00     0.185 HD
BRANCH  12  16
HETATM   16  N3  UNL     1      49.385 -27.739  12.092  1.00  0.00    -0.230 N 
HETATM   17  C10 UNL     1      49.263 -28.851  12.966  1.00  0.00     0.165 C 
ATOM     18  H3  UNL     1      48.558 -27.488  11.550  1.00  0.00     0.177 HD
ENDBRANCH  12  16
ENDBRANCH   6   8
ENDBRANCH   5   6
ENDBRANCH   4   5
TORSDOF 4
ENDMDL
MODEL 3
REMARK VINA RESULT: -6.007886980      2.173      5.860
REMARK  4 active torsions:
REMARK  status: ('A' for Active; 'I' for Inactive)
REMARK    1  A    between atoms: C4_4  and  C5_5 
REMARK    2  A    between atoms: C5_5  and  N1_6 
REMARK    3  A    between atoms: N1_6  and  C6_8 
REMARK    4  A    between atoms: C9_13  and  N3_14 
ROOT
HETATM    1  C1  UNL     1      51.351 -27.952  17.249  1.00  0.00     0.027 C 
HETATM    2  C2  UNL     1      50.869 -28.118  16.149  1.00  0.00    -0.026 C 
HETATM    3  C3  UNL     1      50.287 -28.302  14.871  1.00  0.00    -0.014 C 
HETATM    4  C4  UNL     1      49.785 -28.477  13.784  1.00  0.00    -0.073 C 
ENDROOT
BRANCH   4   5
HETATM    5  C5  UNL     1      49.196 -28.696  12.446  1.00  0.00     0.216 C 
BRANCH   5   6
HETATM    6  N1  UNL     1      50.146 -28.270  11.471  1.00  0.00    -0.365 N 
ATOM      7  H1  UNL     1      51.065 -28.713  11.427  1.00  0.00     0.162 HD
BRANCH   6   8
HETATM    8  C6  UNL     1      49.848 -27.329  10.648  1.00  0.00     0.118 A 
HETATM    9  C7  UNL     1      48.909 -26.389  11.023  1.00  0.00     0.066 A 
HETATM   10  C8  UNL     1      48.605 -25.392  10.129  1.00  0.00     0.110 A 
HETATM   11  N2  UNL     1      49.215 -25.348   8.919  1.00  0.00    -0.202 N 
HETATM   12  C9  UNL     1      50.115 -26.258   8.575  1.00  0.00     0.679 A 
ATOM     13  H2  UNL     1      48.978 -24.602   8.265  1.00  0.00     0.183 HD
HETATM   14  N4  UNL     1      50.447 -27.254   9.418  1.00  0.00    -0.177 N 
ATOM     15  H4  UNL     1      51.140 -27.950   9.143  1.00  0.00     0.185 HD
BRANCH  12  16
HETATM   16  N3  UNL     1      50.707 -26.237   7.437  1.00  0.00    -0.230 N 
HETATM   17  C10 UNL     1      52.055 -26.602   7.180  1.00  0.00     0.165 C 
ATOM     18  H3  UNL     1      50.155 -25.928   6.637  1.00  0.00     0.177 HD
ENDBRANCH  12  16
ENDBRANCH   6   8
ENDBRANCH   5   6
ENDBRANCH   4   5
TORSDOF 4
ENDMDL
MODEL 4
REMARK VINA RESULT: -6.000888776      1.917      5.497
REMARK  4 active torsions:
REMARK  status: ('A' for Active; 'I' for Inactive)
REMARK    1  A    between atoms: C4_4  and  C5_5 
REMARK    2  A    between atoms: C5_5  and  N1_6 
REMARK    3  A    between atoms: N1_6  and  C6_8 
REMARK    4  A    between atoms: C9_13  and  N3_14 
ROOT
HETATM    1  C1  UNL     1      49.498 -29.261  13.512  1.00  0.00     0.027 C 
HETATM    2  C2  UNL     1      49.445 -28.321  12.747  1.00  0.00    -0.026 C 
HETATM    3  C3  UNL     1      49.406 -27.224  11.853  1.00  0.00    -0.014 C 
HETATM    4  C4  UNL     1      49.371 -26.275  11.103  1.00  0.00    -0.073 C 
ENDROOT
BRANCH   4   5
HETATM    5  C5  UNL     1      49.302 -25.120  10.183  1.00  0.00     0.216 C 
BRANCH   5   6
HETATM    6  N1  UNL     1      50.634 -24.773   9.811  1.00  0.00    -0.365 N 
ATOM      7  H1  UNL     1      51.102 -23.989  10.266  1.00  0.00     0.162 HD
BRANCH   6   8
HETATM    8  C6  UNL     1      51.246 -25.447   8.903  1.00  0.00     0.118 A 
HETATM    9  C7  UNL     1      50.690 -25.523   7.642  1.00  0.00     0.066 A 
HETATM   10  C8  UNL     1      51.360 -26.248   6.687  1.00  0.00     0.110 A 
HETATM   11  N2  UNL     1      52.529 -26.864   6.990  1.00  0.00    -0.202 N 
HETATM   12  C9  UNL     1      53.050 -26.781   8.206  1.00  0.00     0.679 A 
ATOM     13  H2  UNL     1      53.015 -27.400   6.271  1.00  0.00     0.183 HD
HETATM   14  N4  UNL     1      52.429 -26.081   9.176  1.00  0.00    -0.177 N 
ATOM     15  H4  UNL     1      52.838 -26.024  10.109  1.00  0.00     0.185 HD
BRANCH  12  16
HETATM   16  N3  UNL     1      54.154 -27.354   8.518  1.00  0.00    -0.230 N 
HETATM   17  C10 UNL     1      54.859 -28.309   7.739  1.00  0.00     0.165 C 
ATOM     18  H3  UNL     1      54.568 -27.098   9.414  1.00  0.00     0.177 HD
ENDBRANCH  12  16
ENDBRANCH   6   8
ENDBRANCH   5   6
ENDBRANCH   4   5
TORSDOF 4
ENDMDL
MODEL 5
REMARK VINA RESULT: -5.956078378      2.202      5.078
REMARK  4 active torsions:
REMARK  status: ('A' for Active; 'I' for Inactive)
REMARK    1  A    between atoms: C4_4  and  C5_5 
REMARK    2  A    between atoms: C5_5  and  N1_6 
REMARK    3  A    between atoms: N1_6  and  C6_8 
REMARK    4  A    between atoms: C9_13  and  N3_14 
ROOT
HETATM    1  C1  UNL     1      49.496 -29.151  13.611  1.00  0.00     0.027 C 
HETATM    2  C2  UNL     1      49.330 -28.359  12.707  1.00  0.00    -0.026 C 
HETATM    3  C3  UNL     1      49.115 -27.429  11.661  1.00  0.00    -0.014 C 
HETATM    4  C4  UNL     1      48.926 -26.648  10.756  1.00  0.00    -0.073 C 
ENDROOT
BRANCH   4   5
HETATM    5  C5  UNL     1      48.721 -25.696   9.645  1.00  0.00     0.216 C 
BRANCH   5   6
HETATM    6  N1  UNL     1      49.512 -26.130   8.540  1.00  0.00    -0.365 N 
ATOM      7  H1  UNL     1      49.063 -26.367   7.654  1.00  0.00     0.162 HD
BRANCH   6   8
HETATM    8  C6  UNL     1      50.788 -26.224   8.658  1.00  0.00     0.118 A 
HETATM    9  C7  UNL     1      51.516 -26.757   7.612  1.00  0.00     0.066 A 
HETATM   10  C8  UNL     1      52.878 -26.848   7.759  1.00  0.00     0.110 A 
HETATM   11  N2  UNL     1      53.474 -26.424   8.900  1.00  0.00    -0.202 N 
HETATM   12  C9  UNL     1      52.761 -25.914   9.895  1.00  0.00     0.679 A 
ATOM     13  H2  UNL     1      54.487 -26.499   8.996  1.00  0.00     0.183 HD
HETATM   14  N4  UNL     1      51.422 -25.805   9.797  1.00  0.00    -0.177 N 
ATOM     15  H4  UNL     1      50.882 -25.412  10.568  1.00  0.00     0.185 HD
BRANCH  12  16
HETATM   16  N3  UNL     1      53.301 -25.506  10.984  1.00  0.00    -0.230 N 
HETATM   17  C10 UNL     1      52.804 -25.707  12.299  1.00  0.00     0.165 C 
ATOM     18  H3  UNL     1      54.174 -24.986  10.898  1.00  0.00     0.177 HD
ENDBRANCH  12  16
ENDBRANCH   6   8
ENDBRANCH   5   6
ENDBRANCH   4   5
TORSDOF 4
ENDMDL
