MODEL 1
REMARK VINA RESULT: -9.001096878      0.000      0.000
REMARK  4 active torsions:
REMARK  status: ('A' for Active; 'I' for Inactive)
REMARK    1  A    between atoms: C5_5  and  C6_6 
REMARK    2  A    between atoms: C6_6  and  N1_7 
REMARK    3  A    between atoms: N1_7  and  C7_9 
REMARK    4  A    between atoms: N4_14  and  O1_15 
ROOT
HETATM    1  N1  UNL     1     -32.697  32.951 -27.775  1.00  0.00    -0.196 N 
ATOM      2  H1  UNL     1     -32.185  33.462 -28.494  1.00  0.00     0.183 HD
ENDROOT
BRANCH   1   3
HETATM    3  C6  UNL     1     -32.046  31.936 -27.026  1.00  0.00     0.117 C 
BRANCH   3   4
HETATM    4  C5  UNL     1     -30.715  32.010 -26.838  1.00  0.00    -0.020 A 
HETATM    5  C4  UNL     1     -29.896  32.588 -27.775  1.00  0.00     0.013 A 
HETATM    6  C3  UNL     1     -28.532  32.653 -27.562  1.00  0.00     0.012 A 
HETATM    7  C2  UNL     1     -27.993  32.129 -26.392  1.00  0.00    -0.040 A 
HETATM    8  C1  UNL     1     -26.686  32.215 -26.235  1.00  0.00     0.024 C 
HETATM    9  C9  UNL     1     -28.830  31.560 -25.476  1.00  0.00    -0.052 A 
HETATM   10  C8  UNL     1     -30.172  31.502 -25.697  1.00  0.00     0.020 A 
HETATM   11  C10 UNL     1     -28.248  30.993 -24.207  1.00  0.00     0.049 C 
ENDBRANCH   3   4
ENDBRANCH   1   3
BRANCH   1  12
HETATM   12  C7  UNL     1     -34.065  33.257 -27.526  1.00  0.00     0.741 A 
HETATM   13  N2  UNL     1     -35.087  33.699 -28.264  1.00  0.00    -0.112 N 
HETATM   14  N3  UNL     1     -35.900  33.676 -27.232  1.00  0.00    -0.186 N 
ATOM     15  H2  UNL     1     -35.194  33.955 -29.245  1.00  0.00     0.207 HD
HETATM   16  N4  UNL     1     -34.893  33.232 -26.473  1.00  0.00     0.033 N 
ATOM     17  H3  UNL     1     -36.883  33.900 -27.076  1.00  0.00     0.212 HD
BRANCH  16  18
HETATM   18  O1  UNL     1     -34.761  32.889 -25.143  1.00  0.00    -0.253 OA
ATOM     19  H1  UNL     1     -34.832  33.360 -24.321  1.00  0.00     0.247 HD
ENDBRANCH  16  18
ENDBRANCH   1  12
TORSDOF 4
ENDMDL
MODEL 2
REMARK VINA RESULT: -8.722430206      0.406      1.753
REMARK  4 active torsions:
REMARK  status: ('A' for Active; 'I' for Inactive)
REMARK    1  A    between atoms: C5_5  and  C6_6 
REMARK    2  A    between atoms: C6_6  and  N1_7 
REMARK    3  A    between atoms: N1_7  and  C7_9 
REMARK    4  A    between atoms: N4_14  and  O1_15 
ROOT
HETATM    1  N1  UNL     1     -32.701  32.587 -27.736  1.00  0.00    -0.196 N 
ATOM      2  H1  UNL     1     -32.198  32.824 -28.591  1.00  0.00     0.183 HD
ENDROOT
BRANCH   1   3
HETATM    3  C6  UNL     1     -32.089  31.757 -26.760  1.00  0.00     0.117 C 
BRANCH   3   4
HETATM    4  C5  UNL     1     -30.757  31.827 -26.580  1.00  0.00    -0.020 A 
HETATM    5  C4  UNL     1     -30.172  31.390 -25.418  1.00  0.00     0.013 A 
HETATM    6  C3  UNL     1     -28.803  31.471 -25.254  1.00  0.00     0.012 A 
HETATM    7  C2  UNL     1     -28.018  31.998 -26.274  1.00  0.00    -0.040 A 
HETATM    8  C1  UNL     1     -26.715  32.054 -26.071  1.00  0.00     0.024 C 
HETATM    9  C9  UNL     1     -28.624  32.426 -27.421  1.00  0.00    -0.052 A 
HETATM   10  C8  UNL     1     -29.974  32.341 -27.569  1.00  0.00     0.020 A 
HETATM   11  C10 UNL     1     -27.776  32.996 -28.527  1.00  0.00     0.049 C 
ENDBRANCH   3   4
ENDBRANCH   1   3
BRANCH   1  12
HETATM   12  C7  UNL     1     -34.016  33.090 -27.523  1.00  0.00     0.741 A 
HETATM   13  N2  UNL     1     -34.957  33.638 -28.296  1.00  0.00    -0.112 N 
HETATM   14  N3  UNL     1     -35.778  33.771 -27.278  1.00  0.00    -0.186 N 
ATOM     15  H2  UNL     1     -35.016  33.865 -29.288  1.00  0.00     0.207 HD
HETATM   16  N4  UNL     1     -34.851  33.225 -26.485  1.00  0.00     0.033 N 
ATOM     17  H3  UNL     1     -36.722  34.137 -27.148  1.00  0.00     0.212 HD
BRANCH  16  18
HETATM   18  O1  UNL     1     -34.784  32.922 -25.139  1.00  0.00    -0.253 OA
ATOM     19  H1  UNL     1     -34.964  32.148 -24.619  1.00  0.00     0.247 HD
ENDBRANCH  16  18
ENDBRANCH   1  12
TORSDOF 4
ENDMDL
MODEL 3
REMARK VINA RESULT: -8.378222538      1.504      1.579
REMARK  4 active torsions:
REMARK  status: ('A' for Active; 'I' for Inactive)
REMARK    1  A    between atoms: C5_5  and  C6_6 
REMARK    2  A    between atoms: C6_6  and  N1_7 
REMARK    3  A    between atoms: N1_7  and  C7_9 
REMARK    4  A    between atoms: N4_14  and  O1_15 
ROOT
HETATM    1  N1  UNL     1     -32.916  32.487 -27.863  1.00  0.00    -0.196 N 
ATOM      2  H1  UNL     1     -32.983  32.128 -28.815  1.00  0.00     0.183 HD
ENDROOT
BRANCH   1   3
HETATM    3  C6  UNL     1     -32.218  31.745 -26.873  1.00  0.00     0.117 C 
BRANCH   3   4
HETATM    4  C5  UNL     1     -30.886  31.896 -26.756  1.00  0.00    -0.020 A 
HETATM    5  C4  UNL     1     -30.150  32.504 -27.743  1.00  0.00     0.013 A 
HETATM    6  C3  UNL     1     -28.783  32.648 -27.603  1.00  0.00     0.012 A 
HETATM    7  C2  UNL     1     -28.155  32.174 -26.456  1.00  0.00    -0.040 A 
HETATM    8  C1  UNL     1     -26.849  32.335 -26.369  1.00  0.00     0.024 C 
HETATM    9  C9  UNL     1     -28.911  31.573 -25.490  1.00  0.00    -0.052 A 
HETATM   10  C8  UNL     1     -30.256  31.437 -25.640  1.00  0.00     0.020 A 
HETATM   11  C10 UNL     1     -28.233  31.060 -24.247  1.00  0.00     0.049 C 
ENDBRANCH   3   4
ENDBRANCH   1   3
BRANCH   1  12
HETATM   12  C7  UNL     1     -33.520  33.732 -27.529  1.00  0.00     0.741 A 
HETATM   13  N2  UNL     1     -34.740  34.120 -27.145  1.00  0.00    -0.112 N 
HETATM   14  N3  UNL     1     -34.366  35.378 -27.074  1.00  0.00    -0.186 N 
ATOM     15  H2  UNL     1     -35.618  33.631 -26.974  1.00  0.00     0.207 HD
HETATM   16  N4  UNL     1     -33.137  35.013 -27.457  1.00  0.00     0.033 N 
ATOM     17  H3  UNL     1     -34.819  36.259 -26.830  1.00  0.00     0.212 HD
BRANCH  16  18
HETATM   18  O1  UNL     1     -31.955  35.687 -27.686  1.00  0.00    -0.253 OA
ATOM     19  H1  UNL     1     -31.233  35.583 -28.295  1.00  0.00     0.247 HD
ENDBRANCH  16  18
ENDBRANCH   1  12
TORSDOF 4
ENDMDL
MODEL 4
REMARK VINA RESULT: -8.306246785      1.301      2.152
REMARK  4 active torsions:
REMARK  status: ('A' for Active; 'I' for Inactive)
REMARK    1  A    between atoms: C5_5  and  C6_6 
REMARK    2  A    between atoms: C6_6  and  N1_7 
REMARK    3  A    between atoms: N1_7  and  C7_9 
REMARK    4  A    between atoms: N4_14  and  O1_15 
ROOT
HETATM    1  N1  UNL     1     -32.041  33.199 -27.471  1.00  0.00    -0.196 N 
ATOM      2  H1  UNL     1     -31.405  33.842 -27.942  1.00  0.00     0.183 HD
ENDROOT
BRANCH   1   3
HETATM    3  C6  UNL     1     -31.525  32.073 -26.776  1.00  0.00     0.117 C 
BRANCH   3   4
HETATM    4  C5  UNL     1     -30.194  31.880 -26.735  1.00  0.00    -0.020 A 
HETATM    5  C4  UNL     1     -29.571  31.467 -25.584  1.00  0.00     0.013 A 
HETATM    6  C3  UNL     1     -28.202  31.275 -25.563  1.00  0.00     0.012 A 
HETATM    7  C2  UNL     1     -27.459  31.501 -26.717  1.00  0.00    -0.040 A 
HETATM    8  C1  UNL     1     -26.156  31.304 -26.648  1.00  0.00     0.024 C 
HETATM    9  C9  UNL     1     -28.104  31.911 -27.849  1.00  0.00    -0.052 A 
HETATM   10  C8  UNL     1     -29.452  32.097 -27.856  1.00  0.00     0.020 A 
HETATM   11  C10 UNL     1     -27.300  32.155 -29.100  1.00  0.00     0.049 C 
ENDBRANCH   3   4
ENDBRANCH   1   3
BRANCH   1  12
HETATM   12  C7  UNL     1     -33.445  33.432 -27.511  1.00  0.00     0.741 A 
HETATM   13  N2  UNL     1     -34.516  32.709 -27.850  1.00  0.00    -0.112 N 
HETATM   14  N3  UNL     1     -35.329  33.705 -27.578  1.00  0.00    -0.186 N 
ATOM     15  H2  UNL     1     -34.650  31.757 -28.190  1.00  0.00     0.207 HD
HETATM   16  N4  UNL     1     -34.272  34.447 -27.232  1.00  0.00     0.033 N 
ATOM     17  H3  UNL     1     -36.339  33.849 -27.614  1.00  0.00     0.212 HD
BRANCH  16  18
HETATM   18  O1  UNL     1     -34.104  35.738 -26.773  1.00  0.00    -0.253 OA
ATOM     19  H1  UNL     1     -33.781  36.546 -27.155  1.00  0.00     0.247 HD
ENDBRANCH  16  18
ENDBRANCH   1  12
TORSDOF 4
ENDMDL
MODEL 5
REMARK VINA RESULT: -8.297130523      1.194      1.197
REMARK  4 active torsions:
REMARK  status: ('A' for Active; 'I' for Inactive)
REMARK    1  A    between atoms: C5_5  and  C6_6 
REMARK    2  A    between atoms: C6_6  and  N1_7 
REMARK    3  A    between atoms: N1_7  and  C7_9 
REMARK    4  A    between atoms: N4_14  and  O1_15 
ROOT
HETATM    1  N1  UNL     1     -32.050  33.363 -27.565  1.00  0.00    -0.196 N 
ATOM      2  H1  UNL     1     -31.459  34.109 -27.931  1.00  0.00     0.183 HD
ENDROOT
BRANCH   1   3
HETATM    3  C6  UNL     1     -31.462  32.160 -27.093  1.00  0.00     0.117 C 
BRANCH   3   4
HETATM    4  C5  UNL     1     -30.121  32.070 -27.016  1.00  0.00    -0.020 A 
HETATM    5  C4  UNL     1     -29.326  32.360 -28.097  1.00  0.00     0.013 A 
HETATM    6  C3  UNL     1     -27.952  32.262 -27.997  1.00  0.00     0.012 A 
HETATM    7  C2  UNL     1     -27.376  31.867 -26.794  1.00  0.00    -0.040 A 
HETATM    8  C1  UNL     1     -26.060  31.787 -26.748  1.00  0.00     0.024 C 
HETATM    9  C9  UNL     1     -28.190  31.584 -25.734  1.00  0.00    -0.052 A 
HETATM   10  C8  UNL     1     -29.542  31.685 -25.846  1.00  0.00     0.020 A 
HETATM   11  C10 UNL     1     -27.568  31.157 -24.430  1.00  0.00     0.049 C 
ENDBRANCH   3   4
ENDBRANCH   1   3
BRANCH   1  12
HETATM   12  C7  UNL     1     -33.463  33.529 -27.528  1.00  0.00     0.741 A 
HETATM   13  N2  UNL     1     -34.516  32.758 -27.817  1.00  0.00    -0.112 N 
HETATM   14  N3  UNL     1     -35.359  33.712 -27.493  1.00  0.00    -0.186 N 
ATOM     15  H2  UNL     1     -34.622  31.803 -28.157  1.00  0.00     0.207 HD
HETATM   16  N4  UNL     1     -34.322  34.502 -27.198  1.00  0.00     0.033 N 
ATOM     17  H3  UNL     1     -36.375  33.809 -27.474  1.00  0.00     0.212 HD
BRANCH  16  18
HETATM   18  O1  UNL     1     -34.191  35.797 -26.738  1.00  0.00    -0.253 OA
ATOM     19  H1  UNL     1     -34.787  36.528 -26.621  1.00  0.00     0.247 HD
ENDBRANCH  16  18
ENDBRANCH   1  12
TORSDOF 4
ENDMDL
