MODEL 1
REMARK VINA RESULT: -7.255357365      0.000      0.000
REMARK  3 active torsions:
REMARK  status: ('A' for Active; 'I' for Inactive)
REMARK    1  A    between atoms: C3_5  and  N2_6 
REMARK    2  A    between atoms: C5_12  and  C6_13 
REMARK    3  A    between atoms: C10_17  and  O1_18 
ROOT
HETATM    1  C1  UNL     1     -25.759  29.600 -25.292  1.00  0.00     0.046 C 
HETATM    2  C2  UNL     1     -26.442  29.363 -26.389  1.00  0.00     0.067 A 
HETATM    3  N1  UNL     1     -26.130  28.413 -27.294  1.00  0.00    -0.191 N 
ATOM      4  H1  UNL     1     -25.338  27.774 -27.236  1.00  0.00     0.184 HD
HETATM    5  C3  UNL     1     -27.029  28.451 -28.274  1.00  0.00     0.676 A 
HETATM    6  N3  UNL     1     -27.909  29.432 -27.978  1.00  0.00    -0.190 N 
ATOM      7  H3  UNL     1     -28.710  29.690 -28.554  1.00  0.00     0.184 HD
HETATM    8  C4  UNL     1     -27.575  30.016 -26.820  1.00  0.00     0.076 A 
HETATM    9  C5  UNL     1     -28.179  30.988 -26.221  1.00  0.00     0.044 C 
ENDROOT
BRANCH   9  10
HETATM   10  C6  UNL     1     -29.381  31.655 -26.711  1.00  0.00    -0.031 A 
HETATM   11  C7  UNL     1     -29.365  32.581 -27.736  1.00  0.00     0.011 A 
HETATM   12  C8  UNL     1     -30.532  33.198 -28.180  1.00  0.00     0.004 A 
HETATM   13  C9  UNL     1     -31.750  32.895 -27.598  1.00  0.00     0.037 A 
HETATM   14  C10 UNL     1     -31.778  31.971 -26.573  1.00  0.00     0.069 A 
HETATM   15  C12 UNL     1     -30.606  31.367 -26.145  1.00  0.00     0.048 A 
BRANCH  14  16
HETATM   16  O1  UNL     1     -32.981  31.612 -25.933  1.00  0.00    -0.356 OA
HETATM   17  C11 UNL     1     -34.067  32.510 -25.930  1.00  0.00     0.210 C 
ENDBRANCH  14  16
ENDBRANCH   9  10
BRANCH   5  18
HETATM   18  N2  UNL     1     -27.003  27.659 -29.296  1.00  0.00    -0.234 N 
ATOM     19  H22 UNL     1     -26.364  27.657 -30.092  1.00  0.00     0.174 HD
ATOM     20  H21 UNL     1     -27.664  26.894 -29.432  1.00  0.00     0.174 HD
ENDBRANCH   5  18
TORSDOF 3
ENDMDL
MODEL 2
REMARK VINA RESULT: -6.233565819      2.479      3.404
REMARK  3 active torsions:
REMARK  status: ('A' for Active; 'I' for Inactive)
REMARK    1  A    between atoms: C3_5  and  N2_6 
REMARK    2  A    between atoms: C5_12  and  C6_13 
REMARK    3  A    between atoms: C10_17  and  O1_18 
ROOT
HETATM    1  C1  UNL     1     -26.558  31.792 -28.340  1.00  0.00     0.046 C 
HETATM    2  C2  UNL     1     -27.116  31.773 -27.151  1.00  0.00     0.067 A 
HETATM    3  N1  UNL     1     -26.445  31.588 -25.995  1.00  0.00    -0.191 N 
ATOM      4  H1  UNL     1     -25.440  31.442 -25.907  1.00  0.00     0.184 HD
HETATM    5  C3  UNL     1     -27.316  31.628 -24.990  1.00  0.00     0.676 A 
HETATM    6  N3  UNL     1     -28.539  31.840 -25.523  1.00  0.00    -0.190 N 
ATOM      7  H3  UNL     1     -29.404  31.917 -24.988  1.00  0.00     0.184 HD
HETATM    8  C4  UNL     1     -28.450  31.934 -26.857  1.00  0.00     0.076 A 
HETATM    9  C5  UNL     1     -29.407  32.134 -27.701  1.00  0.00     0.044 C 
ENDROOT
BRANCH   9  10
HETATM   10  C6  UNL     1     -30.813  32.301 -27.348  1.00  0.00    -0.031 A 
HETATM   11  C7  UNL     1     -31.512  31.389 -26.581  1.00  0.00     0.011 A 
HETATM   12  C8  UNL     1     -32.855  31.579 -26.262  1.00  0.00     0.004 A 
HETATM   13  C9  UNL     1     -33.528  32.701 -26.712  1.00  0.00     0.037 A 
HETATM   14  C10 UNL     1     -32.840  33.619 -27.478  1.00  0.00     0.069 A 
HETATM   15  C12 UNL     1     -31.505  33.412 -27.785  1.00  0.00     0.048 A 
BRANCH  14  16
HETATM   16  O1  UNL     1     -33.461  34.785 -27.970  1.00  0.00    -0.356 OA
HETATM   17  C11 UNL     1     -34.119  35.657 -27.080  1.00  0.00     0.210 C 
ENDBRANCH  14  16
ENDBRANCH   9  10
BRANCH   5  18
HETATM   18  N2  UNL     1     -26.981  31.482 -23.750  1.00  0.00    -0.234 N 
ATOM     19  H22 UNL     1     -26.150  31.821 -23.264  1.00  0.00     0.174 HD
ATOM     20  H21 UNL     1     -27.548  30.977 -23.069  1.00  0.00     0.174 HD
ENDBRANCH   5  18
TORSDOF 3
ENDMDL
MODEL 3
REMARK VINA RESULT: -5.859563780      1.812      3.406
REMARK  3 active torsions:
REMARK  status: ('A' for Active; 'I' for Inactive)
REMARK    1  A    between atoms: C3_5  and  N2_6 
REMARK    2  A    between atoms: C5_12  and  C6_13 
REMARK    3  A    between atoms: C10_17  and  O1_18 
ROOT
HETATM    1  C1  UNL     1     -26.669  26.639 -29.357  1.00  0.00     0.046 C 
HETATM    2  C2  UNL     1     -26.820  27.935 -29.515  1.00  0.00     0.067 A 
HETATM    3  N1  UNL     1     -26.650  28.587 -30.683  1.00  0.00    -0.191 N 
ATOM      4  H1  UNL     1     -26.387  28.160 -31.571  1.00  0.00     0.184 HD
HETATM    5  C3  UNL     1     -26.883  29.881 -30.482  1.00  0.00     0.676 A 
HETATM    6  N3  UNL     1     -27.201  30.037 -29.178  1.00  0.00    -0.190 N 
ATOM      7  H3  UNL     1     -27.431  30.927 -28.736  1.00  0.00     0.184 HD
HETATM    8  C4  UNL     1     -27.171  28.853 -28.552  1.00  0.00     0.076 A 
HETATM    9  C5  UNL     1     -27.418  28.609 -27.308  1.00  0.00     0.044 C 
ENDROOT
BRANCH   9  10
HETATM   10  C6  UNL     1     -27.788  29.614 -26.317  1.00  0.00    -0.031 A 
HETATM   11  C7  UNL     1     -26.911  30.092 -25.363  1.00  0.00     0.011 A 
HETATM   12  C8  UNL     1     -27.299  31.053 -24.431  1.00  0.00     0.004 A 
HETATM   13  C9  UNL     1     -28.587  31.556 -24.439  1.00  0.00     0.037 A 
HETATM   14  C10 UNL     1     -29.472  31.086 -25.387  1.00  0.00     0.069 A 
HETATM   15  C12 UNL     1     -29.068  30.130 -26.306  1.00  0.00     0.048 A 
BRANCH  14  16
HETATM   16  O1  UNL     1     -30.800  31.553 -25.456  1.00  0.00    -0.356 OA
HETATM   17  C11 UNL     1     -31.340  31.946 -26.697  1.00  0.00     0.210 C 
ENDBRANCH  14  16
ENDBRANCH   9  10
BRANCH   5  18
HETATM   18  N2  UNL     1     -26.801  30.774 -31.414  1.00  0.00    -0.234 N 
ATOM     19  H22 UNL     1     -27.550  31.260 -31.907  1.00  0.00     0.174 HD
ATOM     20  H21 UNL     1     -25.916  31.117 -31.788  1.00  0.00     0.174 HD
ENDBRANCH   5  18
TORSDOF 3
ENDMDL
MODEL 4
REMARK VINA RESULT: -5.813717174      1.916      2.641
REMARK  3 active torsions:
REMARK  status: ('A' for Active; 'I' for Inactive)
REMARK    1  A    between atoms: C3_5  and  N2_6 
REMARK    2  A    between atoms: C5_12  and  C6_13 
REMARK    3  A    between atoms: C10_17  and  O1_18 
ROOT
HETATM    1  C1  UNL     1     -27.382  28.729 -27.105  1.00  0.00     0.046 C 
HETATM    2  C2  UNL     1     -27.562  29.743 -26.289  1.00  0.00     0.067 A 
HETATM    3  N1  UNL     1     -26.795  30.001 -25.210  1.00  0.00    -0.191 N 
ATOM      4  H1  UNL     1     -25.995  29.449 -24.902  1.00  0.00     0.184 HD
HETATM    5  C3  UNL     1     -27.258  31.098 -24.616  1.00  0.00     0.676 A 
HETATM    6  N3  UNL     1     -28.321  31.527 -25.329  1.00  0.00    -0.190 N 
ATOM      7  H3  UNL     1     -28.879  32.352 -25.108  1.00  0.00     0.184 HD
HETATM    8  C4  UNL     1     -28.536  30.712 -26.371  1.00  0.00     0.076 A 
HETATM    9  C5  UNL     1     -29.459  30.803 -27.269  1.00  0.00     0.044 C 
ENDROOT
BRANCH   9  10
HETATM   10  C6  UNL     1     -30.476  31.849 -27.320  1.00  0.00    -0.031 A 
HETATM   11  C7  UNL     1     -30.288  33.053 -27.969  1.00  0.00     0.011 A 
HETATM   12  C8  UNL     1     -31.281  34.030 -27.999  1.00  0.00     0.004 A 
HETATM   13  C9  UNL     1     -32.495  33.813 -27.371  1.00  0.00     0.037 A 
HETATM   14  C10 UNL     1     -32.694  32.613 -26.720  1.00  0.00     0.069 A 
HETATM   15  C12 UNL     1     -31.694  31.654 -26.702  1.00  0.00     0.048 A 
BRANCH  14  16
HETATM   16  O1  UNL     1     -33.905  32.322 -26.059  1.00  0.00    -0.356 OA
HETATM   17  C11 UNL     1     -34.979  33.231 -26.134  1.00  0.00     0.210 C 
ENDBRANCH  14  16
ENDBRANCH   9  10
BRANCH   5  18
HETATM   18  N2  UNL     1     -26.733  31.606 -23.548  1.00  0.00    -0.234 N 
ATOM     19  H22 UNL     1     -27.001  32.448 -23.038  1.00  0.00     0.174 HD
ATOM     20  H21 UNL     1     -25.936  31.194 -23.063  1.00  0.00     0.174 HD
ENDBRANCH   5  18
TORSDOF 3
ENDMDL
MODEL 5
REMARK VINA RESULT: -5.772557988      1.614      2.881
REMARK  3 active torsions:
REMARK  status: ('A' for Active; 'I' for Inactive)
REMARK    1  A    between atoms: C3_5  and  N2_6 
REMARK    2  A    between atoms: C5_12  and  C6_13 
REMARK    3  A    between atoms: C10_17  and  O1_18 
ROOT
HETATM    1  C1  UNL     1     -26.560  30.805 -31.012  1.00  0.00     0.046 C 
HETATM    2  C2  UNL     1     -26.808  29.846 -30.148  1.00  0.00     0.067 A 
HETATM    3  N1  UNL     1     -26.554  28.539 -30.363  1.00  0.00    -0.191 N 
ATOM      4  H1  UNL     1     -26.146  28.143 -31.209  1.00  0.00     0.184 HD
HETATM    5  C3  UNL     1     -26.926  27.853 -29.285  1.00  0.00     0.676 A 
HETATM    6  N3  UNL     1     -27.415  28.740 -28.391  1.00  0.00    -0.190 N 
ATOM      7  H3  UNL     1     -27.776  28.499 -27.467  1.00  0.00     0.184 HD
HETATM    8  C4  UNL     1     -27.356  29.981 -28.893  1.00  0.00     0.076 A 
HETATM    9  C5  UNL     1     -27.731  31.080 -28.329  1.00  0.00     0.044 C 
ENDROOT
BRANCH   9  10
HETATM   10  C6  UNL     1     -28.310  31.181 -26.993  1.00  0.00    -0.031 A 
HETATM   11  C7  UNL     1     -27.563  31.067 -25.837  1.00  0.00     0.011 A 
HETATM   12  C8  UNL     1     -28.149  31.168 -24.577  1.00  0.00     0.004 A 
HETATM   13  C9  UNL     1     -29.508  31.388 -24.453  1.00  0.00     0.037 A 
HETATM   14  C10 UNL     1     -30.265  31.504 -25.601  1.00  0.00     0.069 A 
HETATM   15  C12 UNL     1     -29.664  31.400 -26.846  1.00  0.00     0.048 A 
BRANCH  14  16
HETATM   16  O1  UNL     1     -31.655  31.729 -25.552  1.00  0.00    -0.356 OA
HETATM   17  C11 UNL     1     -32.411  31.702 -26.741  1.00  0.00     0.210 C 
ENDBRANCH  14  16
ENDBRANCH   9  10
BRANCH   5  18
HETATM   18  N2  UNL     1     -26.811  26.569 -29.182  1.00  0.00    -0.234 N 
ATOM     19  H22 UNL     1     -27.284  25.836 -29.710  1.00  0.00     0.174 HD
ATOM     20  H21 UNL     1     -26.191  26.113 -28.513  1.00  0.00     0.174 HD
ENDBRANCH   5  18
TORSDOF 3
ENDMDL
