MODEL 1
REMARK VINA RESULT: -7.769358831      0.000      0.000
REMARK  4 active torsions:
REMARK  status: ('A' for Active; 'I' for Inactive)
REMARK    1  A    between atoms: C2_2  and  C3_3 
REMARK    2  A    between atoms: C3_3  and  C4_4 
REMARK    3  A    between atoms: C10_11  and  O2_12 
REMARK    4  A    between atoms: C19_22  and  O3_23 
ROOT
HETATM    1  C4  UNL     1       8.394 -13.703 -26.429  1.00  0.00    -0.071 C 
HETATM    2  C5  UNL     1       7.033 -14.086 -26.966  1.00  0.00     0.020 C 
HETATM    3  C6  UNL     1       5.980 -13.043 -26.968  1.00  0.00     0.022 C 
HETATM    4  C7  UNL     1       4.903 -13.149 -25.943  1.00  0.00     0.057 C 
HETATM    5  C8  UNL     1       4.706 -12.030 -25.003  1.00  0.00    -0.018 A 
HETATM    6  C9  UNL     1       3.602 -11.204 -25.041  1.00  0.00     0.153 A 
HETATM    7  O1  UNL     1       3.713 -10.306 -24.073  1.00  0.00    -0.299 OA
HETATM    8  C10 UNL     1       4.811 -10.483 -23.402  1.00  0.00     0.189 A 
HETATM    9  C11 UNL     1       5.460 -11.554 -23.956  1.00  0.00     0.009 A 
HETATM   10  C12 UNL     1       6.768 -11.943 -23.345  1.00  0.00     0.050 C 
HETATM   11  C13 UNL     1       7.565 -12.533 -24.426  1.00  0.00     0.004 A 
HETATM   12  C14 UNL     1       8.515 -13.434 -24.947  1.00  0.00     0.025 A 
HETATM   13  C15 UNL     1       7.351 -13.916 -24.248  1.00  0.00     0.006 A 
HETATM   14  C16 UNL     1       6.401 -14.818 -24.782  1.00  0.00     0.031 C 
HETATM   15  C17 UNL     1       6.629 -15.298 -26.216  1.00  0.00     0.004 C 
HETATM   16  C18 UNL     1       5.107 -15.524 -26.244  1.00  0.00     0.045 C 
HETATM   17  C19 UNL     1       5.037 -14.462 -25.168  1.00  0.00     0.073 C 
ENDROOT
BRANCH   1  18
HETATM   18  C3  UNL     1       9.413 -13.614 -27.242  1.00  0.00    -0.001 C 
BRANCH  18  19
HETATM   19  C2  UNL     1      10.720 -14.197 -27.383  1.00  0.00    -0.031 C 
HETATM   20  C1  UNL     1      11.155 -15.382 -26.630  1.00  0.00     0.036 C 
ENDBRANCH  18  19
ENDBRANCH   1  18
BRANCH  17  21
HETATM   21  O3  UNL     1       4.029 -14.562 -24.258  1.00  0.00    -0.384 OA
HETATM   22  C20 UNL     1       2.761 -14.637 -24.752  1.00  0.00     0.202 C 
ENDBRANCH  17  21
BRANCH   8  23
HETATM   23  O2  UNL     1       5.278  -9.734 -22.306  1.00  0.00    -0.340 OA
ATOM     24  H2  UNL     1       6.082  -9.231 -22.248  1.00  0.00     0.220 HD
ENDBRANCH   8  23
TORSDOF 4
ENDMDL
MODEL 2
REMARK VINA RESULT: -7.109736673      5.504      7.410
REMARK  4 active torsions:
REMARK  status: ('A' for Active; 'I' for Inactive)
REMARK    1  A    between atoms: C2_2  and  C3_3 
REMARK    2  A    between atoms: C3_3  and  C4_4 
REMARK    3  A    between atoms: C10_11  and  O2_12 
REMARK    4  A    between atoms: C19_22  and  O3_23 
ROOT
HETATM    1  C4  UNL     1       3.074  -7.728 -24.138  1.00  0.00    -0.071 C 
HETATM    2  C5  UNL     1       1.766  -7.376 -24.812  1.00  0.00     0.020 C 
HETATM    3  C6  UNL     1       0.542  -8.059 -24.329  1.00  0.00     0.022 C 
HETATM    4  C7  UNL     1      -0.034  -9.131 -25.190  1.00  0.00     0.057 C 
HETATM    5  C8  UNL     1      -0.179 -10.487 -24.631  1.00  0.00    -0.018 A 
HETATM    6  C9  UNL     1      -1.402 -11.054 -24.342  1.00  0.00     0.153 A 
HETATM    7  O1  UNL     1      -1.201 -12.272 -23.862  1.00  0.00    -0.299 OA
HETATM    8  C10 UNL     1       0.067 -12.547 -23.815  1.00  0.00     0.189 A 
HETATM    9  C11 UNL     1       0.740 -11.453 -24.288  1.00  0.00     0.009 A 
HETATM   10  C12 UNL     1       2.232 -11.537 -24.321  1.00  0.00     0.050 C 
HETATM   11  C13 UNL     1       2.724 -10.166 -24.145  1.00  0.00     0.004 A 
HETATM   12  C14 UNL     1       3.633  -9.112 -24.368  1.00  0.00     0.025 A 
HETATM   13  C15 UNL     1       2.964  -9.752 -25.472  1.00  0.00     0.006 A 
HETATM   14  C16 UNL     1       2.165  -9.086 -26.431  1.00  0.00     0.031 C 
HETATM   15  C17 UNL     1       1.992  -7.576 -26.262  1.00  0.00     0.004 C 
HETATM   16  C18 UNL     1       0.678  -7.771 -27.038  1.00  0.00     0.045 C 
HETATM   17  C19 UNL     1       0.711  -9.194 -26.525  1.00  0.00     0.073 C 
ENDROOT
BRANCH   1  18
HETATM   18  C3  UNL     1       3.677  -6.844 -23.387  1.00  0.00    -0.001 C 
BRANCH  18  19
HETATM   19  C2  UNL     1       4.665  -5.812 -23.539  1.00  0.00    -0.031 C 
HETATM   20  C1  UNL     1       4.956  -5.163 -24.825  1.00  0.00     0.036 C 
ENDBRANCH  18  19
ENDBRANCH   1  18
BRANCH  17  21
HETATM   21  O3  UNL     1       0.155 -10.154 -27.315  1.00  0.00    -0.384 OA
HETATM   22  C20 UNL     1      -1.129  -9.945 -27.724  1.00  0.00     0.202 C 
ENDBRANCH  17  21
BRANCH   8  23
HETATM   23  O2  UNL     1       0.672 -13.736 -23.367  1.00  0.00    -0.340 OA
ATOM     24  H2  UNL     1       1.500 -13.829 -22.911  1.00  0.00     0.220 HD
ENDBRANCH   8  23
TORSDOF 4
ENDMDL
MODEL 3
REMARK VINA RESULT: -6.359088909      2.636      4.699
REMARK  4 active torsions:
REMARK  status: ('A' for Active; 'I' for Inactive)
REMARK    1  A    between atoms: C2_2  and  C3_3 
REMARK    2  A    between atoms: C3_3  and  C4_4 
REMARK    3  A    between atoms: C10_11  and  O2_12 
REMARK    4  A    between atoms: C19_22  and  O3_23 
ROOT
HETATM    1  C4  UNL     1       5.563 -11.390 -23.916  1.00  0.00    -0.071 C 
HETATM    2  C5  UNL     1       4.359 -11.921 -24.663  1.00  0.00     0.020 C 
HETATM    3  C6  UNL     1       3.826 -11.098 -25.774  1.00  0.00     0.022 C 
HETATM    4  C7  UNL     1       2.556 -10.355 -25.534  1.00  0.00     0.057 C 
HETATM    5  C8  UNL     1       2.553  -8.889 -25.682  1.00  0.00    -0.018 A 
HETATM    6  C9  UNL     1       1.902  -8.239 -26.709  1.00  0.00     0.153 A 
HETATM    7  O1  UNL     1       2.079  -6.934 -26.563  1.00  0.00    -0.299 OA
HETATM    8  C10 UNL     1       2.800  -6.680 -25.513  1.00  0.00     0.189 A 
HETATM    9  C11 UNL     1       3.117  -7.880 -24.935  1.00  0.00     0.009 A 
HETATM   10  C12 UNL     1       3.959  -7.836 -23.701  1.00  0.00     0.050 C 
HETATM   11  C13 UNL     1       4.733  -9.082 -23.688  1.00  0.00     0.004 A 
HETATM   12  C14 UNL     1       5.371 -10.166 -23.052  1.00  0.00     0.025 A 
HETATM   13  C15 UNL     1       3.968  -9.911 -22.840  1.00  0.00     0.006 A 
HETATM   14  C16 UNL     1       2.930 -10.840 -23.085  1.00  0.00     0.031 C 
HETATM   15  C17 UNL     1       3.338 -12.209 -23.630  1.00  0.00     0.004 C 
HETATM   16  C18 UNL     1       1.914 -12.256 -24.212  1.00  0.00     0.045 C 
HETATM   17  C19 UNL     1       1.965 -10.744 -24.177  1.00  0.00     0.073 C 
ENDROOT
BRANCH   1  18
HETATM   18  C3  UNL     1       6.719 -11.990 -24.034  1.00  0.00    -0.001 C 
BRANCH  18  19
HETATM   19  C2  UNL     1       7.307 -13.023 -24.842  1.00  0.00    -0.031 C 
HETATM   20  C1  UNL     1       6.991 -14.448 -24.676  1.00  0.00     0.036 C 
ENDBRANCH  18  19
ENDBRANCH   1  18
BRANCH  17  21
HETATM   21  O3  UNL     1       0.789 -10.085 -23.985  1.00  0.00    -0.384 OA
HETATM   22  C20 UNL     1      -0.274 -10.492 -24.736  1.00  0.00     0.202 C 
ENDBRANCH  17  21
BRANCH   8  23
HETATM   23  O2  UNL     1       3.201  -5.420 -25.032  1.00  0.00    -0.340 OA
ATOM     24  H2  UNL     1       2.645  -4.687 -24.795  1.00  0.00     0.220 HD
ENDBRANCH   8  23
TORSDOF 4
ENDMDL
MODEL 4
REMARK VINA RESULT: -6.347741430      3.751      7.394
REMARK  4 active torsions:
REMARK  status: ('A' for Active; 'I' for Inactive)
REMARK    1  A    between atoms: C2_2  and  C3_3 
REMARK    2  A    between atoms: C3_3  and  C4_4 
REMARK    3  A    between atoms: C10_11  and  O2_12 
REMARK    4  A    between atoms: C19_22  and  O3_23 
ROOT
HETATM    1  C4  UNL     1       0.685  -8.397 -26.588  1.00  0.00    -0.071 C 
HETATM    2  C5  UNL     1       2.132  -8.148 -26.224  1.00  0.00     0.020 C 
HETATM    3  C6  UNL     1       3.055  -9.307 -26.257  1.00  0.00     0.022 C 
HETATM    4  C7  UNL     1       3.486  -9.882 -24.951  1.00  0.00     0.057 C 
HETATM    5  C8  UNL     1       3.201 -11.301 -24.671  1.00  0.00    -0.018 A 
HETATM    6  C9  UNL     1       4.184 -12.265 -24.606  1.00  0.00     0.153 A 
HETATM    7  O1  UNL     1       3.615 -13.431 -24.336  1.00  0.00    -0.299 OA
HETATM    8  C10 UNL     1       2.328 -13.301 -24.218  1.00  0.00     0.189 A 
HETATM    9  C11 UNL     1       2.031 -11.981 -24.422  1.00  0.00     0.009 A 
HETATM   10  C12 UNL     1       0.590 -11.591 -24.342  1.00  0.00     0.050 C 
HETATM   11  C13 UNL     1       0.426 -10.443 -25.242  1.00  0.00     0.004 A 
HETATM   12  C14 UNL     1      -0.149  -9.217 -25.632  1.00  0.00     0.025 A 
HETATM   13  C15 UNL     1       0.517  -9.345 -24.361  1.00  0.00     0.006 A 
HETATM   14  C16 UNL     1       1.602  -8.546 -23.930  1.00  0.00     0.031 C 
HETATM   15  C17 UNL     1       2.107  -7.480 -24.903  1.00  0.00     0.004 C 
HETATM   16  C18 UNL     1       3.444  -7.616 -24.153  1.00  0.00     0.045 C 
HETATM   17  C19 UNL     1       2.980  -9.012 -23.798  1.00  0.00     0.073 C 
ENDROOT
BRANCH   1  18
HETATM   18  C3  UNL     1       0.199  -7.908 -27.699  1.00  0.00    -0.001 C 
BRANCH  18  19
HETATM   19  C2  UNL     1       0.698  -7.373 -28.936  1.00  0.00    -0.031 C 
HETATM   20  C1  UNL     1       1.760  -8.021 -29.720  1.00  0.00     0.036 C 
ENDBRANCH  18  19
ENDBRANCH   1  18
BRANCH  17  21
HETATM   21  O3  UNL     1       3.409  -9.528 -22.613  1.00  0.00    -0.384 OA
HETATM   22  C20 UNL     1       4.725  -9.348 -22.304  1.00  0.00     0.202 C 
ENDBRANCH  17  21
BRANCH   8  23
HETATM   23  O2  UNL     1       1.386 -14.307 -23.935  1.00  0.00    -0.340 OA
ATOM     24  H2  UNL     1       0.466 -14.198 -23.724  1.00  0.00     0.220 HD
ENDBRANCH   8  23
TORSDOF 4
ENDMDL
MODEL 5
REMARK VINA RESULT: -6.311411082      5.421      7.246
REMARK  4 active torsions:
REMARK  status: ('A' for Active; 'I' for Inactive)
REMARK    1  A    between atoms: C2_2  and  C3_3 
REMARK    2  A    between atoms: C3_3  and  C4_4 
REMARK    3  A    between atoms: C10_11  and  O2_12 
REMARK    4  A    between atoms: C19_22  and  O3_23 
ROOT
HETATM    1  C4  UNL     1       3.235  -8.109 -24.026  1.00  0.00    -0.071 C 
HETATM    2  C5  UNL     1       1.970  -7.595 -24.678  1.00  0.00     0.020 C 
HETATM    3  C6  UNL     1       0.686  -8.198 -24.248  1.00  0.00     0.022 C 
HETATM    4  C7  UNL     1       0.025  -9.151 -25.184  1.00  0.00     0.057 C 
HETATM    5  C8  UNL     1      -0.245 -10.525 -24.723  1.00  0.00    -0.018 A 
HETATM    6  C9  UNL     1      -1.517 -10.998 -24.479  1.00  0.00     0.153 A 
HETATM    7  O1  UNL     1      -1.430 -12.260 -24.085  1.00  0.00    -0.299 OA
HETATM    8  C10 UNL     1      -0.191 -12.650 -24.054  1.00  0.00     0.189 A 
HETATM    9  C11 UNL     1       0.581 -11.591 -24.446  1.00  0.00     0.009 A 
HETATM   10  C12 UNL     1       2.059 -11.805 -24.480  1.00  0.00     0.050 C 
HETATM   11  C13 UNL     1       2.669 -10.500 -24.206  1.00  0.00     0.004 A 
HETATM   12  C14 UNL     1       3.671  -9.518 -24.351  1.00  0.00     0.025 A 
HETATM   13  C15 UNL     1       2.958 -10.017 -25.500  1.00  0.00     0.006 A 
HETATM   14  C16 UNL     1       2.231  -9.216 -26.412  1.00  0.00     0.031 C 
HETATM   15  C17 UNL     1       2.192  -7.713 -26.138  1.00  0.00     0.004 C 
HETATM   16  C18 UNL     1       0.873  -7.735 -26.930  1.00  0.00     0.045 C 
HETATM   17  C19 UNL     1       0.774  -9.188 -26.518  1.00  0.00     0.073 C 
ENDROOT
BRANCH   1  18
HETATM   18  C3  UNL     1       3.907  -7.338 -23.212  1.00  0.00    -0.001 C 
BRANCH  18  19
HETATM   19  C2  UNL     1       4.603  -7.458 -21.960  1.00  0.00    -0.031 C 
HETATM   20  C1  UNL     1       4.741  -8.730 -21.239  1.00  0.00     0.036 C 
ENDBRANCH  18  19
ENDBRANCH   1  18
BRANCH  17  21
HETATM   21  O3  UNL     1       0.142 -10.036 -27.375  1.00  0.00    -0.384 OA
HETATM   22  C20 UNL     1      -1.066  -9.631 -27.862  1.00  0.00     0.202 C 
ENDBRANCH  17  21
BRANCH   8  23
HETATM   23  O2  UNL     1       0.300 -13.917 -23.689  1.00  0.00    -0.340 OA
ATOM     24  H2  UNL     1      -0.024 -14.767 -23.965  1.00  0.00     0.220 HD
ENDBRANCH   8  23
TORSDOF 4
ENDMDL
