MODEL 1
REMARK VINA RESULT: -7.865667022      0.000      0.000
REMARK  5 active torsions:
REMARK  status: ('A' for Active; 'I' for Inactive)
REMARK    1  A    between atoms: C4_5  and  N2_6 
REMARK    2  A    between atoms: C6_8  and  C7_9 
REMARK    3  A    between atoms: C7_9  and  O1_11 
REMARK    4  A    between atoms: C7_9  and  C9_13 
REMARK    5  A    between atoms: C16_24  and  C17_25 
ROOT
HETATM    1  C1  UNL     1       1.425  -6.704 -24.682  1.00  0.00     0.144 C 
HETATM    2  N1  UNL     1       1.165  -7.237 -25.967  1.00  0.00    -0.405 N 
HETATM    3  C2  UNL     1      -0.193  -7.348 -26.377  1.00  0.00     0.104 C 
HETATM    4  C3  UNL     1      -0.176  -7.107 -27.861  1.00  0.00     0.025 C 
HETATM    5  C4  UNL     1       0.871  -7.549 -28.557  1.00  0.00     0.035 C 
HETATM    6  C13 UNL     1       2.012  -8.273 -27.960  1.00  0.00     0.084 C 
HETATM    7  C14 UNL     1       2.002  -8.265 -26.458  1.00  0.00     0.085 C 
HETATM    8  C15 UNL     1       1.563  -9.631 -25.953  1.00  0.00     0.034 C 
HETATM    9  C16 UNL     1       0.083  -9.844 -26.149  1.00  0.00     0.022 C 
HETATM   10  C23 UNL     1      -0.785  -8.656 -26.077  1.00  0.00     0.038 C 
ENDROOT
BRANCH   5  11
HETATM   11  N2  UNL     1       0.916  -7.327 -29.987  1.00  0.00    -0.256 N 
HETATM   12  C5  UNL     1       0.748  -6.171 -30.631  1.00  0.00     0.147 A 
HETATM   13  C6  UNL     1       0.883  -6.401 -31.987  1.00  0.00     0.079 A 
HETATM   14  N3  UNL     1       1.131  -7.718 -32.084  1.00  0.00    -0.286 N 
HETATM   15  N4  UNL     1       1.145  -8.248 -30.871  1.00  0.00    -0.236 N 
ATOM     16  H3  UNL     1       1.283  -8.228 -32.954  1.00  0.00     0.188 HD
ATOM     17  H4  UNL     1       1.312  -9.233 -30.663  1.00  0.00     0.209 HD
BRANCH  13  18
HETATM   18  C7  UNL     1       0.779  -5.415 -33.099  1.00  0.00     0.105 C 
HETATM   19  C8  UNL     1       0.546  -4.040 -32.450  1.00  0.00     0.053 C 
BRANCH  18  20
HETATM   20  O1  UNL     1      -0.310  -5.636 -33.920  1.00  0.00    -0.383 OA
ATOM     21  H1  UNL     1      -0.799  -4.844 -34.113  1.00  0.00     0.211 HD
ENDBRANCH  18  20
BRANCH  18  22
HETATM   22  C9  UNL     1       2.056  -5.307 -33.890  1.00  0.00    -0.015 C 
HETATM   23  C10 UNL     1       2.224  -6.438 -34.886  1.00  0.00     0.018 C 
HETATM   24  C11 UNL     1       2.060  -4.031 -34.732  1.00  0.00     0.018 C 
HETATM   25  C12 UNL     1       3.251  -5.242 -32.971  1.00  0.00     0.018 C 
ENDBRANCH  18  22
ENDBRANCH  13  18
ENDBRANCH   5  11
BRANCH   9  26
HETATM   26  C17 UNL     1      -0.324 -10.772 -25.056  1.00  0.00    -0.054 A 
HETATM   27  C18 UNL     1       0.615 -11.458 -24.338  1.00  0.00     0.009 A 
HETATM   28  C19 UNL     1       0.232 -12.332 -23.308  1.00  0.00     0.019 A 
HETATM   29  C20 UNL     1      -1.106 -12.495 -23.023  1.00  0.00     0.011 A 
HETATM   30 BR1  UNL     1      -1.671 -13.668 -21.628  1.00  0.00    -0.051 Br
HETATM   31  C21 UNL     1      -2.063 -11.812 -23.738  1.00  0.00     0.019 A 
HETATM   32  C22 UNL     1      -1.655 -10.946 -24.759  1.00  0.00     0.009 A 
ENDBRANCH   9  26
TORSDOF 5
ENDMDL
MODEL 2
REMARK VINA RESULT: -7.723498407      1.094      1.185
REMARK  5 active torsions:
REMARK  status: ('A' for Active; 'I' for Inactive)
REMARK    1  A    between atoms: C4_5  and  N2_6 
REMARK    2  A    between atoms: C6_8  and  C7_9 
REMARK    3  A    between atoms: C7_9  and  O1_11 
REMARK    4  A    between atoms: C7_9  and  C9_13 
REMARK    5  A    between atoms: C16_24  and  C17_25 
ROOT
HETATM    1  C1  UNL     1       1.051  -6.764 -23.998  1.00  0.00     0.144 C 
HETATM    2  N1  UNL     1       1.143  -7.295 -25.306  1.00  0.00    -0.405 N 
HETATM    3  C2  UNL     1      -0.067  -7.480 -26.034  1.00  0.00     0.104 C 
HETATM    4  C3  UNL     1       0.295  -7.219 -27.470  1.00  0.00     0.025 C 
HETATM    5  C4  UNL     1       1.504  -7.590 -27.889  1.00  0.00     0.035 C 
HETATM    6  C13 UNL     1       2.508  -8.254 -27.032  1.00  0.00     0.084 C 
HETATM    7  C14 UNL     1       2.134  -8.265 -25.578  1.00  0.00     0.085 C 
HETATM    8  C15 UNL     1       1.668  -9.661 -25.191  1.00  0.00     0.034 C 
HETATM    9  C16 UNL     1       0.295  -9.958 -25.740  1.00  0.00     0.022 C 
HETATM   10  C23 UNL     1      -0.634  -8.824 -25.884  1.00  0.00     0.038 C 
ENDROOT
BRANCH   5  11
HETATM   11  N2  UNL     1       1.882  -7.348 -29.267  1.00  0.00    -0.256 N 
HETATM   12  C5  UNL     1       1.113  -6.858 -30.240  1.00  0.00     0.147 A 
HETATM   13  C6  UNL     1       1.868  -6.776 -31.395  1.00  0.00     0.079 A 
HETATM   14  N3  UNL     1       3.081  -7.233 -31.040  1.00  0.00    -0.286 N 
HETATM   15  N4  UNL     1       3.061  -7.568 -29.759  1.00  0.00    -0.236 N 
ATOM     16  H3  UNL     1       3.888  -7.309 -31.659  1.00  0.00     0.188 HD
ATOM     17  H4  UNL     1       3.854  -7.943 -29.238  1.00  0.00     0.209 HD
BRANCH  13  18
HETATM   18  C7  UNL     1       1.441  -6.290 -32.737  1.00  0.00     0.105 C 
HETATM   19  C8  UNL     1      -0.045  -5.909 -32.616  1.00  0.00     0.053 C 
BRANCH  18  20
HETATM   20  O1  UNL     1       1.503  -7.266 -33.713  1.00  0.00    -0.383 OA
ATOM     21  H1  UNL     1       2.225  -7.144 -34.318  1.00  0.00     0.211 HD
ENDBRANCH  18  20
BRANCH  18  22
HETATM   22  C9  UNL     1       2.174  -5.043 -33.154  1.00  0.00    -0.015 C 
HETATM   23  C10 UNL     1       3.550  -5.335 -33.720  1.00  0.00     0.018 C 
HETATM   24  C11 UNL     1       1.423  -4.330 -34.280  1.00  0.00     0.018 C 
HETATM   25  C12 UNL     1       2.280  -4.073 -32.002  1.00  0.00     0.018 C 
ENDBRANCH  18  22
ENDBRANCH  13  18
ENDBRANCH   5  11
BRANCH   9  26
HETATM   26  C17 UNL     1      -0.308 -10.922 -24.777  1.00  0.00    -0.054 A 
HETATM   27  C18 UNL     1       0.481 -11.768 -24.051  1.00  0.00     0.009 A 
HETATM   28  C19 UNL     1      -0.087 -12.676 -23.143  1.00  0.00     0.019 A 
HETATM   29  C20 UNL     1      -1.456 -12.710 -22.987  1.00  0.00     0.011 A 
HETATM   30 BR1  UNL     1      -2.270 -13.923 -21.761  1.00  0.00    -0.051 Br
HETATM   31  C21 UNL     1      -2.263 -11.864 -23.713  1.00  0.00     0.019 A 
HETATM   32  C22 UNL     1      -1.673 -10.968 -24.611  1.00  0.00     0.009 A 
ENDBRANCH   9  26
TORSDOF 5
ENDMDL
MODEL 3
REMARK VINA RESULT: -7.627077147      1.025      1.501
REMARK  5 active torsions:
REMARK  status: ('A' for Active; 'I' for Inactive)
REMARK    1  A    between atoms: C4_5  and  N2_6 
REMARK    2  A    between atoms: C6_8  and  C7_9 
REMARK    3  A    between atoms: C7_9  and  O1_11 
REMARK    4  A    between atoms: C7_9  and  C9_13 
REMARK    5  A    between atoms: C16_24  and  C17_25 
ROOT
HETATM    1  C1  UNL     1       1.497  -6.716 -24.587  1.00  0.00     0.144 C 
HETATM    2  N1  UNL     1       1.319  -7.252 -25.884  1.00  0.00    -0.405 N 
HETATM    3  C2  UNL     1      -0.011  -7.357 -26.382  1.00  0.00     0.104 C 
HETATM    4  C3  UNL     1       0.105  -7.122 -27.862  1.00  0.00     0.025 C 
HETATM    5  C4  UNL     1       1.193  -7.572 -28.486  1.00  0.00     0.035 C 
HETATM    6  C13 UNL     1       2.288  -8.300 -27.813  1.00  0.00     0.084 C 
HETATM    7  C14 UNL     1       2.180  -8.286 -26.316  1.00  0.00     0.085 C 
HETATM    8  C15 UNL     1       1.702  -9.648 -25.835  1.00  0.00     0.034 C 
HETATM    9  C16 UNL     1       0.237  -9.854 -26.127  1.00  0.00     0.022 C 
HETATM   10  C23 UNL     1      -0.628  -8.661 -26.116  1.00  0.00     0.038 C 
ENDROOT
BRANCH   5  11
HETATM   11  N2  UNL     1       1.332  -7.356 -29.912  1.00  0.00    -0.256 N 
HETATM   12  C5  UNL     1       2.043  -6.404 -30.518  1.00  0.00     0.147 A 
HETATM   13  C6  UNL     1       1.915  -6.565 -31.885  1.00  0.00     0.079 A 
HETATM   14  N3  UNL     1       1.113  -7.635 -32.026  1.00  0.00    -0.286 N 
HETATM   15  N4  UNL     1       0.779  -8.089 -30.828  1.00  0.00    -0.236 N 
ATOM     16  H3  UNL     1       0.810  -8.033 -32.915  1.00  0.00     0.188 HD
ATOM     17  H4  UNL     1       0.178  -8.894 -30.652  1.00  0.00     0.209 HD
BRANCH  13  18
HETATM   18  C7  UNL     1       2.525  -5.743 -32.966  1.00  0.00     0.105 C 
HETATM   19  C8  UNL     1       2.175  -6.433 -34.296  1.00  0.00     0.053 C 
BRANCH  18  20
HETATM   20  O1  UNL     1       3.905  -5.708 -32.909  1.00  0.00    -0.383 OA
ATOM     21  H1  UNL     1       4.319  -5.945 -33.731  1.00  0.00     0.211 HD
ENDBRANCH  18  20
BRANCH  18  22
HETATM   22  C9  UNL     1       1.939  -4.358 -33.032  1.00  0.00    -0.015 C 
HETATM   23  C10 UNL     1       2.593  -3.399 -32.055  1.00  0.00     0.018 C 
HETATM   24  C11 UNL     1       2.172  -3.741 -34.412  1.00  0.00     0.018 C 
HETATM   25  C12 UNL     1       0.448  -4.395 -32.804  1.00  0.00     0.018 C 
ENDBRANCH  18  22
ENDBRANCH  13  18
ENDBRANCH   5  11
BRANCH   9  26
HETATM   26  C17 UNL     1      -0.246 -10.775 -25.059  1.00  0.00    -0.054 A 
HETATM   27  C18 UNL     1       0.637 -11.514 -24.324  1.00  0.00     0.009 A 
HETATM   28  C19 UNL     1       0.183 -12.382 -23.319  1.00  0.00     0.019 A 
HETATM   29  C20 UNL     1      -1.169 -12.486 -23.075  1.00  0.00     0.011 A 
HETATM   30 BR1  UNL     1      -1.830 -13.648 -21.715  1.00  0.00    -0.051 Br
HETATM   31  C21 UNL     1      -2.071 -11.749 -23.808  1.00  0.00     0.019 A 
HETATM   32  C22 UNL     1      -1.593 -10.891 -24.805  1.00  0.00     0.009 A 
ENDBRANCH   9  26
TORSDOF 5
ENDMDL
MODEL 4
REMARK VINA RESULT: -7.257950773      2.631      3.188
REMARK  5 active torsions:
REMARK  status: ('A' for Active; 'I' for Inactive)
REMARK    1  A    between atoms: C4_5  and  N2_6 
REMARK    2  A    between atoms: C6_8  and  C7_9 
REMARK    3  A    between atoms: C7_9  and  O1_11 
REMARK    4  A    between atoms: C7_9  and  C9_13 
REMARK    5  A    between atoms: C16_24  and  C17_25 
ROOT
HETATM    1  C1  UNL     1       0.549  -6.512 -23.883  1.00  0.00     0.144 C 
HETATM    2  N1  UNL     1       1.134  -7.090 -25.034  1.00  0.00    -0.405 N 
HETATM    3  C2  UNL     1       0.267  -7.478 -26.095  1.00  0.00     0.104 C 
HETATM    4  C3  UNL     1       1.056  -7.242 -27.353  1.00  0.00     0.025 C 
HETATM    5  C4  UNL     1       2.370  -7.463 -27.320  1.00  0.00     0.035 C 
HETATM    6  C13 UNL     1       3.098  -7.936 -26.124  1.00  0.00     0.084 C 
HETATM    7  C14 UNL     1       2.262  -7.926 -24.877  1.00  0.00     0.085 C 
HETATM    8  C15 UNL     1       1.857  -9.352 -24.533  1.00  0.00     0.034 C 
HETATM    9  C16 UNL     1       0.790  -9.864 -25.469  1.00  0.00     0.022 C 
HETATM   10  C23 UNL     1      -0.160  -8.878 -26.013  1.00  0.00     0.038 C 
ENDROOT
BRANCH   5  11
HETATM   11  N2  UNL     1       3.157  -7.240 -28.516  1.00  0.00    -0.256 N 
HETATM   12  C5  UNL     1       3.681  -6.088 -28.934  1.00  0.00     0.147 A 
HETATM   13  C6  UNL     1       4.366  -6.320 -30.112  1.00  0.00     0.079 A 
HETATM   14  N3  UNL     1       4.211  -7.636 -30.340  1.00  0.00    -0.286 N 
HETATM   15  N4  UNL     1       3.482  -8.162 -29.368  1.00  0.00    -0.236 N 
ATOM     16  H3  UNL     1       4.593  -8.147 -31.136  1.00  0.00     0.188 HD
ATOM     17  H4  UNL     1       3.217  -9.145 -29.299  1.00  0.00     0.209 HD
BRANCH  13  18
HETATM   18  C7  UNL     1       5.113  -5.339 -30.947  1.00  0.00     0.105 C 
HETATM   19  C8  UNL     1       4.261  -4.059 -30.992  1.00  0.00     0.053 C 
BRANCH  18  20
HETATM   20  O1  UNL     1       5.259  -5.743 -32.261  1.00  0.00    -0.383 OA
ATOM     21  H1  UNL     1       4.667  -5.298 -32.856  1.00  0.00     0.211 HD
ENDBRANCH  18  20
BRANCH  18  22
HETATM   22  C9  UNL     1       6.435  -4.956 -30.336  1.00  0.00    -0.015 C 
HETATM   23  C10 UNL     1       7.267  -6.160 -29.939  1.00  0.00     0.018 C 
HETATM   24  C11 UNL     1       7.293  -4.194 -31.347  1.00  0.00     0.018 C 
HETATM   25  C12 UNL     1       6.232  -4.049 -29.147  1.00  0.00     0.018 C 
ENDBRANCH  18  22
ENDBRANCH  13  18
ENDBRANCH   5  11
BRANCH   9  26
HETATM   26  C17 UNL     1       0.014 -10.852 -24.668  1.00  0.00    -0.054 A 
HETATM   27  C18 UNL     1       0.653 -11.801 -23.921  1.00  0.00     0.009 A 
HETATM   28  C19 UNL     1      -0.078 -12.732 -23.167  1.00  0.00     0.019 A 
HETATM   29  C20 UNL     1      -1.455 -12.684 -23.184  1.00  0.00     0.011 A 
HETATM   30 BR1  UNL     1      -2.489 -13.926 -22.170  1.00  0.00    -0.051 Br
HETATM   31  C21 UNL     1      -2.113 -11.735 -23.933  1.00  0.00     0.019 A 
HETATM   32  C22 UNL     1      -1.361 -10.818 -24.676  1.00  0.00     0.009 A 
ENDBRANCH   9  26
TORSDOF 5
ENDMDL
MODEL 5
REMARK VINA RESULT: -7.124628388      5.413      9.297
REMARK  5 active torsions:
REMARK  status: ('A' for Active; 'I' for Inactive)
REMARK    1  A    between atoms: C4_5  and  N2_6 
REMARK    2  A    between atoms: C6_8  and  C7_9 
REMARK    3  A    between atoms: C7_9  and  O1_11 
REMARK    4  A    between atoms: C7_9  and  C9_13 
REMARK    5  A    between atoms: C16_24  and  C17_25 
ROOT
HETATM    1  C1  UNL     1       1.900  -7.949 -27.195  1.00  0.00     0.144 C 
HETATM    2  N1  UNL     1       2.193  -7.573 -25.863  1.00  0.00    -0.405 N 
HETATM    3  C2  UNL     1       3.563  -7.434 -25.499  1.00  0.00     0.104 C 
HETATM    4  C3  UNL     1       3.589  -6.322 -24.488  1.00  0.00     0.025 C 
HETATM    5  C4  UNL     1       2.560  -6.213 -23.648  1.00  0.00     0.035 C 
HETATM    6  C13 UNL     1       1.399  -7.126 -23.643  1.00  0.00     0.084 C 
HETATM    7  C14 UNL     1       1.366  -8.054 -24.823  1.00  0.00     0.085 C 
HETATM    8  C15 UNL     1       1.782  -9.447 -24.378  1.00  0.00     0.034 C 
HETATM    9  C16 UNL     1       3.266  -9.524 -24.120  1.00  0.00     0.022 C 
HETATM   10  C23 UNL     1       4.139  -8.658 -24.932  1.00  0.00     0.038 C 
ENDROOT
BRANCH   5  11
HETATM   11  N2  UNL     1       2.557  -5.149 -22.665  1.00  0.00    -0.256 N 
HETATM   12  C5  UNL     1       2.946  -5.225 -21.392  1.00  0.00     0.147 A 
HETATM   13  C6  UNL     1       2.792  -3.980 -20.812  1.00  0.00     0.079 A 
HETATM   14  N3  UNL     1       2.306  -3.205 -21.797  1.00  0.00    -0.286 N 
HETATM   15  N4  UNL     1       2.175  -3.931 -22.896  1.00  0.00    -0.236 N 
ATOM     16  H3  UNL     1       2.075  -2.215 -21.710  1.00  0.00     0.188 HD
ATOM     17  H4  UNL     1       1.827  -3.585 -23.790  1.00  0.00     0.209 HD
BRANCH  13  18
HETATM   18  C7  UNL     1       3.094  -3.578 -19.410  1.00  0.00     0.105 C 
HETATM   19  C8  UNL     1       2.740  -2.086 -19.293  1.00  0.00     0.053 C 
BRANCH  18  20
HETATM   20  O1  UNL     1       4.436  -3.675 -19.094  1.00  0.00    -0.383 OA
ATOM     21  H1  UNL     1       4.618  -4.328 -18.429  1.00  0.00     0.211 HD
ENDBRANCH  18  20
BRANCH  18  22
HETATM   22  C9  UNL     1       2.237  -4.304 -18.408  1.00  0.00    -0.015 C 
HETATM   23  C10 UNL     1       0.901  -4.735 -18.985  1.00  0.00     0.018 C 
HETATM   24  C11 UNL     1       2.914  -5.600 -17.960  1.00  0.00     0.018 C 
HETATM   25  C12 UNL     1       2.022  -3.461 -17.175  1.00  0.00     0.018 C 
ENDBRANCH  18  22
ENDBRANCH  13  18
ENDBRANCH   5  11
BRANCH   9  26
HETATM   26  C17 UNL     1       3.637 -10.939 -24.406  1.00  0.00    -0.054 A 
HETATM   27  C18 UNL     1       4.921 -11.271 -24.735  1.00  0.00     0.009 A 
HETATM   28  C19 UNL     1       5.271 -12.603 -25.004  1.00  0.00     0.019 A 
HETATM   29  C20 UNL     1       4.305 -13.584 -24.935  1.00  0.00     0.011 A 
HETATM   30 BR1  UNL     1       4.736 -15.408 -25.287  1.00  0.00    -0.051 Br
HETATM   31  C21 UNL     1       3.007 -13.264 -24.606  1.00  0.00     0.019 A 
HETATM   32  C22 UNL     1       2.684 -11.928 -24.342  1.00  0.00     0.009 A 
ENDBRANCH   9  26
TORSDOF 5
ENDMDL
