MODEL 1
REMARK VINA RESULT: -8.273802821      0.000      0.000
REMARK  15 active torsions:
REMARK  status: ('A' for Active; 'I' for Inactive)
REMARK    1  A    between atoms: C2_2  and  C3_3 
REMARK    2  A    between atoms: C3_3  and  C4_4 
REMARK    3  A    between atoms: C4_4  and  O1_5 
REMARK    4  A    between atoms: O1_5  and  C5_6 
REMARK       I    between atoms: C5_6  and  N1_8 
REMARK    5  A    between atoms: N2_11  and  C8_12 
REMARK    6  A    between atoms: C8_12  and  O3_13 
REMARK    7  A    between atoms: C9_15  and  N3_16 
REMARK    8  A    between atoms: C9_15  and  C28_45 
REMARK       I    between atoms: N3_16  and  C10_18 
REMARK    9  A    between atoms: C10_18  and  C11_20 
REMARK   10  A    between atoms: N4_22  and  C13_23 
REMARK   11  A    between atoms: C13_23  and  C14_24 
REMARK       I    between atoms: N6_30  and  C19_31 
REMARK   12  A    between atoms: C19_31  and  C20_33 
REMARK   13  A    between atoms: C20_33  and  N7_34 
REMARK   14  A    between atoms: C20_33  and  C21_38 
REMARK   15  A    between atoms: C21_38  and  C22_39 
ROOT
HETATM    1  C11 UNL     1       2.727  -0.986 -25.160  1.00  0.00     0.215 C 
HETATM    2  C12 UNL     1       3.423  -2.252 -25.593  1.00  0.00     0.148 C 
HETATM    3  N4  UNL     1       4.424  -2.461 -24.573  1.00  0.00    -0.211 NA
HETATM    4  N5  UNL     1       4.198  -1.622 -23.521  1.00  0.00    -0.042 NA
HETATM    5  N6  UNL     1       2.952  -1.015 -23.728  1.00  0.00    -0.232 N 
HETATM    6  C19 UNL     1       2.075  -0.544 -22.746  1.00  0.00     0.268 C 
HETATM    7  O5  UNL     1       0.965  -0.056 -23.169  1.00  0.00    -0.270 OA
ENDROOT
BRANCH   1   8
HETATM    8  C10 UNL     1       3.432   0.166 -25.827  1.00  0.00     0.248 C 
HETATM    9  N3  UNL     1       4.531   0.794 -25.217  1.00  0.00    -0.322 N 
ATOM     10  H3  UNL     1       4.852   0.461 -24.309  1.00  0.00     0.169 HD
HETATM   11  O4  UNL     1       2.978   0.519 -26.948  1.00  0.00    -0.271 OA
BRANCH   9  12
HETATM   12  C9  UNL     1       5.221   1.909 -25.848  1.00  0.00     0.087 C 
HETATM   13  C8  UNL     1       6.574   1.585 -26.239  1.00  0.00     0.166 C 
BRANCH  13  14
HETATM   14  N2  UNL     1       7.672   2.217 -26.759  1.00  0.00    -0.357 N 
HETATM   15  C7  UNL     1       7.674   3.308 -27.681  1.00  0.00     0.145 C 
HETATM   16  C6  UNL     1       9.108   3.756 -28.043  1.00  0.00     0.148 C 
HETATM   17  N1  UNL     1       9.880   3.912 -26.839  1.00  0.00    -0.325 N 
HETATM   18  C5  UNL     1      10.679   5.090 -26.689  1.00  0.00     0.362 C 
HETATM   19  C32 UNL     1       9.843   2.865 -25.806  1.00  0.00     0.148 C 
HETATM   20  O2  UNL     1      11.342   5.144 -25.613  1.00  0.00    -0.238 OA
HETATM   21  C31 UNL     1       9.022   1.729 -26.373  1.00  0.00     0.145 C 
BRANCH  18  22
HETATM   22  O1  UNL     1      10.717   6.076 -27.644  1.00  0.00    -0.304 OA
BRANCH  22  23
HETATM   23  C4  UNL     1      10.469   7.412 -27.331  1.00  0.00     0.180 C 
BRANCH  23  24
HETATM   24  C3  UNL     1      10.857   8.329 -28.458  1.00  0.00     0.026 C 
BRANCH  24  25
HETATM   25  C2  UNL     1       9.968   9.583 -28.423  1.00  0.00    -0.002 C 
HETATM   26  C1  UNL     1      10.821  10.822 -28.485  1.00  0.00     0.005 C 
ENDBRANCH  24  25
ENDBRANCH  23  24
ENDBRANCH  22  23
ENDBRANCH  18  22
ENDBRANCH  13  14
BRANCH  13  27
HETATM   27  O3  UNL     1       6.835   0.268 -26.030  1.00  0.00    -0.344 OA
ATOM     28  H3  UNL     1       6.497  -0.010 -25.187  1.00  0.00     0.219 HD
ENDBRANCH  13  27
BRANCH  12  29
HETATM   29  C28 UNL     1       4.879   3.206 -25.203  1.00  0.00    -0.057 C 
HETATM   30  C29 UNL     1       3.523   3.281 -24.566  1.00  0.00     0.045 C 
HETATM   31  C30 UNL     1       5.934   3.851 -24.412  1.00  0.00     0.045 C 
ENDBRANCH  12  29
ENDBRANCH   9  12
ENDBRANCH   1   8
BRANCH   3  32
HETATM   32  C13 UNL     1       4.649  -3.837 -24.294  1.00  0.00     0.116 C 
BRANCH  32  33
HETATM   33  C14 UNL     1       4.879  -4.139 -22.836  1.00  0.00     0.000 C 
HETATM   34  C15 UNL     1       5.564  -5.501 -22.687  1.00  0.00     0.006 C 
HETATM   35  C16 UNL     1       5.167  -5.997 -21.336  1.00  0.00     0.000 C 
HETATM   36  C17 UNL     1       3.823  -5.405 -21.041  1.00  0.00     0.000 C 
HETATM   37  C18 UNL     1       3.606  -4.298 -22.062  1.00  0.00     0.006 C 
ENDBRANCH  32  33
ENDBRANCH   3  32
BRANCH   6  38
HETATM   38  C20 UNL     1       2.281  -0.547 -21.284  1.00  0.00     0.276 C 
BRANCH  38  39
HETATM   39  N7  UNL     1       1.409  -1.578 -20.729  1.00  0.00    -0.066 N 
ATOM     40  H73 UNL     1       0.419  -1.342 -20.796  1.00  0.00     0.275 HD
ATOM     41  H72 UNL     1       1.379  -2.425 -21.297  1.00  0.00     0.275 HD
ATOM     42  H71 UNL     1       1.717  -1.748 -19.772  1.00  0.00     0.275 HD
ENDBRANCH  38  39
BRANCH  38  43
HETATM   43  C21 UNL     1       1.891   0.813 -20.756  1.00  0.00     0.047 C 
BRANCH  43  44
HETATM   44  C22 UNL     1       3.035   1.767 -20.604  1.00  0.00    -0.012 C 
HETATM   45  C23 UNL     1       2.718   3.206 -20.804  1.00  0.00     0.005 C 
HETATM   46  C24 UNL     1       3.893   4.022 -20.308  1.00  0.00     0.000 C 
HETATM   47  C25 UNL     1       5.210   3.576 -20.873  1.00  0.00     0.000 C 
HETATM   48  C26 UNL     1       5.433   2.088 -20.734  1.00  0.00     0.000 C 
HETATM   49  C27 UNL     1       4.244   1.434 -21.440  1.00  0.00     0.005 C 
ENDBRANCH  43  44
ENDBRANCH  38  43
ENDBRANCH   6  38
TORSDOF 15
ENDMDL
MODEL 2
REMARK VINA RESULT: -8.225195505      3.168     10.150
REMARK  15 active torsions:
REMARK  status: ('A' for Active; 'I' for Inactive)
REMARK    1  A    between atoms: C2_2  and  C3_3 
REMARK    2  A    between atoms: C3_3  and  C4_4 
REMARK    3  A    between atoms: C4_4  and  O1_5 
REMARK    4  A    between atoms: O1_5  and  C5_6 
REMARK       I    between atoms: C5_6  and  N1_8 
REMARK    5  A    between atoms: N2_11  and  C8_12 
REMARK    6  A    between atoms: C8_12  and  O3_13 
REMARK    7  A    between atoms: C9_15  and  N3_16 
REMARK    8  A    between atoms: C9_15  and  C28_45 
REMARK       I    between atoms: N3_16  and  C10_18 
REMARK    9  A    between atoms: C10_18  and  C11_20 
REMARK   10  A    between atoms: N4_22  and  C13_23 
REMARK   11  A    between atoms: C13_23  and  C14_24 
REMARK       I    between atoms: N6_30  and  C19_31 
REMARK   12  A    between atoms: C19_31  and  C20_33 
REMARK   13  A    between atoms: C20_33  and  N7_34 
REMARK   14  A    between atoms: C20_33  and  C21_38 
REMARK   15  A    between atoms: C21_38  and  C22_39 
ROOT
HETATM    1  C11 UNL     1       4.880   2.519 -25.520  1.00  0.00     0.215 C 
HETATM    2  C12 UNL     1       6.197   3.252 -25.564  1.00  0.00     0.148 C 
HETATM    3  N4  UNL     1       7.172   2.231 -25.260  1.00  0.00    -0.211 NA
HETATM    4  N5  UNL     1       6.584   0.999 -25.304  1.00  0.00    -0.042 NA
HETATM    5  N6  UNL     1       5.299   1.167 -25.838  1.00  0.00    -0.232 N 
HETATM    6  C19 UNL     1       4.560   0.224 -26.559  1.00  0.00     0.268 C 
HETATM    7  O5  UNL     1       3.413   0.613 -26.986  1.00  0.00    -0.270 OA
ENDROOT
BRANCH   1   8
HETATM    8  C10 UNL     1       4.345   2.638 -24.116  1.00  0.00     0.248 C 
HETATM    9  N3  UNL     1       4.837   1.824 -23.082  1.00  0.00    -0.322 N 
ATOM     10  H3  UNL     1       5.569   1.145 -23.290  1.00  0.00     0.169 HD
HETATM   11  O4  UNL     1       3.445   3.501 -23.938  1.00  0.00    -0.271 OA
BRANCH   9  12
HETATM   12  C9  UNL     1       4.330   1.926 -21.723  1.00  0.00     0.087 C 
HETATM   13  C8  UNL     1       2.975   1.442 -21.589  1.00  0.00     0.166 C 
BRANCH  13  14
HETATM   14  N2  UNL     1       1.997   1.376 -20.632  1.00  0.00    -0.357 N 
HETATM   15  C7  UNL     1       1.721   2.349 -19.623  1.00  0.00     0.145 C 
HETATM   16  C6  UNL     1       0.540   1.926 -18.720  1.00  0.00     0.148 C 
HETATM   17  N1  UNL     1      -0.562   1.500 -19.541  1.00  0.00    -0.325 N 
HETATM   18  C5  UNL     1      -1.872   1.987 -19.232  1.00  0.00     0.362 C 
HETATM   19  C32 UNL     1      -0.325   0.573 -20.658  1.00  0.00     0.148 C 
HETATM   20  O2  UNL     1      -2.788   1.552 -19.987  1.00  0.00    -0.238 OA
HETATM   21  C31 UNL     1       1.130   0.170 -20.584  1.00  0.00     0.145 C 
BRANCH  18  22
HETATM   22  O1  UNL     1      -2.104   2.857 -18.195  1.00  0.00    -0.304 OA
BRANCH  22  23
HETATM   23  C4  UNL     1      -3.039   3.886 -18.294  1.00  0.00     0.180 C 
BRANCH  23  24
HETATM   24  C3  UNL     1      -4.135   3.742 -17.274  1.00  0.00     0.026 C 
BRANCH  24  25
HETATM   25  C2  UNL     1      -5.402   3.207 -17.961  1.00  0.00    -0.002 C 
HETATM   26  C1  UNL     1      -5.560   1.737 -17.680  1.00  0.00     0.005 C 
ENDBRANCH  24  25
ENDBRANCH  23  24
ENDBRANCH  22  23
ENDBRANCH  18  22
ENDBRANCH  13  14
BRANCH  13  27
HETATM   27  O3  UNL     1       2.542   0.892 -22.753  1.00  0.00    -0.344 OA
ATOM     28  H3  UNL     1       3.278   0.623 -23.290  1.00  0.00     0.219 HD
ENDBRANCH  13  27
BRANCH  12  29
HETATM   29  C28 UNL     1       4.787   3.176 -21.056  1.00  0.00    -0.057 C 
HETATM   30  C29 UNL     1       3.809   4.313 -21.060  1.00  0.00     0.045 C 
HETATM   31  C30 UNL     1       5.505   3.024 -19.784  1.00  0.00     0.045 C 
ENDBRANCH  12  29
ENDBRANCH   9  12
ENDBRANCH   1   8
BRANCH   3  32
HETATM   32  C13 UNL     1       8.397   2.411 -25.957  1.00  0.00     0.116 C 
BRANCH  32  33
HETATM   33  C14 UNL     1       8.452   3.665 -26.791  1.00  0.00     0.000 C 
HETATM   34  C15 UNL     1       8.634   3.301 -28.268  1.00  0.00     0.006 C 
HETATM   35  C16 UNL     1       9.311   4.480 -28.884  1.00  0.00     0.000 C 
HETATM   36  C17 UNL     1      10.125   5.119 -27.802  1.00  0.00     0.000 C 
HETATM   37  C18 UNL     1       9.644   4.520 -26.489  1.00  0.00     0.006 C 
ENDBRANCH  32  33
ENDBRANCH   3  32
BRANCH   6  38
HETATM   38  C20 UNL     1       4.952  -1.162 -26.886  1.00  0.00     0.276 C 
BRANCH  38  39
HETATM   39  N7  UNL     1       5.641  -1.121 -28.173  1.00  0.00    -0.066 N 
ATOM     40  H73 UNL     1       5.316  -1.836 -28.823  1.00  0.00     0.275 HD
ATOM     41  H72 UNL     1       5.390  -0.309 -28.736  1.00  0.00     0.275 HD
ATOM     42  H71 UNL     1       6.641  -1.180 -27.979  1.00  0.00     0.275 HD
ENDBRANCH  38  39
BRANCH  38  43
HETATM   43  C21 UNL     1       3.693  -1.989 -26.988  1.00  0.00     0.047 C 
BRANCH  43  44
HETATM   44  C22 UNL     1       3.287  -2.654 -25.709  1.00  0.00    -0.012 C 
HETATM   45  C23 UNL     1       2.225  -1.969 -24.925  1.00  0.00     0.005 C 
HETATM   46  C24 UNL     1       1.733  -2.926 -23.860  1.00  0.00     0.000 C 
HETATM   47  C25 UNL     1       2.838  -3.530 -23.043  1.00  0.00     0.000 C 
HETATM   48  C26 UNL     1       3.939  -4.120 -23.894  1.00  0.00     0.000 C 
HETATM   49  C27 UNL     1       4.428  -2.969 -24.777  1.00  0.00     0.005 C 
ENDBRANCH  43  44
ENDBRANCH  38  43
ENDBRANCH   6  38
TORSDOF 15
ENDMDL
MODEL 3
REMARK VINA RESULT: -8.150839604      4.411      8.282
REMARK  15 active torsions:
REMARK  status: ('A' for Active; 'I' for Inactive)
REMARK    1  A    between atoms: C2_2  and  C3_3 
REMARK    2  A    between atoms: C3_3  and  C4_4 
REMARK    3  A    between atoms: C4_4  and  O1_5 
REMARK    4  A    between atoms: O1_5  and  C5_6 
REMARK       I    between atoms: C5_6  and  N1_8 
REMARK    5  A    between atoms: N2_11  and  C8_12 
REMARK    6  A    between atoms: C8_12  and  O3_13 
REMARK    7  A    between atoms: C9_15  and  N3_16 
REMARK    8  A    between atoms: C9_15  and  C28_45 
REMARK       I    between atoms: N3_16  and  C10_18 
REMARK    9  A    between atoms: C10_18  and  C11_20 
REMARK   10  A    between atoms: N4_22  and  C13_23 
REMARK   11  A    between atoms: C13_23  and  C14_24 
REMARK       I    between atoms: N6_30  and  C19_31 
REMARK   12  A    between atoms: C19_31  and  C20_33 
REMARK   13  A    between atoms: C20_33  and  N7_34 
REMARK   14  A    between atoms: C20_33  and  C21_38 
REMARK   15  A    between atoms: C21_38  and  C22_39 
ROOT
HETATM    1  C11 UNL     1       1.840   1.464 -19.586  1.00  0.00     0.215 C 
HETATM    2  C12 UNL     1       3.166   2.154 -19.781  1.00  0.00     0.148 C 
HETATM    3  N4  UNL     1       2.861   3.238 -20.686  1.00  0.00    -0.211 NA
HETATM    4  N5  UNL     1       1.509   3.376 -20.808  1.00  0.00    -0.042 NA
HETATM    5  N6  UNL     1       0.914   2.550 -19.843  1.00  0.00    -0.232 N 
HETATM    6  C19 UNL     1      -0.325   2.742 -19.225  1.00  0.00     0.268 C 
HETATM    7  O5  UNL     1      -0.652   1.872 -18.337  1.00  0.00    -0.270 OA
ENDROOT
BRANCH   1   8
HETATM    8  C10 UNL     1       1.743   0.373 -20.621  1.00  0.00     0.248 C 
HETATM    9  N3  UNL     1       2.610   0.345 -21.726  1.00  0.00    -0.322 N 
ATOM     10  H3  UNL     1       3.315   1.076 -21.824  1.00  0.00     0.169 HD
HETATM   11  O4  UNL     1       0.850  -0.495 -20.430  1.00  0.00    -0.271 OA
BRANCH   9  12
HETATM   12  C9  UNL     1       2.529  -0.701 -22.734  1.00  0.00     0.087 C 
HETATM   13  C8  UNL     1       3.819  -1.256 -23.076  1.00  0.00     0.166 C 
BRANCH  13  14
HETATM   14  N2  UNL     1       4.350  -2.147 -23.970  1.00  0.00    -0.357 N 
HETATM   15  C7  UNL     1       3.746  -2.608 -25.180  1.00  0.00     0.145 C 
HETATM   16  C6  UNL     1       4.647  -3.613 -25.930  1.00  0.00     0.148 C 
HETATM   17  N1  UNL     1       5.982  -3.084 -26.024  1.00  0.00    -0.325 N 
HETATM   18  C5  UNL     1       6.655  -3.149 -27.285  1.00  0.00     0.362 C 
HETATM   19  C32 UNL     1       6.623  -2.506 -24.832  1.00  0.00     0.148 C 
HETATM   20  O2  UNL     1       7.830  -2.681 -27.280  1.00  0.00    -0.238 OA
HETATM   21  C31 UNL     1       5.680  -2.743 -23.676  1.00  0.00     0.145 C 
BRANCH  18  22
HETATM   22  O1  UNL     1       6.064  -3.681 -28.404  1.00  0.00    -0.304 OA
BRANCH  22  23
HETATM   23  C4  UNL     1       5.463  -2.875 -29.371  1.00  0.00     0.180 C 
BRANCH  23  24
HETATM   24  C3  UNL     1       5.561  -3.484 -30.742  1.00  0.00     0.026 C 
BRANCH  24  25
HETATM   25  C2  UNL     1       4.998  -2.498 -31.778  1.00  0.00    -0.002 C 
HETATM   26  C1  UNL     1       5.846  -1.255 -31.822  1.00  0.00     0.005 C 
ENDBRANCH  24  25
ENDBRANCH  23  24
ENDBRANCH  22  23
ENDBRANCH  18  22
ENDBRANCH  13  14
BRANCH  13  27
HETATM   27  O3  UNL     1       4.792  -0.745 -22.276  1.00  0.00    -0.344 OA
ATOM     28  H3  UNL     1       4.751  -1.135 -21.410  1.00  0.00     0.219 HD
ENDBRANCH  13  27
BRANCH  12  29
HETATM   29  C28 UNL     1       1.509  -0.388 -23.772  1.00  0.00    -0.057 C 
HETATM   30  C29 UNL     1       1.997   0.401 -24.951  1.00  0.00     0.045 C 
HETATM   31  C30 UNL     1       0.579  -1.466 -24.133  1.00  0.00     0.045 C 
ENDBRANCH  12  29
ENDBRANCH   9  12
ENDBRANCH   1   8
BRANCH   3  32
HETATM   32  C13 UNL     1       3.631   4.405 -20.429  1.00  0.00     0.116 C 
BRANCH  32  33
HETATM   33  C14 UNL     1       4.476   4.853 -21.594  1.00  0.00     0.000 C 
HETATM   34  C15 UNL     1       4.259   3.917 -22.787  1.00  0.00     0.006 C 
HETATM   35  C16 UNL     1       5.517   3.996 -23.585  1.00  0.00     0.000 C 
HETATM   36  C17 UNL     1       6.618   4.306 -22.618  1.00  0.00     0.000 C 
HETATM   37  C18 UNL     1       5.946   4.749 -21.327  1.00  0.00     0.006 C 
ENDBRANCH  32  33
ENDBRANCH   3  32
BRANCH   6  38
HETATM   38  C20 UNL     1      -1.294   3.828 -19.475  1.00  0.00     0.276 C 
BRANCH  38  39
HETATM   39  N7  UNL     1      -1.349   4.641 -18.263  1.00  0.00    -0.066 N 
ATOM     40  H73 UNL     1      -0.496   4.587 -17.706  1.00  0.00     0.275 HD
ATOM     41  H72 UNL     1      -1.318   5.643 -18.452  1.00  0.00     0.275 HD
ATOM     42  H71 UNL     1      -2.182   4.356 -17.748  1.00  0.00     0.275 HD
ENDBRANCH  38  39
BRANCH  38  43
HETATM   43  C21 UNL     1      -2.639   3.198 -19.748  1.00  0.00     0.047 C 
BRANCH  43  44
HETATM   44  C22 UNL     1      -3.537   3.117 -18.553  1.00  0.00    -0.012 C 
HETATM   45  C23 UNL     1      -4.208   1.810 -18.327  1.00  0.00     0.005 C 
HETATM   46  C24 UNL     1      -4.804   1.819 -16.935  1.00  0.00     0.000 C 
HETATM   47  C25 UNL     1      -5.651   3.027 -16.656  1.00  0.00     0.000 C 
HETATM   48  C26 UNL     1      -4.954   4.323 -17.001  1.00  0.00     0.000 C 
HETATM   49  C27 UNL     1      -4.582   4.199 -18.481  1.00  0.00     0.005 C 
ENDBRANCH  43  44
ENDBRANCH  38  43
ENDBRANCH   6  38
TORSDOF 15
ENDMDL
MODEL 4
REMARK VINA RESULT: -8.059340256      3.558      9.651
REMARK  15 active torsions:
REMARK  status: ('A' for Active; 'I' for Inactive)
REMARK    1  A    between atoms: C2_2  and  C3_3 
REMARK    2  A    between atoms: C3_3  and  C4_4 
REMARK    3  A    between atoms: C4_4  and  O1_5 
REMARK    4  A    between atoms: O1_5  and  C5_6 
REMARK       I    between atoms: C5_6  and  N1_8 
REMARK    5  A    between atoms: N2_11  and  C8_12 
REMARK    6  A    between atoms: C8_12  and  O3_13 
REMARK    7  A    between atoms: C9_15  and  N3_16 
REMARK    8  A    between atoms: C9_15  and  C28_45 
REMARK       I    between atoms: N3_16  and  C10_18 
REMARK    9  A    between atoms: C10_18  and  C11_20 
REMARK   10  A    between atoms: N4_22  and  C13_23 
REMARK   11  A    between atoms: C13_23  and  C14_24 
REMARK       I    between atoms: N6_30  and  C19_31 
REMARK   12  A    between atoms: C19_31  and  C20_33 
REMARK   13  A    between atoms: C20_33  and  N7_34 
REMARK   14  A    between atoms: C20_33  and  C21_38 
REMARK   15  A    between atoms: C21_38  and  C22_39 
ROOT
HETATM    1  C11 UNL     1       1.751  -0.222 -23.672  1.00  0.00     0.215 C 
HETATM    2  C12 UNL     1       1.187  -0.299 -22.276  1.00  0.00     0.148 C 
HETATM    3  N4  UNL     1       2.303   0.061 -21.432  1.00  0.00    -0.211 NA
HETATM    4  N5  UNL     1       3.318   0.562 -22.194  1.00  0.00    -0.042 NA
HETATM    5  N6  UNL     1       2.821   0.740 -23.493  1.00  0.00    -0.232 N 
HETATM    6  C19 UNL     1       3.253   1.678 -24.436  1.00  0.00     0.268 C 
HETATM    7  O5  UNL     1       2.621   1.684 -25.554  1.00  0.00    -0.270 OA
ENDROOT
BRANCH   1   8
HETATM    8  C10 UNL     1       2.267  -1.593 -24.025  1.00  0.00     0.248 C 
HETATM    9  N3  UNL     1       3.644  -1.865 -24.050  1.00  0.00    -0.322 N 
ATOM     10  H3  UNL     1       4.302  -1.119 -23.824  1.00  0.00     0.169 HD
HETATM   11  O4  UNL     1       1.393  -2.462 -24.290  1.00  0.00    -0.271 OA
BRANCH   9  12
HETATM   12  C9  UNL     1       4.157  -3.182 -24.390  1.00  0.00     0.087 C 
HETATM   13  C8  UNL     1       4.621  -3.922 -23.237  1.00  0.00     0.166 C 
BRANCH  13  14
HETATM   14  N2  UNL     1       5.254  -5.105 -22.962  1.00  0.00    -0.357 N 
HETATM   15  C7  UNL     1       6.259  -5.741 -23.753  1.00  0.00     0.145 C 
HETATM   16  C6  UNL     1       6.738  -7.067 -23.121  1.00  0.00     0.148 C 
HETATM   17  N1  UNL     1       7.035  -6.855 -21.729  1.00  0.00    -0.325 N 
HETATM   18  C5  UNL     1       8.257  -7.383 -21.203  1.00  0.00     0.362 C 
HETATM   19  C32 UNL     1       6.082  -6.119 -20.883  1.00  0.00     0.148 C 
HETATM   20  O2  UNL     1       8.435  -7.171 -19.969  1.00  0.00    -0.238 OA
HETATM   21  C31 UNL     1       4.865  -5.851 -21.736  1.00  0.00     0.145 C 
BRANCH  18  22
HETATM   22  O1  UNL     1       9.156  -8.066 -21.985  1.00  0.00    -0.304 OA
BRANCH  22  23
HETATM   23  C4  UNL     1       9.496  -9.393 -21.727  1.00  0.00     0.180 C 
BRANCH  23  24
HETATM   24  C3  UNL     1       8.366 -10.330 -22.055  1.00  0.00     0.026 C 
BRANCH  24  25
HETATM   25  C2  UNL     1       8.269 -10.496 -23.580  1.00  0.00    -0.002 C 
HETATM   26  C1  UNL     1       6.840 -10.744 -23.983  1.00  0.00     0.005 C 
ENDBRANCH  24  25
ENDBRANCH  23  24
ENDBRANCH  22  23
ENDBRANCH  18  22
ENDBRANCH  13  14
BRANCH  13  27
HETATM   27  O3  UNL     1       4.350  -3.246 -22.090  1.00  0.00    -0.344 OA
ATOM     28  H3  UNL     1       3.429  -3.320 -21.868  1.00  0.00     0.219 HD
ENDBRANCH  13  27
BRANCH  12  29
HETATM   29  C28 UNL     1       4.918  -3.166 -25.669  1.00  0.00    -0.057 C 
HETATM   30  C29 UNL     1       4.139  -2.758 -26.885  1.00  0.00     0.045 C 
HETATM   31  C30 UNL     1       6.274  -2.607 -25.627  1.00  0.00     0.045 C 
ENDBRANCH  12  29
ENDBRANCH   9  12
ENDBRANCH   1   8
BRANCH   3  32
HETATM   32  C13 UNL     1       1.910   0.792 -20.279  1.00  0.00     0.116 C 
BRANCH  32  33
HETATM   33  C14 UNL     1       0.447   1.152 -20.247  1.00  0.00     0.000 C 
HETATM   34  C15 UNL     1       0.284   2.649 -19.966  1.00  0.00     0.006 C 
HETATM   35  C16 UNL     1      -1.055   2.785 -19.320  1.00  0.00     0.000 C 
HETATM   36  C17 UNL     1      -1.317   1.498 -18.602  1.00  0.00     0.000 C 
HETATM   37  C18 UNL     1      -0.294   0.499 -19.120  1.00  0.00     0.006 C 
ENDBRANCH  32  33
ENDBRANCH   3  32
BRANCH   6  38
HETATM   38  C20 UNL     1       4.347   2.658 -24.288  1.00  0.00     0.276 C 
BRANCH  38  39
HETATM   39  N7  UNL     1       3.872   3.696 -23.378  1.00  0.00    -0.066 N 
ATOM     40  H73 UNL     1       3.580   4.547 -23.858  1.00  0.00     0.275 HD
ATOM     41  H72 UNL     1       2.974   3.474 -22.950  1.00  0.00     0.275 HD
ATOM     42  H71 UNL     1       4.612   3.857 -22.694  1.00  0.00     0.275 HD
ENDBRANCH  38  39
BRANCH  38  43
HETATM   43  C21 UNL     1       4.634   3.243 -25.650  1.00  0.00     0.047 C 
BRANCH  43  44
HETATM   44  C22 UNL     1       6.090   3.354 -25.980  1.00  0.00    -0.012 C 
HETATM   45  C23 UNL     1       6.609   2.388 -26.985  1.00  0.00     0.005 C 
HETATM   46  C24 UNL     1       7.985   2.847 -27.414  1.00  0.00     0.000 C 
HETATM   47  C25 UNL     1       8.908   3.126 -26.264  1.00  0.00     0.000 C 
HETATM   48  C26 UNL     1       8.290   4.031 -25.223  1.00  0.00     0.000 C 
HETATM   49  C27 UNL     1       7.006   3.323 -24.784  1.00  0.00     0.005 C 
ENDBRANCH  43  44
ENDBRANCH  38  43
ENDBRANCH   6  38
TORSDOF 15
ENDMDL
MODEL 5
REMARK VINA RESULT: -7.986935207      4.025      9.650
REMARK  15 active torsions:
REMARK  status: ('A' for Active; 'I' for Inactive)
REMARK    1  A    between atoms: C2_2  and  C3_3 
REMARK    2  A    between atoms: C3_3  and  C4_4 
REMARK    3  A    between atoms: C4_4  and  O1_5 
REMARK    4  A    between atoms: O1_5  and  C5_6 
REMARK       I    between atoms: C5_6  and  N1_8 
REMARK    5  A    between atoms: N2_11  and  C8_12 
REMARK    6  A    between atoms: C8_12  and  O3_13 
REMARK    7  A    between atoms: C9_15  and  N3_16 
REMARK    8  A    between atoms: C9_15  and  C28_45 
REMARK       I    between atoms: N3_16  and  C10_18 
REMARK    9  A    between atoms: C10_18  and  C11_20 
REMARK   10  A    between atoms: N4_22  and  C13_23 
REMARK   11  A    between atoms: C13_23  and  C14_24 
REMARK       I    between atoms: N6_30  and  C19_31 
REMARK   12  A    between atoms: C19_31  and  C20_33 
REMARK   13  A    between atoms: C20_33  and  N7_34 
REMARK   14  A    between atoms: C20_33  and  C21_38 
REMARK   15  A    between atoms: C21_38  and  C22_39 
ROOT
HETATM    1  C11 UNL     1       2.039  -0.800 -23.976  1.00  0.00     0.215 C 
HETATM    2  C12 UNL     1       1.637  -0.672 -22.529  1.00  0.00     0.148 C 
HETATM    3  N4  UNL     1       2.821  -0.154 -21.885  1.00  0.00    -0.211 NA
HETATM    4  N5  UNL     1       3.723   0.250 -22.827  1.00  0.00    -0.042 NA
HETATM    5  N6  UNL     1       3.078   0.207 -24.071  1.00  0.00    -0.232 N 
HETATM    6  C19 UNL     1       3.361   0.997 -25.190  1.00  0.00     0.268 C 
HETATM    7  O5  UNL     1       2.610   0.810 -26.216  1.00  0.00    -0.270 OA
ENDROOT
BRANCH   1   8
HETATM    8  C10 UNL     1       2.575  -2.195 -24.173  1.00  0.00     0.248 C 
HETATM    9  N3  UNL     1       3.955  -2.433 -24.274  1.00  0.00    -0.322 N 
ATOM     10  H3  UNL     1       4.601  -1.647 -24.212  1.00  0.00     0.169 HD
HETATM   11  O4  UNL     1       1.715  -3.114 -24.238  1.00  0.00    -0.271 OA
BRANCH   9  12
HETATM   12  C9  UNL     1       4.487  -3.773 -24.465  1.00  0.00     0.087 C 
HETATM   13  C8  UNL     1       4.899  -4.398 -23.228  1.00  0.00     0.166 C 
BRANCH  13  14
HETATM   14  N2  UNL     1       5.523  -5.546 -22.815  1.00  0.00    -0.357 N 
HETATM   15  C7  UNL     1       6.441  -6.339 -23.568  1.00  0.00     0.145 C 
HETATM   16  C6  UNL     1       6.937  -7.564 -22.768  1.00  0.00     0.148 C 
HETATM   17  N1  UNL     1       7.355  -7.144 -21.456  1.00  0.00    -0.325 N 
HETATM   18  C5  UNL     1       8.602  -7.629 -20.949  1.00  0.00     0.362 C 
HETATM   19  C32 UNL     1       6.495  -6.246 -20.669  1.00  0.00     0.148 C 
HETATM   20  O2  UNL     1       8.888  -7.229 -19.784  1.00  0.00    -0.238 OA
HETATM   21  C31 UNL     1       5.218  -6.070 -21.457  1.00  0.00     0.145 C 
BRANCH  18  22
HETATM   22  O1  UNL     1       9.415  -8.462 -21.678  1.00  0.00    -0.304 OA
BRANCH  22  23
HETATM   23  C4  UNL     1      10.104  -9.520 -21.085  1.00  0.00     0.180 C 
BRANCH  23  24
HETATM   24  C3  UNL     1       9.171 -10.611 -20.639  1.00  0.00     0.026 C 
BRANCH  24  25
HETATM   25  C2  UNL     1       9.673 -11.198 -19.310  1.00  0.00    -0.002 C 
HETATM   26  C1  UNL     1       9.243 -10.323 -18.164  1.00  0.00     0.005 C 
ENDBRANCH  24  25
ENDBRANCH  23  24
ENDBRANCH  22  23
ENDBRANCH  18  22
ENDBRANCH  13  14
BRANCH  13  27
HETATM   27  O3  UNL     1       4.574  -3.620 -22.163  1.00  0.00    -0.344 OA
ATOM     28  H3  UNL     1       4.087  -4.121 -21.519  1.00  0.00     0.219 HD
ENDBRANCH  13  27
BRANCH  12  29
HETATM   29  C28 UNL     1       5.305  -3.871 -25.705  1.00  0.00    -0.057 C 
HETATM   30  C29 UNL     1       4.704  -3.256 -26.934  1.00  0.00     0.045 C 
HETATM   31  C30 UNL     1       6.746  -3.622 -25.570  1.00  0.00     0.045 C 
ENDBRANCH  12  29
ENDBRANCH   9  12
ENDBRANCH   1   8
BRANCH   3  32
HETATM   32  C13 UNL     1       2.526   0.739 -20.819  1.00  0.00     0.116 C 
BRANCH  32  33
HETATM   33  C14 UNL     1       1.060   1.061 -20.675  1.00  0.00     0.000 C 
HETATM   34  C15 UNL     1       0.888   2.505 -20.196  1.00  0.00     0.006 C 
HETATM   35  C16 UNL     1      -0.421   2.530 -19.479  1.00  0.00     0.000 C 
HETATM   36  C17 UNL     1      -0.629   1.156 -18.922  1.00  0.00     0.000 C 
HETATM   37  C18 UNL     1       0.383   0.253 -19.610  1.00  0.00     0.006 C 
ENDBRANCH  32  33
ENDBRANCH   3  32
BRANCH   6  38
HETATM   38  C20 UNL     1       4.418   2.019 -25.322  1.00  0.00     0.276 C 
BRANCH  38  39
HETATM   39  N7  UNL     1       5.601   1.502 -24.640  1.00  0.00    -0.066 N 
ATOM     40  H73 UNL     1       6.004   0.686 -25.100  1.00  0.00     0.275 HD
ATOM     41  H72 UNL     1       6.413   2.114 -24.726  1.00  0.00     0.275 HD
ATOM     42  H71 UNL     1       5.335   1.326 -23.671  1.00  0.00     0.275 HD
ENDBRANCH  38  39
BRANCH  38  43
HETATM   43  C21 UNL     1       3.932   3.281 -24.652  1.00  0.00     0.047 C 
BRANCH  43  44
HETATM   44  C22 UNL     1       4.604   3.586 -23.349  1.00  0.00    -0.012 C 
HETATM   45  C23 UNL     1       3.708   3.962 -22.223  1.00  0.00     0.005 C 
HETATM   46  C24 UNL     1       4.515   3.921 -20.943  1.00  0.00     0.000 C 
HETATM   47  C25 UNL     1       5.798   4.696 -21.021  1.00  0.00     0.000 C 
HETATM   48  C26 UNL     1       6.620   4.345 -22.241  1.00  0.00     0.000 C 
HETATM   49  C27 UNL     1       5.703   4.613 -23.436  1.00  0.00     0.005 C 
ENDBRANCH  43  44
ENDBRANCH  38  43
ENDBRANCH   6  38
TORSDOF 15
ENDMDL
