MODEL 1
REMARK VINA RESULT: -8.876825571      0.000      0.000
REMARK  12 active torsions:
REMARK  status: ('A' for Active; 'I' for Inactive)
REMARK    1  A    between atoms: C2_2  and  C3_3 
REMARK    2  A    between atoms: C3_3  and  C4_4 
REMARK    3  A    between atoms: C4_4  and  N1_5 
REMARK    4  A    between atoms: C4_4  and  C14_22 
REMARK       I    between atoms: N1_5  and  C5_7 
REMARK    5  A    between atoms: C5_7  and  C6_9 
REMARK    6  A    between atoms: C8_13  and  N3_14 
REMARK       I    between atoms: C14_22  and  N5_24 
REMARK    7  A    between atoms: C15_25  and  C16_26 
REMARK       I    between atoms: C16_26  and  N6_28 
REMARK    8  A    between atoms: N6_28  and  C17_30 
REMARK    9  A    between atoms: C17_30  and  C18_31 
REMARK       I    between atoms: N7_38  and  C24_39 
REMARK   10  A    between atoms: C24_39  and  C25_41 
REMARK   11  A    between atoms: C25_41  and  C27_43 
REMARK   12  A    between atoms: C30_46  and  C31_47 
ROOT
HETATM    1  C14 UNL     1       5.062   0.871 -22.754  1.00  0.00     0.245 C 
HETATM    2  O2  UNL     1       4.936  -0.311 -22.264  1.00  0.00    -0.271 OA
HETATM    3  N5  UNL     1       5.448   1.039 -24.100  1.00  0.00    -0.314 N 
HETATM    4  C15 UNL     1       5.682  -0.084 -24.971  1.00  0.00     0.199 C 
HETATM    5  C23 UNL     1       6.257   0.479 -26.249  1.00  0.00     0.163 C 
HETATM    6  N7  UNL     1       6.580   1.850 -25.964  1.00  0.00    -0.328 N 
HETATM    7  C24 UNL     1       7.495   2.658 -26.671  1.00  0.00     0.225 C 
HETATM    8  O5  UNL     1       7.674   3.865 -26.274  1.00  0.00    -0.273 OA
HETATM    9  C30 UNL     1       5.778   2.247 -24.802  1.00  0.00     0.192 C 
ENDROOT
BRANCH   1  10
HETATM   10  C4  UNL     1       4.783   1.950 -21.787  1.00  0.00     0.177 C 
BRANCH  10  11
HETATM   11  C3  UNL     1       4.997   3.348 -22.347  1.00  0.00     0.034 C 
BRANCH  11  12
HETATM   12  C2  UNL     1       5.291   4.429 -21.406  1.00  0.00    -0.002 C 
HETATM   13  C1  UNL     1       4.081   5.291 -21.083  1.00  0.00     0.005 C 
ENDBRANCH  11  12
ENDBRANCH  10  11
BRANCH  10  14
HETATM   14  N1  UNL     1       3.300   1.872 -21.550  1.00  0.00    -0.342 N 
HETATM   15  C5  UNL     1       2.798   1.931 -20.258  1.00  0.00     0.270 C 
HETATM   16  O1  UNL     1       3.612   2.054 -19.284  1.00  0.00    -0.266 OA
ATOM     17  H1  UNL     1       2.663   1.775 -22.341  1.00  0.00     0.163 HD
BRANCH  15  18
HETATM   18  C6  UNL     1       1.355   1.857 -19.980  1.00  0.00     0.116 A 
HETATM   19  C7  UNL     1       0.593   2.996 -19.885  1.00  0.00     0.125 A 
HETATM   20  N2  UNL     1      -0.720   2.893 -19.627  1.00  0.00    -0.349 N 
HETATM   21  C8  UNL     1      -1.347   1.714 -19.453  1.00  0.00     0.118 A 
ATOM     22  H2  UNL     1      -1.270   3.750 -19.560  1.00  0.00     0.167 HD
HETATM   23  C13 UNL     1      -0.565   0.590 -19.554  1.00  0.00     0.137 A 
HETATM   24  N4  UNL     1       0.751   0.649 -19.810  1.00  0.00    -0.357 N 
ATOM     25  H4  UNL     1       1.297  -0.209 -19.878  1.00  0.00     0.165 HD
BRANCH  21  26
HETATM   26  N3  UNL     1      -2.736   1.641 -19.183  1.00  0.00    -0.366 N 
HETATM   27  C9  UNL     1      -3.760   2.464 -19.801  1.00  0.00     0.124 C 
HETATM   28  C10 UNL     1      -4.862   2.589 -18.772  1.00  0.00     0.021 C 
HETATM   29  C11 UNL     1      -4.384   1.767 -17.606  1.00  0.00     0.021 C 
HETATM   30  C12 UNL     1      -3.436   0.781 -18.277  1.00  0.00     0.124 C 
ENDBRANCH  21  26
ENDBRANCH  15  18
ENDBRANCH  10  14
ENDBRANCH   1  10
BRANCH   4  31
HETATM   31  C16 UNL     1       4.586  -0.983 -25.265  1.00  0.00     0.242 C 
HETATM   32  O3  UNL     1       3.959  -0.748 -26.373  1.00  0.00    -0.271 OA
HETATM   33  N6  UNL     1       4.093  -2.075 -24.532  1.00  0.00    -0.359 N 
ATOM     34  H6  UNL     1       4.539  -2.310 -23.645  1.00  0.00     0.162 HD
BRANCH  33  35
HETATM   35  C17 UNL     1       2.999  -2.867 -24.976  1.00  0.00     0.127 C 
BRANCH  35  36
HETATM   36  C18 UNL     1       1.865  -3.040 -24.028  1.00  0.00     0.007 C 
HETATM   37  C19 UNL     1       2.411  -3.032 -22.613  1.00  0.00     0.032 C 
HETATM   38  C20 UNL     1       1.543  -2.093 -21.787  1.00  0.00     0.168 C 
HETATM   39  O4  UNL     1       1.819  -0.816 -22.265  1.00  0.00    -0.391 OA
HETATM   40  C21 UNL     1       1.187  -0.662 -23.476  1.00  0.00     0.168 C 
HETATM   41  C22 UNL     1       0.894  -1.894 -24.245  1.00  0.00     0.032 C 
ENDBRANCH  35  36
ENDBRANCH  33  35
ENDBRANCH   4  31
BRANCH   9  42
HETATM   42  C31 UNL     1       4.685   3.172 -25.178  1.00  0.00     0.043 C 
HETATM   43  C32 UNL     1       3.340   2.577 -25.406  1.00  0.00     0.009 C 
ENDBRANCH   9  42
BRANCH   7  44
HETATM   44  C25 UNL     1       8.263   2.210 -27.839  1.00  0.00     0.078 C 
HETATM   45  C26 UNL     1       8.834   3.472 -28.499  1.00  0.00     0.020 C 
BRANCH  44  46
HETATM   46  C27 UNL     1       9.377   1.297 -27.389  1.00  0.00    -0.002 A 
HETATM   47  C28 UNL     1      10.206   1.657 -26.210  1.00  0.00     0.006 A 
HETATM   48  C29 UNL     1      10.803   1.726 -27.607  1.00  0.00     0.006 A 
ENDBRANCH  44  46
ENDBRANCH   7  44
TORSDOF 12
ENDMDL
MODEL 2
REMARK VINA RESULT: -8.550337743      3.291      5.947
REMARK  12 active torsions:
REMARK  status: ('A' for Active; 'I' for Inactive)
REMARK    1  A    between atoms: C2_2  and  C3_3 
REMARK    2  A    between atoms: C3_3  and  C4_4 
REMARK    3  A    between atoms: C4_4  and  N1_5 
REMARK    4  A    between atoms: C4_4  and  C14_22 
REMARK       I    between atoms: N1_5  and  C5_7 
REMARK    5  A    between atoms: C5_7  and  C6_9 
REMARK    6  A    between atoms: C8_13  and  N3_14 
REMARK       I    between atoms: C14_22  and  N5_24 
REMARK    7  A    between atoms: C15_25  and  C16_26 
REMARK       I    between atoms: C16_26  and  N6_28 
REMARK    8  A    between atoms: N6_28  and  C17_30 
REMARK    9  A    between atoms: C17_30  and  C18_31 
REMARK       I    between atoms: N7_38  and  C24_39 
REMARK   10  A    between atoms: C24_39  and  C25_41 
REMARK   11  A    between atoms: C25_41  and  C27_43 
REMARK   12  A    between atoms: C30_46  and  C31_47 
ROOT
HETATM    1  C14 UNL     1       4.134  -0.194 -25.023  1.00  0.00     0.245 C 
HETATM    2  O2  UNL     1       3.029  -0.227 -25.679  1.00  0.00    -0.271 OA
HETATM    3  N5  UNL     1       4.978  -1.324 -25.005  1.00  0.00    -0.314 N 
HETATM    4  C15 UNL     1       4.657  -2.525 -25.732  1.00  0.00     0.199 C 
HETATM    5  C23 UNL     1       5.678  -3.559 -25.318  1.00  0.00     0.163 C 
HETATM    6  N7  UNL     1       6.365  -3.003 -24.187  1.00  0.00    -0.328 N 
HETATM    7  C24 UNL     1       7.090  -3.721 -23.212  1.00  0.00     0.225 C 
HETATM    8  O5  UNL     1       7.638  -3.065 -22.255  1.00  0.00    -0.273 OA
HETATM    9  C30 UNL     1       6.170  -1.550 -24.238  1.00  0.00     0.192 C 
ENDROOT
BRANCH   1  10
HETATM   10  C4  UNL     1       4.377   1.086 -24.330  1.00  0.00     0.177 C 
BRANCH  10  11
HETATM   11  C3  UNL     1       4.297   2.302 -25.241  1.00  0.00     0.034 C 
BRANCH  11  12
HETATM   12  C2  UNL     1       5.475   3.162 -25.347  1.00  0.00    -0.002 C 
HETATM   13  C1  UNL     1       6.248   2.969 -26.643  1.00  0.00     0.005 C 
ENDBRANCH  11  12
ENDBRANCH  10  11
BRANCH  10  14
HETATM   14  N1  UNL     1       3.205   1.243 -23.402  1.00  0.00    -0.342 N 
HETATM   15  C5  UNL     1       3.336   0.930 -22.056  1.00  0.00     0.270 C 
HETATM   16  O1  UNL     1       4.460   0.511 -21.627  1.00  0.00    -0.266 OA
ATOM     17  H1  UNL     1       2.312   1.580 -23.763  1.00  0.00     0.163 HD
BRANCH  15  18
HETATM   18  C6  UNL     1       2.214   1.067 -21.114  1.00  0.00     0.116 A 
HETATM   19  C7  UNL     1       1.400   0.001 -20.823  1.00  0.00     0.125 A 
HETATM   20  N2  UNL     1       0.383   0.161 -19.961  1.00  0.00    -0.349 N 
HETATM   21  C8  UNL     1       0.110   1.331 -19.352  1.00  0.00     0.118 A 
ATOM     22  H2  UNL     1      -0.212  -0.643 -19.757  1.00  0.00     0.167 HD
HETATM   23  C13 UNL     1       0.939   2.383 -19.658  1.00  0.00     0.137 A 
HETATM   24  N4  UNL     1       1.966   2.264 -20.514  1.00  0.00    -0.357 N 
ATOM     25  H4  UNL     1       2.559   3.069 -20.714  1.00  0.00     0.165 HD
BRANCH  21  26
HETATM   26  N3  UNL     1      -0.971   1.466 -18.446  1.00  0.00    -0.366 N 
HETATM   27  C9  UNL     1      -2.164   0.639 -18.429  1.00  0.00     0.124 C 
HETATM   28  C10 UNL     1      -3.268   1.523 -17.891  1.00  0.00     0.021 C 
HETATM   29  C11 UNL     1      -2.590   2.835 -17.597  1.00  0.00     0.021 C 
HETATM   30  C12 UNL     1      -1.144   2.406 -17.381  1.00  0.00     0.124 C 
ENDBRANCH  21  26
ENDBRANCH  15  18
ENDBRANCH  10  14
ENDBRANCH   1  10
BRANCH   4  31
HETATM   31  C16 UNL     1       4.556  -2.465 -27.174  1.00  0.00     0.242 C 
HETATM   32  O3  UNL     1       3.385  -2.158 -27.635  1.00  0.00    -0.271 OA
HETATM   33  N6  UNL     1       5.533  -2.689 -28.158  1.00  0.00    -0.359 N 
ATOM     34  H6  UNL     1       6.476  -2.942 -27.863  1.00  0.00     0.162 HD
BRANCH  33  35
HETATM   35  C17 UNL     1       5.262  -2.579 -29.550  1.00  0.00     0.127 C 
BRANCH  35  36
HETATM   36  C18 UNL     1       5.505  -1.253 -30.180  1.00  0.00     0.007 C 
HETATM   37  C19 UNL     1       6.981  -0.923 -30.058  1.00  0.00     0.032 C 
HETATM   38  C20 UNL     1       7.463  -0.448 -31.421  1.00  0.00     0.168 C 
HETATM   39  O4  UNL     1       7.432  -1.575 -32.238  1.00  0.00    -0.391 OA
HETATM   40  C21 UNL     1       6.123  -1.836 -32.566  1.00  0.00     0.168 C 
HETATM   41  C22 UNL     1       5.084  -1.341 -31.635  1.00  0.00     0.032 C 
ENDBRANCH  35  36
ENDBRANCH  33  35
ENDBRANCH   4  31
BRANCH   9  42
HETATM   42  C31 UNL     1       7.410  -0.841 -24.626  1.00  0.00     0.043 C 
HETATM   43  C32 UNL     1       7.580  -0.508 -26.066  1.00  0.00     0.009 C 
ENDBRANCH   9  42
BRANCH   7  44
HETATM   44  C25 UNL     1       7.264  -5.178 -23.218  1.00  0.00     0.078 C 
HETATM   45  C26 UNL     1       8.764  -5.441 -23.396  1.00  0.00     0.020 C 
BRANCH  44  46
HETATM   46  C27 UNL     1       6.778  -5.749 -21.909  1.00  0.00    -0.002 A 
HETATM   47  C28 UNL     1       6.382  -7.178 -21.820  1.00  0.00     0.006 A 
HETATM   48  C29 UNL     1       5.320  -6.090 -21.759  1.00  0.00     0.006 A 
ENDBRANCH  44  46
ENDBRANCH   7  44
TORSDOF 12
ENDMDL
MODEL 3
REMARK VINA RESULT: -8.482600607      3.390      5.777
REMARK  12 active torsions:
REMARK  status: ('A' for Active; 'I' for Inactive)
REMARK    1  A    between atoms: C2_2  and  C3_3 
REMARK    2  A    between atoms: C3_3  and  C4_4 
REMARK    3  A    between atoms: C4_4  and  N1_5 
REMARK    4  A    between atoms: C4_4  and  C14_22 
REMARK       I    between atoms: N1_5  and  C5_7 
REMARK    5  A    between atoms: C5_7  and  C6_9 
REMARK    6  A    between atoms: C8_13  and  N3_14 
REMARK       I    between atoms: C14_22  and  N5_24 
REMARK    7  A    between atoms: C15_25  and  C16_26 
REMARK       I    between atoms: C16_26  and  N6_28 
REMARK    8  A    between atoms: N6_28  and  C17_30 
REMARK    9  A    between atoms: C17_30  and  C18_31 
REMARK       I    between atoms: N7_38  and  C24_39 
REMARK   10  A    between atoms: C24_39  and  C25_41 
REMARK   11  A    between atoms: C25_41  and  C27_43 
REMARK   12  A    between atoms: C30_46  and  C31_47 
ROOT
HETATM    1  C14 UNL     1       4.316   0.217 -24.835  1.00  0.00     0.245 C 
HETATM    2  O2  UNL     1       3.244   0.313 -25.540  1.00  0.00    -0.271 OA
HETATM    3  N5  UNL     1       5.102  -0.952 -24.906  1.00  0.00    -0.314 N 
HETATM    4  C15 UNL     1       4.763  -2.048 -25.776  1.00  0.00     0.199 C 
HETATM    5  C23 UNL     1       5.710  -3.173 -25.434  1.00  0.00     0.163 C 
HETATM    6  N7  UNL     1       6.365  -2.780 -24.218  1.00  0.00    -0.328 N 
HETATM    7  C24 UNL     1       7.006  -3.637 -23.297  1.00  0.00     0.225 C 
HETATM    8  O5  UNL     1       7.534  -3.119 -22.249  1.00  0.00    -0.273 OA
HETATM    9  C30 UNL     1       6.243  -1.322 -24.115  1.00  0.00     0.192 C 
ENDROOT
BRANCH   1  10
HETATM   10  C4  UNL     1       4.583   1.399 -23.994  1.00  0.00     0.177 C 
BRANCH  10  11
HETATM   11  C3  UNL     1       4.626   2.707 -24.769  1.00  0.00     0.034 C 
BRANCH  11  12
HETATM   12  C2  UNL     1       5.932   3.227 -25.172  1.00  0.00    -0.002 C 
HETATM   13  C1  UNL     1       6.277   2.929 -26.624  1.00  0.00     0.005 C 
ENDBRANCH  11  12
ENDBRANCH  10  11
BRANCH  10  14
HETATM   14  N1  UNL     1       3.365   1.527 -23.122  1.00  0.00    -0.342 N 
HETATM   15  C5  UNL     1       3.418   1.135 -21.792  1.00  0.00     0.270 C 
HETATM   16  O1  UNL     1       4.510   0.668 -21.328  1.00  0.00    -0.266 OA
ATOM     17  H1  UNL     1       2.500   1.903 -23.509  1.00  0.00     0.163 HD
BRANCH  15  18
HETATM   18  C6  UNL     1       2.250   1.241 -20.903  1.00  0.00     0.116 A 
HETATM   19  C7  UNL     1       1.894   2.444 -20.343  1.00  0.00     0.125 A 
HETATM   20  N2  UNL     1       0.825   2.506 -19.534  1.00  0.00    -0.349 N 
HETATM   21  C8  UNL     1       0.065   1.435 -19.233  1.00  0.00     0.118 A 
ATOM     22  H2  UNL     1       0.576   3.408 -19.128  1.00  0.00     0.167 HD
HETATM   23  C13 UNL     1       0.441   0.244 -19.805  1.00  0.00     0.137 A 
HETATM   24  N4  UNL     1       1.502   0.140 -20.619  1.00  0.00    -0.357 N 
ATOM     25  H4  UNL     1       1.748  -0.763 -21.024  1.00  0.00     0.165 HD
BRANCH  21  26
HETATM   26  N3  UNL     1      -1.058   1.535 -18.375  1.00  0.00    -0.366 N 
HETATM   27  C9  UNL     1      -2.199   0.637 -18.374  1.00  0.00     0.124 C 
HETATM   28  C10 UNL     1      -3.375   1.470 -17.911  1.00  0.00     0.021 C 
HETATM   29  C11 UNL     1      -2.789   2.830 -17.638  1.00  0.00     0.021 C 
HETATM   30  C12 UNL     1      -1.330   2.498 -17.351  1.00  0.00     0.124 C 
ENDBRANCH  21  26
ENDBRANCH  15  18
ENDBRANCH  10  14
ENDBRANCH   1  10
BRANCH   4  31
HETATM   31  C16 UNL     1       4.737  -1.826 -27.205  1.00  0.00     0.242 C 
HETATM   32  O3  UNL     1       3.601  -2.060 -27.782  1.00  0.00    -0.271 OA
HETATM   33  N6  UNL     1       5.756  -1.394 -28.070  1.00  0.00    -0.359 N 
ATOM     34  H6  UNL     1       6.678  -1.198 -27.680  1.00  0.00     0.162 HD
BRANCH  33  35
HETATM   35  C17 UNL     1       5.556  -1.219 -29.467  1.00  0.00     0.127 C 
BRANCH  35  36
HETATM   36  C18 UNL     1       6.343  -2.096 -30.375  1.00  0.00     0.007 C 
HETATM   37  C19 UNL     1       5.720  -3.478 -30.372  1.00  0.00     0.032 C 
HETATM   38  C20 UNL     1       5.586  -3.930 -31.819  1.00  0.00     0.168 C 
HETATM   39  O4  UNL     1       4.603  -3.115 -32.372  1.00  0.00    -0.391 OA
HETATM   40  C21 UNL     1       5.147  -1.873 -32.597  1.00  0.00     0.168 C 
HETATM   41  C22 UNL     1       6.308  -1.485 -31.764  1.00  0.00     0.032 C 
ENDBRANCH  35  36
ENDBRANCH  33  35
ENDBRANCH   4  31
BRANCH   9  42
HETATM   42  C31 UNL     1       7.533  -0.642 -24.365  1.00  0.00     0.043 C 
HETATM   43  C32 UNL     1       7.846  -0.277 -25.773  1.00  0.00     0.009 C 
ENDBRANCH   9  42
BRANCH   7  44
HETATM   44  C25 UNL     1       7.110  -5.093 -23.458  1.00  0.00     0.078 C 
HETATM   45  C26 UNL     1       8.526  -5.376 -23.974  1.00  0.00     0.020 C 
BRANCH  44  46
HETATM   46  C27 UNL     1       6.888  -5.764 -22.125  1.00  0.00    -0.002 A 
HETATM   47  C28 UNL     1       6.487  -7.193 -22.068  1.00  0.00     0.006 A 
HETATM   48  C29 UNL     1       5.483  -6.108 -21.708  1.00  0.00     0.006 A 
ENDBRANCH  44  46
ENDBRANCH   7  44
TORSDOF 12
ENDMDL
MODEL 4
REMARK VINA RESULT: -8.454641691      0.975      1.103
REMARK  12 active torsions:
REMARK  status: ('A' for Active; 'I' for Inactive)
REMARK    1  A    between atoms: C2_2  and  C3_3 
REMARK    2  A    between atoms: C3_3  and  C4_4 
REMARK    3  A    between atoms: C4_4  and  N1_5 
REMARK    4  A    between atoms: C4_4  and  C14_22 
REMARK       I    between atoms: N1_5  and  C5_7 
REMARK    5  A    between atoms: C5_7  and  C6_9 
REMARK    6  A    between atoms: C8_13  and  N3_14 
REMARK       I    between atoms: C14_22  and  N5_24 
REMARK    7  A    between atoms: C15_25  and  C16_26 
REMARK       I    between atoms: C16_26  and  N6_28 
REMARK    8  A    between atoms: N6_28  and  C17_30 
REMARK    9  A    between atoms: C17_30  and  C18_31 
REMARK       I    between atoms: N7_38  and  C24_39 
REMARK   10  A    between atoms: C24_39  and  C25_41 
REMARK   11  A    between atoms: C25_41  and  C27_43 
REMARK   12  A    between atoms: C30_46  and  C31_47 
ROOT
HETATM    1  C14 UNL     1       5.731   0.911 -23.272  1.00  0.00     0.245 C 
HETATM    2  O2  UNL     1       5.635  -0.265 -22.760  1.00  0.00    -0.271 OA
HETATM    3  N5  UNL     1       6.068   1.062 -24.633  1.00  0.00    -0.314 N 
HETATM    4  C15 UNL     1       6.283  -0.072 -25.494  1.00  0.00     0.199 C 
HETATM    5  C23 UNL     1       6.808   0.477 -26.800  1.00  0.00     0.163 C 
HETATM    6  N7  UNL     1       7.125   1.855 -26.548  1.00  0.00    -0.328 N 
HETATM    7  C24 UNL     1       8.007   2.662 -27.298  1.00  0.00     0.225 C 
HETATM    8  O5  UNL     1       8.186   3.877 -26.926  1.00  0.00    -0.273 OA
HETATM    9  C30 UNL     1       6.360   2.263 -25.364  1.00  0.00     0.192 C 
ENDROOT
BRANCH   1  10
HETATM   10  C4  UNL     1       5.474   2.002 -22.311  1.00  0.00     0.177 C 
BRANCH  10  11
HETATM   11  C3  UNL     1       5.646   3.393 -22.902  1.00  0.00     0.034 C 
BRANCH  11  12
HETATM   12  C2  UNL     1       6.651   4.275 -22.307  1.00  0.00    -0.002 C 
HETATM   13  C1  UNL     1       8.026   4.136 -22.942  1.00  0.00     0.005 C 
ENDBRANCH  11  12
ENDBRANCH  10  11
BRANCH  10  14
HETATM   14  N1  UNL     1       4.004   1.907 -22.015  1.00  0.00    -0.342 N 
HETATM   15  C5  UNL     1       3.563   1.821 -20.702  1.00  0.00     0.270 C 
HETATM   16  O1  UNL     1       4.422   1.825 -19.761  1.00  0.00    -0.266 OA
ATOM     17  H1  UNL     1       3.329   1.905 -22.781  1.00  0.00     0.163 HD
BRANCH  15  18
HETATM   18  C6  UNL     1       2.133   1.725 -20.366  1.00  0.00     0.116 A 
HETATM   19  C7  UNL     1       1.388   2.851 -20.118  1.00  0.00     0.125 A 
HETATM   20  N2  UNL     1       0.086   2.728 -19.811  1.00  0.00    -0.349 N 
HETATM   21  C8  UNL     1      -0.543   1.540 -19.731  1.00  0.00     0.118 A 
ATOM     22  H2  UNL     1      -0.452   3.576 -19.631  1.00  0.00     0.167 HD
HETATM   23  C13 UNL     1       0.224   0.428 -19.984  1.00  0.00     0.137 A 
HETATM   24  N4  UNL     1       1.527   0.508 -20.294  1.00  0.00    -0.357 N 
ATOM     25  H4  UNL     1       2.061  -0.341 -20.475  1.00  0.00     0.165 HD
BRANCH  21  26
HETATM   26  N3  UNL     1      -1.919   1.445 -19.405  1.00  0.00    -0.366 N 
HETATM   27  C9  UNL     1      -3.012   1.969 -20.204  1.00  0.00     0.124 C 
HETATM   28  C10 UNL     1      -4.111   2.308 -19.221  1.00  0.00     0.021 C 
HETATM   29  C11 UNL     1      -3.556   1.906 -17.881  1.00  0.00     0.021 C 
HETATM   30  C12 UNL     1      -2.537   0.840 -18.264  1.00  0.00     0.124 C 
ENDBRANCH  21  26
ENDBRANCH  15  18
ENDBRANCH  10  14
ENDBRANCH   1  10
BRANCH   4  31
HETATM   31  C16 UNL     1       5.188  -0.986 -25.736  1.00  0.00     0.242 C 
HETATM   32  O3  UNL     1       4.411  -0.671 -26.722  1.00  0.00    -0.271 OA
HETATM   33  N6  UNL     1       4.833  -2.168 -25.064  1.00  0.00    -0.359 N 
ATOM     34  H6  UNL     1       5.401  -2.469 -24.272  1.00  0.00     0.162 HD
BRANCH  33  35
HETATM   35  C17 UNL     1       3.715  -2.961 -25.442  1.00  0.00     0.127 C 
BRANCH  35  36
HETATM   36  C18 UNL     1       2.662  -3.175 -24.413  1.00  0.00     0.007 C 
HETATM   37  C19 UNL     1       3.315  -3.160 -23.044  1.00  0.00     0.032 C 
HETATM   38  C20 UNL     1       2.485  -2.255 -22.144  1.00  0.00     0.168 C 
HETATM   39  O4  UNL     1       2.685  -0.967 -22.630  1.00  0.00    -0.391 OA
HETATM   40  C21 UNL     1       1.959  -0.822 -23.788  1.00  0.00     0.168 C 
HETATM   41  C22 UNL     1       1.644  -2.057 -24.544  1.00  0.00     0.032 C 
ENDBRANCH  35  36
ENDBRANCH  33  35
ENDBRANCH   4  31
BRANCH   9  42
HETATM   42  C31 UNL     1       5.245   3.170 -25.715  1.00  0.00     0.043 C 
HETATM   43  C32 UNL     1       3.868   2.610 -25.653  1.00  0.00     0.009 C 
ENDBRANCH   9  42
BRANCH   7  44
HETATM   44  C25 UNL     1       8.739   2.204 -28.485  1.00  0.00     0.078 C 
HETATM   45  C26 UNL     1       9.311   3.457 -29.158  1.00  0.00     0.020 C 
BRANCH  44  46
HETATM   46  C27 UNL     1       9.850   1.274 -28.065  1.00  0.00    -0.002 A 
HETATM   47  C28 UNL     1      10.629   1.553 -26.831  1.00  0.00     0.006 A 
HETATM   48  C29 UNL     1      11.276   1.737 -28.195  1.00  0.00     0.006 A 
ENDBRANCH  44  46
ENDBRANCH   7  44
TORSDOF 12
ENDMDL
MODEL 5
REMARK VINA RESULT: -8.318291418      4.236      9.154
REMARK  12 active torsions:
REMARK  status: ('A' for Active; 'I' for Inactive)
REMARK    1  A    between atoms: C2_2  and  C3_3 
REMARK    2  A    between atoms: C3_3  and  C4_4 
REMARK    3  A    between atoms: C4_4  and  N1_5 
REMARK    4  A    between atoms: C4_4  and  C14_22 
REMARK       I    between atoms: N1_5  and  C5_7 
REMARK    5  A    between atoms: C5_7  and  C6_9 
REMARK    6  A    between atoms: C8_13  and  N3_14 
REMARK       I    between atoms: C14_22  and  N5_24 
REMARK    7  A    between atoms: C15_25  and  C16_26 
REMARK       I    between atoms: C16_26  and  N6_28 
REMARK    8  A    between atoms: N6_28  and  C17_30 
REMARK    9  A    between atoms: C17_30  and  C18_31 
REMARK       I    between atoms: N7_38  and  C24_39 
REMARK   10  A    between atoms: C24_39  and  C25_41 
REMARK   11  A    between atoms: C25_41  and  C27_43 
REMARK   12  A    between atoms: C30_46  and  C31_47 
ROOT
HETATM    1  C14 UNL     1       3.888  -0.209 -25.666  1.00  0.00     0.245 C 
HETATM    2  O2  UNL     1       2.670   0.146 -25.453  1.00  0.00    -0.271 OA
HETATM    3  N5  UNL     1       4.907   0.764 -25.718  1.00  0.00    -0.314 N 
HETATM    4  C15 UNL     1       4.636   2.163 -25.506  1.00  0.00     0.199 C 
HETATM    5  C23 UNL     1       5.916   2.898 -25.829  1.00  0.00     0.163 C 
HETATM    6  N7  UNL     1       6.774   1.937 -26.463  1.00  0.00    -0.328 N 
HETATM    7  C24 UNL     1       7.874   2.220 -27.299  1.00  0.00     0.225 C 
HETATM    8  O5  UNL     1       8.531   1.235 -27.795  1.00  0.00    -0.273 OA
HETATM    9  C30 UNL     1       6.289   0.607 -26.074  1.00  0.00     0.192 C 
ENDROOT
BRANCH   1  10
HETATM   10  C4  UNL     1       4.061  -1.663 -25.850  1.00  0.00     0.177 C 
BRANCH  10  11
HETATM   11  C3  UNL     1       2.872  -2.487 -25.377  1.00  0.00     0.034 C 
BRANCH  11  12
HETATM   12  C2  UNL     1       3.102  -3.498 -24.345  1.00  0.00    -0.002 C 
HETATM   13  C1  UNL     1       4.301  -4.390 -24.632  1.00  0.00     0.005 C 
ENDBRANCH  11  12
ENDBRANCH  10  11
BRANCH  10  14
HETATM   14  N1  UNL     1       4.073  -1.857 -27.341  1.00  0.00    -0.342 N 
HETATM   15  C5  UNL     1       5.183  -2.416 -27.960  1.00  0.00     0.270 C 
HETATM   16  O1  UNL     1       6.181  -2.759 -27.245  1.00  0.00    -0.266 OA
ATOM     17  H1  UNL     1       3.266  -1.578 -27.898  1.00  0.00     0.163 HD
BRANCH  15  18
HETATM   18  C6  UNL     1       5.239  -2.623 -29.415  1.00  0.00     0.116 A 
HETATM   19  C7  UNL     1       4.750  -1.679 -30.284  1.00  0.00     0.125 A 
HETATM   20  N2  UNL     1       4.813  -1.900 -31.606  1.00  0.00    -0.349 N 
HETATM   21  C8  UNL     1       5.340  -3.018 -32.142  1.00  0.00     0.118 A 
ATOM     22  H2  UNL     1       4.445  -1.187 -32.236  1.00  0.00     0.167 HD
HETATM   23  C13 UNL     1       5.824  -3.948 -31.253  1.00  0.00     0.137 A 
HETATM   24  N4  UNL     1       5.779  -3.764 -29.925  1.00  0.00    -0.357 N 
ATOM     25  H4  UNL     1       6.149  -4.478 -29.299  1.00  0.00     0.165 HD
BRANCH  21  26
HETATM   26  N3  UNL     1       5.392  -3.221 -33.543  1.00  0.00    -0.366 N 
HETATM   27  C9  UNL     1       5.362  -2.173 -34.548  1.00  0.00     0.124 C 
HETATM   28  C10 UNL     1       4.715  -2.793 -35.767  1.00  0.00     0.021 C 
HETATM   29  C11 UNL     1       4.441  -4.218 -35.365  1.00  0.00     0.021 C 
HETATM   30  C12 UNL     1       5.481  -4.448 -34.276  1.00  0.00     0.124 C 
ENDBRANCH  21  26
ENDBRANCH  15  18
ENDBRANCH  10  14
ENDBRANCH   1  10
BRANCH   4  31
HETATM   31  C16 UNL     1       4.118   2.590 -24.225  1.00  0.00     0.242 C 
HETATM   32  O3  UNL     1       3.916   3.864 -24.107  1.00  0.00    -0.271 OA
HETATM   33  N6  UNL     1       3.797   1.837 -23.084  1.00  0.00    -0.359 N 
ATOM     34  H6  UNL     1       3.939   0.827 -23.108  1.00  0.00     0.162 HD
BRANCH  33  35
HETATM   35  C17 UNL     1       3.283   2.424 -21.895  1.00  0.00     0.127 C 
BRANCH  35  36
HETATM   36  C18 UNL     1       2.961   1.500 -20.773  1.00  0.00     0.007 C 
HETATM   37  C19 UNL     1       1.803   2.082 -19.985  1.00  0.00     0.032 C 
HETATM   38  C20 UNL     1       0.790   0.969 -19.761  1.00  0.00     0.168 C 
HETATM   39  O4  UNL     1       0.249   0.703 -21.015  1.00  0.00    -0.391 OA
HETATM   40  C21 UNL     1       1.172  -0.008 -21.743  1.00  0.00     0.168 C 
HETATM   41  C22 UNL     1       2.596   0.152 -21.366  1.00  0.00     0.032 C 
ENDBRANCH  35  36
ENDBRANCH  33  35
ENDBRANCH   4  31
BRANCH   9  42
HETATM   42  C31 UNL     1       7.201  -0.052 -25.113  1.00  0.00     0.043 C 
HETATM   43  C32 UNL     1       6.875   0.079 -23.668  1.00  0.00     0.009 C 
ENDBRANCH   9  42
BRANCH   7  44
HETATM   44  C25 UNL     1       8.323   3.574 -27.645  1.00  0.00     0.078 C 
HETATM   45  C26 UNL     1       9.187   4.061 -26.475  1.00  0.00     0.020 C 
BRANCH  44  46
HETATM   46  C27 UNL     1       9.132   3.528 -28.917  1.00  0.00    -0.002 A 
HETATM   47  C28 UNL     1      10.511   4.078 -28.945  1.00  0.00     0.006 A 
HETATM   48  C29 UNL     1       9.388   4.808 -29.665  1.00  0.00     0.006 A 
ENDBRANCH  44  46
ENDBRANCH   7  44
TORSDOF 12
ENDMDL
