MODEL 1
REMARK VINA RESULT: -8.964775590      0.000      0.000
REMARK  13 active torsions:
REMARK  status: ('A' for Active; 'I' for Inactive)
REMARK    1  A    between atoms: C2_2  and  C3_3 
REMARK    2  A    between atoms: C3_3  and  N1_4 
REMARK    3  A    between atoms: C6_7  and  C7_8 
REMARK    4  A    between atoms: C7_8  and  S1_9 
REMARK    5  A    between atoms: S1_9  and  C8_10 
REMARK    6  A    between atoms: C8_10  and  C9_11 
REMARK    7  A    between atoms: C9_11  and  N2_12 
REMARK    8  A    between atoms: C9_11  and  C22_33 
REMARK       I    between atoms: N2_12  and  C10_14 
REMARK    9  A    between atoms: C10_14  and  C11_16 
REMARK   10  A    between atoms: C15_20  and  S2_21 
REMARK   11  A    between atoms: S2_21  and  C16_22 
REMARK   12  A    between atoms: C16_22  and  C17_23 
REMARK       I    between atoms: C17_23  and  N3_25 
REMARK       I    between atoms: C22_33  and  N4_35 
REMARK   13  A    between atoms: N4_35  and  C23_37 
ROOT
HETATM    1  C9  UNL     1       1.716  -1.603 -23.756  1.00  0.00     0.186 C 
ENDROOT
BRANCH   1   2
HETATM    2  C8  UNL     1       0.995  -2.079 -22.574  1.00  0.00     0.108 C 
BRANCH   2   3
HETATM    3  S1  UNL     1       1.641  -1.500 -21.027  1.00  0.00    -0.164 SA
BRANCH   3   4
HETATM    4  C7  UNL     1       0.761  -0.456 -19.966  1.00  0.00     0.109 C 
BRANCH   4   5
HETATM    5  C6  UNL     1       0.180   0.832 -20.447  1.00  0.00     0.233 C 
HETATM    6  N1  UNL     1      -0.874   1.456 -19.729  1.00  0.00     0.093 N 
HETATM    7  C4  UNL     1       0.138   2.047 -18.852  1.00  0.00     0.275 C 
HETATM    8  C5  UNL     1       1.109   1.975 -20.010  1.00  0.00     0.067 C 
BRANCH   6   9
HETATM    9  C3  UNL     1      -1.858   0.708 -19.026  1.00  0.00     0.272 C 
BRANCH   9  10
HETATM   10  C2  UNL     1      -3.266   1.225 -19.315  1.00  0.00     0.026 C 
HETATM   11  C1  UNL     1      -3.330   2.152 -20.475  1.00  0.00     0.007 C 
ENDBRANCH   9  10
ENDBRANCH   6   9
ENDBRANCH   4   5
ENDBRANCH   3   4
ENDBRANCH   2   3
ENDBRANCH   1   2
BRANCH   1  12
HETATM   12  N2  UNL     1       2.803  -0.669 -23.485  1.00  0.00    -0.347 N 
HETATM   13  C10 UNL     1       3.092   0.471 -24.297  1.00  0.00     0.222 C 
HETATM   14  O1  UNL     1       2.411   0.718 -25.288  1.00  0.00    -0.273 OA
ATOM     15  H2  UNL     1       3.391  -0.839 -22.669  1.00  0.00     0.163 HD
BRANCH  13  16
HETATM   16  C11 UNL     1       4.241   1.369 -23.944  1.00  0.00     0.079 C 
HETATM   17  C12 UNL     1       3.996   2.751 -24.477  1.00  0.00     0.014 C 
HETATM   18  C13 UNL     1       4.614   2.926 -25.866  1.00  0.00     0.002 C 
HETATM   19  C14 UNL     1       6.114   2.863 -25.646  1.00  0.00     0.015 C 
HETATM   20  C15 UNL     1       6.464   1.477 -25.220  1.00  0.00     0.048 C 
HETATM   21  C21 UNL     1       5.515   0.734 -24.362  1.00  0.00     0.029 C 
BRANCH  20  22
HETATM   22  S2  UNL     1       8.166   1.408 -24.571  1.00  0.00    -0.155 SA
BRANCH  22  23
HETATM   23  C16 UNL     1       8.422   2.586 -23.211  1.00  0.00     0.178 C 
BRANCH  23  24
HETATM   24  C17 UNL     1       7.796   2.032 -21.972  1.00  0.00     0.242 C 
HETATM   25  O2  UNL     1       8.281   1.054 -21.399  1.00  0.00    -0.272 OA
HETATM   26  N3  UNL     1       6.651   2.664 -21.497  1.00  0.00    -0.245 N 
HETATM   27  C18 UNL     1       5.934   3.823 -22.035  1.00  0.00     0.145 C 
HETATM   28  S3  UNL     1       5.712   2.269 -20.102  1.00  0.00     0.235 S 
HETATM   29  C19 UNL     1       5.773   4.736 -20.816  1.00  0.00     0.038 C 
HETATM   30  C20 UNL     1       4.975   3.901 -19.822  1.00  0.00     0.165 C 
HETATM   31  O3  UNL     1       4.627   1.321 -20.492  1.00  0.00    -0.205 OA
HETATM   32  O4  UNL     1       6.510   1.840 -18.935  1.00  0.00    -0.205 OA
ENDBRANCH  23  24
ENDBRANCH  22  23
ENDBRANCH  20  22
ENDBRANCH  13  16
ENDBRANCH   1  12
BRANCH   1  33
HETATM   33  C22 UNL     1       2.434  -2.736 -24.497  1.00  0.00     0.247 C 
HETATM   34  O5  UNL     1       2.276  -3.886 -24.020  1.00  0.00    -0.271 OA
HETATM   35  N4  UNL     1       3.169  -2.504 -25.613  1.00  0.00    -0.305 N 
ATOM     36  H4  UNL     1       2.794  -1.708 -26.129  1.00  0.00     0.171 HD
BRANCH  35  37
HETATM   37  C23 UNL     1       4.186  -2.983 -26.209  1.00  0.00     0.150 A 
HETATM   38  N5  UNL     1       5.004  -4.002 -25.986  1.00  0.00    -0.346 N 
HETATM   39  C24 UNL     1       5.925  -4.304 -26.844  1.00  0.00     0.097 A 
ATOM     40  H5  UNL     1       4.907  -4.551 -25.132  1.00  0.00     0.167 HD
HETATM   41  C25 UNL     1       6.023  -3.540 -27.984  1.00  0.00     0.070 A 
HETATM   42  S4  UNL     1       4.780  -2.412 -27.769  1.00  0.00    -0.064 SA
ENDBRANCH  35  37
ENDBRANCH   1  33
TORSDOF 13
ENDMDL
MODEL 2
REMARK VINA RESULT: -8.739682576      2.592      3.283
REMARK  13 active torsions:
REMARK  status: ('A' for Active; 'I' for Inactive)
REMARK    1  A    between atoms: C2_2  and  C3_3 
REMARK    2  A    between atoms: C3_3  and  N1_4 
REMARK    3  A    between atoms: C6_7  and  C7_8 
REMARK    4  A    between atoms: C7_8  and  S1_9 
REMARK    5  A    between atoms: S1_9  and  C8_10 
REMARK    6  A    between atoms: C8_10  and  C9_11 
REMARK    7  A    between atoms: C9_11  and  N2_12 
REMARK    8  A    between atoms: C9_11  and  C22_33 
REMARK       I    between atoms: N2_12  and  C10_14 
REMARK    9  A    between atoms: C10_14  and  C11_16 
REMARK   10  A    between atoms: C15_20  and  S2_21 
REMARK   11  A    between atoms: S2_21  and  C16_22 
REMARK   12  A    between atoms: C16_22  and  C17_23 
REMARK       I    between atoms: C17_23  and  N3_25 
REMARK       I    between atoms: C22_33  and  N4_35 
REMARK   13  A    between atoms: N4_35  and  C23_37 
ROOT
HETATM    1  C9  UNL     1       1.523  -2.585 -21.767  1.00  0.00     0.186 C 
ENDROOT
BRANCH   1   2
HETATM    2  C8  UNL     1       1.540  -1.836 -20.509  1.00  0.00     0.108 C 
BRANCH   2   3
HETATM    3  S1  UNL     1       0.989  -0.155 -20.638  1.00  0.00    -0.164 SA
BRANCH   3   4
HETATM    4  C7  UNL     1      -0.015   0.604 -19.453  1.00  0.00     0.109 C 
BRANCH   4   5
HETATM    5  C6  UNL     1      -0.972   1.689 -19.823  1.00  0.00     0.233 C 
HETATM    6  N1  UNL     1      -2.065   2.001 -18.973  1.00  0.00     0.093 N 
HETATM    7  C4  UNL     1      -1.155   2.841 -18.191  1.00  0.00     0.275 C 
HETATM    8  C5  UNL     1      -0.340   3.039 -19.450  1.00  0.00     0.067 C 
BRANCH   6   9
HETATM    9  C3  UNL     1      -2.725   1.012 -18.194  1.00  0.00     0.272 C 
BRANCH   9  10
HETATM   10  C2  UNL     1      -4.203   1.345 -18.002  1.00  0.00     0.026 C 
HETATM   11  C1  UNL     1      -4.656   2.513 -18.802  1.00  0.00     0.007 C 
ENDBRANCH   9  10
ENDBRANCH   6   9
ENDBRANCH   4   5
ENDBRANCH   3   4
ENDBRANCH   2   3
ENDBRANCH   1   2
BRANCH   1  12
HETATM   12  N2  UNL     1       2.165  -1.919 -22.895  1.00  0.00    -0.347 N 
HETATM   13  C10 UNL     1       1.512  -1.655 -24.138  1.00  0.00     0.222 C 
HETATM   14  O1  UNL     1       0.343  -1.988 -24.310  1.00  0.00    -0.273 OA
ATOM     15  H2  UNL     1       3.136  -1.625 -22.790  1.00  0.00     0.163 HD
BRANCH  13  16
HETATM   16  C11 UNL     1       2.260  -0.973 -25.245  1.00  0.00     0.079 C 
HETATM   17  C12 UNL     1       3.010  -1.988 -26.059  1.00  0.00     0.014 C 
HETATM   18  C13 UNL     1       4.439  -2.165 -25.542  1.00  0.00     0.002 C 
HETATM   19  C14 UNL     1       5.136  -0.850 -25.838  1.00  0.00     0.015 C 
HETATM   20  C15 UNL     1       4.523   0.204 -24.978  1.00  0.00     0.048 C 
HETATM   21  C21 UNL     1       3.075   0.134 -24.687  1.00  0.00     0.029 C 
BRANCH  20  22
HETATM   22  S2  UNL     1       5.027   1.866 -25.533  1.00  0.00    -0.155 SA
BRANCH  22  23
HETATM   23  C16 UNL     1       4.197   3.178 -24.587  1.00  0.00     0.178 C 
BRANCH  23  24
HETATM   24  C17 UNL     1       5.123   3.658 -23.516  1.00  0.00     0.242 C 
HETATM   25  O2  UNL     1       6.056   4.420 -23.779  1.00  0.00    -0.272 OA
HETATM   26  N3  UNL     1       4.888   3.209 -22.220  1.00  0.00    -0.245 N 
HETATM   27  C18 UNL     1       3.845   2.311 -21.718  1.00  0.00     0.145 C 
HETATM   28  S3  UNL     1       5.768   3.585 -20.783  1.00  0.00     0.235 S 
HETATM   29  C19 UNL     1       3.264   3.075 -20.525  1.00  0.00     0.038 C 
HETATM   30  C20 UNL     1       4.448   3.262 -19.584  1.00  0.00     0.165 C 
HETATM   31  O3  UNL     1       6.845   2.571 -20.585  1.00  0.00    -0.205 OA
HETATM   32  O4  UNL     1       6.227   4.988 -20.701  1.00  0.00    -0.205 OA
ENDBRANCH  23  24
ENDBRANCH  22  23
ENDBRANCH  20  22
ENDBRANCH  13  16
ENDBRANCH   1  12
BRANCH   1  33
HETATM   33  C22 UNL     1       2.307  -3.899 -21.674  1.00  0.00     0.247 C 
HETATM   34  O5  UNL     1       1.792  -4.792 -20.958  1.00  0.00    -0.271 OA
HETATM   35  N4  UNL     1       3.469  -4.085 -22.349  1.00  0.00    -0.305 N 
ATOM     36  H4  UNL     1       3.469  -3.545 -23.214  1.00  0.00     0.171 HD
BRANCH  35  37
HETATM   37  C23 UNL     1       4.557  -4.732 -22.225  1.00  0.00     0.150 A 
HETATM   38  N5  UNL     1       4.897  -5.892 -21.682  1.00  0.00    -0.346 N 
HETATM   39  C24 UNL     1       6.106  -6.340 -21.794  1.00  0.00     0.097 A 
ATOM     40  H5  UNL     1       4.200  -6.435 -21.172  1.00  0.00     0.167 HD
HETATM   41  C25 UNL     1       7.016  -5.579 -22.490  1.00  0.00     0.070 A 
HETATM   42  S4  UNL     1       6.088  -4.243 -22.955  1.00  0.00    -0.064 SA
ENDBRANCH  35  37
ENDBRANCH   1  33
TORSDOF 13
ENDMDL
MODEL 3
REMARK VINA RESULT: -8.583677975      2.334      3.018
REMARK  13 active torsions:
REMARK  status: ('A' for Active; 'I' for Inactive)
REMARK    1  A    between atoms: C2_2  and  C3_3 
REMARK    2  A    between atoms: C3_3  and  N1_4 
REMARK    3  A    between atoms: C6_7  and  C7_8 
REMARK    4  A    between atoms: C7_8  and  S1_9 
REMARK    5  A    between atoms: S1_9  and  C8_10 
REMARK    6  A    between atoms: C8_10  and  C9_11 
REMARK    7  A    between atoms: C9_11  and  N2_12 
REMARK    8  A    between atoms: C9_11  and  C22_33 
REMARK       I    between atoms: N2_12  and  C10_14 
REMARK    9  A    between atoms: C10_14  and  C11_16 
REMARK   10  A    between atoms: C15_20  and  S2_21 
REMARK   11  A    between atoms: S2_21  and  C16_22 
REMARK   12  A    between atoms: C16_22  and  C17_23 
REMARK       I    between atoms: C17_23  and  N3_25 
REMARK       I    between atoms: C22_33  and  N4_35 
REMARK   13  A    between atoms: N4_35  and  C23_37 
ROOT
HETATM    1  C9  UNL     1       1.127  -1.039 -21.593  1.00  0.00     0.186 C 
ENDROOT
BRANCH   1   2
HETATM    2  C8  UNL     1       0.864  -0.507 -20.255  1.00  0.00     0.108 C 
BRANCH   2   3
HETATM    3  S1  UNL     1       0.554   1.238 -20.197  1.00  0.00    -0.164 SA
BRANCH   3   4
HETATM    4  C7  UNL     1      -0.999   1.911 -19.845  1.00  0.00     0.109 C 
BRANCH   4   5
HETATM    5  C6  UNL     1      -1.471   2.089 -18.440  1.00  0.00     0.233 C 
HETATM    6  N1  UNL     1      -2.853   2.255 -18.163  1.00  0.00     0.093 N 
HETATM    7  C4  UNL     1      -2.987   0.798 -18.200  1.00  0.00     0.275 C 
HETATM    8  C5  UNL     1      -1.538   0.706 -17.773  1.00  0.00     0.067 C 
BRANCH   6   9
HETATM    9  C3  UNL     1      -3.730   2.923 -19.060  1.00  0.00     0.272 C 
BRANCH   9  10
HETATM   10  C2  UNL     1      -4.485   4.055 -18.367  1.00  0.00     0.026 C 
HETATM   11  C1  UNL     1      -4.484   3.947 -16.885  1.00  0.00     0.007 C 
ENDBRANCH   9  10
ENDBRANCH   6   9
ENDBRANCH   4   5
ENDBRANCH   3   4
ENDBRANCH   2   3
ENDBRANCH   1   2
BRANCH   1  12
HETATM   12  N2  UNL     1       2.272  -0.452 -22.281  1.00  0.00    -0.347 N 
HETATM   13  C10 UNL     1       2.238   0.001 -23.635  1.00  0.00     0.222 C 
HETATM   14  O1  UNL     1       1.207  -0.087 -24.296  1.00  0.00    -0.273 OA
ATOM     15  H2  UNL     1       3.147  -0.360 -21.764  1.00  0.00     0.163 HD
BRANCH  13  16
HETATM   16  C11 UNL     1       3.472   0.581 -24.260  1.00  0.00     0.079 C 
HETATM   17  C12 UNL     1       3.480   0.304 -25.737  1.00  0.00     0.014 C 
HETATM   18  C13 UNL     1       4.233  -0.990 -26.052  1.00  0.00     0.002 C 
HETATM   19  C14 UNL     1       5.683  -0.701 -25.711  1.00  0.00     0.015 C 
HETATM   20  C15 UNL     1       5.787  -0.523 -24.234  1.00  0.00     0.048 C 
HETATM   21  C21 UNL     1       4.669   0.125 -23.514  1.00  0.00     0.029 C 
BRANCH  20  22
HETATM   22  S2  UNL     1       7.399   0.198 -23.780  1.00  0.00    -0.155 SA
BRANCH  22  23
HETATM   23  C16 UNL     1       7.265   1.966 -23.384  1.00  0.00     0.178 C 
BRANCH  23  24
HETATM   24  C17 UNL     1       7.007   2.113 -21.919  1.00  0.00     0.242 C 
HETATM   25  O2  UNL     1       7.783   1.637 -21.087  1.00  0.00    -0.272 OA
HETATM   26  N3  UNL     1       5.861   2.804 -21.538  1.00  0.00    -0.245 N 
HETATM   27  C18 UNL     1       4.830   3.432 -22.369  1.00  0.00     0.145 C 
HETATM   28  S3  UNL     1       5.298   3.142 -19.940  1.00  0.00     0.235 S 
HETATM   29  C19 UNL     1       4.706   4.839 -21.776  1.00  0.00     0.038 C 
HETATM   30  C20 UNL     1       4.298   4.603 -20.327  1.00  0.00     0.165 C 
HETATM   31  O3  UNL     1       4.384   2.047 -19.499  1.00  0.00    -0.205 OA
HETATM   32  O4  UNL     1       6.368   3.471 -18.976  1.00  0.00    -0.205 OA
ENDBRANCH  23  24
ENDBRANCH  22  23
ENDBRANCH  20  22
ENDBRANCH  13  16
ENDBRANCH   1  12
BRANCH   1  33
HETATM   33  C22 UNL     1       1.489  -2.528 -21.568  1.00  0.00     0.247 C 
HETATM   34  O5  UNL     1       0.645  -3.286 -21.029  1.00  0.00    -0.271 OA
HETATM   35  N4  UNL     1       2.637  -2.992 -22.122  1.00  0.00    -0.305 N 
ATOM     36  H4  UNL     1       2.915  -2.407 -22.910  1.00  0.00     0.171 HD
BRANCH  35  37
HETATM   37  C23 UNL     1       3.470  -3.938 -21.951  1.00  0.00     0.150 A 
HETATM   38  N5  UNL     1       3.523  -5.004 -21.167  1.00  0.00    -0.346 N 
HETATM   39  C24 UNL     1       4.487  -5.860 -21.286  1.00  0.00     0.097 A 
ATOM     40  H5  UNL     1       2.800  -5.152 -20.463  1.00  0.00     0.167 HD
HETATM   41  C25 UNL     1       5.444  -5.627 -22.247  1.00  0.00     0.070 A 
HETATM   42  S4  UNL     1       4.912  -4.178 -22.940  1.00  0.00    -0.064 SA
ENDBRANCH  35  37
ENDBRANCH   1  33
TORSDOF 13
ENDMDL
MODEL 4
REMARK VINA RESULT: -8.491223055      2.527      3.114
REMARK  13 active torsions:
REMARK  status: ('A' for Active; 'I' for Inactive)
REMARK    1  A    between atoms: C2_2  and  C3_3 
REMARK    2  A    between atoms: C3_3  and  N1_4 
REMARK    3  A    between atoms: C6_7  and  C7_8 
REMARK    4  A    between atoms: C7_8  and  S1_9 
REMARK    5  A    between atoms: S1_9  and  C8_10 
REMARK    6  A    between atoms: C8_10  and  C9_11 
REMARK    7  A    between atoms: C9_11  and  N2_12 
REMARK    8  A    between atoms: C9_11  and  C22_33 
REMARK       I    between atoms: N2_12  and  C10_14 
REMARK    9  A    between atoms: C10_14  and  C11_16 
REMARK   10  A    between atoms: C15_20  and  S2_21 
REMARK   11  A    between atoms: S2_21  and  C16_22 
REMARK   12  A    between atoms: C16_22  and  C17_23 
REMARK       I    between atoms: C17_23  and  N3_25 
REMARK       I    between atoms: C22_33  and  N4_35 
REMARK   13  A    between atoms: N4_35  and  C23_37 
ROOT
HETATM    1  C9  UNL     1       1.078  -0.810 -21.591  1.00  0.00     0.186 C 
ENDROOT
BRANCH   1   2
HETATM    2  C8  UNL     1       0.781  -0.464 -20.199  1.00  0.00     0.108 C 
BRANCH   2   3
HETATM    3  S1  UNL     1       0.622   1.274 -19.883  1.00  0.00    -0.164 SA
BRANCH   3   4
HETATM    4  C7  UNL     1      -0.892   2.039 -19.551  1.00  0.00     0.109 C 
BRANCH   4   5
HETATM    5  C6  UNL     1      -1.454   2.086 -18.169  1.00  0.00     0.233 C 
HETATM    6  N1  UNL     1      -2.815   2.433 -17.960  1.00  0.00     0.093 N 
HETATM    7  C4  UNL     1      -3.163   1.037 -18.234  1.00  0.00     0.275 C 
HETATM    8  C5  UNL     1      -1.789   0.651 -17.733  1.00  0.00     0.067 C 
BRANCH   6   9
HETATM    9  C3  UNL     1      -3.498   3.356 -18.797  1.00  0.00     0.272 C 
BRANCH   9  10
HETATM   10  C2  UNL     1      -4.700   3.973 -18.085  1.00  0.00     0.026 C 
HETATM   11  C1  UNL     1      -4.595   3.934 -16.604  1.00  0.00     0.007 C 
ENDBRANCH   9  10
ENDBRANCH   6   9
ENDBRANCH   4   5
ENDBRANCH   3   4
ENDBRANCH   2   3
ENDBRANCH   1   2
BRANCH   1  12
HETATM   12  N2  UNL     1       2.184  -0.071 -22.191  1.00  0.00    -0.347 N 
HETATM   13  C10 UNL     1       2.179   0.413 -23.536  1.00  0.00     0.222 C 
HETATM   14  O1  UNL     1       1.209   0.222 -24.263  1.00  0.00    -0.273 OA
ATOM     15  H2  UNL     1       3.008   0.110 -21.618  1.00  0.00     0.163 HD
BRANCH  13  16
HETATM   16  C11 UNL     1       3.371   1.154 -24.068  1.00  0.00     0.079 C 
HETATM   17  C12 UNL     1       3.114   1.590 -25.482  1.00  0.00     0.014 C 
HETATM   18  C13 UNL     1       3.628   0.552 -26.482  1.00  0.00     0.002 C 
HETATM   19  C14 UNL     1       5.139   0.578 -26.343  1.00  0.00     0.015 C 
HETATM   20  C15 UNL     1       5.491   0.047 -24.994  1.00  0.00     0.048 C 
HETATM   21  C21 UNL     1       4.595   0.344 -23.855  1.00  0.00     0.029 C 
BRANCH  20  22
HETATM   22  S2  UNL     1       7.236   0.394 -24.596  1.00  0.00    -0.155 SA
BRANCH  22  23
HETATM   23  C16 UNL     1       7.433   1.034 -22.906  1.00  0.00     0.178 C 
BRANCH  23  24
HETATM   24  C17 UNL     1       6.946   2.447 -22.868  1.00  0.00     0.242 C 
HETATM   25  O2  UNL     1       7.213   3.235 -23.778  1.00  0.00    -0.272 OA
HETATM   26  N3  UNL     1       6.186   2.832 -21.768  1.00  0.00    -0.245 N 
HETATM   27  C18 UNL     1       5.772   2.049 -20.600  1.00  0.00     0.145 C 
HETATM   28  S3  UNL     1       5.483   4.375 -21.440  1.00  0.00     0.235 S 
HETATM   29  C19 UNL     1       4.266   2.311 -20.515  1.00  0.00     0.038 C 
HETATM   30  C20 UNL     1       4.155   3.820 -20.339  1.00  0.00     0.165 C 
HETATM   31  O3  UNL     1       6.445   5.195 -20.646  1.00  0.00    -0.205 OA
HETATM   32  O4  UNL     1       4.935   5.057 -22.632  1.00  0.00    -0.205 OA
ENDBRANCH  23  24
ENDBRANCH  22  23
ENDBRANCH  20  22
ENDBRANCH  13  16
ENDBRANCH   1  12
BRANCH   1  33
HETATM   33  C22 UNL     1       1.534  -2.265 -21.746  1.00  0.00     0.247 C 
HETATM   34  O5  UNL     1       0.735  -3.135 -21.324  1.00  0.00    -0.271 OA
HETATM   35  N4  UNL     1       2.716  -2.583 -22.331  1.00  0.00    -0.305 N 
ATOM     36  H4  UNL     1       2.966  -1.886 -23.034  1.00  0.00     0.171 HD
BRANCH  35  37
HETATM   37  C23 UNL     1       3.606  -3.489 -22.264  1.00  0.00     0.150 A 
HETATM   38  N5  UNL     1       3.694  -4.669 -21.667  1.00  0.00    -0.346 N 
HETATM   39  C24 UNL     1       4.723  -5.428 -21.862  1.00  0.00     0.097 A 
ATOM     40  H5  UNL     1       2.944  -4.980 -21.050  1.00  0.00     0.167 HD
HETATM   41  C25 UNL     1       5.713  -4.974 -22.703  1.00  0.00     0.070 A 
HETATM   42  S4  UNL     1       5.116  -3.464 -23.178  1.00  0.00    -0.064 SA
ENDBRANCH  35  37
ENDBRANCH   1  33
TORSDOF 13
ENDMDL
MODEL 5
REMARK VINA RESULT: -8.434621493      2.334      2.692
REMARK  13 active torsions:
REMARK  status: ('A' for Active; 'I' for Inactive)
REMARK    1  A    between atoms: C2_2  and  C3_3 
REMARK    2  A    between atoms: C3_3  and  N1_4 
REMARK    3  A    between atoms: C6_7  and  C7_8 
REMARK    4  A    between atoms: C7_8  and  S1_9 
REMARK    5  A    between atoms: S1_9  and  C8_10 
REMARK    6  A    between atoms: C8_10  and  C9_11 
REMARK    7  A    between atoms: C9_11  and  N2_12 
REMARK    8  A    between atoms: C9_11  and  C22_33 
REMARK       I    between atoms: N2_12  and  C10_14 
REMARK    9  A    between atoms: C10_14  and  C11_16 
REMARK   10  A    between atoms: C15_20  and  S2_21 
REMARK   11  A    between atoms: S2_21  and  C16_22 
REMARK   12  A    between atoms: C16_22  and  C17_23 
REMARK       I    between atoms: C17_23  and  N3_25 
REMARK       I    between atoms: C22_33  and  N4_35 
REMARK   13  A    between atoms: N4_35  and  C23_37 
ROOT
HETATM    1  C9  UNL     1       2.292  -1.639 -23.303  1.00  0.00     0.186 C 
ENDROOT
BRANCH   1   2
HETATM    2  C8  UNL     1       2.122  -1.251 -21.902  1.00  0.00     0.108 C 
BRANCH   2   3
HETATM    3  S1  UNL     1       1.123   0.192 -21.647  1.00  0.00    -0.164 SA
BRANCH   3   4
HETATM    4  C7  UNL     1       0.287   0.514 -20.168  1.00  0.00     0.109 C 
BRANCH   4   5
HETATM    5  C6  UNL     1      -0.666   1.656 -20.045  1.00  0.00     0.233 C 
HETATM    6  N1  UNL     1      -1.683   1.637 -19.054  1.00  0.00     0.093 N 
HETATM    7  C4  UNL     1      -0.696   2.142 -18.099  1.00  0.00     0.275 C 
HETATM    8  C5  UNL     1       0.026   2.783 -19.264  1.00  0.00     0.067 C 
BRANCH   6   9
HETATM    9  C3  UNL     1      -2.307   0.431 -18.633  1.00  0.00     0.272 C 
BRANCH   9  10
HETATM   10  C2  UNL     1      -3.829   0.528 -18.722  1.00  0.00     0.026 C 
HETATM   11  C1  UNL     1      -4.362   1.859 -18.333  1.00  0.00     0.007 C 
ENDBRANCH   9  10
ENDBRANCH   6   9
ENDBRANCH   4   5
ENDBRANCH   3   4
ENDBRANCH   2   3
ENDBRANCH   1   2
BRANCH   1  12
HETATM   12  N2  UNL     1       3.192  -0.790 -24.078  1.00  0.00    -0.347 N 
HETATM   13  C10 UNL     1       3.083  -0.598 -25.490  1.00  0.00     0.222 C 
HETATM   14  O1  UNL     1       2.197  -1.158 -26.128  1.00  0.00    -0.273 OA
ATOM     15  H2  UNL     1       3.941  -0.306 -23.583  1.00  0.00     0.163 HD
BRANCH  13  16
HETATM   16  C11 UNL     1       4.064   0.287 -26.201  1.00  0.00     0.079 C 
HETATM   17  C12 UNL     1       5.005  -0.547 -27.023  1.00  0.00     0.014 C 
HETATM   18  C13 UNL     1       6.271  -0.891 -26.234  1.00  0.00     0.002 C 
HETATM   19  C14 UNL     1       6.995   0.430 -26.047  1.00  0.00     0.015 C 
HETATM   20  C15 UNL     1       6.175   1.285 -25.141  1.00  0.00     0.048 C 
HETATM   21  C21 UNL     1       4.701   1.207 -25.228  1.00  0.00     0.029 C 
BRANCH  20  22
HETATM   22  S2  UNL     1       6.769   3.009 -25.165  1.00  0.00    -0.155 SA
BRANCH  22  23
HETATM   23  C16 UNL     1       5.731   4.099 -24.147  1.00  0.00     0.178 C 
BRANCH  23  24
HETATM   24  C17 UNL     1       6.167   3.983 -22.722  1.00  0.00     0.242 C 
HETATM   25  O2  UNL     1       7.231   4.478 -22.342  1.00  0.00    -0.272 OA
HETATM   26  N3  UNL     1       5.327   3.299 -21.849  1.00  0.00    -0.245 N 
HETATM   27  C18 UNL     1       4.040   2.649 -22.111  1.00  0.00     0.145 C 
HETATM   28  S3  UNL     1       5.547   3.005 -20.162  1.00  0.00     0.235 S 
HETATM   29  C19 UNL     1       3.132   3.207 -21.011  1.00  0.00     0.038 C 
HETATM   30  C20 UNL     1       3.806   2.781 -19.713  1.00  0.00     0.165 C 
HETATM   31  O3  UNL     1       6.255   1.704 -19.976  1.00  0.00    -0.205 OA
HETATM   32  O4  UNL     1       6.144   4.137 -19.422  1.00  0.00    -0.205 OA
ENDBRANCH  23  24
ENDBRANCH  22  23
ENDBRANCH  20  22
ENDBRANCH  13  16
ENDBRANCH   1  12
BRANCH   1  33
HETATM   33  C22 UNL     1       2.939  -3.021 -23.451  1.00  0.00     0.247 C 
HETATM   34  O5  UNL     1       2.196  -3.925 -23.905  1.00  0.00    -0.271 OA
HETATM   35  N4  UNL     1       4.240  -3.236 -23.136  1.00  0.00    -0.305 N 
ATOM     36  H4  UNL     1       4.790  -2.390 -23.291  1.00  0.00     0.171 HD
BRANCH  35  37
HETATM   37  C23 UNL     1       4.980  -4.177 -22.705  1.00  0.00     0.150 A 
HETATM   38  N5  UNL     1       4.757  -5.365 -22.164  1.00  0.00    -0.346 N 
HETATM   39  C24 UNL     1       5.742  -6.162 -21.900  1.00  0.00     0.097 A 
ATOM     40  H5  UNL     1       3.802  -5.654 -21.953  1.00  0.00     0.167 HD
HETATM   41  C25 UNL     1       7.016  -5.737 -22.200  1.00  0.00     0.070 A 
HETATM   42  S4  UNL     1       6.739  -4.200 -22.850  1.00  0.00    -0.064 SA
ENDBRANCH  35  37
ENDBRANCH   1  33
TORSDOF 13
ENDMDL
