MODEL 1
REMARK VINA RESULT: -5.413669782      0.000      0.000
REMARK  9 active torsions:
REMARK  status: ('A' for Active; 'I' for Inactive)
REMARK    1  A    between atoms: C1_2  and  C2_4 
REMARK    2  A    between atoms: C2_4  and  C3_5 
REMARK    3  A    between atoms: C2_4  and  N3_13 
REMARK    4  A    between atoms: C3_5  and  C4_6 
REMARK    5  A    between atoms: C4_6  and  N1_7 
REMARK    6  A    between atoms: N3_13  and  C8_15 
REMARK    7  A    between atoms: C8_15  and  C9_16 
REMARK    8  A    between atoms: C9_16  and  O3_17 
REMARK    9  A    between atoms: C9_16  and  C10_19 
ROOT
HETATM    1  N3  UNL     1     -58.937  -3.714   0.830  1.00  0.00    -0.405 N 
ATOM      2  H3  UNL     1     -59.775  -4.274   0.669  1.00  0.00     0.154 HD
ENDROOT
BRANCH   1   3
HETATM    3  C2  UNL     1     -58.952  -2.305   0.534  1.00  0.00     0.180 C 
BRANCH   3   4
HETATM    4  C1  UNL     1     -59.983  -1.665   1.329  1.00  0.00     0.196 C 
HETATM    5  O1  UNL     1     -60.853  -0.899   0.799  1.00  0.00    -0.646 OA
HETATM    6  O2  UNL     1     -60.094  -1.825   2.679  1.00  0.00    -0.646 OA
ENDBRANCH   3   4
BRANCH   3   7
HETATM    7  C3  UNL     1     -57.612  -1.691   0.689  1.00  0.00     0.056 C 
BRANCH   7   8
HETATM    8  C4  UNL     1     -57.536  -0.302   0.151  1.00  0.00     0.131 C 
BRANCH   8   9
HETATM    9  N1  UNL     1     -57.043   0.620   1.189  1.00  0.00    -0.352 N 
HETATM   10  C5  UNL     1     -57.366   0.582   2.488  1.00  0.00     0.108 A 
HETATM   11  C6  UNL     1     -56.711   1.606   3.155  1.00  0.00     0.106 A 
HETATM   12  N2  UNL     1     -55.989   2.254   2.225  1.00  0.00    -0.361 N 
HETATM   13  C7  UNL     1     -56.204   1.639   1.030  1.00  0.00     0.182 A 
ATOM     14  H2  UNL     1     -55.388   3.062   2.386  1.00  0.00     0.166 HD
ENDBRANCH   8   9
ENDBRANCH   7   8
ENDBRANCH   3   7
ENDBRANCH   1   3
BRANCH   1  15
HETATM   15  C8  UNL     1     -57.792  -4.317   1.333  1.00  0.00     0.152 C 
BRANCH  15  16
HETATM   16  C9  UNL     1     -58.168  -4.864   2.733  1.00  0.00     0.186 C 
BRANCH  16  17
HETATM   17  O3  UNL     1     -57.910  -6.231   2.667  1.00  0.00    -0.388 OA
ATOM     18  H3  UNL     1     -56.985  -6.316   2.867  1.00  0.00     0.210 HD
ENDBRANCH  16  17
BRANCH  16  19
HETATM   19  C10 UNL     1     -57.368  -4.180   3.772  1.00  0.00     0.056 A 
HETATM   20  C11 UNL     1     -56.734  -2.957   3.717  1.00  0.00     0.116 A 
HETATM   21  N4  UNL     1     -56.114  -2.718   4.894  1.00  0.00    -0.360 N 
HETATM   22  C12 UNL     1     -56.355  -3.774   5.674  1.00  0.00     0.180 A 
ATOM     23  H4  UNL     1     -55.569  -1.892   5.139  1.00  0.00     0.166 HD
HETATM   24  N5  UNL     1     -57.104  -4.648   5.007  1.00  0.00    -0.352 N 
ATOM     25  H5  UNL     1     -57.430  -5.541   5.377  1.00  0.00     0.166 HD
ENDBRANCH  16  19
ENDBRANCH  15  16
ENDBRANCH   1  15
TORSDOF 9
ENDMDL
MODEL 2
REMARK VINA RESULT: -5.325982954      3.027      4.368
REMARK  9 active torsions:
REMARK  status: ('A' for Active; 'I' for Inactive)
REMARK    1  A    between atoms: C1_2  and  C2_4 
REMARK    2  A    between atoms: C2_4  and  C3_5 
REMARK    3  A    between atoms: C2_4  and  N3_13 
REMARK    4  A    between atoms: C3_5  and  C4_6 
REMARK    5  A    between atoms: C4_6  and  N1_7 
REMARK    6  A    between atoms: N3_13  and  C8_15 
REMARK    7  A    between atoms: C8_15  and  C9_16 
REMARK    8  A    between atoms: C9_16  and  O3_17 
REMARK    9  A    between atoms: C9_16  and  C10_19 
ROOT
HETATM    1  N3  UNL     1     -58.921  -3.341   1.809  1.00  0.00    -0.405 N 
ATOM      2  H3  UNL     1     -59.555  -4.038   1.418  1.00  0.00     0.154 HD
ENDROOT
BRANCH   1   3
HETATM    3  C2  UNL     1     -57.729  -2.976   1.088  1.00  0.00     0.180 C 
BRANCH   3   4
HETATM    4  C1  UNL     1     -56.673  -3.917   1.412  1.00  0.00     0.196 C 
HETATM    5  O1  UNL     1     -55.476  -3.530   1.616  1.00  0.00    -0.646 OA
HETATM    6  O2  UNL     1     -56.876  -5.262   1.513  1.00  0.00    -0.646 OA
ENDBRANCH   3   4
BRANCH   3   7
HETATM    7  C3  UNL     1     -57.980  -2.839  -0.367  1.00  0.00     0.056 C 
BRANCH   7   8
HETATM    8  C4  UNL     1     -58.949  -1.754  -0.696  1.00  0.00     0.131 C 
BRANCH   8   9
HETATM    9  N1  UNL     1     -60.196  -2.331  -1.227  1.00  0.00    -0.352 N 
HETATM   10  C5  UNL     1     -60.284  -3.371  -2.066  1.00  0.00     0.108 A 
HETATM   11  C6  UNL     1     -61.618  -3.625  -2.345  1.00  0.00     0.106 A 
HETATM   12  N2  UNL     1     -62.323  -2.714  -1.655  1.00  0.00    -0.361 N 
HETATM   13  C7  UNL     1     -61.440  -1.931  -0.978  1.00  0.00     0.182 A 
ATOM     14  H2  UNL     1     -63.339  -2.625  -1.641  1.00  0.00     0.166 HD
ENDBRANCH   8   9
ENDBRANCH   7   8
ENDBRANCH   3   7
ENDBRANCH   1   3
BRANCH   1  15
HETATM   15  C8  UNL     1     -59.214  -2.752   3.031  1.00  0.00     0.152 C 
BRANCH  15  16
HETATM   16  C9  UNL     1     -59.020  -3.854   4.103  1.00  0.00     0.186 C 
BRANCH  16  17
HETATM   17  O3  UNL     1     -59.358  -5.043   3.460  1.00  0.00    -0.388 OA
ATOM     18  H3  UNL     1     -59.535  -4.793   2.561  1.00  0.00     0.210 HD
ENDBRANCH  16  17
BRANCH  16  19
HETATM   19  C10 UNL     1     -57.624  -3.843   4.590  1.00  0.00     0.056 A 
HETATM   20  C11 UNL     1     -56.826  -2.767   4.917  1.00  0.00     0.116 A 
HETATM   21  N4  UNL     1     -55.614  -3.213   5.318  1.00  0.00    -0.360 N 
HETATM   22  C12 UNL     1     -55.652  -4.544   5.243  1.00  0.00     0.180 A 
ATOM     23  H4  UNL     1     -54.825  -2.642   5.620  1.00  0.00     0.166 HD
HETATM   24  N5  UNL     1     -56.851  -4.924   4.809  1.00  0.00    -0.352 N 
ATOM     25  H5  UNL     1     -57.141  -5.890   4.663  1.00  0.00     0.166 HD
ENDBRANCH  16  19
ENDBRANCH  15  16
ENDBRANCH   1  15
TORSDOF 9
ENDMDL
MODEL 3
REMARK VINA RESULT: -5.211972162      0.723      1.046
REMARK  9 active torsions:
REMARK  status: ('A' for Active; 'I' for Inactive)
REMARK    1  A    between atoms: C1_2  and  C2_4 
REMARK    2  A    between atoms: C2_4  and  C3_5 
REMARK    3  A    between atoms: C2_4  and  N3_13 
REMARK    4  A    between atoms: C3_5  and  C4_6 
REMARK    5  A    between atoms: C4_6  and  N1_7 
REMARK    6  A    between atoms: N3_13  and  C8_15 
REMARK    7  A    between atoms: C8_15  and  C9_16 
REMARK    8  A    between atoms: C9_16  and  O3_17 
REMARK    9  A    between atoms: C9_16  and  C10_19 
ROOT
HETATM    1  N3  UNL     1     -59.009  -3.677   0.883  1.00  0.00    -0.405 N 
ATOM      2  H3  UNL     1     -59.881  -4.200   0.806  1.00  0.00     0.154 HD
ENDROOT
BRANCH   1   3
HETATM    3  C2  UNL     1     -58.984  -2.277   0.547  1.00  0.00     0.180 C 
BRANCH   3   4
HETATM    4  C1  UNL     1     -59.896  -1.564   1.422  1.00  0.00     0.196 C 
HETATM    5  O1  UNL     1     -60.047  -1.900   2.642  1.00  0.00    -0.646 OA
HETATM    6  O2  UNL     1     -60.651  -0.505   1.012  1.00  0.00    -0.646 OA
ENDBRANCH   3   4
BRANCH   3   7
HETATM    7  C3  UNL     1     -57.606  -1.730   0.549  1.00  0.00     0.056 C 
BRANCH   7   8
HETATM    8  C4  UNL     1     -57.404  -0.643  -0.451  1.00  0.00     0.131 C 
BRANCH   8   9
HETATM    9  N1  UNL     1     -56.700   0.494   0.169  1.00  0.00    -0.352 N 
HETATM   10  C5  UNL     1     -56.974   1.026   1.367  1.00  0.00     0.108 A 
HETATM   11  C6  UNL     1     -56.106   2.079   1.611  1.00  0.00     0.106 A 
HETATM   12  N2  UNL     1     -55.309   2.163   0.533  1.00  0.00    -0.361 N 
HETATM   13  C7  UNL     1     -55.686   1.188  -0.339  1.00  0.00     0.182 A 
ATOM     14  H2  UNL     1     -54.557   2.837   0.392  1.00  0.00     0.166 HD
ENDBRANCH   8   9
ENDBRANCH   7   8
ENDBRANCH   3   7
ENDBRANCH   1   3
BRANCH   1  15
HETATM   15  C8  UNL     1     -57.855  -4.321   1.309  1.00  0.00     0.152 C 
BRANCH  15  16
HETATM   16  C9  UNL     1     -58.176  -4.904   2.709  1.00  0.00     0.186 C 
BRANCH  16  17
HETATM   17  O3  UNL     1     -57.874  -6.261   2.611  1.00  0.00    -0.388 OA
ATOM     18  H3  UNL     1     -57.486  -6.486   3.448  1.00  0.00     0.210 HD
ENDBRANCH  16  17
BRANCH  16  19
HETATM   19  C10 UNL     1     -57.373  -4.212   3.740  1.00  0.00     0.056 A 
HETATM   20  C11 UNL     1     -56.757  -2.979   3.679  1.00  0.00     0.116 A 
HETATM   21  N4  UNL     1     -56.125  -2.735   4.849  1.00  0.00    -0.360 N 
HETATM   22  C12 UNL     1     -56.340  -3.797   5.629  1.00  0.00     0.180 A 
ATOM     23  H4  UNL     1     -55.589  -1.902   5.089  1.00  0.00     0.166 HD
HETATM   24  N5  UNL     1     -57.085  -4.680   4.969  1.00  0.00    -0.352 N 
ATOM     25  H5  UNL     1     -57.392  -5.579   5.340  1.00  0.00     0.166 HD
ENDBRANCH  16  19
ENDBRANCH  15  16
ENDBRANCH   1  15
TORSDOF 9
ENDMDL
MODEL 4
REMARK VINA RESULT: -5.194126957      1.483      2.042
REMARK  9 active torsions:
REMARK  status: ('A' for Active; 'I' for Inactive)
REMARK    1  A    between atoms: C1_2  and  C2_4 
REMARK    2  A    between atoms: C2_4  and  C3_5 
REMARK    3  A    between atoms: C2_4  and  N3_13 
REMARK    4  A    between atoms: C3_5  and  C4_6 
REMARK    5  A    between atoms: C4_6  and  N1_7 
REMARK    6  A    between atoms: N3_13  and  C8_15 
REMARK    7  A    between atoms: C8_15  and  C9_16 
REMARK    8  A    between atoms: C9_16  and  O3_17 
REMARK    9  A    between atoms: C9_16  and  C10_19 
ROOT
HETATM    1  N3  UNL     1     -58.086  -2.227   0.674  1.00  0.00    -0.405 N 
ATOM      2  H3  UNL     1     -58.656  -2.637  -0.066  1.00  0.00     0.154 HD
ENDROOT
BRANCH   1   3
HETATM    3  C2  UNL     1     -58.443  -0.945   1.224  1.00  0.00     0.180 C 
BRANCH   3   4
HETATM    4  C1  UNL     1     -59.795  -1.014   1.746  1.00  0.00     0.196 C 
HETATM    5  O1  UNL     1     -60.096  -1.786   2.714  1.00  0.00    -0.646 OA
HETATM    6  O2  UNL     1     -60.828  -0.278   1.244  1.00  0.00    -0.646 OA
ENDBRANCH   3   4
BRANCH   3   7
HETATM    7  C3  UNL     1     -57.446  -0.468   2.212  1.00  0.00     0.056 C 
BRANCH   7   8
HETATM    8  C4  UNL     1     -57.019   0.942   1.981  1.00  0.00     0.131 C 
BRANCH   8   9
HETATM    9  N1  UNL     1     -57.442   1.792   3.108  1.00  0.00    -0.352 N 
HETATM   10  C5  UNL     1     -58.685   2.241   3.327  1.00  0.00     0.108 A 
HETATM   11  C6  UNL     1     -58.698   3.011   4.480  1.00  0.00     0.106 A 
HETATM   12  N2  UNL     1     -57.437   3.011   4.943  1.00  0.00    -0.361 N 
HETATM   13  C7  UNL     1     -56.683   2.263   4.093  1.00  0.00     0.182 A 
ATOM     14  H2  UNL     1     -57.105   3.487   5.782  1.00  0.00     0.166 HD
ENDBRANCH   8   9
ENDBRANCH   7   8
ENDBRANCH   3   7
ENDBRANCH   1   3
BRANCH   1  15
HETATM   15  C8  UNL     1     -56.971  -2.910   1.141  1.00  0.00     0.152 C 
BRANCH  15  16
HETATM   16  C9  UNL     1     -57.509  -4.099   1.977  1.00  0.00     0.186 C 
BRANCH  16  17
HETATM   17  O3  UNL     1     -56.993  -5.235   1.357  1.00  0.00    -0.388 OA
ATOM     18  H3  UNL     1     -56.882  -5.867   2.057  1.00  0.00     0.210 HD
ENDBRANCH  16  17
BRANCH  16  19
HETATM   19  C10 UNL     1     -57.072  -3.966   3.383  1.00  0.00     0.056 A 
HETATM   20  C11 UNL     1     -57.669  -4.451   4.528  1.00  0.00     0.116 A 
HETATM   21  N4  UNL     1     -56.931  -4.096   5.604  1.00  0.00    -0.360 N 
HETATM   22  C12 UNL     1     -55.891  -3.400   5.141  1.00  0.00     0.180 A 
ATOM     23  H4  UNL     1     -57.130  -4.317   6.579  1.00  0.00     0.166 HD
HETATM   24  N5  UNL     1     -55.972  -3.321   3.815  1.00  0.00    -0.352 N 
ATOM     25  H5  UNL     1     -55.301  -2.842   3.215  1.00  0.00     0.166 HD
ENDBRANCH  16  19
ENDBRANCH  15  16
ENDBRANCH   1  15
TORSDOF 9
ENDMDL
MODEL 5
REMARK VINA RESULT: -5.168619202      0.921      1.170
REMARK  9 active torsions:
REMARK  status: ('A' for Active; 'I' for Inactive)
REMARK    1  A    between atoms: C1_2  and  C2_4 
REMARK    2  A    between atoms: C2_4  and  C3_5 
REMARK    3  A    between atoms: C2_4  and  N3_13 
REMARK    4  A    between atoms: C3_5  and  C4_6 
REMARK    5  A    between atoms: C4_6  and  N1_7 
REMARK    6  A    between atoms: N3_13  and  C8_15 
REMARK    7  A    between atoms: C8_15  and  C9_16 
REMARK    8  A    between atoms: C9_16  and  O3_17 
REMARK    9  A    between atoms: C9_16  and  C10_19 
ROOT
HETATM    1  N3  UNL     1     -58.988  -4.037   0.638  1.00  0.00    -0.405 N 
ATOM      2  H3  UNL     1     -59.865  -4.514   0.427  1.00  0.00     0.154 HD
ENDROOT
BRANCH   1   3
HETATM    3  C2  UNL     1     -58.687  -2.782  -0.002  1.00  0.00     0.180 C 
BRANCH   3   4
HETATM    4  C1  UNL     1     -59.800  -1.872   0.192  1.00  0.00     0.196 C 
HETATM    5  O1  UNL     1     -60.407  -1.342  -0.795  1.00  0.00    -0.646 OA
HETATM    6  O2  UNL     1     -60.269  -1.516   1.423  1.00  0.00    -0.646 OA
ENDBRANCH   3   4
BRANCH   3   7
HETATM    7  C3  UNL     1     -57.383  -2.232   0.441  1.00  0.00     0.056 C 
BRANCH   7   8
HETATM    8  C4  UNL     1     -57.081  -0.894  -0.144  1.00  0.00     0.131 C 
BRANCH   8   9
HETATM    9  N1  UNL     1     -56.885   0.097   0.929  1.00  0.00    -0.352 N 
HETATM   10  C5  UNL     1     -56.372   1.324   0.778  1.00  0.00     0.108 A 
HETATM   11  C6  UNL     1     -56.341   1.964   2.008  1.00  0.00     0.106 A 
HETATM   12  N2  UNL     1     -56.847   1.091   2.895  1.00  0.00    -0.361 N 
HETATM   13  C7  UNL     1     -57.174  -0.044   2.219  1.00  0.00     0.182 A 
ATOM     14  H2  UNL     1     -56.966   1.251   3.895  1.00  0.00     0.166 HD
ENDBRANCH   8   9
ENDBRANCH   7   8
ENDBRANCH   3   7
ENDBRANCH   1   3
BRANCH   1  15
HETATM   15  C8  UNL     1     -58.095  -4.602   1.538  1.00  0.00     0.152 C 
BRANCH  15  16
HETATM   16  C9  UNL     1     -58.645  -4.285   2.952  1.00  0.00     0.186 C 
BRANCH  16  17
HETATM   17  O3  UNL     1     -59.336  -5.433   3.334  1.00  0.00    -0.388 OA
ATOM     18  H3  UNL     1     -59.486  -5.329   4.266  1.00  0.00     0.210 HD
ENDBRANCH  16  17
BRANCH  16  19
HETATM   19  C10 UNL     1     -57.530  -3.957   3.865  1.00  0.00     0.056 A 
HETATM   20  C11 UNL     1     -56.308  -3.386   3.575  1.00  0.00     0.116 A 
HETATM   21  N4  UNL     1     -55.587  -3.266   4.713  1.00  0.00    -0.360 N 
HETATM   22  C12 UNL     1     -56.343  -3.753   5.698  1.00  0.00     0.180 A 
ATOM     23  H4  UNL     1     -54.648  -2.877   4.800  1.00  0.00     0.166 HD
HETATM   24  N5  UNL     1     -57.504  -4.166   5.195  1.00  0.00    -0.352 N 
ATOM     25  H5  UNL     1     -58.262  -4.581   5.737  1.00  0.00     0.166 HD
ENDBRANCH  16  19
ENDBRANCH  15  16
ENDBRANCH   1  15
TORSDOF 9
ENDMDL
