MODEL 1
REMARK VINA RESULT: -6.214804062      0.000      0.000
REMARK  8 active torsions:
REMARK  status: ('A' for Active; 'I' for Inactive)
REMARK    1  A    between atoms: N1_1  and  C1_5 
REMARK    2  A    between atoms: C1_5  and  C2_6 
REMARK    3  A    between atoms: C2_6  and  C3_7 
REMARK    4  A    between atoms: C3_7  and  N2_8 
REMARK    5  A    between atoms: C3_7  and  C12_22 
REMARK    6  A    between atoms: C4_10  and  C5_11 
REMARK    7  A    between atoms: C5_11  and  C6_12 
REMARK    8  A    between atoms: C11_18  and  N4_19 
ROOT
HETATM    1  N2  UNL     1     -57.224  -3.567   1.832  1.00  0.00    -0.388 N 
ATOM      2  H2  UNL     1     -57.095  -4.474   1.383  1.00  0.00     0.159 HD
HETATM    3  C4  UNL     1     -56.618  -2.571   1.149  1.00  0.00     0.061 C 
ENDROOT
BRANCH   1   4
HETATM    4  C3  UNL     1     -57.967  -3.661   2.977  1.00  0.00     0.183 C 
BRANCH   4   5
HETATM    5  C2  UNL     1     -57.332  -3.103   4.200  1.00  0.00     0.063 C 
BRANCH   5   6
HETATM    6  C1  UNL     1     -56.038  -3.626   4.692  1.00  0.00     0.232 C 
BRANCH   6   7
HETATM    7  N1  UNL     1     -56.125  -4.080   6.046  1.00  0.00    -0.079 N 
ATOM      8  H13 UNL     1     -57.074  -4.373   6.279  1.00  0.00     0.274 HD
ATOM      9  H12 UNL     1     -55.647  -4.973   6.168  1.00  0.00     0.274 HD
ATOM     10  H11 UNL     1     -55.780  -3.383   6.705  1.00  0.00     0.274 HD
ENDBRANCH   6   7
ENDBRANCH   5   6
ENDBRANCH   4   5
BRANCH   4  11
HETATM   11  C12 UNL     1     -58.304  -5.094   3.337  1.00  0.00     0.196 C 
HETATM   12  O3  UNL     1     -59.099  -5.284   4.251  1.00  0.00    -0.646 OA
HETATM   13  O4  UNL     1     -57.720  -6.102   2.641  1.00  0.00    -0.646 OA
ENDBRANCH   4  11
ENDBRANCH   1   4
BRANCH   3  14
HETATM   14  C5  UNL     1     -57.500  -1.618   0.352  1.00  0.00     0.085 C 
BRANCH  14  15
HETATM   15  C6  UNL     1     -57.673  -0.379   1.166  1.00  0.00    -0.020 A 
HETATM   16  C7  UNL     1     -56.551   0.459   1.348  1.00  0.00     0.012 A 
HETATM   17  C8  UNL     1     -56.592   1.567   2.146  1.00  0.00     0.027 A 
HETATM   18  C9  UNL     1     -57.736   1.930   2.823  1.00  0.00     0.048 A 
HETATM   19  N3  UNL     1     -57.800   3.083   3.665  1.00  0.00    -0.102 NA
HETATM   20  C10 UNL     1     -58.819   1.117   2.643  1.00  0.00     0.063 A 
HETATM   21  C11 UNL     1     -58.811  -0.029   1.828  1.00  0.00     0.111 A 
BRANCH  21  22
HETATM   22  N4  UNL     1     -60.021  -0.773   1.705  1.00  0.00    -0.115 N 
HETATM   23  O1  UNL     1     -60.763  -0.565   0.750  1.00  0.00    -0.532 OA
HETATM   24  O2  UNL     1     -60.391  -1.669   2.666  1.00  0.00    -0.532 OA
ENDBRANCH  21  22
ENDBRANCH  14  15
ENDBRANCH   3  14
TORSDOF 8
ENDMDL
MODEL 2
REMARK VINA RESULT: -6.064815220      2.377      2.742
REMARK  8 active torsions:
REMARK  status: ('A' for Active; 'I' for Inactive)
REMARK    1  A    between atoms: N1_1  and  C1_5 
REMARK    2  A    between atoms: C1_5  and  C2_6 
REMARK    3  A    between atoms: C2_6  and  C3_7 
REMARK    4  A    between atoms: C3_7  and  N2_8 
REMARK    5  A    between atoms: C3_7  and  C12_22 
REMARK    6  A    between atoms: C4_10  and  C5_11 
REMARK    7  A    between atoms: C5_11  and  C6_12 
REMARK    8  A    between atoms: C11_18  and  N4_19 
ROOT
HETATM    1  N2  UNL     1     -57.074  -3.588   1.841  1.00  0.00    -0.388 N 
ATOM      2  H2  UNL     1     -57.013  -4.479   1.349  1.00  0.00     0.159 HD
HETATM    3  C4  UNL     1     -56.331  -2.629   1.248  1.00  0.00     0.061 C 
ENDROOT
BRANCH   1   4
HETATM    4  C3  UNL     1     -57.890  -3.660   2.937  1.00  0.00     0.183 C 
BRANCH   4   5
HETATM    5  C2  UNL     1     -57.315  -3.124   4.199  1.00  0.00     0.063 C 
BRANCH   5   6
HETATM    6  C1  UNL     1     -56.043  -3.652   4.741  1.00  0.00     0.232 C 
BRANCH   6   7
HETATM    7  N1  UNL     1     -56.167  -4.046   6.110  1.00  0.00    -0.079 N 
ATOM      8  H13 UNL     1     -57.114  -4.365   6.319  1.00  0.00     0.274 HD
ATOM      9  H12 UNL     1     -55.661  -4.913   6.292  1.00  0.00     0.274 HD
ATOM     10  H11 UNL     1     -55.876  -3.307   6.748  1.00  0.00     0.274 HD
ENDBRANCH   6   7
ENDBRANCH   5   6
ENDBRANCH   4   5
BRANCH   4  11
HETATM   11  C12 UNL     1     -58.292  -5.083   3.270  1.00  0.00     0.196 C 
HETATM   12  O3  UNL     1     -59.121  -5.251   4.159  1.00  0.00    -0.646 OA
HETATM   13  O4  UNL     1     -57.728  -6.106   2.580  1.00  0.00    -0.646 OA
ENDBRANCH   4  11
ENDBRANCH   1   4
BRANCH   3  14
HETATM   14  C5  UNL     1     -57.062  -1.548   0.459  1.00  0.00     0.085 C 
BRANCH  14  15
HETATM   15  C6  UNL     1     -56.716  -0.233   1.073  1.00  0.00    -0.020 A 
HETATM   16  C7  UNL     1     -57.167   0.028   2.385  1.00  0.00     0.012 A 
HETATM   17  C8  UNL     1     -56.972   1.235   2.996  1.00  0.00     0.027 A 
HETATM   18  C9  UNL     1     -56.320   2.270   2.361  1.00  0.00     0.048 A 
HETATM   19  N3  UNL     1     -56.108   3.540   2.981  1.00  0.00    -0.102 NA
HETATM   20  C10 UNL     1     -55.884   2.012   1.093  1.00  0.00     0.063 A 
HETATM   21  C11 UNL     1     -56.068   0.782   0.437  1.00  0.00     0.111 A 
BRANCH  21  22
HETATM   22  N4  UNL     1     -55.534   0.638  -0.878  1.00  0.00    -0.115 N 
HETATM   23  O1  UNL     1     -54.355   0.330  -1.021  1.00  0.00    -0.532 OA
HETATM   24  O2  UNL     1     -56.304   0.894  -1.976  1.00  0.00    -0.532 OA
ENDBRANCH  21  22
ENDBRANCH  14  15
ENDBRANCH   3  14
TORSDOF 8
ENDMDL
MODEL 3
REMARK VINA RESULT: -6.062998584      0.817      1.344
REMARK  8 active torsions:
REMARK  status: ('A' for Active; 'I' for Inactive)
REMARK    1  A    between atoms: N1_1  and  C1_5 
REMARK    2  A    between atoms: C1_5  and  C2_6 
REMARK    3  A    between atoms: C2_6  and  C3_7 
REMARK    4  A    between atoms: C3_7  and  N2_8 
REMARK    5  A    between atoms: C3_7  and  C12_22 
REMARK    6  A    between atoms: C4_10  and  C5_11 
REMARK    7  A    between atoms: C5_11  and  C6_12 
REMARK    8  A    between atoms: C11_18  and  N4_19 
ROOT
HETATM    1  N2  UNL     1     -56.988  -3.673   1.799  1.00  0.00    -0.388 N 
ATOM      2  H2  UNL     1     -56.841  -4.616   1.440  1.00  0.00     0.159 HD
HETATM    3  C4  UNL     1     -56.311  -2.746   1.086  1.00  0.00     0.061 C 
ENDROOT
BRANCH   1   4
HETATM    4  C3  UNL     1     -57.822  -3.658   2.883  1.00  0.00     0.183 C 
BRANCH   4   5
HETATM    5  C2  UNL     1     -57.277  -3.006   4.103  1.00  0.00     0.063 C 
BRANCH   5   6
HETATM    6  C1  UNL     1     -56.011  -3.469   4.713  1.00  0.00     0.232 C 
BRANCH   6   7
HETATM    7  N1  UNL     1     -56.221  -4.062   5.997  1.00  0.00    -0.079 N 
ATOM      8  H13 UNL     1     -56.069  -5.071   5.968  1.00  0.00     0.274 HD
ATOM      9  H12 UNL     1     -55.480  -3.805   6.649  1.00  0.00     0.274 HD
ATOM     10  H11 UNL     1     -57.141  -3.837   6.376  1.00  0.00     0.274 HD
ENDBRANCH   6   7
ENDBRANCH   5   6
ENDBRANCH   4   5
BRANCH   4  11
HETATM   11  C12 UNL     1     -58.214  -5.051   3.334  1.00  0.00     0.196 C 
HETATM   12  O3  UNL     1     -57.805  -6.003   2.678  1.00  0.00    -0.646 OA
HETATM   13  O4  UNL     1     -58.994  -5.192   4.436  1.00  0.00    -0.646 OA
ENDBRANCH   4  11
ENDBRANCH   1   4
BRANCH   3  14
HETATM   14  C5  UNL     1     -57.108  -1.854   0.141  1.00  0.00     0.085 C 
BRANCH  14  15
HETATM   15  C6  UNL     1     -57.619  -0.700   0.938  1.00  0.00    -0.020 A 
HETATM   16  C7  UNL     1     -56.712  -0.020   1.780  1.00  0.00     0.012 A 
HETATM   17  C8  UNL     1     -57.107   0.992   2.610  1.00  0.00     0.027 A 
HETATM   18  C9  UNL     1     -58.420   1.406   2.670  1.00  0.00     0.048 A 
HETATM   19  N3  UNL     1     -58.854   2.461   3.532  1.00  0.00    -0.102 NA
HETATM   20  C10 UNL     1     -59.293   0.747   1.853  1.00  0.00     0.063 A 
HETATM   21  C11 UNL     1     -58.919  -0.297   0.988  1.00  0.00     0.111 A 
BRANCH  21  22
HETATM   22  N4  UNL     1     -59.928  -0.879   0.165  1.00  0.00    -0.115 N 
HETATM   23  O1  UNL     1     -60.669  -1.738   0.635  1.00  0.00    -0.532 OA
HETATM   24  O2  UNL     1     -60.039  -0.536  -1.151  1.00  0.00    -0.532 OA
ENDBRANCH  21  22
ENDBRANCH  14  15
ENDBRANCH   3  14
TORSDOF 8
ENDMDL
MODEL 4
REMARK VINA RESULT: -5.848541274      2.029      2.453
REMARK  8 active torsions:
REMARK  status: ('A' for Active; 'I' for Inactive)
REMARK    1  A    between atoms: N1_1  and  C1_5 
REMARK    2  A    between atoms: C1_5  and  C2_6 
REMARK    3  A    between atoms: C2_6  and  C3_7 
REMARK    4  A    between atoms: C3_7  and  N2_8 
REMARK    5  A    between atoms: C3_7  and  C12_22 
REMARK    6  A    between atoms: C4_10  and  C5_11 
REMARK    7  A    between atoms: C5_11  and  C6_12 
REMARK    8  A    between atoms: C11_18  and  N4_19 
ROOT
HETATM    1  N2  UNL     1     -59.226  -3.009   2.702  1.00  0.00    -0.388 N 
ATOM      2  H2  UNL     1     -60.112  -3.482   2.526  1.00  0.00     0.159 HD
HETATM    3  C4  UNL     1     -59.032  -1.963   1.870  1.00  0.00     0.061 C 
ENDROOT
BRANCH   1   4
HETATM    4  C3  UNL     1     -58.527  -3.592   3.724  1.00  0.00     0.183 C 
BRANCH   4   5
HETATM    5  C2  UNL     1     -57.068  -3.306   3.747  1.00  0.00     0.063 C 
BRANCH   5   6
HETATM    6  C1  UNL     1     -56.385  -2.938   5.006  1.00  0.00     0.232 C 
BRANCH   6   7
HETATM    7  N1  UNL     1     -56.055  -4.086   5.793  1.00  0.00    -0.079 N 
ATOM      8  H13 UNL     1     -56.583  -4.905   5.491  1.00  0.00     0.274 HD
ATOM      9  H12 UNL     1     -55.113  -4.417   5.587  1.00  0.00     0.274 HD
ATOM     10  H11 UNL     1     -56.178  -3.914   6.790  1.00  0.00     0.274 HD
ENDBRANCH   6   7
ENDBRANCH   5   6
ENDBRANCH   4   5
BRANCH   4  11
HETATM   11  C12 UNL     1     -58.624  -5.104   3.707  1.00  0.00     0.196 C 
HETATM   12  O3  UNL     1     -59.732  -5.607   3.552  1.00  0.00    -0.646 OA
HETATM   13  O4  UNL     1     -57.492  -5.838   3.862  1.00  0.00    -0.646 OA
ENDBRANCH   4  11
ENDBRANCH   1   4
BRANCH   3  14
HETATM   14  C5  UNL     1     -59.196  -0.560   2.442  1.00  0.00     0.085 C 
BRANCH  14  15
HETATM   15  C6  UNL     1     -58.157   0.306   1.809  1.00  0.00    -0.020 A 
HETATM   16  C7  UNL     1     -57.165  -0.316   1.019  1.00  0.00     0.012 A 
HETATM   17  C8  UNL     1     -56.127   0.384   0.472  1.00  0.00     0.027 A 
HETATM   18  C9  UNL     1     -55.990   1.742   0.661  1.00  0.00     0.048 A 
HETATM   19  N3  UNL     1     -54.910   2.492   0.099  1.00  0.00    -0.102 NA
HETATM   20  C10 UNL     1     -56.953   2.339   1.424  1.00  0.00     0.063 A 
HETATM   21  C11 UNL     1     -58.033   1.648   2.001  1.00  0.00     0.111 A 
BRANCH  21  22
HETATM   22  N4  UNL     1     -58.985   2.400   2.751  1.00  0.00    -0.115 N 
HETATM   23  O1  UNL     1     -59.908   2.960   2.167  1.00  0.00    -0.532 OA
HETATM   24  O2  UNL     1     -58.848   2.552   4.100  1.00  0.00    -0.532 OA
ENDBRANCH  21  22
ENDBRANCH  14  15
ENDBRANCH   3  14
TORSDOF 8
ENDMDL
MODEL 5
REMARK VINA RESULT: -5.748444737      1.237      1.377
REMARK  8 active torsions:
REMARK  status: ('A' for Active; 'I' for Inactive)
REMARK    1  A    between atoms: N1_1  and  C1_5 
REMARK    2  A    between atoms: C1_5  and  C2_6 
REMARK    3  A    between atoms: C2_6  and  C3_7 
REMARK    4  A    between atoms: C3_7  and  N2_8 
REMARK    5  A    between atoms: C3_7  and  C12_22 
REMARK    6  A    between atoms: C4_10  and  C5_11 
REMARK    7  A    between atoms: C5_11  and  C6_12 
REMARK    8  A    between atoms: C11_18  and  N4_19 
ROOT
HETATM    1  N2  UNL     1     -58.951  -2.615   3.064  1.00  0.00    -0.388 N 
ATOM      2  H2  UNL     1     -59.601  -2.087   3.647  1.00  0.00     0.159 HD
HETATM    3  C4  UNL     1     -59.046  -2.274   1.761  1.00  0.00     0.061 C 
ENDROOT
BRANCH   1   4
HETATM    4  C3  UNL     1     -58.200  -3.493   3.795  1.00  0.00     0.183 C 
BRANCH   4   5
HETATM    5  C2  UNL     1     -56.734  -3.246   3.783  1.00  0.00     0.063 C 
BRANCH   5   6
HETATM    6  C1  UNL     1     -55.986  -3.039   5.043  1.00  0.00     0.232 C 
BRANCH   6   7
HETATM    7  N1  UNL     1     -56.303  -4.032   6.023  1.00  0.00    -0.079 N 
ATOM      8  H13 UNL     1     -56.441  -3.613   6.943  1.00  0.00     0.274 HD
ATOM      9  H12 UNL     1     -57.238  -4.412   5.876  1.00  0.00     0.274 HD
ATOM     10  H11 UNL     1     -55.603  -4.773   6.056  1.00  0.00     0.274 HD
ENDBRANCH   6   7
ENDBRANCH   5   6
ENDBRANCH   4   5
BRANCH   4  11
HETATM   11  C12 UNL     1     -58.353  -4.925   3.323  1.00  0.00     0.196 C 
HETATM   12  O3  UNL     1     -59.340  -5.550   3.697  1.00  0.00    -0.646 OA
HETATM   13  O4  UNL     1     -57.404  -5.456   2.511  1.00  0.00    -0.646 OA
ENDBRANCH   4  11
ENDBRANCH   1   4
BRANCH   3  14
HETATM   14  C5  UNL     1     -57.932  -1.420   1.166  1.00  0.00     0.085 C 
BRANCH  14  15
HETATM   15  C6  UNL     1     -58.058  -0.051   1.748  1.00  0.00    -0.020 A 
HETATM   16  C7  UNL     1     -57.100   0.357   2.702  1.00  0.00     0.012 A 
HETATM   17  C8  UNL     1     -57.182   1.557   3.350  1.00  0.00     0.027 A 
HETATM   18  C9  UNL     1     -58.211   2.441   3.107  1.00  0.00     0.048 A 
HETATM   19  N3  UNL     1     -58.318   3.699   3.776  1.00  0.00    -0.102 NA
HETATM   20  C10 UNL     1     -59.134   2.043   2.183  1.00  0.00     0.063 A 
HETATM   21  C11 UNL     1     -59.078   0.816   1.498  1.00  0.00     0.111 A 
BRANCH  21  22
HETATM   22  N4  UNL     1     -60.093   0.539   0.534  1.00  0.00    -0.115 N 
HETATM   23  O1  UNL     1     -59.868   0.744  -0.655  1.00  0.00    -0.532 OA
HETATM   24  O2  UNL     1     -61.326   0.105   0.925  1.00  0.00    -0.532 OA
ENDBRANCH  21  22
ENDBRANCH  14  15
ENDBRANCH   3  14
TORSDOF 8
ENDMDL
