MODEL 1
REMARK VINA RESULT: 5.944260045      0.000      0.000
REMARK  3 active torsions:
REMARK  status: ('A' for Active; 'I' for Inactive)
REMARK    1  A    between atoms: C6_10  and  C7_11 
REMARK       I    between atoms: C7_11  and  N3_13 
REMARK    2  A    between atoms: C12_18  and  O2_19 
REMARK    3  A    between atoms: C14_23  and  C15_24 
ROOT
HETATM    1  C7  UNL     1      12.534   1.724  28.198  1.00  0.00     0.272 C 
HETATM    2  O1  UNL     1      12.933   2.602  27.361  1.00  0.00    -0.266 OA
HETATM    3  N3  UNL     1      13.497   1.241  29.093  1.00  0.00    -0.342 N 
HETATM    4  C8  UNL     1      14.846   1.767  29.037  1.00  0.00     0.131 C 
HETATM    5  C9  UNL     1      15.391   1.960  30.451  1.00  0.00     0.061 C 
HETATM    6  C10 UNL     1      15.410   0.612  31.059  1.00  0.00    -0.021 A 
HETATM    7  C11 UNL     1      14.348  -0.218  30.864  1.00  0.00     0.019 A 
HETATM    8  C12 UNL     1      14.656  -1.384  31.537  1.00  0.00     0.150 A 
HETATM    9  N4  UNL     1      15.885  -1.245  32.122  1.00  0.00    -0.335 N 
HETATM   10  C13 UNL     1      16.449  -2.330  32.882  1.00  0.00     0.158 C 
HETATM   11  C14 UNL     1      16.354  -0.049  31.845  1.00  0.00     0.024 A 
HETATM   12  C18 UNL     1      13.184   0.231  30.058  1.00  0.00     0.169 C 
ENDROOT
BRANCH   1  13
HETATM   13  C6  UNL     1      11.139   1.282  28.186  1.00  0.00     0.124 A 
HETATM   14  N2  UNL     1      10.034   2.040  28.299  1.00  0.00    -0.288 N 
HETATM   15  N1  UNL     1       8.954   1.325  28.244  1.00  0.00    -0.255 N 
ATOM     16  H2  UNL     1      10.044   3.053  28.413  1.00  0.00     0.188 HD
HETATM   17  C4  UNL     1       7.644   1.676  28.315  1.00  0.00     0.070 A 
HETATM   18  C21 UNL     1       9.260   0.025  28.089  1.00  0.00     0.087 A 
HETATM   19  C3  UNL     1       6.622   0.763  28.233  1.00  0.00     0.148 A 
HETATM   20  C5  UNL     1       7.309   3.117  28.490  1.00  0.00     0.074 C 
HETATM   21  C2  UNL     1       6.916  -0.569  28.075  1.00  0.00     0.003 A 
HETATM   22  F1  UNL     1       5.318   1.146  28.307  1.00  0.00    -0.203 F 
HETATM   23  C1  UNL     1       5.839  -1.609  27.981  1.00  0.00     0.053 C 
HETATM   24  C22 UNL     1       8.257  -0.917  28.004  1.00  0.00     0.072 A 
HETATM   25 CL1  UNL     1       8.652  -2.586  27.800  1.00  0.00    -0.081 Cl
HETATM   26  C19 UNL     1      10.668  -0.005  28.052  1.00  0.00     0.002 A 
HETATM   27  C20 UNL     1      11.394  -1.269  27.897  1.00  0.00     0.053 C 
ENDBRANCH   1  13
BRANCH   8  28
HETATM   28  O2  UNL     1      13.820  -2.480  31.576  1.00  0.00    -0.345 OA
ATOM     29  H2  UNL     1      14.115  -3.368  31.416  1.00  0.00     0.219 HD
ENDBRANCH   8  28
BRANCH  11  30
HETATM   30  C15 UNL     1      17.607   0.586  32.221  1.00  0.00     0.028 C 
HETATM   31  C16 UNL     1      18.573  -0.208  33.040  1.00  0.00     0.016 C 
HETATM   32  C17 UNL     1      18.350   1.066  30.964  1.00  0.00     0.016 C 
ENDBRANCH  11  30
TORSDOF 3
ENDMDL
MODEL 2
REMARK VINA RESULT: 8.325027967      3.288      8.332
REMARK  3 active torsions:
REMARK  status: ('A' for Active; 'I' for Inactive)
REMARK    1  A    between atoms: C6_10  and  C7_11 
REMARK       I    between atoms: C7_11  and  N3_13 
REMARK    2  A    between atoms: C12_18  and  O2_19 
REMARK    3  A    between atoms: C14_23  and  C15_24 
ROOT
HETATM    1  C7  UNL     1      11.872   1.256  28.300  1.00  0.00     0.272 C 
HETATM    2  O1  UNL     1      11.969   2.280  27.543  1.00  0.00    -0.266 OA
HETATM    3  N3  UNL     1      10.660   0.556  28.241  1.00  0.00    -0.342 N 
HETATM    4  C8  UNL     1       9.625   1.006  27.333  1.00  0.00     0.131 C 
HETATM    5  C9  UNL     1       8.951  -0.196  26.673  1.00  0.00     0.061 C 
HETATM    6  C10 UNL     1       8.340  -0.967  27.777  1.00  0.00    -0.021 A 
HETATM    7  C11 UNL     1       9.046  -1.150  28.928  1.00  0.00     0.019 A 
HETATM    8  C12 UNL     1       8.226  -1.889  29.757  1.00  0.00     0.150 A 
HETATM    9  N4  UNL     1       7.049  -2.140  29.105  1.00  0.00    -0.335 N 
HETATM   10  C13 UNL     1       6.008  -2.890  29.758  1.00  0.00     0.158 C 
HETATM   11  C14 UNL     1       7.100  -1.592  27.911  1.00  0.00     0.024 A 
HETATM   12  C18 UNL     1      10.414  -0.589  29.064  1.00  0.00     0.169 C 
ENDROOT
BRANCH   1  13
HETATM   13  C6  UNL     1      12.992   0.873  29.161  1.00  0.00     0.124 A 
HETATM   14  N2  UNL     1      13.519   1.568  30.185  1.00  0.00    -0.288 N 
HETATM   15  N1  UNL     1      14.504   0.935  30.740  1.00  0.00    -0.255 N 
ATOM     16  H2  UNL     1      13.184   2.483  30.488  1.00  0.00     0.188 HD
HETATM   17  C4  UNL     1      15.305   1.264  31.785  1.00  0.00     0.070 A 
HETATM   18  C21 UNL     1      14.710  -0.243  30.122  1.00  0.00     0.087 A 
HETATM   19  C3  UNL     1      16.312   0.449  32.239  1.00  0.00     0.148 A 
HETATM   20  C5  UNL     1      15.076   2.570  32.464  1.00  0.00     0.074 C 
HETATM   21  C2  UNL     1      16.537  -0.757  31.621  1.00  0.00     0.003 A 
HETATM   22  F1  UNL     1      17.099   0.807  33.290  1.00  0.00    -0.203 F 
HETATM   23  C1  UNL     1      17.623  -1.686  32.074  1.00  0.00     0.053 C 
HETATM   24  C22 UNL     1      15.714  -1.084  30.553  1.00  0.00     0.072 A 
HETATM   25 CL1  UNL     1      15.973  -2.597  29.763  1.00  0.00    -0.081 Cl
HETATM   26  C19 UNL     1      13.737  -0.283  29.104  1.00  0.00     0.002 A 
HETATM   27  C20 UNL     1      13.641  -1.429  28.194  1.00  0.00     0.053 C 
ENDBRANCH   1  13
BRANCH   8  28
HETATM   28  O2  UNL     1       8.589  -2.281  31.028  1.00  0.00    -0.345 OA
ATOM     29  H2  UNL     1       8.581  -1.698  31.777  1.00  0.00     0.219 HD
ENDBRANCH   8  28
BRANCH  11  30
HETATM   30  C15 UNL     1       6.117  -1.565  26.841  1.00  0.00     0.028 C 
HETATM   31  C16 UNL     1       6.123  -2.693  25.860  1.00  0.00     0.016 C 
HETATM   32  C17 UNL     1       4.701  -1.471  27.430  1.00  0.00     0.016 C 
ENDBRANCH  11  30
TORSDOF 3
ENDMDL
MODEL 3
REMARK VINA RESULT: 8.347928094      3.670      8.594
REMARK  3 active torsions:
REMARK  status: ('A' for Active; 'I' for Inactive)
REMARK    1  A    between atoms: C6_10  and  C7_11 
REMARK       I    between atoms: C7_11  and  N3_13 
REMARK    2  A    between atoms: C12_18  and  O2_19 
REMARK    3  A    between atoms: C14_23  and  C15_24 
ROOT
HETATM    1  C7  UNL     1      13.333   1.411  27.494  1.00  0.00     0.272 C 
HETATM    2  O1  UNL     1      13.867   1.795  26.400  1.00  0.00    -0.266 OA
HETATM    3  N3  UNL     1      11.943   1.552  27.587  1.00  0.00    -0.342 N 
HETATM    4  C8  UNL     1      11.207   2.086  26.460  1.00  0.00     0.131 C 
HETATM    5  C9  UNL     1       9.897   1.321  26.281  1.00  0.00     0.061 C 
HETATM    6  C10 UNL     1       9.130   1.546  27.525  1.00  0.00    -0.021 A 
HETATM    7  C11 UNL     1       9.776   1.486  28.722  1.00  0.00     0.019 A 
HETATM    8  C12 UNL     1       8.814   1.739  29.680  1.00  0.00     0.150 A 
HETATM    9  N4  UNL     1       7.614   1.948  29.056  1.00  0.00    -0.335 N 
HETATM   10  C13 UNL     1       6.439   2.244  29.834  1.00  0.00     0.158 C 
HETATM   11  C14 UNL     1       7.785   1.835  27.758  1.00  0.00     0.024 A 
HETATM   12  C18 UNL     1      11.230   1.189  28.775  1.00  0.00     0.169 C 
ENDROOT
BRANCH   1  13
HETATM   13  C6  UNL     1      14.169   0.858  28.561  1.00  0.00     0.124 A 
HETATM   14  N2  UNL     1      14.794  -0.333  28.585  1.00  0.00    -0.288 N 
HETATM   15  N1  UNL     1      15.457  -0.506  29.685  1.00  0.00    -0.255 N 
ATOM     16  H2  UNL     1      14.752  -1.016  27.829  1.00  0.00     0.188 HD
HETATM   17  C4  UNL     1      16.217  -1.544  30.117  1.00  0.00     0.070 A 
HETATM   18  C21 UNL     1      15.323   0.567  30.486  1.00  0.00     0.087 A 
HETATM   19  C3  UNL     1      16.855  -1.545  31.333  1.00  0.00     0.148 A 
HETATM   20  C5  UNL     1      16.361  -2.731  29.230  1.00  0.00     0.074 C 
HETATM   21  C2  UNL     1      16.730  -0.459  32.164  1.00  0.00     0.003 A 
HETATM   22  F1  UNL     1      17.612  -2.601  31.739  1.00  0.00    -0.203 F 
HETATM   23  C1  UNL     1      17.404  -0.407  33.503  1.00  0.00     0.053 C 
HETATM   24  C22 UNL     1      15.950   0.596  31.713  1.00  0.00     0.072 A 
HETATM   25 CL1  UNL     1      15.782   1.976  32.738  1.00  0.00    -0.081 Cl
HETATM   26  C19 UNL     1      14.492   1.446  29.763  1.00  0.00     0.002 A 
HETATM   27  C20 UNL     1      14.105   2.747  30.317  1.00  0.00     0.053 C 
ENDBRANCH   1  13
BRANCH   8  28
HETATM   28  O2  UNL     1       9.080   1.766  31.033  1.00  0.00    -0.345 OA
ATOM     29  H2  UNL     1       8.445   1.523  31.695  1.00  0.00     0.219 HD
ENDBRANCH   8  28
BRANCH  11  30
HETATM   30  C15 UNL     1       6.836   1.969  26.664  1.00  0.00     0.028 C 
HETATM   31  C16 UNL     1       5.417   1.579  26.921  1.00  0.00     0.016 C 
HETATM   32  C17 UNL     1       6.833   3.415  26.145  1.00  0.00     0.016 C 
ENDBRANCH  11  30
TORSDOF 3
ENDMDL
MODEL 4
REMARK VINA RESULT: 8.387202079      1.652      2.340
REMARK  3 active torsions:
REMARK  status: ('A' for Active; 'I' for Inactive)
REMARK    1  A    between atoms: C6_10  and  C7_11 
REMARK       I    between atoms: C7_11  and  N3_13 
REMARK    2  A    between atoms: C12_18  and  O2_19 
REMARK    3  A    between atoms: C14_23  and  C15_24 
ROOT
HETATM    1  C7  UNL     1      12.226   1.399  28.489  1.00  0.00     0.272 C 
HETATM    2  O1  UNL     1      12.434   2.482  27.846  1.00  0.00    -0.266 OA
HETATM    3  N3  UNL     1      13.259   0.972  29.333  1.00  0.00    -0.342 N 
HETATM    4  C8  UNL     1      14.460   1.774  29.445  1.00  0.00     0.131 C 
HETATM    5  C9  UNL     1      14.930   1.810  30.898  1.00  0.00     0.061 C 
HETATM    6  C10 UNL     1      15.236   0.407  31.254  1.00  0.00    -0.021 A 
HETATM    7  C11 UNL     1      14.384  -0.578  30.856  1.00  0.00     0.019 A 
HETATM    8  C12 UNL     1      14.930  -1.757  31.324  1.00  0.00     0.150 A 
HETATM    9  N4  UNL     1      16.091  -1.472  31.990  1.00  0.00    -0.335 N 
HETATM   10  C13 UNL     1      16.868  -2.535  32.573  1.00  0.00     0.158 C 
HETATM   11  C14 UNL     1      16.291  -0.173  31.959  1.00  0.00     0.024 A 
HETATM   12  C18 UNL     1      13.161  -0.244  30.082  1.00  0.00     0.169 C 
ENDROOT
BRANCH   1  13
HETATM   13  C6  UNL     1      10.962   0.681  28.322  1.00  0.00     0.124 A 
HETATM   14  N2  UNL     1      10.785  -0.609  27.982  1.00  0.00    -0.288 N 
HETATM   15  N1  UNL     1       9.529  -0.924  27.927  1.00  0.00    -0.255 N 
ATOM     16  H2  UNL     1      11.547  -1.260  27.791  1.00  0.00     0.188 HD
HETATM   17  C4  UNL     1       8.913  -2.097  27.629  1.00  0.00     0.070 A 
HETATM   18  C21 UNL     1       8.766   0.141  28.230  1.00  0.00     0.087 A 
HETATM   19  C3  UNL     1       7.548  -2.242  27.625  1.00  0.00     0.148 A 
HETATM   20  C5  UNL     1       9.762  -3.273  27.292  1.00  0.00     0.074 C 
HETATM   21  C2  UNL     1       6.753  -1.165  27.931  1.00  0.00     0.003 A 
HETATM   22  F1  UNL     1       6.959  -3.430  27.323  1.00  0.00    -0.203 F 
HETATM   23  C1  UNL     1       5.256  -1.266  27.941  1.00  0.00     0.053 C 
HETATM   24  C22 UNL     1       7.391   0.029  28.233  1.00  0.00     0.072 A 
HETATM   25 CL1  UNL     1       6.413   1.397  28.626  1.00  0.00    -0.081 Cl
HETATM   26  C19 UNL     1       9.688   1.176  28.483  1.00  0.00     0.002 A 
HETATM   27  C20 UNL     1       9.233   2.522  28.847  1.00  0.00     0.053 C 
ENDBRANCH   1  13
BRANCH   8  28
HETATM   28  O2  UNL     1      14.353  -2.993  31.120  1.00  0.00    -0.345 OA
ATOM     29  H2  UNL     1      14.106  -3.577  31.827  1.00  0.00     0.219 HD
ENDBRANCH   8  28
BRANCH  11  30
HETATM   30  C15 UNL     1      17.370   0.631  32.509  1.00  0.00     0.028 C 
HETATM   31  C16 UNL     1      18.272  -0.008  33.514  1.00  0.00     0.016 C 
HETATM   32  C17 UNL     1      18.251   1.176  31.374  1.00  0.00     0.016 C 
ENDBRANCH  11  30
TORSDOF 3
ENDMDL
MODEL 5
REMARK VINA RESULT: 8.599566293      3.534      8.604
REMARK  3 active torsions:
REMARK  status: ('A' for Active; 'I' for Inactive)
REMARK    1  A    between atoms: C6_10  and  C7_11 
REMARK       I    between atoms: C7_11  and  N3_13 
REMARK    2  A    between atoms: C12_18  and  O2_19 
REMARK    3  A    between atoms: C14_23  and  C15_24 
ROOT
HETATM    1  C7  UNL     1      12.131   1.015  28.278  1.00  0.00     0.272 C 
HETATM    2  O1  UNL     1      12.275   2.013  27.494  1.00  0.00    -0.266 OA
HETATM    3  N3  UNL     1      10.893   0.363  28.228  1.00  0.00    -0.342 N 
HETATM    4  C8  UNL     1       9.883   0.828  27.299  1.00  0.00     0.131 C 
HETATM    5  C9  UNL     1       9.166  -0.363  26.667  1.00  0.00     0.061 C 
HETATM    6  C10 UNL     1       8.517  -1.079  27.786  1.00  0.00    -0.021 A 
HETATM    7  C11 UNL     1       9.206  -1.258  28.947  1.00  0.00     0.019 A 
HETATM    8  C12 UNL     1       8.351  -1.941  29.790  1.00  0.00     0.150 A 
HETATM    9  N4  UNL     1       7.170  -2.162  29.135  1.00  0.00    -0.335 N 
HETATM   10  C13 UNL     1       6.095  -2.853  29.799  1.00  0.00     0.158 C 
HETATM   11  C14 UNL     1       7.251  -1.650  27.927  1.00  0.00     0.024 A 
HETATM   12  C18 UNL     1      10.595  -0.748  29.080  1.00  0.00     0.169 C 
ENDROOT
BRANCH   1  13
HETATM   13  C6  UNL     1      13.228   0.612  29.158  1.00  0.00     0.124 A 
HETATM   14  N2  UNL     1      13.943  -0.526  29.115  1.00  0.00    -0.288 N 
HETATM   15  N1  UNL     1      14.848  -0.562  30.043  1.00  0.00    -0.255 N 
ATOM     16  H2  UNL     1      13.792  -1.271  28.435  1.00  0.00     0.188 HD
HETATM   17  C4  UNL     1      15.772  -1.505  30.355  1.00  0.00     0.070 A 
HETATM   18  C21 UNL     1      14.804   0.562  30.782  1.00  0.00     0.087 A 
HETATM   19  C3  UNL     1      16.664  -1.362  31.390  1.00  0.00     0.148 A 
HETATM   20  C5  UNL     1      15.816  -2.749  29.537  1.00  0.00     0.074 C 
HETATM   21  C2  UNL     1      16.634  -0.222  32.155  1.00  0.00     0.003 A 
HETATM   22  F1  UNL     1      17.580  -2.325  31.679  1.00  0.00    -0.203 F 
HETATM   23  C1  UNL     1      17.583  -0.013  33.297  1.00  0.00     0.053 C 
HETATM   24  C22 UNL     1      15.685   0.736  31.828  1.00  0.00     0.072 A 
HETATM   25 CL1  UNL     1      15.631   2.181  32.773  1.00  0.00    -0.081 Cl
HETATM   26  C19 UNL     1      13.760   1.318  30.213  1.00  0.00     0.002 A 
HETATM   27  C20 UNL     1      13.396   2.631  30.756  1.00  0.00     0.053 C 
ENDBRANCH   1  13
BRANCH   8  28
HETATM   28  O2  UNL     1       8.689  -2.312  31.074  1.00  0.00    -0.345 OA
ATOM     29  H2  UNL     1       8.117  -2.819  31.638  1.00  0.00     0.219 HD
ENDBRANCH   8  28
BRANCH  11  30
HETATM   30  C15 UNL     1       6.278  -1.613  26.848  1.00  0.00     0.028 C 
HETATM   31  C16 UNL     1       6.227  -2.780  25.915  1.00  0.00     0.016 C 
HETATM   32  C17 UNL     1       4.866  -1.415  27.421  1.00  0.00     0.016 C 
ENDBRANCH  11  30
TORSDOF 3
ENDMDL
