MODEL 1
REMARK VINA RESULT: -7.515681757      0.000      0.000
REMARK  16 active torsions:
REMARK  status: ('A' for Active; 'I' for Inactive)
REMARK    1  A    between atoms: O1_2  and  C2_3 
REMARK    2  A    between atoms: C2_3  and  O2_4 
REMARK    3  A    between atoms: C2_3  and  C3_6 
REMARK    4  A    between atoms: C4_7  and  C5_8 
REMARK    5  A    between atoms: C5_8  and  O4_10 
REMARK    6  A    between atoms: C7_12  and  O5_13 
REMARK    7  A    between atoms: O5_13  and  C8_14 
REMARK    8  A    between atoms: C8_14  and  C9_15 
REMARK    9  A    between atoms: C9_15  and  C10_16 
REMARK   10  A    between atoms: C16_23  and  O6_24 
REMARK   11  A    between atoms: O6_24  and  C17_25 
REMARK   12  A    between atoms: C19_29  and  O7_30 
REMARK   13  A    between atoms: C21_33  and  O8_34 
REMARK   14  A    between atoms: C22_36  and  C23_37 
REMARK   15  A    between atoms: C24_40  and  O11_41 
REMARK   16  A    between atoms: C24_40  and  N2_43 
ROOT
HETATM    1  C3  UNL     1      -2.638   1.554   5.768  1.00  0.00     0.054 C 
HETATM    2  C4  UNL     1      -3.722   1.263   6.481  1.00  0.00     0.075 C 
HETATM    3  C7  UNL     1      -3.568   0.431   7.773  1.00  0.00     0.184 C 
HETATM    4  C16 UNL     1      -2.847  -0.740   7.300  1.00  0.00     0.218 C 
HETATM    5  C21 UNL     1      -1.606   0.112   7.442  1.00  0.00     0.182 C 
HETATM    6  C22 UNL     1      -1.374   0.860   6.204  1.00  0.00     0.076 C 
HETATM    7  C24 UNL     1      -2.366   0.993   8.472  1.00  0.00     0.273 C 
ENDROOT
BRANCH   3   8
HETATM    8  O5  UNL     1      -4.720   0.467   8.456  1.00  0.00    -0.366 OA
BRANCH   8   9
HETATM    9  C8  UNL     1      -5.405  -0.618   8.783  1.00  0.00     0.174 C 
BRANCH   9  10
HETATM   10  C9  UNL     1      -6.770  -0.279   9.351  1.00  0.00     0.065 C 
BRANCH  10  11
HETATM   11  C10 UNL     1      -6.862  -0.420  10.809  1.00  0.00    -0.056 A 
HETATM   12  C11 UNL     1      -8.022  -0.632  11.475  1.00  0.00     0.010 A 
HETATM   13  C12 UNL     1      -7.976  -0.738  12.875  1.00  0.00     0.043 A 
HETATM   14  C13 UNL     1      -6.782  -0.631  13.547  1.00  0.00     0.116 A 
HETATM   15  F1  UNL     1      -6.713  -0.730  14.895  1.00  0.00    -0.206 F 
HETATM   16  C14 UNL     1      -5.601  -0.414  12.843  1.00  0.00     0.043 A 
HETATM   17  C15 UNL     1      -5.644  -0.311  11.494  1.00  0.00     0.010 A 
ENDBRANCH  10  11
ENDBRANCH   9  10
ENDBRANCH   8   9
ENDBRANCH   3   8
BRANCH   2  18
HETATM   18  C5  UNL     1      -5.075   1.697   6.142  1.00  0.00     0.293 C 
HETATM   19  O3  UNL     1      -5.522   2.825   6.227  1.00  0.00    -0.259 OA
BRANCH  18  20
HETATM   20  O4  UNL     1      -6.036   0.766   5.639  1.00  0.00    -0.323 OA
HETATM   21  C6  UNL     1      -7.428   1.035   5.873  1.00  0.00     0.213 C 
ENDBRANCH  18  20
ENDBRANCH   2  18
BRANCH   4  22
HETATM   22  O6  UNL     1      -2.872  -1.938   8.023  1.00  0.00    -0.337 OA
BRANCH  22  23
HETATM   23  C17 UNL     1      -3.276  -3.170   7.557  1.00  0.00     0.089 A 
HETATM   24  C18 UNL     1      -3.511  -4.343   8.227  1.00  0.00     0.127 A 
HETATM   25  N1  UNL     1      -3.885  -5.268   7.342  1.00  0.00    -0.344 N 
HETATM   26  C19 UNL     1      -3.904  -4.737   6.112  1.00  0.00     0.142 A 
ATOM     27  H1  UNL     1      -4.122  -6.234   7.567  1.00  0.00     0.167 HD
HETATM   28  C20 UNL     1      -3.525  -3.420   6.223  1.00  0.00     0.094 A 
BRANCH  26  29
HETATM   29  O7  UNL     1      -4.247  -5.396   4.920  1.00  0.00    -0.346 OA
ATOM     30  H7  UNL     1      -4.704  -5.021   4.177  1.00  0.00     0.219 HD
ENDBRANCH  26  29
ENDBRANCH  22  23
ENDBRANCH   4  22
BRANCH   7  31
HETATM   31  O11 UNL     1      -2.186   2.317   8.318  1.00  0.00    -0.355 OA
HETATM   32  C25 UNL     1      -1.854   3.142   9.303  1.00  0.00     0.205 C 
ENDBRANCH   7  31
BRANCH   7  33
HETATM   33  N2  UNL     1      -1.982   0.593   9.796  1.00  0.00    -0.110 N 
HETATM   34  O12 UNL     1      -2.784   0.086  10.601  1.00  0.00    -0.534 OA
HETATM   35  O13 UNL     1      -0.731   0.712  10.358  1.00  0.00    -0.534 OA
ENDBRANCH   7  33
BRANCH   1  36
HETATM   36  C2  UNL     1      -2.595   2.347   4.564  1.00  0.00     0.190 C 
BRANCH  36  37
HETATM   37  O1  UNL     1      -2.797   3.680   4.342  1.00  0.00    -0.335 OA
HETATM   38  C1  UNL     1      -2.582   4.692   5.347  1.00  0.00     0.212 C 
ENDBRANCH  36  37
BRANCH  36  39
HETATM   39  O2  UNL     1      -2.317   1.756   3.424  1.00  0.00    -0.340 OA
ATOM     40  H2  UNL     1      -2.836   0.963   3.348  1.00  0.00     0.220 HD
ENDBRANCH  36  39
ENDBRANCH   1  36
BRANCH   5  41
HETATM   41  O8  UNL     1      -0.523  -0.509   8.031  1.00  0.00    -0.377 OA
ATOM     42  H8  UNL     1       0.278   0.001   8.053  1.00  0.00     0.211 HD
ENDBRANCH   5  41
BRANCH   6  43
HETATM   43  C23 UNL     1      -0.098   1.548   6.066  1.00  0.00     0.209 C 
HETATM   44  O9  UNL     1       0.575   1.511   4.881  1.00  0.00    -0.644 OA
HETATM   45  O10 UNL     1       0.648   1.601   7.219  1.00  0.00    -0.644 OA
ENDBRANCH   6  43
TORSDOF 16
ENDMDL
MODEL 2
REMARK VINA RESULT: -7.513789953      2.448      4.282
REMARK  16 active torsions:
REMARK  status: ('A' for Active; 'I' for Inactive)
REMARK    1  A    between atoms: O1_2  and  C2_3 
REMARK    2  A    between atoms: C2_3  and  O2_4 
REMARK    3  A    between atoms: C2_3  and  C3_6 
REMARK    4  A    between atoms: C4_7  and  C5_8 
REMARK    5  A    between atoms: C5_8  and  O4_10 
REMARK    6  A    between atoms: C7_12  and  O5_13 
REMARK    7  A    between atoms: O5_13  and  C8_14 
REMARK    8  A    between atoms: C8_14  and  C9_15 
REMARK    9  A    between atoms: C9_15  and  C10_16 
REMARK   10  A    between atoms: C16_23  and  O6_24 
REMARK   11  A    between atoms: O6_24  and  C17_25 
REMARK   12  A    between atoms: C19_29  and  O7_30 
REMARK   13  A    between atoms: C21_33  and  O8_34 
REMARK   14  A    between atoms: C22_36  and  C23_37 
REMARK   15  A    between atoms: C24_40  and  O11_41 
REMARK   16  A    between atoms: C24_40  and  N2_43 
ROOT
HETATM    1  C3  UNL     1      -7.035   0.624   3.912  1.00  0.00     0.054 C 
HETATM    2  C4  UNL     1      -7.077   0.462   5.230  1.00  0.00     0.075 C 
HETATM    3  C7  UNL     1      -5.759   0.503   6.034  1.00  0.00     0.184 C 
HETATM    4  C16 UNL     1      -4.949  -0.492   5.348  1.00  0.00     0.218 C 
HETATM    5  C21 UNL     1      -4.638   0.612   4.363  1.00  0.00     0.182 C 
HETATM    6  C22 UNL     1      -5.654   0.637   3.309  1.00  0.00     0.076 C 
HETATM    7  C24 UNL     1      -4.978   1.651   5.467  1.00  0.00     0.273 C 
ENDROOT
BRANCH   3   8
HETATM    8  O5  UNL     1      -6.045   0.571   7.341  1.00  0.00    -0.366 OA
BRANCH   8   9
HETATM    9  C8  UNL     1      -5.970  -0.471   8.156  1.00  0.00     0.174 C 
BRANCH   9  10
HETATM   10  C9  UNL     1      -4.960  -0.251   9.266  1.00  0.00     0.065 C 
BRANCH  10  11
HETATM   11  C10 UNL     1      -5.535  -0.305  10.616  1.00  0.00    -0.056 A 
HETATM   12  C11 UNL     1      -4.798  -0.277  11.752  1.00  0.00     0.010 A 
HETATM   13  C12 UNL     1      -5.471  -0.346  12.983  1.00  0.00     0.043 A 
HETATM   14  C13 UNL     1      -6.841  -0.439  13.029  1.00  0.00     0.116 A 
HETATM   15  F1  UNL     1      -7.511  -0.506  14.203  1.00  0.00    -0.206 F 
HETATM   16  C14 UNL     1      -7.579  -0.466  11.849  1.00  0.00     0.043 A 
HETATM   17  C15 UNL     1      -6.933  -0.399  10.661  1.00  0.00     0.010 A 
ENDBRANCH  10  11
ENDBRANCH   9  10
ENDBRANCH   8   9
ENDBRANCH   3   8
BRANCH   2  18
HETATM   18  C5  UNL     1      -8.303   0.265   5.999  1.00  0.00     0.293 C 
HETATM   19  O3  UNL     1      -8.765   1.012   6.840  1.00  0.00    -0.259 OA
BRANCH  18  20
HETATM   20  O4  UNL     1      -9.114  -0.895   5.797  1.00  0.00    -0.323 OA
HETATM   21  C6  UNL     1     -10.525  -0.711   5.594  1.00  0.00     0.213 C 
ENDBRANCH  18  20
ENDBRANCH   2  18
BRANCH   4  22
HETATM   22  O6  UNL     1      -3.858  -1.092   5.985  1.00  0.00    -0.337 OA
BRANCH  22  23
HETATM   23  C17 UNL     1      -3.737  -2.421   6.331  1.00  0.00     0.089 A 
HETATM   24  C18 UNL     1      -2.867  -3.043   7.188  1.00  0.00     0.127 A 
HETATM   25  N1  UNL     1      -3.140  -4.349   7.193  1.00  0.00    -0.344 N 
HETATM   26  C19 UNL     1      -4.163  -4.601   6.366  1.00  0.00     0.142 A 
ATOM     27  H1  UNL     1      -2.644  -5.049   7.744  1.00  0.00     0.167 HD
HETATM   28  C20 UNL     1      -4.555  -3.405   5.813  1.00  0.00     0.094 A 
BRANCH  26  29
HETATM   29  O7  UNL     1      -4.738  -5.855   6.104  1.00  0.00    -0.346 OA
ATOM     30  H7  UNL     1      -5.556  -6.188   6.454  1.00  0.00     0.219 HD
ENDBRANCH  26  29
ENDBRANCH  22  23
ENDBRANCH   4  22
BRANCH   7  31
HETATM   31  O11 UNL     1      -5.721   2.691   5.047  1.00  0.00    -0.355 OA
HETATM   32  C25 UNL     1      -5.884   3.814   5.736  1.00  0.00     0.205 C 
ENDBRANCH   7  31
BRANCH   7  33
HETATM   33  N2  UNL     1      -3.754   2.121   6.053  1.00  0.00    -0.110 N 
HETATM   34  O12 UNL     1      -3.011   2.939   5.483  1.00  0.00    -0.534 OA
HETATM   35  O13 UNL     1      -3.234   1.748   7.271  1.00  0.00    -0.534 OA
ENDBRANCH   7  33
BRANCH   1  36
HETATM   36  C2  UNL     1      -8.166   0.652   3.017  1.00  0.00     0.190 C 
BRANCH  36  37
HETATM   37  O1  UNL     1      -8.780  -0.330   2.293  1.00  0.00    -0.335 OA
HETATM   38  C1  UNL     1      -8.098  -1.510   1.820  1.00  0.00     0.212 C 
ENDBRANCH  36  37
BRANCH  36  39
HETATM   39  O2  UNL     1      -8.777   1.795   2.802  1.00  0.00    -0.340 OA
ATOM     40  H2  UNL     1      -8.136   2.450   2.552  1.00  0.00     0.220 HD
ENDBRANCH  36  39
ENDBRANCH   1  36
BRANCH   5  41
HETATM   41  O8  UNL     1      -3.314   0.713   3.984  1.00  0.00    -0.377 OA
ATOM     42  H8  UNL     1      -3.013   1.591   3.783  1.00  0.00     0.211 HD
ENDBRANCH   5  41
BRANCH   6  43
HETATM   43  C23 UNL     1      -5.391   1.472   2.145  1.00  0.00     0.209 C 
HETATM   44  O9  UNL     1      -5.937   2.720   2.060  1.00  0.00    -0.644 OA
HETATM   45  O10 UNL     1      -5.210   0.778   0.974  1.00  0.00    -0.644 OA
ENDBRANCH   6  43
TORSDOF 16
ENDMDL
MODEL 3
REMARK VINA RESULT: -7.471382229      3.091      5.282
REMARK  16 active torsions:
REMARK  status: ('A' for Active; 'I' for Inactive)
REMARK    1  A    between atoms: O1_2  and  C2_3 
REMARK    2  A    between atoms: C2_3  and  O2_4 
REMARK    3  A    between atoms: C2_3  and  C3_6 
REMARK    4  A    between atoms: C4_7  and  C5_8 
REMARK    5  A    between atoms: C5_8  and  O4_10 
REMARK    6  A    between atoms: C7_12  and  O5_13 
REMARK    7  A    between atoms: O5_13  and  C8_14 
REMARK    8  A    between atoms: C8_14  and  C9_15 
REMARK    9  A    between atoms: C9_15  and  C10_16 
REMARK   10  A    between atoms: C16_23  and  O6_24 
REMARK   11  A    between atoms: O6_24  and  C17_25 
REMARK   12  A    between atoms: C19_29  and  O7_30 
REMARK   13  A    between atoms: C21_33  and  O8_34 
REMARK   14  A    between atoms: C22_36  and  C23_37 
REMARK   15  A    between atoms: C24_40  and  O11_41 
REMARK   16  A    between atoms: C24_40  and  N2_43 
ROOT
HETATM    1  C3  UNL     1      -7.285  -0.607   2.828  1.00  0.00     0.054 C 
HETATM    2  C4  UNL     1      -7.605  -0.295   4.080  1.00  0.00     0.075 C 
HETATM    3  C7  UNL     1      -6.581   0.466   4.949  1.00  0.00     0.184 C 
HETATM    4  C16 UNL     1      -5.399  -0.376   4.840  1.00  0.00     0.218 C 
HETATM    5  C21 UNL     1      -5.152   0.343   3.533  1.00  0.00     0.182 C 
HETATM    6  C22 UNL     1      -5.851  -0.349   2.447  1.00  0.00     0.076 C 
HETATM    7  C24 UNL     1      -6.009   1.528   4.058  1.00  0.00     0.273 C 
ENDROOT
BRANCH   3   8
HETATM    8  O5  UNL     1      -7.186   0.894   6.066  1.00  0.00    -0.366 OA
BRANCH   8   9
HETATM    9  C8  UNL     1      -6.611   0.866   7.258  1.00  0.00     0.174 C 
BRANCH   9  10
HETATM   10  C9  UNL     1      -7.168  -0.242   8.132  1.00  0.00     0.065 C 
BRANCH  10  11
HETATM   11  C10 UNL     1      -6.637  -0.248   9.500  1.00  0.00    -0.056 A 
HETATM   12  C11 UNL     1      -5.316  -0.242   9.797  1.00  0.00     0.010 A 
HETATM   13  C12 UNL     1      -4.938  -0.260  11.150  1.00  0.00     0.043 A 
HETATM   14  C13 UNL     1      -5.888  -0.284  12.143  1.00  0.00     0.116 A 
HETATM   15  F1  UNL     1      -5.548  -0.301  13.453  1.00  0.00    -0.206 F 
HETATM   16  C14 UNL     1      -7.241  -0.289  11.815  1.00  0.00     0.043 A 
HETATM   17  C15 UNL     1      -7.607  -0.272  10.512  1.00  0.00     0.010 A 
ENDBRANCH  10  11
ENDBRANCH   9  10
ENDBRANCH   8   9
ENDBRANCH   3   8
BRANCH   2  18
HETATM   18  C5  UNL     1      -8.889  -0.604   4.705  1.00  0.00     0.293 C 
HETATM   19  O3  UNL     1      -9.083  -1.361   5.637  1.00  0.00    -0.259 OA
BRANCH  18  20
HETATM   20  O4  UNL     1     -10.093   0.012   4.245  1.00  0.00    -0.323 OA
HETATM   21  C6  UNL     1     -10.132   1.447   4.161  1.00  0.00     0.213 C 
ENDBRANCH  18  20
ENDBRANCH   2  18
BRANCH   4  22
HETATM   22  O6  UNL     1      -4.380  -0.309   5.796  1.00  0.00    -0.337 OA
BRANCH  22  23
HETATM   23  C17 UNL     1      -3.761  -1.375   6.412  1.00  0.00     0.089 A 
HETATM   24  C18 UNL     1      -2.763  -1.404   7.351  1.00  0.00     0.127 A 
HETATM   25  N1  UNL     1      -2.495  -2.678   7.644  1.00  0.00    -0.344 N 
HETATM   26  C19 UNL     1      -3.288  -3.485   6.926  1.00  0.00     0.142 A 
ATOM     27  H1  UNL     1      -1.792  -2.991   8.313  1.00  0.00     0.167 HD
HETATM   28  C20 UNL     1      -4.092  -2.688   6.145  1.00  0.00     0.094 A 
BRANCH  26  29
HETATM   29  O7  UNL     1      -3.303  -4.889   6.957  1.00  0.00    -0.346 OA
ATOM     30  H7  UNL     1      -3.471  -5.470   6.225  1.00  0.00     0.219 HD
ENDBRANCH  26  29
ENDBRANCH  22  23
ENDBRANCH   4  22
BRANCH   7  31
HETATM   31  O11 UNL     1      -6.868   2.040   3.159  1.00  0.00    -0.355 OA
HETATM   32  C25 UNL     1      -7.101   3.338   3.007  1.00  0.00     0.205 C 
ENDBRANCH   7  31
BRANCH   7  33
HETATM   33  N2  UNL     1      -5.129   2.555   4.542  1.00  0.00    -0.110 N 
HETATM   34  O12 UNL     1      -5.153   2.955   5.720  1.00  0.00    -0.534 OA
HETATM   35  O13 UNL     1      -4.180   3.232   3.811  1.00  0.00    -0.534 OA
ENDBRANCH   7  33
BRANCH   1  36
HETATM   36  C2  UNL     1      -8.131  -1.278   1.871  1.00  0.00     0.190 C 
BRANCH  36  37
HETATM   37  O1  UNL     1      -8.165  -2.572   1.434  1.00  0.00    -0.335 OA
HETATM   38  C1  UNL     1      -7.873  -3.702   2.281  1.00  0.00     0.212 C 
ENDBRANCH  36  37
BRANCH  36  39
HETATM   39  O2  UNL     1      -9.068  -0.589   1.260  1.00  0.00    -0.340 OA
ATOM     40  H2  UNL     1      -8.673   0.151   0.815  1.00  0.00     0.220 HD
ENDBRANCH  36  39
ENDBRANCH   1  36
BRANCH   5  41
HETATM   41  O8  UNL     1      -3.848   0.739   3.310  1.00  0.00    -0.377 OA
ATOM     42  H8  UNL     1      -3.653   1.021   2.424  1.00  0.00     0.211 HD
ENDBRANCH   5  41
BRANCH   6  43
HETATM   43  C23 UNL     1      -5.536   0.056   1.084  1.00  0.00     0.209 C 
HETATM   44  O9  UNL     1      -4.237   0.123   0.672  1.00  0.00    -0.644 OA
HETATM   45  O10 UNL     1      -6.423   0.950   0.536  1.00  0.00    -0.644 OA
ENDBRANCH   6  43
TORSDOF 16
ENDMDL
MODEL 4
REMARK VINA RESULT: -7.467360207      3.196      5.384
REMARK  16 active torsions:
REMARK  status: ('A' for Active; 'I' for Inactive)
REMARK    1  A    between atoms: O1_2  and  C2_3 
REMARK    2  A    between atoms: C2_3  and  O2_4 
REMARK    3  A    between atoms: C2_3  and  C3_6 
REMARK    4  A    between atoms: C4_7  and  C5_8 
REMARK    5  A    between atoms: C5_8  and  O4_10 
REMARK    6  A    between atoms: C7_12  and  O5_13 
REMARK    7  A    between atoms: O5_13  and  C8_14 
REMARK    8  A    between atoms: C8_14  and  C9_15 
REMARK    9  A    between atoms: C9_15  and  C10_16 
REMARK   10  A    between atoms: C16_23  and  O6_24 
REMARK   11  A    between atoms: O6_24  and  C17_25 
REMARK   12  A    between atoms: C19_29  and  O7_30 
REMARK   13  A    between atoms: C21_33  and  O8_34 
REMARK   14  A    between atoms: C22_36  and  C23_37 
REMARK   15  A    between atoms: C24_40  and  O11_41 
REMARK   16  A    between atoms: C24_40  and  N2_43 
ROOT
HETATM    1  C3  UNL     1      -7.321  -0.371   2.706  1.00  0.00     0.054 C 
HETATM    2  C4  UNL     1      -7.592  -0.139   3.986  1.00  0.00     0.075 C 
HETATM    3  C7  UNL     1      -6.573   0.648   4.839  1.00  0.00     0.184 C 
HETATM    4  C16 UNL     1      -5.348  -0.107   4.628  1.00  0.00     0.218 C 
HETATM    5  C21 UNL     1      -5.218   0.686   3.348  1.00  0.00     0.182 C 
HETATM    6  C22 UNL     1      -5.928  -0.000   2.266  1.00  0.00     0.076 C 
HETATM    7  C24 UNL     1      -6.119   1.786   3.973  1.00  0.00     0.273 C 
ENDROOT
BRANCH   3   8
HETATM    8  O5  UNL     1      -7.143   0.983   6.005  1.00  0.00    -0.366 OA
BRANCH   8   9
HETATM    9  C8  UNL     1      -6.582   0.746   7.181  1.00  0.00     0.174 C 
BRANCH   9  10
HETATM   10  C9  UNL     1      -7.527   0.028   8.126  1.00  0.00     0.065 C 
BRANCH  10  11
HETATM   11  C10 UNL     1      -7.009  -0.118   9.492  1.00  0.00    -0.056 A 
HETATM   12  C11 UNL     1      -7.793  -0.153  10.596  1.00  0.00     0.010 A 
HETATM   13  C12 UNL     1      -7.171  -0.286  11.848  1.00  0.00     0.043 A 
HETATM   14  C13 UNL     1      -5.803  -0.378  11.946  1.00  0.00     0.116 A 
HETATM   15  F1  UNL     1      -5.182  -0.507  13.141  1.00  0.00    -0.206 F 
HETATM   16  C14 UNL     1      -5.017  -0.341  10.798  1.00  0.00     0.043 A 
HETATM   17  C15 UNL     1      -5.614  -0.213   9.590  1.00  0.00     0.010 A 
ENDBRANCH  10  11
ENDBRANCH   9  10
ENDBRANCH   8   9
ENDBRANCH   3   8
BRANCH   2  18
HETATM   18  C5  UNL     1      -8.817  -0.561   4.660  1.00  0.00     0.293 C 
HETATM   19  O3  UNL     1      -8.961  -1.541   5.367  1.00  0.00    -0.259 OA
BRANCH  18  20
HETATM   20  O4  UNL     1     -10.018   0.206   4.541  1.00  0.00    -0.323 OA
HETATM   21  C6  UNL     1     -10.901   0.265   5.674  1.00  0.00     0.213 C 
ENDBRANCH  18  20
ENDBRANCH   2  18
BRANCH   4  22
HETATM   22  O6  UNL     1      -4.285  -0.017   5.533  1.00  0.00    -0.337 OA
BRANCH  22  23
HETATM   23  C17 UNL     1      -3.845  -1.006   6.386  1.00  0.00     0.089 A 
HETATM   24  C18 UNL     1      -2.745  -1.055   7.202  1.00  0.00     0.127 A 
HETATM   25  N1  UNL     1      -2.743  -2.228   7.839  1.00  0.00    -0.344 N 
HETATM   26  C19 UNL     1      -3.809  -2.948   7.465  1.00  0.00     0.142 A 
ATOM     27  H1  UNL     1      -2.037  -2.530   8.509  1.00  0.00     0.167 HD
HETATM   28  C20 UNL     1      -4.516  -2.201   6.553  1.00  0.00     0.094 A 
BRANCH  26  29
HETATM   29  O7  UNL     1      -4.152  -4.233   7.917  1.00  0.00    -0.346 OA
ATOM     30  H7  UNL     1      -4.591  -4.911   7.417  1.00  0.00     0.219 HD
ENDBRANCH  26  29
ENDBRANCH  22  23
ENDBRANCH   4  22
BRANCH   7  31
HETATM   31  O11 UNL     1      -7.057   2.280   3.146  1.00  0.00    -0.355 OA
HETATM   32  C25 UNL     1      -7.090   3.539   2.725  1.00  0.00     0.205 C 
ENDBRANCH   7  31
BRANCH   7  33
HETATM   33  N2  UNL     1      -5.283   2.846   4.462  1.00  0.00    -0.110 N 
HETATM   34  O12 UNL     1      -5.352   3.267   5.631  1.00  0.00    -0.534 OA
HETATM   35  O13 UNL     1      -4.331   3.535   3.746  1.00  0.00    -0.534 OA
ENDBRANCH   7  33
BRANCH   1  36
HETATM   36  C2  UNL     1      -8.172  -1.052   1.761  1.00  0.00     0.190 C 
BRANCH  36  37
HETATM   37  O1  UNL     1      -8.168  -2.334   1.290  1.00  0.00    -0.335 OA
HETATM   38  C1  UNL     1      -7.905  -3.483   2.121  1.00  0.00     0.212 C 
ENDBRANCH  36  37
BRANCH  36  39
HETATM   39  O2  UNL     1      -9.159  -0.388   1.204  1.00  0.00    -0.340 OA
ATOM     40  H2  UNL     1      -9.622   0.104   1.872  1.00  0.00     0.220 HD
ENDBRANCH  36  39
ENDBRANCH   1  36
BRANCH   5  41
HETATM   41  O8  UNL     1      -3.956   1.178   3.079  1.00  0.00    -0.377 OA
ATOM     42  H8  UNL     1      -3.685   1.917   3.610  1.00  0.00     0.211 HD
ENDBRANCH   5  41
BRANCH   6  43
HETATM   43  C23 UNL     1      -5.714   0.487   0.910  1.00  0.00     0.209 C 
HETATM   44  O9  UNL     1      -6.780   0.779   0.111  1.00  0.00    -0.644 OA
HETATM   45  O10 UNL     1      -4.580   0.004   0.304  1.00  0.00    -0.644 OA
ENDBRANCH   6  43
TORSDOF 16
ENDMDL
MODEL 5
REMARK VINA RESULT: -7.420544794      0.530      1.008
REMARK  16 active torsions:
REMARK  status: ('A' for Active; 'I' for Inactive)
REMARK    1  A    between atoms: O1_2  and  C2_3 
REMARK    2  A    between atoms: C2_3  and  O2_4 
REMARK    3  A    between atoms: C2_3  and  C3_6 
REMARK    4  A    between atoms: C4_7  and  C5_8 
REMARK    5  A    between atoms: C5_8  and  O4_10 
REMARK    6  A    between atoms: C7_12  and  O5_13 
REMARK    7  A    between atoms: O5_13  and  C8_14 
REMARK    8  A    between atoms: C8_14  and  C9_15 
REMARK    9  A    between atoms: C9_15  and  C10_16 
REMARK   10  A    between atoms: C16_23  and  O6_24 
REMARK   11  A    between atoms: O6_24  and  C17_25 
REMARK   12  A    between atoms: C19_29  and  O7_30 
REMARK   13  A    between atoms: C21_33  and  O8_34 
REMARK   14  A    between atoms: C22_36  and  C23_37 
REMARK   15  A    between atoms: C24_40  and  O11_41 
REMARK   16  A    between atoms: C24_40  and  N2_43 
ROOT
HETATM    1  C3  UNL     1      -2.512   1.573   5.794  1.00  0.00     0.054 C 
HETATM    2  C4  UNL     1      -3.610   1.285   6.487  1.00  0.00     0.075 C 
HETATM    3  C7  UNL     1      -3.482   0.460   7.786  1.00  0.00     0.184 C 
HETATM    4  C16 UNL     1      -2.751  -0.714   7.334  1.00  0.00     0.218 C 
HETATM    5  C21 UNL     1      -1.514   0.139   7.497  1.00  0.00     0.182 C 
HETATM    6  C22 UNL     1      -1.257   0.881   6.260  1.00  0.00     0.076 C 
HETATM    7  C24 UNL     1      -2.295   1.026   8.506  1.00  0.00     0.273 C 
ENDROOT
BRANCH   3   8
HETATM    8  O5  UNL     1      -4.648   0.499   8.445  1.00  0.00    -0.366 OA
BRANCH   8   9
HETATM    9  C8  UNL     1      -5.338  -0.586   8.764  1.00  0.00     0.174 C 
BRANCH   9  10
HETATM   10  C9  UNL     1      -6.725  -0.246   9.276  1.00  0.00     0.065 C 
BRANCH  10  11
HETATM   11  C10 UNL     1      -6.880  -0.398  10.728  1.00  0.00    -0.056 A 
HETATM   12  C11 UNL     1      -8.062  -0.653  11.338  1.00  0.00     0.010 A 
HETATM   13  C12 UNL     1      -8.077  -0.766  12.738  1.00  0.00     0.043 A 
HETATM   14  C13 UNL     1      -6.920  -0.622  13.465  1.00  0.00     0.116 A 
HETATM   15  F1  UNL     1      -6.909  -0.727  14.815  1.00  0.00    -0.206 F 
HETATM   16  C14 UNL     1      -5.715  -0.361  12.818  1.00  0.00     0.043 A 
HETATM   17  C15 UNL     1      -5.699  -0.252  11.469  1.00  0.00     0.010 A 
ENDBRANCH  10  11
ENDBRANCH   9  10
ENDBRANCH   8   9
ENDBRANCH   3   8
BRANCH   2  18
HETATM   18  C5  UNL     1      -4.955   1.717   6.118  1.00  0.00     0.293 C 
HETATM   19  O3  UNL     1      -5.391   2.852   6.147  1.00  0.00    -0.259 OA
BRANCH  18  20
HETATM   20  O4  UNL     1      -5.923   0.774   5.652  1.00  0.00    -0.323 OA
HETATM   21  C6  UNL     1      -7.315   1.097   5.805  1.00  0.00     0.213 C 
ENDBRANCH  18  20
ENDBRANCH   2  18
BRANCH   4  22
HETATM   22  O6  UNL     1      -2.791  -1.908   8.062  1.00  0.00    -0.337 OA
BRANCH  22  23
HETATM   23  C17 UNL     1      -3.200  -3.140   7.598  1.00  0.00     0.089 A 
HETATM   24  C18 UNL     1      -3.506  -4.290   8.277  1.00  0.00     0.127 A 
HETATM   25  N1  UNL     1      -3.853  -5.225   7.390  1.00  0.00    -0.344 N 
HETATM   26  C19 UNL     1      -3.784  -4.721   6.151  1.00  0.00     0.142 A 
ATOM     27  H1  UNL     1      -4.128  -6.179   7.621  1.00  0.00     0.167 HD
HETATM   28  C20 UNL     1      -3.376  -3.412   6.257  1.00  0.00     0.094 A 
BRANCH  26  29
HETATM   29  O7  UNL     1      -4.073  -5.397   4.954  1.00  0.00    -0.346 OA
ATOM     30  H7  UNL     1      -3.543  -5.408   4.166  1.00  0.00     0.219 HD
ENDBRANCH  26  29
ENDBRANCH  22  23
ENDBRANCH   4  22
BRANCH   7  31
HETATM   31  O11 UNL     1      -2.112   2.349   8.349  1.00  0.00    -0.355 OA
HETATM   32  C25 UNL     1      -1.944   3.201   9.354  1.00  0.00     0.205 C 
ENDBRANCH   7  31
BRANCH   7  33
HETATM   33  N2  UNL     1      -1.938   0.631   9.840  1.00  0.00    -0.110 N 
HETATM   34  O12 UNL     1      -0.809   0.841  10.320  1.00  0.00    -0.534 OA
HETATM   35  O13 UNL     1      -2.745  -0.019  10.746  1.00  0.00    -0.534 OA
ENDBRANCH   7  33
BRANCH   1  36
HETATM   36  C2  UNL     1      -2.444   2.360   4.588  1.00  0.00     0.190 C 
BRANCH  36  37
HETATM   37  O1  UNL     1      -2.279   2.009   3.278  1.00  0.00    -0.335 OA
HETATM   38  C1  UNL     1      -1.058   2.236   2.545  1.00  0.00     0.212 C 
ENDBRANCH  36  37
BRANCH  36  39
HETATM   39  O2  UNL     1      -2.552   3.667   4.676  1.00  0.00    -0.340 OA
ATOM     40  H2  UNL     1      -1.760   4.021   5.063  1.00  0.00     0.220 HD
ENDBRANCH  36  39
ENDBRANCH   1  36
BRANCH   5  41
HETATM   41  O8  UNL     1      -0.443  -0.478   8.111  1.00  0.00    -0.377 OA
ATOM     42  H8  UNL     1      -0.578  -1.388   8.350  1.00  0.00     0.211 HD
ENDBRANCH   5  41
BRANCH   6  43
HETATM   43  C23 UNL     1       0.021   1.569   6.145  1.00  0.00     0.209 C 
HETATM   44  O9  UNL     1       1.178   0.926   6.476  1.00  0.00    -0.644 OA
HETATM   45  O10 UNL     1      -0.038   2.923   6.369  1.00  0.00    -0.644 OA
ENDBRANCH   6  43
TORSDOF 16
ENDMDL
