MODEL 1
REMARK VINA RESULT: -8.628684774      0.000      0.000
REMARK  20 active torsions:
REMARK  status: ('A' for Active; 'I' for Inactive)
REMARK    1  A    between atoms: O1_2  and  C2_3 
REMARK    2  A    between atoms: C3_4  and  O2_5 
REMARK    3  A    between atoms: O2_5  and  C4_6 
REMARK    4  A    between atoms: C4_6  and  C5_8 
REMARK    5  A    between atoms: C8_11  and  N1_12 
REMARK    6  A    between atoms: C14_21  and  O6_22 
REMARK    7  A    between atoms: C14_21  and  C15_24 
REMARK    8  A    between atoms: C15_24  and  O7_25 
REMARK    9  A    between atoms: N2_27  and  C16_28 
REMARK   10  A    between atoms: C16_28  and  O8_29 
REMARK   11  A    between atoms: C16_28  and  C17_31 
REMARK   12  A    between atoms: C17_31  and  O9_32 
REMARK   13  A    between atoms: C17_31  and  N3_34 
REMARK   14  A    between atoms: N3_34  and  O10_36 
REMARK   15  A    between atoms: O10_36  and  C18_37 
REMARK   16  A    between atoms: C18_37  and  C19_38 
REMARK   17  A    between atoms: C18_37  and  C23_42 
REMARK   18  A    between atoms: C19_38  and  C20_39 
REMARK   19  A    between atoms: C23_42  and  O11_43 
REMARK   20  A    between atoms: C23_42  and  O12_45 
ROOT
HETATM    1  C2  UNL     1      -6.444   2.125   4.885  1.00  0.00     0.082 C 
HETATM    2  C3  UNL     1      -6.158   0.839   5.222  1.00  0.00     0.113 C 
HETATM    3  C11 UNL     1      -6.124   0.047   3.954  1.00  0.00     0.179 C 
HETATM    4  C12 UNL     1      -7.176   0.844   3.221  1.00  0.00    -0.043 C 
HETATM    5  C13 UNL     1      -8.074   0.045   2.809  1.00  0.00     0.041 C 
HETATM    6  C14 UNL     1      -7.779  -1.392   3.190  1.00  0.00     0.177 C 
HETATM    7  N2  UNL     1      -6.605  -1.288   3.997  1.00  0.00    -0.306 N 
HETATM    8  C24 UNL     1      -6.614   2.212   3.386  1.00  0.00     0.103 C 
ENDROOT
BRANCH   7   9
HETATM    9  C16 UNL     1      -5.946  -2.347   4.653  1.00  0.00     0.196 C 
BRANCH   9  10
HETATM   10  O8  UNL     1      -5.029  -1.947   5.492  1.00  0.00    -0.343 OA
ATOM     11  H8  UNL     1      -4.690  -2.644   6.042  1.00  0.00     0.219 HD
ENDBRANCH   9  10
BRANCH   9  12
HETATM   12  C17 UNL     1      -6.120  -3.760   4.555  1.00  0.00     0.212 C 
BRANCH  12  13
HETATM   13  O9  UNL     1      -7.186  -4.378   4.005  1.00  0.00    -0.342 OA
ATOM     14  H9  UNL     1      -7.518  -5.230   4.261  1.00  0.00     0.219 HD
ENDBRANCH  12  13
BRANCH  12  15
HETATM   15  N3  UNL     1      -5.167  -4.517   5.041  1.00  0.00    -0.241 N 
ATOM     16  H3  UNL     1      -4.416  -4.719   4.381  1.00  0.00     0.196 HD
BRANCH  15  17
HETATM   17  O10 UNL     1      -5.006  -5.056   6.213  1.00  0.00    -0.268 OA
BRANCH  17  18
HETATM   18  C18 UNL     1      -3.996  -5.416   7.055  1.00  0.00     0.207 C 
BRANCH  18  19
HETATM   19  C19 UNL     1      -4.373  -5.549   8.510  1.00  0.00     0.043 C 
BRANCH  19  20
HETATM   20  C20 UNL     1      -4.608  -6.942   8.975  1.00  0.00    -0.020 C 
HETATM   21  C21 UNL     1      -4.174  -6.982  10.450  1.00  0.00     0.009 C 
HETATM   22  C22 UNL     1      -3.742  -7.960   8.271  1.00  0.00     0.009 C 
ENDBRANCH  19  20
ENDBRANCH  18  19
BRANCH  18  23
HETATM   23  C23 UNL     1      -2.801  -4.508   6.847  1.00  0.00     0.285 C 
BRANCH  23  24
HETATM   24  O11 UNL     1      -3.092  -3.167   6.930  1.00  0.00    -0.369 OA
ATOM     25  H11 UNL     1      -3.857  -2.903   6.433  1.00  0.00     0.212 HD
ENDBRANCH  23  24
BRANCH  23  26
HETATM   26  O12 UNL     1      -2.336  -4.734   5.532  1.00  0.00    -0.369 OA
ATOM     27  H12 UNL     1      -1.388  -4.691   5.562  1.00  0.00     0.212 HD
ENDBRANCH  23  26
ENDBRANCH  18  23
ENDBRANCH  17  18
ENDBRANCH  15  17
ENDBRANCH  12  15
ENDBRANCH   9  12
ENDBRANCH   7   9
BRANCH   6  28
HETATM   28  O6  UNL     1      -8.821  -1.914   3.907  1.00  0.00    -0.365 OA
ATOM     29  H6  UNL     1      -8.495  -2.503   4.577  1.00  0.00     0.213 HD
ENDBRANCH   6  28
BRANCH   6  30
HETATM   30  C15 UNL     1      -7.530  -2.156   1.892  1.00  0.00     0.229 C 
BRANCH  30  31
HETATM   31  O7  UNL     1      -8.648  -2.922   1.645  1.00  0.00    -0.396 OA
ATOM     32  H7  UNL     1      -9.032  -2.610   0.834  1.00  0.00     0.209 HD
ENDBRANCH  30  31
ENDBRANCH   6  30
BRANCH   2  33
HETATM   33  O2  UNL     1      -5.968   0.517   6.544  1.00  0.00    -0.274 OA
BRANCH  33  34
HETATM   34  C4  UNL     1      -6.890   0.145   7.480  1.00  0.00     0.301 C 
HETATM   35  O3  UNL     1      -8.067  -0.045   7.081  1.00  0.00    -0.259 OA
BRANCH  34  36
HETATM   36  C5  UNL     1      -6.599  -0.039   8.886  1.00  0.00     0.078 A 
HETATM   37  C6  UNL     1      -7.565  -0.082   9.865  1.00  0.00     0.023 A 
HETATM   38  C7  UNL     1      -7.276  -0.252  11.196  1.00  0.00     0.037 A 
HETATM   39  C8  UNL     1      -5.959  -0.390  11.611  1.00  0.00     0.105 A 
HETATM   40  C9  UNL     1      -4.982  -0.349  10.635  1.00  0.00     0.079 A 
HETATM   41  C10 UNL     1      -5.294  -0.176   9.297  1.00  0.00     0.135 A 
HETATM   42  F1  UNL     1      -4.247  -0.153   8.411  1.00  0.00    -0.205 F 
BRANCH  39  43
HETATM   43  N1  UNL     1      -5.648  -0.565  12.986  1.00  0.00    -0.116 N 
HETATM   44  O4  UNL     1      -4.468  -0.555  13.363  1.00  0.00    -0.532 OA
HETATM   45  O5  UNL     1      -6.659  -0.742  13.890  1.00  0.00    -0.532 OA
ENDBRANCH  39  43
ENDBRANCH  34  36
ENDBRANCH  33  34
ENDBRANCH   2  33
BRANCH   1  46
HETATM   46  O1  UNL     1      -6.559   3.160   5.755  1.00  0.00    -0.357 OA
HETATM   47  C1  UNL     1      -5.675   4.269   5.701  1.00  0.00     0.209 C 
ENDBRANCH   1  46
TORSDOF 20
ENDMDL
MODEL 2
REMARK VINA RESULT: -8.380442553      0.964      1.284
REMARK  20 active torsions:
REMARK  status: ('A' for Active; 'I' for Inactive)
REMARK    1  A    between atoms: O1_2  and  C2_3 
REMARK    2  A    between atoms: C3_4  and  O2_5 
REMARK    3  A    between atoms: O2_5  and  C4_6 
REMARK    4  A    between atoms: C4_6  and  C5_8 
REMARK    5  A    between atoms: C8_11  and  N1_12 
REMARK    6  A    between atoms: C14_21  and  O6_22 
REMARK    7  A    between atoms: C14_21  and  C15_24 
REMARK    8  A    between atoms: C15_24  and  O7_25 
REMARK    9  A    between atoms: N2_27  and  C16_28 
REMARK   10  A    between atoms: C16_28  and  O8_29 
REMARK   11  A    between atoms: C16_28  and  C17_31 
REMARK   12  A    between atoms: C17_31  and  O9_32 
REMARK   13  A    between atoms: C17_31  and  N3_34 
REMARK   14  A    between atoms: N3_34  and  O10_36 
REMARK   15  A    between atoms: O10_36  and  C18_37 
REMARK   16  A    between atoms: C18_37  and  C19_38 
REMARK   17  A    between atoms: C18_37  and  C23_42 
REMARK   18  A    between atoms: C19_38  and  C20_39 
REMARK   19  A    between atoms: C23_42  and  O11_43 
REMARK   20  A    between atoms: C23_42  and  O12_45 
ROOT
HETATM    1  C2  UNL     1      -5.690   2.227   4.849  1.00  0.00     0.082 C 
HETATM    2  C3  UNL     1      -5.941   0.923   5.142  1.00  0.00     0.113 C 
HETATM    3  C11 UNL     1      -5.929   0.169   3.850  1.00  0.00     0.179 C 
HETATM    4  C12 UNL     1      -6.471   1.286   2.991  1.00  0.00    -0.043 C 
HETATM    5  C13 UNL     1      -7.487   0.855   2.363  1.00  0.00     0.041 C 
HETATM    6  C14 UNL     1      -7.790  -0.594   2.690  1.00  0.00     0.177 C 
HETATM    7  N2  UNL     1      -6.840  -0.910   3.709  1.00  0.00    -0.306 N 
HETATM    8  C24 UNL     1      -5.515   2.367   3.354  1.00  0.00     0.103 C 
ENDROOT
BRANCH   7   9
HETATM    9  C16 UNL     1      -6.734  -2.132   4.401  1.00  0.00     0.196 C 
BRANCH   9  10
HETATM   10  O8  UNL     1      -7.617  -2.267   5.354  1.00  0.00    -0.343 OA
ATOM     11  H8  UNL     1      -8.124  -3.068   5.290  1.00  0.00     0.219 HD
ENDBRANCH   9  10
BRANCH   9  12
HETATM   12  C17 UNL     1      -5.839  -3.230   4.229  1.00  0.00     0.212 C 
BRANCH  12  13
HETATM   13  O9  UNL     1      -5.687  -3.942   3.093  1.00  0.00    -0.342 OA
ATOM     14  H9  UNL     1      -5.379  -3.595   2.265  1.00  0.00     0.219 HD
ENDBRANCH  12  13
BRANCH  12  15
HETATM   15  N3  UNL     1      -5.107  -3.575   5.260  1.00  0.00    -0.241 N 
ATOM     16  H3  UNL     1      -4.654  -2.792   5.732  1.00  0.00     0.196 HD
BRANCH  15  17
HETATM   17  O10 UNL     1      -4.855  -4.736   5.791  1.00  0.00    -0.268 OA
BRANCH  17  18
HETATM   18  C18 UNL     1      -4.029  -5.287   6.725  1.00  0.00     0.207 C 
BRANCH  18  19
HETATM   19  C19 UNL     1      -4.647  -6.354   7.595  1.00  0.00     0.043 C 
BRANCH  19  20
HETATM   20  C20 UNL     1      -3.845  -6.735   8.789  1.00  0.00    -0.020 C 
HETATM   21  C21 UNL     1      -3.458  -8.210   8.593  1.00  0.00     0.009 C 
HETATM   22  C22 UNL     1      -4.634  -6.692  10.076  1.00  0.00     0.009 C 
ENDBRANCH  19  20
ENDBRANCH  18  19
BRANCH  18  23
HETATM   23  C23 UNL     1      -3.361  -4.194   7.533  1.00  0.00     0.285 C 
BRANCH  23  24
HETATM   24  O11 UNL     1      -4.237  -3.370   8.197  1.00  0.00    -0.369 OA
ATOM     25  H11 UNL     1      -4.425  -3.639   9.089  1.00  0.00     0.212 HD
ENDBRANCH  23  24
BRANCH  23  26
HETATM   26  O12 UNL     1      -2.659  -3.377   6.619  1.00  0.00    -0.369 OA
ATOM     27  H12 UNL     1      -1.737  -3.445   6.838  1.00  0.00     0.212 HD
ENDBRANCH  23  26
ENDBRANCH  18  23
ENDBRANCH  17  18
ENDBRANCH  15  17
ENDBRANCH  12  15
ENDBRANCH   9  12
ENDBRANCH   7   9
BRANCH   6  28
HETATM   28  O6  UNL     1      -9.070  -0.714   3.160  1.00  0.00    -0.365 OA
ATOM     29  H6  UNL     1      -9.512  -1.434   2.726  1.00  0.00     0.213 HD
ENDBRANCH   6  28
BRANCH   6  30
HETATM   30  C15 UNL     1      -7.566  -1.397   1.412  1.00  0.00     0.229 C 
BRANCH  30  31
HETATM   31  O7  UNL     1      -8.605  -2.295   1.304  1.00  0.00    -0.396 OA
ATOM     32  H7  UNL     1      -8.462  -2.800   0.512  1.00  0.00     0.209 HD
ENDBRANCH  30  31
ENDBRANCH   6  30
BRANCH   2  33
HETATM   33  O2  UNL     1      -6.143   0.556   6.450  1.00  0.00    -0.274 OA
BRANCH  33  34
HETATM   34  C4  UNL     1      -5.340  -0.185   7.270  1.00  0.00     0.301 C 
HETATM   35  O3  UNL     1      -4.427  -0.855   6.724  1.00  0.00    -0.259 OA
BRANCH  34  36
HETATM   36  C5  UNL     1      -5.475  -0.245   8.710  1.00  0.00     0.078 A 
HETATM   37  C6  UNL     1      -6.676  -0.431   9.356  1.00  0.00     0.023 A 
HETATM   38  C7  UNL     1      -6.792  -0.481  10.723  1.00  0.00     0.037 A 
HETATM   39  C8  UNL     1      -5.667  -0.342  11.523  1.00  0.00     0.105 A 
HETATM   40  C9  UNL     1      -4.456  -0.157  10.883  1.00  0.00     0.079 A 
HETATM   41  C10 UNL     1      -4.361  -0.108   9.502  1.00  0.00     0.135 A 
HETATM   42  F1  UNL     1      -3.110   0.078   8.971  1.00  0.00    -0.205 F 
BRANCH  39  43
HETATM   43  N1  UNL     1      -5.775  -0.392  12.938  1.00  0.00    -0.116 N 
HETATM   44  O4  UNL     1      -4.756  -0.460  13.638  1.00  0.00    -0.532 OA
HETATM   45  O5  UNL     1      -7.011  -0.359  13.523  1.00  0.00    -0.532 OA
ENDBRANCH  39  43
ENDBRANCH  34  36
ENDBRANCH  33  34
ENDBRANCH   2  33
BRANCH   1  46
HETATM   46  O1  UNL     1      -5.613   3.237   5.752  1.00  0.00    -0.357 OA
HETATM   47  C1  UNL     1      -5.304   4.562   5.349  1.00  0.00     0.209 C 
ENDBRANCH   1  46
TORSDOF 20
ENDMDL
MODEL 3
REMARK VINA RESULT: -8.211966462      1.774      2.849
REMARK  20 active torsions:
REMARK  status: ('A' for Active; 'I' for Inactive)
REMARK    1  A    between atoms: O1_2  and  C2_3 
REMARK    2  A    between atoms: C3_4  and  O2_5 
REMARK    3  A    between atoms: O2_5  and  C4_6 
REMARK    4  A    between atoms: C4_6  and  C5_8 
REMARK    5  A    between atoms: C8_11  and  N1_12 
REMARK    6  A    between atoms: C14_21  and  O6_22 
REMARK    7  A    between atoms: C14_21  and  C15_24 
REMARK    8  A    between atoms: C15_24  and  O7_25 
REMARK    9  A    between atoms: N2_27  and  C16_28 
REMARK   10  A    between atoms: C16_28  and  O8_29 
REMARK   11  A    between atoms: C16_28  and  C17_31 
REMARK   12  A    between atoms: C17_31  and  O9_32 
REMARK   13  A    between atoms: C17_31  and  N3_34 
REMARK   14  A    between atoms: N3_34  and  O10_36 
REMARK   15  A    between atoms: O10_36  and  C18_37 
REMARK   16  A    between atoms: C18_37  and  C19_38 
REMARK   17  A    between atoms: C18_37  and  C23_42 
REMARK   18  A    between atoms: C19_38  and  C20_39 
REMARK   19  A    between atoms: C23_42  and  O11_43 
REMARK   20  A    between atoms: C23_42  and  O12_45 
ROOT
HETATM    1  C2  UNL     1      -5.373   1.892   4.647  1.00  0.00     0.082 C 
HETATM    2  C3  UNL     1      -5.676   0.609   4.981  1.00  0.00     0.113 C 
HETATM    3  C11 UNL     1      -5.862  -0.148   3.705  1.00  0.00     0.179 C 
HETATM    4  C12 UNL     1      -6.421   1.001   2.900  1.00  0.00    -0.043 C 
HETATM    5  C13 UNL     1      -7.529   0.638   2.395  1.00  0.00     0.041 C 
HETATM    6  C14 UNL     1      -7.889  -0.786   2.770  1.00  0.00     0.177 C 
HETATM    7  N2  UNL     1      -6.853  -1.163   3.679  1.00  0.00    -0.306 N 
HETATM    8  C24 UNL     1      -5.359   2.015   3.141  1.00  0.00     0.103 C 
ENDROOT
BRANCH   7   9
HETATM    9  C16 UNL     1      -6.753  -2.387   4.368  1.00  0.00     0.196 C 
BRANCH   9  10
HETATM   10  O8  UNL     1      -7.712  -2.576   5.235  1.00  0.00    -0.343 OA
ATOM     11  H8  UNL     1      -8.038  -3.468   5.250  1.00  0.00     0.219 HD
ENDBRANCH   9  10
BRANCH   9  12
HETATM   12  C17 UNL     1      -5.793  -3.439   4.271  1.00  0.00     0.212 C 
BRANCH  12  13
HETATM   13  O9  UNL     1      -5.717  -4.335   3.266  1.00  0.00    -0.342 OA
ATOM     14  H9  UNL     1      -5.145  -5.093   3.248  1.00  0.00     0.219 HD
ENDBRANCH  12  13
BRANCH  12  15
HETATM   15  N3  UNL     1      -4.917  -3.543   5.241  1.00  0.00    -0.241 N 
ATOM     16  H3  UNL     1      -4.361  -4.398   5.212  1.00  0.00     0.196 HD
BRANCH  15  17
HETATM   17  O10 UNL     1      -4.629  -2.753   6.233  1.00  0.00    -0.268 OA
BRANCH  17  18
HETATM   18  C18 UNL     1      -3.591  -2.491   7.077  1.00  0.00     0.207 C 
BRANCH  18  19
HETATM   19  C19 UNL     1      -2.722  -1.316   6.699  1.00  0.00     0.043 C 
BRANCH  19  20
HETATM   20  C20 UNL     1      -2.317  -0.442   7.832  1.00  0.00    -0.020 C 
HETATM   21  C21 UNL     1      -2.940   0.936   7.556  1.00  0.00     0.009 C 
HETATM   22  C22 UNL     1      -0.827  -0.206   7.901  1.00  0.00     0.009 C 
ENDBRANCH  19  20
ENDBRANCH  18  19
BRANCH  18  23
HETATM   23  C23 UNL     1      -2.788  -3.753   7.315  1.00  0.00     0.285 C 
BRANCH  23  24
HETATM   24  O11 UNL     1      -2.304  -4.337   6.170  1.00  0.00    -0.369 OA
ATOM     25  H11 UNL     1      -2.777  -5.116   5.900  1.00  0.00     0.212 HD
ENDBRANCH  23  24
BRANCH  23  26
HETATM   26  O12 UNL     1      -3.663  -4.693   7.903  1.00  0.00    -0.369 OA
ATOM     27  H12 UNL     1      -3.237  -5.014   8.690  1.00  0.00     0.212 HD
ENDBRANCH  23  26
ENDBRANCH  18  23
ENDBRANCH  17  18
ENDBRANCH  15  17
ENDBRANCH  12  15
ENDBRANCH   9  12
ENDBRANCH   7   9
BRANCH   6  28
HETATM   28  O6  UNL     1      -9.113  -0.816   3.383  1.00  0.00    -0.365 OA
ATOM     29  H6  UNL     1      -9.323   0.039   3.738  1.00  0.00     0.213 HD
ENDBRANCH   6  28
BRANCH   6  30
HETATM   30  C15 UNL     1      -7.867  -1.607   1.484  1.00  0.00     0.229 C 
BRANCH  30  31
HETATM   31  O7  UNL     1      -8.708  -2.682   1.668  1.00  0.00    -0.396 OA
ATOM     32  H7  UNL     1      -8.165  -3.439   1.855  1.00  0.00     0.209 HD
ENDBRANCH  30  31
ENDBRANCH   6  30
BRANCH   2  33
HETATM   33  O2  UNL     1      -5.753   0.261   6.308  1.00  0.00    -0.274 OA
BRANCH  33  34
HETATM   34  C4  UNL     1      -6.854   0.162   7.109  1.00  0.00     0.301 C 
HETATM   35  O3  UNL     1      -7.978   0.225   6.548  1.00  0.00    -0.259 OA
BRANCH  34  36
HETATM   36  C5  UNL     1      -6.808  -0.009   8.546  1.00  0.00     0.078 A 
HETATM   37  C6  UNL     1      -5.699  -0.461   9.224  1.00  0.00     0.023 A 
HETATM   38  C7  UNL     1      -5.669  -0.623  10.587  1.00  0.00     0.037 A 
HETATM   39  C8  UNL     1      -6.790  -0.327  11.349  1.00  0.00     0.105 A 
HETATM   40  C9  UNL     1      -7.908   0.130  10.677  1.00  0.00     0.079 A 
HETATM   41  C10 UNL     1      -7.918   0.286   9.300  1.00  0.00     0.135 A 
HETATM   42  F1  UNL     1      -9.079   0.748   8.735  1.00  0.00    -0.205 F 
BRANCH  39  43
HETATM   43  N1  UNL     1      -6.770  -0.492  12.759  1.00  0.00    -0.116 N 
HETATM   44  O4  UNL     1      -7.832  -0.518  13.397  1.00  0.00    -0.532 OA
HETATM   45  O5  UNL     1      -5.574  -0.626  13.407  1.00  0.00    -0.532 OA
ENDBRANCH  39  43
ENDBRANCH  34  36
ENDBRANCH  33  34
ENDBRANCH   2  33
BRANCH   1  46
HETATM   46  O1  UNL     1      -5.125   2.897   5.524  1.00  0.00    -0.357 OA
HETATM   47  C1  UNL     1      -5.732   4.171   5.374  1.00  0.00     0.209 C 
ENDBRANCH   1  46
TORSDOF 20
ENDMDL
MODEL 4
REMARK VINA RESULT: -8.203453129      2.866      6.789
REMARK  20 active torsions:
REMARK  status: ('A' for Active; 'I' for Inactive)
REMARK    1  A    between atoms: O1_2  and  C2_3 
REMARK    2  A    between atoms: C3_4  and  O2_5 
REMARK    3  A    between atoms: O2_5  and  C4_6 
REMARK    4  A    between atoms: C4_6  and  C5_8 
REMARK    5  A    between atoms: C8_11  and  N1_12 
REMARK    6  A    between atoms: C14_21  and  O6_22 
REMARK    7  A    between atoms: C14_21  and  C15_24 
REMARK    8  A    between atoms: C15_24  and  O7_25 
REMARK    9  A    between atoms: N2_27  and  C16_28 
REMARK   10  A    between atoms: C16_28  and  O8_29 
REMARK   11  A    between atoms: C16_28  and  C17_31 
REMARK   12  A    between atoms: C17_31  and  O9_32 
REMARK   13  A    between atoms: C17_31  and  N3_34 
REMARK   14  A    between atoms: N3_34  and  O10_36 
REMARK   15  A    between atoms: O10_36  and  C18_37 
REMARK   16  A    between atoms: C18_37  and  C19_38 
REMARK   17  A    between atoms: C18_37  and  C23_42 
REMARK   18  A    between atoms: C19_38  and  C20_39 
REMARK   19  A    between atoms: C23_42  and  O11_43 
REMARK   20  A    between atoms: C23_42  and  O12_45 
ROOT
HETATM    1  C2  UNL     1      -6.268  -0.325  10.924  1.00  0.00     0.082 C 
HETATM    2  C3  UNL     1      -5.604  -0.651   9.783  1.00  0.00     0.113 C 
HETATM    3  C11 UNL     1      -4.150  -0.734  10.126  1.00  0.00     0.179 C 
HETATM    4  C12 UNL     1      -4.161   0.335  11.192  1.00  0.00    -0.043 C 
HETATM    5  C13 UNL     1      -3.271   1.196  10.909  1.00  0.00     0.041 C 
HETATM    6  C14 UNL     1      -2.531   0.855   9.631  1.00  0.00     0.177 C 
HETATM    7  N2  UNL     1      -3.217  -0.302   9.148  1.00  0.00    -0.306 N 
HETATM    8  C24 UNL     1      -5.267  -0.175  12.047  1.00  0.00     0.103 C 
ENDROOT
BRANCH   7   9
HETATM    9  C16 UNL     1      -2.953  -0.987   7.947  1.00  0.00     0.196 C 
BRANCH   9  10
HETATM   10  O8  UNL     1      -2.540  -0.207   6.983  1.00  0.00    -0.343 OA
ATOM     11  H8  UNL     1      -3.191  -0.066   6.306  1.00  0.00     0.219 HD
ENDBRANCH   9  10
BRANCH   9  12
HETATM   12  C17 UNL     1      -3.056  -2.372   7.618  1.00  0.00     0.212 C 
BRANCH  12  13
HETATM   13  O9  UNL     1      -2.041  -3.260   7.655  1.00  0.00    -0.342 OA
ATOM     14  H9  UNL     1      -1.840  -3.892   6.976  1.00  0.00     0.219 HD
ENDBRANCH  12  13
BRANCH  12  15
HETATM   15  N3  UNL     1      -4.232  -2.814   7.246  1.00  0.00    -0.241 N 
ATOM     16  H3  UNL     1      -4.802  -3.180   8.009  1.00  0.00     0.196 HD
BRANCH  15  17
HETATM   17  O10 UNL     1      -4.805  -2.871   6.079  1.00  0.00    -0.268 OA
BRANCH  17  18
HETATM   18  C18 UNL     1      -4.951  -3.743   5.041  1.00  0.00     0.207 C 
BRANCH  18  19
HETATM   19  C19 UNL     1      -6.339  -3.835   4.455  1.00  0.00     0.043 C 
BRANCH  19  20
HETATM   20  C20 UNL     1      -6.415  -3.636   2.983  1.00  0.00    -0.020 C 
HETATM   21  C21 UNL     1      -6.372  -2.116   2.753  1.00  0.00     0.009 C 
HETATM   22  C22 UNL     1      -7.722  -4.098   2.385  1.00  0.00     0.009 C 
ENDBRANCH  19  20
ENDBRANCH  18  19
BRANCH  18  23
HETATM   23  C23 UNL     1      -4.392  -5.099   5.423  1.00  0.00     0.285 C 
BRANCH  23  24
HETATM   24  O11 UNL     1      -4.771  -5.533   6.670  1.00  0.00    -0.369 OA
ATOM     25  H11 UNL     1      -4.051  -5.642   7.281  1.00  0.00     0.212 HD
ENDBRANCH  23  24
BRANCH  23  26
HETATM   26  O12 UNL     1      -2.985  -4.969   5.456  1.00  0.00    -0.369 OA
ATOM     27  H12 UNL     1      -2.638  -5.803   5.753  1.00  0.00     0.212 HD
ENDBRANCH  23  26
ENDBRANCH  18  23
ENDBRANCH  17  18
ENDBRANCH  15  17
ENDBRANCH  12  15
ENDBRANCH   9  12
ENDBRANCH   7   9
BRANCH   6  28
HETATM   28  O6  UNL     1      -2.628   1.890   8.739  1.00  0.00    -0.365 OA
ATOM     29  H6  UNL     1      -1.793   2.031   8.310  1.00  0.00     0.213 HD
ENDBRANCH   6  28
BRANCH   6  30
HETATM   30  C15 UNL     1      -1.085   0.559  10.016  1.00  0.00     0.229 C 
BRANCH  30  31
HETATM   31  O7  UNL     1      -0.450   0.077   8.893  1.00  0.00    -0.396 OA
ATOM     32  H7  UNL     1      -0.404   0.789   8.266  1.00  0.00     0.209 HD
ENDBRANCH  30  31
ENDBRANCH   6  30
BRANCH   2  33
HETATM   33  O2  UNL     1      -6.313  -0.832   8.622  1.00  0.00    -0.274 OA
BRANCH  33  34
HETATM   34  C4  UNL     1      -6.508   0.038   7.588  1.00  0.00     0.301 C 
HETATM   35  O3  UNL     1      -5.564   0.822   7.314  1.00  0.00    -0.259 OA
BRANCH  34  36
HETATM   36  C5  UNL     1      -7.719   0.113   6.798  1.00  0.00     0.078 A 
HETATM   37  C6  UNL     1      -7.796  -0.281   5.482  1.00  0.00     0.023 A 
HETATM   38  C7  UNL     1      -8.950  -0.200   4.742  1.00  0.00     0.037 A 
HETATM   39  C8  UNL     1     -10.112   0.296   5.315  1.00  0.00     0.105 A 
HETATM   40  C9  UNL     1     -10.045   0.692   6.637  1.00  0.00     0.079 A 
HETATM   41  C10 UNL     1      -8.870   0.603   7.367  1.00  0.00     0.135 A 
HETATM   42  F1  UNL     1      -8.915   1.022   8.672  1.00  0.00    -0.205 F 
BRANCH  39  43
HETATM   43  N1  UNL     1     -11.311   0.385   4.559  1.00  0.00    -0.116 N 
HETATM   44  O4  UNL     1     -11.378   1.150   3.587  1.00  0.00    -0.532 OA
HETATM   45  O5  UNL     1     -12.389  -0.381   4.909  1.00  0.00    -0.532 OA
ENDBRANCH  39  43
ENDBRANCH  34  36
ENDBRANCH  33  34
ENDBRANCH   2  33
BRANCH   1  46
HETATM   46  O1  UNL     1      -7.610  -0.159  11.035  1.00  0.00    -0.357 OA
HETATM   47  C1  UNL     1      -8.396  -1.030  11.833  1.00  0.00     0.209 C 
ENDBRANCH   1  46
TORSDOF 20
ENDMDL
MODEL 5
REMARK VINA RESULT: -8.129478814      1.698      2.272
REMARK  20 active torsions:
REMARK  status: ('A' for Active; 'I' for Inactive)
REMARK    1  A    between atoms: O1_2  and  C2_3 
REMARK    2  A    between atoms: C3_4  and  O2_5 
REMARK    3  A    between atoms: O2_5  and  C4_6 
REMARK    4  A    between atoms: C4_6  and  C5_8 
REMARK    5  A    between atoms: C8_11  and  N1_12 
REMARK    6  A    between atoms: C14_21  and  O6_22 
REMARK    7  A    between atoms: C14_21  and  C15_24 
REMARK    8  A    between atoms: C15_24  and  O7_25 
REMARK    9  A    between atoms: N2_27  and  C16_28 
REMARK   10  A    between atoms: C16_28  and  O8_29 
REMARK   11  A    between atoms: C16_28  and  C17_31 
REMARK   12  A    between atoms: C17_31  and  O9_32 
REMARK   13  A    between atoms: C17_31  and  N3_34 
REMARK   14  A    between atoms: N3_34  and  O10_36 
REMARK   15  A    between atoms: O10_36  and  C18_37 
REMARK   16  A    between atoms: C18_37  and  C19_38 
REMARK   17  A    between atoms: C18_37  and  C23_42 
REMARK   18  A    between atoms: C19_38  and  C20_39 
REMARK   19  A    between atoms: C23_42  and  O11_43 
REMARK   20  A    between atoms: C23_42  and  O12_45 
ROOT
HETATM    1  C2  UNL     1      -5.158   1.705   5.139  1.00  0.00     0.082 C 
HETATM    2  C3  UNL     1      -5.800   0.507   5.173  1.00  0.00     0.113 C 
HETATM    3  C11 UNL     1      -6.220   0.190   3.772  1.00  0.00     0.179 C 
HETATM    4  C12 UNL     1      -6.454   1.616   3.334  1.00  0.00    -0.043 C 
HETATM    5  C13 UNL     1      -7.631   1.705   2.863  1.00  0.00     0.041 C 
HETATM    6  C14 UNL     1      -8.366   0.380   2.908  1.00  0.00     0.177 C 
HETATM    7  N2  UNL     1      -7.455  -0.483   3.591  1.00  0.00    -0.306 N 
HETATM    8  C24 UNL     1      -5.146   2.214   3.715  1.00  0.00     0.103 C 
ENDROOT
BRANCH   7   9
HETATM    9  C16 UNL     1      -7.685  -1.827   3.943  1.00  0.00     0.196 C 
BRANCH   9  10
HETATM   10  O8  UNL     1      -8.259  -1.969   5.108  1.00  0.00    -0.343 OA
ATOM     11  H8  UNL     1      -9.207  -2.019   5.059  1.00  0.00     0.219 HD
ENDBRANCH   9  10
BRANCH   9  12
HETATM   12  C17 UNL     1      -7.402  -3.039   3.243  1.00  0.00     0.212 C 
BRANCH  12  13
HETATM   13  O9  UNL     1      -8.314  -3.805   2.611  1.00  0.00    -0.342 OA
ATOM     14  H9  UNL     1      -8.475  -4.725   2.787  1.00  0.00     0.219 HD
ENDBRANCH  12  13
BRANCH  12  15
HETATM   15  N3  UNL     1      -6.154  -3.439   3.217  1.00  0.00    -0.241 N 
ATOM     16  H3  UNL     1      -5.868  -3.856   2.331  1.00  0.00     0.196 HD
BRANCH  15  17
HETATM   17  O10 UNL     1      -5.216  -3.401   4.117  1.00  0.00    -0.268 OA
BRANCH  17  18
HETATM   18  C18 UNL     1      -4.999  -3.802   5.402  1.00  0.00     0.207 C 
BRANCH  18  19
HETATM   19  C19 UNL     1      -4.377  -2.771   6.312  1.00  0.00     0.043 C 
BRANCH  19  20
HETATM   20  C20 UNL     1      -3.168  -3.227   7.047  1.00  0.00    -0.020 C 
HETATM   21  C21 UNL     1      -3.652  -3.667   8.439  1.00  0.00     0.009 C 
HETATM   22  C22 UNL     1      -2.169  -2.123   7.296  1.00  0.00     0.009 C 
ENDBRANCH  19  20
ENDBRANCH  18  19
BRANCH  18  23
HETATM   23  C23 UNL     1      -4.244  -5.115   5.412  1.00  0.00     0.285 C 
BRANCH  23  24
HETATM   24  O11 UNL     1      -4.154  -5.723   4.184  1.00  0.00    -0.369 OA
ATOM     25  H11 UNL     1      -4.879  -5.531   3.599  1.00  0.00     0.212 HD
ENDBRANCH  23  24
BRANCH  23  26
HETATM   26  O12 UNL     1      -4.968  -6.000   6.243  1.00  0.00    -0.369 OA
ATOM     27  H12 UNL     1      -4.336  -6.589   6.638  1.00  0.00     0.212 HD
ENDBRANCH  23  26
ENDBRANCH  18  23
ENDBRANCH  17  18
ENDBRANCH  15  17
ENDBRANCH  12  15
ENDBRANCH   9  12
ENDBRANCH   7   9
BRANCH   6  28
HETATM   28  O6  UNL     1      -9.535   0.512   3.608  1.00  0.00    -0.365 OA
ATOM     29  H6  UNL     1      -9.646   1.411   3.893  1.00  0.00     0.213 HD
ENDBRANCH   6  28
BRANCH   6  30
HETATM   30  C15 UNL     1      -8.604  -0.048   1.462  1.00  0.00     0.229 C 
BRANCH  30  31
HETATM   31  O7  UNL     1      -9.919   0.231   1.162  1.00  0.00    -0.396 OA
ATOM     32  H7  UNL     1     -10.460  -0.297   1.738  1.00  0.00     0.209 HD
ENDBRANCH  30  31
ENDBRANCH   6  30
BRANCH   2  33
HETATM   33  O2  UNL     1      -5.939  -0.147   6.372  1.00  0.00    -0.274 OA
BRANCH  33  34
HETATM   34  C4  UNL     1      -6.838   0.079   7.375  1.00  0.00     0.301 C 
HETATM   35  O3  UNL     1      -7.995   0.438   7.038  1.00  0.00    -0.259 OA
BRANCH  34  36
HETATM   36  C5  UNL     1      -6.544  -0.067   8.786  1.00  0.00     0.078 A 
HETATM   37  C6  UNL     1      -7.510  -0.210   9.755  1.00  0.00     0.023 A 
HETATM   38  C7  UNL     1      -7.219  -0.343  11.090  1.00  0.00     0.037 A 
HETATM   39  C8  UNL     1      -5.899  -0.337  11.519  1.00  0.00     0.105 A 
HETATM   40  C9  UNL     1      -4.922  -0.196  10.552  1.00  0.00     0.079 A 
HETATM   41  C10 UNL     1      -5.237  -0.063   9.210  1.00  0.00     0.135 A 
HETATM   42  F1  UNL     1      -4.189   0.069   8.335  1.00  0.00    -0.205 F 
BRANCH  39  43
HETATM   43  N1  UNL     1      -5.586  -0.472  12.897  1.00  0.00    -0.116 N 
HETATM   44  O4  UNL     1      -4.411  -0.389  13.279  1.00  0.00    -0.532 OA
HETATM   45  O5  UNL     1      -6.590  -0.692  13.800  1.00  0.00    -0.532 OA
ENDBRANCH  39  43
ENDBRANCH  34  36
ENDBRANCH  33  34
ENDBRANCH   2  33
BRANCH   1  46
HETATM   46  O1  UNL     1      -4.618   2.341   6.209  1.00  0.00    -0.357 OA
HETATM   47  C1  UNL     1      -3.243   2.690   6.242  1.00  0.00     0.209 C 
ENDBRANCH   1  46
TORSDOF 20
ENDMDL
