MODEL 1
REMARK VINA RESULT: -8.137719032      0.000      0.000
REMARK  16 active torsions:
REMARK  status: ('A' for Active; 'I' for Inactive)
REMARK    1  A    between atoms: O1_2  and  C2_3 
REMARK    2  A    between atoms: C3_5  and  C4_6 
REMARK    3  A    between atoms: C4_6  and  O3_7 
REMARK    4  A    between atoms: C5_9  and  O4_10 
REMARK    5  A    between atoms: C6_12  and  O5_13 
REMARK    6  A    between atoms: O5_13  and  C7_14 
REMARK    7  A    between atoms: C8_15  and  O6_16 
REMARK    8  A    between atoms: C11_20  and  O7_21 
REMARK    9  A    between atoms: O7_21  and  C12_22 
REMARK   10  A    between atoms: C12_22  and  C14_24 
REMARK   11  A    between atoms: C15_27  and  O10_28 
REMARK   12  A    between atoms: C16_30  and  O11_31 
REMARK   13  A    between atoms: C17_33  and  O12_34 
REMARK   14  A    between atoms: O12_34  and  C18_35 
REMARK   15  A    between atoms: C18_35  and  C19_37 
REMARK   16  A    between atoms: C20_38  and  C21_39 
ROOT
HETATM    1  C2  UNL     1      -1.401   4.001  10.602  1.00  0.00     0.291 C 
HETATM    2  O2  UNL     1      -1.710   5.149   9.878  1.00  0.00    -0.348 OA
HETATM    3  C3  UNL     1      -0.655   5.292   8.990  1.00  0.00     0.179 C 
HETATM    4  C5  UNL     1      -0.452   4.097   8.108  1.00  0.00     0.180 C 
HETATM    5  C6  UNL     1      -1.588   3.064   8.257  1.00  0.00     0.188 C 
HETATM    6  C17 UNL     1      -1.775   2.844   9.705  1.00  0.00     0.218 C 
ENDROOT
BRANCH   5   7
HETATM    7  O5  UNL     1      -1.437   1.986   7.469  1.00  0.00    -0.370 OA
BRANCH   7   8
HETATM    8  C7  UNL     1      -2.397   1.017   7.404  1.00  0.00     0.182 C 
HETATM    9  C8  UNL     1      -1.913  -0.387   7.270  1.00  0.00     0.156 C 
HETATM   10  C9  UNL     1      -3.091  -1.344   7.386  1.00  0.00     0.045 C 
HETATM   11  C10 UNL     1      -3.733  -1.166   8.734  1.00  0.00     0.015 C 
HETATM   12  C11 UNL     1      -4.055  -1.182   6.242  1.00  0.00     0.160 C 
HETATM   13  C15 UNL     1      -3.697   0.056   5.453  1.00  0.00     0.178 C 
HETATM   14  C16 UNL     1      -3.418   1.249   6.318  1.00  0.00     0.180 C 
BRANCH   9  15
HETATM   15  O6  UNL     1      -1.037  -0.803   8.247  1.00  0.00    -0.392 OA
ATOM     16  H6  UNL     1      -1.391  -1.426   8.871  1.00  0.00     0.210 HD
ENDBRANCH   9  15
BRANCH  12  17
HETATM   17  O7  UNL     1      -3.883  -2.259   5.376  1.00  0.00    -0.367 OA
BRANCH  17  18
HETATM   18  C12 UNL     1      -4.830  -3.240   5.513  1.00  0.00     0.218 C 
HETATM   19  C13 UNL     1      -5.610  -3.479   4.229  1.00  0.00     0.051 C 
BRANCH  18  20
HETATM   20  C14 UNL     1      -4.133  -4.514   5.815  1.00  0.00     0.202 C 
HETATM   21  O8  UNL     1      -4.853  -5.551   6.006  1.00  0.00    -0.646 OA
HETATM   22  O9  UNL     1      -2.770  -4.676   5.909  1.00  0.00    -0.646 OA
ENDBRANCH  18  20
ENDBRANCH  17  18
ENDBRANCH  12  17
BRANCH  13  23
HETATM   23  O10 UNL     1      -4.787   0.356   4.638  1.00  0.00    -0.390 OA
ATOM     24  H10 UNL     1      -4.798   1.299   4.519  1.00  0.00     0.210 HD
ENDBRANCH  13  23
BRANCH  14  25
HETATM   25  O11 UNL     1      -4.616   1.620   6.886  1.00  0.00    -0.390 OA
ATOM     26  H11 UNL     1      -4.608   2.555   7.058  1.00  0.00     0.210 HD
ENDBRANCH  14  25
ENDBRANCH   7   8
ENDBRANCH   5   7
BRANCH   4  27
HETATM   27  O4  UNL     1      -0.278   4.466   6.777  1.00  0.00    -0.390 OA
ATOM     28  H4  UNL     1       0.280   3.852   6.314  1.00  0.00     0.210 HD
ENDBRANCH   4  27
BRANCH   6  29
HETATM   29  O12 UNL     1      -1.097   1.748  10.264  1.00  0.00    -0.305 OA
BRANCH  29  30
HETATM   30  C18 UNL     1      -1.559   0.986  11.325  1.00  0.00     0.283 C 
HETATM   31  O13 UNL     1      -0.692   0.375  11.995  1.00  0.00    -0.260 OA
BRANCH  30  32
HETATM   32  C19 UNL     1      -2.975   0.877  11.673  1.00  0.00     0.083 C 
HETATM   33  C20 UNL     1      -3.526  -0.217  12.109  1.00  0.00     0.017 C 
BRANCH  33  34
HETATM   34  C21 UNL     1      -4.913  -0.401  12.472  1.00  0.00    -0.036 A 
HETATM   35  C22 UNL     1      -5.917  -0.258  11.534  1.00  0.00     0.011 A 
HETATM   36  C23 UNL     1      -7.249  -0.426  11.847  1.00  0.00     0.001 A 
HETATM   37  C24 UNL     1      -7.627  -0.750  13.133  1.00  0.00     0.000 A 
HETATM   38  C25 UNL     1      -6.654  -0.897  14.082  1.00  0.00     0.001 A 
HETATM   39  C26 UNL     1      -5.323  -0.722  13.745  1.00  0.00     0.011 A 
ENDBRANCH  33  34
ENDBRANCH  30  32
ENDBRANCH  29  30
ENDBRANCH   6  29
BRANCH   3  40
HETATM   40  C4  UNL     1      -0.974   6.493   8.125  1.00  0.00     0.198 C 
BRANCH  40  41
HETATM   41  O3  UNL     1      -2.303   6.462   7.681  1.00  0.00    -0.398 OA
ATOM     42  H3  UNL     1      -2.354   6.558   6.737  1.00  0.00     0.209 HD
ENDBRANCH  40  41
ENDBRANCH   3  40
BRANCH   1  43
HETATM   43  O1  UNL     1      -0.028   3.944  10.827  1.00  0.00    -0.363 OA
HETATM   44  C1  UNL     1       0.280   4.153  12.174  1.00  0.00     0.204 C 
ENDBRANCH   1  43
TORSDOF 16
ENDMDL
MODEL 2
REMARK VINA RESULT: -8.027028487      5.380      8.738
REMARK  16 active torsions:
REMARK  status: ('A' for Active; 'I' for Inactive)
REMARK    1  A    between atoms: O1_2  and  C2_3 
REMARK    2  A    between atoms: C3_5  and  C4_6 
REMARK    3  A    between atoms: C4_6  and  O3_7 
REMARK    4  A    between atoms: C5_9  and  O4_10 
REMARK    5  A    between atoms: C6_12  and  O5_13 
REMARK    6  A    between atoms: O5_13  and  C7_14 
REMARK    7  A    between atoms: C8_15  and  O6_16 
REMARK    8  A    between atoms: C11_20  and  O7_21 
REMARK    9  A    between atoms: O7_21  and  C12_22 
REMARK   10  A    between atoms: C12_22  and  C14_24 
REMARK   11  A    between atoms: C15_27  and  O10_28 
REMARK   12  A    between atoms: C16_30  and  O11_31 
REMARK   13  A    between atoms: C17_33  and  O12_34 
REMARK   14  A    between atoms: O12_34  and  C18_35 
REMARK   15  A    between atoms: C18_35  and  C19_37 
REMARK   16  A    between atoms: C20_38  and  C21_39 
ROOT
HETATM    1  C2  UNL     1      -4.779  -2.219   5.008  1.00  0.00     0.291 C 
HETATM    2  O2  UNL     1      -5.131  -2.441   3.680  1.00  0.00    -0.348 OA
HETATM    3  C3  UNL     1      -6.346  -3.106   3.751  1.00  0.00     0.179 C 
HETATM    4  C5  UNL     1      -7.398  -2.348   4.502  1.00  0.00     0.180 C 
HETATM    5  C6  UNL     1      -6.945  -0.915   4.853  1.00  0.00     0.188 C 
HETATM    6  C17 UNL     1      -5.599  -1.030   5.452  1.00  0.00     0.218 C 
ENDROOT
BRANCH   5   7
HETATM    7  O5  UNL     1      -7.872  -0.208   5.518  1.00  0.00    -0.370 OA
BRANCH   7   8
HETATM    8  C7  UNL     1      -9.045   0.160   4.922  1.00  0.00     0.182 C 
HETATM    9  C8  UNL     1      -9.158   1.588   4.507  1.00  0.00     0.156 C 
HETATM   10  C9  UNL     1     -10.441   1.786   3.712  1.00  0.00     0.045 C 
HETATM   11  C10 UNL     1     -10.394   0.916   2.487  1.00  0.00     0.015 C 
HETATM   12  C11 UNL     1     -11.663   1.556   4.558  1.00  0.00     0.160 C 
HETATM   13  C15 UNL     1     -11.252   0.951   5.881  1.00  0.00     0.178 C 
HETATM   14  C16 UNL     1     -10.269  -0.173   5.738  1.00  0.00     0.180 C 
BRANCH   9  15
HETATM   15  O6  UNL     1      -8.163   2.039   3.669  1.00  0.00    -0.392 OA
ATOM     16  H6  UNL     1      -8.365   2.000   2.742  1.00  0.00     0.210 HD
ENDBRANCH   9  15
BRANCH  12  17
HETATM   17  O7  UNL     1     -12.223   2.796   4.856  1.00  0.00    -0.367 OA
BRANCH  17  18
HETATM   18  C12 UNL     1     -12.990   3.316   3.846  1.00  0.00     0.218 C 
HETATM   19  C13 UNL     1     -13.975   2.303   3.283  1.00  0.00     0.051 C 
BRANCH  18  20
HETATM   20  C14 UNL     1     -13.807   4.417   4.411  1.00  0.00     0.202 C 
HETATM   21  O8  UNL     1     -13.833   4.542   5.682  1.00  0.00    -0.646 OA
HETATM   22  O9  UNL     1     -14.546   5.321   3.681  1.00  0.00    -0.646 OA
ENDBRANCH  18  20
ENDBRANCH  17  18
ENDBRANCH  12  17
BRANCH  13  23
HETATM   23  O10 UNL     1     -12.405   0.444   6.479  1.00  0.00    -0.390 OA
ATOM     24  H10 UNL     1     -12.808   1.157   6.961  1.00  0.00     0.210 HD
ENDBRANCH  13  23
BRANCH  14  25
HETATM   25  O11 UNL     1     -10.941  -1.221   5.151  1.00  0.00    -0.390 OA
ATOM     26  H11 UNL     1     -11.872  -1.028   5.129  1.00  0.00     0.210 HD
ENDBRANCH  14  25
ENDBRANCH   7   8
ENDBRANCH   5   7
BRANCH   4  27
HETATM   27  O4  UNL     1      -8.610  -2.339   3.819  1.00  0.00    -0.390 OA
ATOM     28  H4  UNL     1      -8.514  -1.987   2.941  1.00  0.00     0.210 HD
ENDBRANCH   4  27
BRANCH   6  29
HETATM   29  O12 UNL     1      -5.540  -1.081   6.853  1.00  0.00    -0.305 OA
BRANCH  29  30
HETATM   30  C18 UNL     1      -5.080  -0.058   7.666  1.00  0.00     0.283 C 
HETATM   31  O13 UNL     1      -4.710   0.994   7.088  1.00  0.00    -0.260 OA
BRANCH  30  32
HETATM   32  C19 UNL     1      -5.013  -0.162   9.122  1.00  0.00     0.083 C 
HETATM   33  C20 UNL     1      -6.054  -0.345   9.879  1.00  0.00     0.017 C 
BRANCH  33  34
HETATM   34  C21 UNL     1      -6.067  -0.457  11.321  1.00  0.00    -0.036 A 
HETATM   35  C22 UNL     1      -7.259  -0.512  12.017  1.00  0.00     0.011 A 
HETATM   36  C23 UNL     1      -7.306  -0.619  13.392  1.00  0.00     0.001 A 
HETATM   37  C24 UNL     1      -6.140  -0.677  14.126  1.00  0.00     0.000 A 
HETATM   38  C25 UNL     1      -4.947  -0.624  13.462  1.00  0.00     0.001 A 
HETATM   39  C26 UNL     1      -4.923  -0.516  12.082  1.00  0.00     0.011 A 
ENDBRANCH  33  34
ENDBRANCH  30  32
ENDBRANCH  29  30
ENDBRANCH   6  29
BRANCH   3  40
HETATM   40  C4  UNL     1      -6.812  -3.313   2.325  1.00  0.00     0.198 C 
BRANCH  40  41
HETATM   41  O3  UNL     1      -7.163  -4.649   2.093  1.00  0.00    -0.398 OA
ATOM     42  H3  UNL     1      -6.894  -4.931   1.227  1.00  0.00     0.209 HD
ENDBRANCH  40  41
ENDBRANCH   3  40
BRANCH   1  43
HETATM   43  O1  UNL     1      -5.156  -3.314   5.782  1.00  0.00    -0.363 OA
HETATM   44  C1  UNL     1      -4.048  -4.061   6.189  1.00  0.00     0.204 C 
ENDBRANCH   1  43
TORSDOF 16
ENDMDL
MODEL 3
REMARK VINA RESULT: -7.819316286      1.205      1.363
REMARK  16 active torsions:
REMARK  status: ('A' for Active; 'I' for Inactive)
REMARK    1  A    between atoms: O1_2  and  C2_3 
REMARK    2  A    between atoms: C3_5  and  C4_6 
REMARK    3  A    between atoms: C4_6  and  O3_7 
REMARK    4  A    between atoms: C5_9  and  O4_10 
REMARK    5  A    between atoms: C6_12  and  O5_13 
REMARK    6  A    between atoms: O5_13  and  C7_14 
REMARK    7  A    between atoms: C8_15  and  O6_16 
REMARK    8  A    between atoms: C11_20  and  O7_21 
REMARK    9  A    between atoms: O7_21  and  C12_22 
REMARK   10  A    between atoms: C12_22  and  C14_24 
REMARK   11  A    between atoms: C15_27  and  O10_28 
REMARK   12  A    between atoms: C16_30  and  O11_31 
REMARK   13  A    between atoms: C17_33  and  O12_34 
REMARK   14  A    between atoms: O12_34  and  C18_35 
REMARK   15  A    between atoms: C18_35  and  C19_37 
REMARK   16  A    between atoms: C20_38  and  C21_39 
ROOT
HETATM    1  C2  UNL     1      -1.345   4.104   9.769  1.00  0.00     0.291 C 
HETATM    2  O2  UNL     1      -1.805   4.701   8.599  1.00  0.00    -0.348 OA
HETATM    3  C3  UNL     1      -0.894   4.308   7.629  1.00  0.00     0.179 C 
HETATM    4  C5  UNL     1      -0.764   2.821   7.500  1.00  0.00     0.180 C 
HETATM    5  C6  UNL     1      -1.820   2.069   8.339  1.00  0.00     0.188 C 
HETATM    6  C17 UNL     1      -1.789   2.662   9.691  1.00  0.00     0.218 C 
ENDROOT
BRANCH   5   7
HETATM    7  O5  UNL     1      -1.734   0.733   8.234  1.00  0.00    -0.370 OA
BRANCH   7   8
HETATM    8  C7  UNL     1      -2.800  -0.015   7.823  1.00  0.00     0.182 C 
HETATM    9  C8  UNL     1      -2.483  -1.317   7.169  1.00  0.00     0.156 C 
HETATM   10  C9  UNL     1      -3.770  -2.094   6.933  1.00  0.00     0.045 C 
HETATM   11  C10 UNL     1      -4.433  -2.353   8.258  1.00  0.00     0.015 C 
HETATM   12  C11 UNL     1      -4.668  -1.401   5.945  1.00  0.00     0.160 C 
HETATM   13  C15 UNL     1      -4.136  -0.013   5.670  1.00  0.00     0.178 C 
HETATM   14  C16 UNL     1      -3.747   0.729   6.915  1.00  0.00     0.180 C 
BRANCH   9  15
HETATM   15  O6  UNL     1      -1.698  -2.172   7.908  1.00  0.00    -0.392 OA
ATOM     16  H6  UNL     1      -2.045  -3.049   8.020  1.00  0.00     0.210 HD
ENDBRANCH   9  15
BRANCH  12  17
HETATM   17  O7  UNL     1      -4.595  -2.091   4.737  1.00  0.00    -0.367 OA
BRANCH  17  18
HETATM   18  C12 UNL     1      -5.767  -2.703   4.375  1.00  0.00     0.218 C 
HETATM   19  C13 UNL     1      -6.181  -2.368   2.950  1.00  0.00     0.051 C 
BRANCH  18  20
HETATM   20  C14 UNL     1      -5.550  -4.169   4.409  1.00  0.00     0.202 C 
HETATM   21  O8  UNL     1      -5.572  -4.795   3.295  1.00  0.00    -0.646 OA
HETATM   22  O9  UNL     1      -5.326  -4.919   5.540  1.00  0.00    -0.646 OA
ENDBRANCH  18  20
ENDBRANCH  17  18
ENDBRANCH  12  17
BRANCH  13  23
HETATM   23  O10 UNL     1      -5.154   0.701   5.040  1.00  0.00    -0.390 OA
ATOM     24  H10 UNL     1      -5.698   1.078   5.722  1.00  0.00     0.210 HD
ENDBRANCH  13  23
BRANCH  14  25
HETATM   25  O11 UNL     1      -4.911   1.007   7.595  1.00  0.00    -0.390 OA
ATOM     26  H11 UNL     1      -5.653   0.900   7.011  1.00  0.00     0.210 HD
ENDBRANCH  14  25
ENDBRANCH   7   8
ENDBRANCH   5   7
BRANCH   4  27
HETATM   27  O4  UNL     1      -0.798   2.417   6.169  1.00  0.00    -0.390 OA
ATOM     28  H4  UNL     1      -1.093   1.517   6.084  1.00  0.00     0.210 HD
ENDBRANCH   4  27
BRANCH   6  29
HETATM   29  O12 UNL     1      -0.990   2.009  10.643  1.00  0.00    -0.305 OA
BRANCH  29  30
HETATM   30  C18 UNL     1      -1.451   1.086  11.567  1.00  0.00     0.283 C 
HETATM   31  O13 UNL     1      -0.586   0.356  12.111  1.00  0.00    -0.260 OA
BRANCH  30  32
HETATM   32  C19 UNL     1      -2.864   0.943  11.917  1.00  0.00     0.083 C 
HETATM   33  C20 UNL     1      -3.598  -0.064  11.547  1.00  0.00     0.017 C 
BRANCH  33  34
HETATM   34  C21 UNL     1      -4.995  -0.274  11.852  1.00  0.00    -0.036 A 
HETATM   35  C22 UNL     1      -5.938  -0.346  10.845  1.00  0.00     0.011 A 
HETATM   36  C23 UNL     1      -7.279  -0.545  11.101  1.00  0.00     0.001 A 
HETATM   37  C24 UNL     1      -7.726  -0.682  12.399  1.00  0.00     0.000 A 
HETATM   38  C25 UNL     1      -6.814  -0.615  13.414  1.00  0.00     0.001 A 
HETATM   39  C26 UNL     1      -5.474  -0.414  13.133  1.00  0.00     0.011 A 
ENDBRANCH  33  34
ENDBRANCH  30  32
ENDBRANCH  29  30
ENDBRANCH   6  29
BRANCH   3  40
HETATM   40  C4  UNL     1      -1.388   4.875   6.315  1.00  0.00     0.198 C 
BRANCH  40  41
HETATM   41  O3  UNL     1      -2.762   4.658   6.151  1.00  0.00    -0.398 OA
ATOM     42  H3  UNL     1      -3.092   5.100   5.378  1.00  0.00     0.209 HD
ENDBRANCH  40  41
ENDBRANCH   3  40
BRANCH   1  43
HETATM   43  O1  UNL     1       0.048   4.124   9.789  1.00  0.00    -0.363 OA
HETATM   44  C1  UNL     1       0.534   5.011  10.753  1.00  0.00     0.204 C 
ENDBRANCH   1  43
TORSDOF 16
ENDMDL
MODEL 4
REMARK VINA RESULT: -7.665307204      4.209      7.173
REMARK  16 active torsions:
REMARK  status: ('A' for Active; 'I' for Inactive)
REMARK    1  A    between atoms: O1_2  and  C2_3 
REMARK    2  A    between atoms: C3_5  and  C4_6 
REMARK    3  A    between atoms: C4_6  and  O3_7 
REMARK    4  A    between atoms: C5_9  and  O4_10 
REMARK    5  A    between atoms: C6_12  and  O5_13 
REMARK    6  A    between atoms: O5_13  and  C7_14 
REMARK    7  A    between atoms: C8_15  and  O6_16 
REMARK    8  A    between atoms: C11_20  and  O7_21 
REMARK    9  A    between atoms: O7_21  and  C12_22 
REMARK   10  A    between atoms: C12_22  and  C14_24 
REMARK   11  A    between atoms: C15_27  and  O10_28 
REMARK   12  A    between atoms: C16_30  and  O11_31 
REMARK   13  A    between atoms: C17_33  and  O12_34 
REMARK   14  A    between atoms: O12_34  and  C18_35 
REMARK   15  A    between atoms: C18_35  and  C19_37 
REMARK   16  A    between atoms: C20_38  and  C21_39 
ROOT
HETATM    1  C2  UNL     1      -8.760  -0.859   4.650  1.00  0.00     0.291 C 
HETATM    2  O2  UNL     1      -8.785  -1.813   3.637  1.00  0.00    -0.348 OA
HETATM    3  C3  UNL     1      -7.921  -1.317   2.673  1.00  0.00     0.179 C 
HETATM    4  C5  UNL     1      -6.536  -1.064   3.186  1.00  0.00     0.180 C 
HETATM    5  C6  UNL     1      -6.339  -1.601   4.620  1.00  0.00     0.188 C 
HETATM    6  C17 UNL     1      -7.484  -1.114   5.416  1.00  0.00     0.218 C 
ENDROOT
BRANCH   5   7
HETATM    7  O5  UNL     1      -5.103  -1.397   5.102  1.00  0.00    -0.370 OA
BRANCH   7   8
HETATM    8  C7  UNL     1      -4.416  -2.394   5.735  1.00  0.00     0.182 C 
HETATM    9  C8  UNL     1      -5.159  -3.665   5.969  1.00  0.00     0.156 C 
HETATM   10  C9  UNL     1      -4.206  -4.717   6.520  1.00  0.00     0.045 C 
HETATM   11  C10 UNL     1      -3.113  -4.958   5.516  1.00  0.00     0.015 C 
HETATM   12  C11 UNL     1      -3.690  -4.343   7.882  1.00  0.00     0.160 C 
HETATM   13  C15 UNL     1      -4.074  -2.914   8.191  1.00  0.00     0.178 C 
HETATM   14  C16 UNL     1      -3.815  -1.972   7.053  1.00  0.00     0.180 C 
BRANCH   9  15
HETATM   15  O6  UNL     1      -5.698  -4.248   4.844  1.00  0.00    -0.392 OA
ATOM     16  H6  UNL     1      -6.411  -4.856   5.003  1.00  0.00     0.210 HD
ENDBRANCH   9  15
BRANCH  12  17
HETATM   17  O7  UNL     1      -4.344  -5.133   8.824  1.00  0.00    -0.367 OA
BRANCH  17  18
HETATM   18  C12 UNL     1      -3.780  -6.370   9.000  1.00  0.00     0.218 C 
HETATM   19  C13 UNL     1      -3.745  -6.791  10.461  1.00  0.00     0.051 C 
BRANCH  18  20
HETATM   20  C14 UNL     1      -4.631  -7.366   8.304  1.00  0.00     0.202 C 
HETATM   21  O8  UNL     1      -4.068  -8.433   7.884  1.00  0.00    -0.646 OA
HETATM   22  O9  UNL     1      -5.981  -7.240   8.069  1.00  0.00    -0.646 OA
ENDBRANCH  18  20
ENDBRANCH  17  18
ENDBRANCH  12  17
BRANCH  13  23
HETATM   23  O10 UNL     1      -3.302  -2.504   9.277  1.00  0.00    -0.390 OA
ATOM     24  H10 UNL     1      -3.743  -2.803  10.064  1.00  0.00     0.210 HD
ENDBRANCH  13  23
BRANCH  14  25
HETATM   25  O11 UNL     1      -2.449  -1.869   6.922  1.00  0.00    -0.390 OA
ATOM     26  H11 UNL     1      -2.223  -1.795   6.001  1.00  0.00     0.210 HD
ENDBRANCH  14  25
ENDBRANCH   7   8
ENDBRANCH   5   7
BRANCH   4  27
HETATM   27  O4  UNL     1      -5.569  -1.569   2.323  1.00  0.00    -0.390 OA
ATOM     28  H4  UNL     1      -5.149  -0.877   1.825  1.00  0.00     0.210 HD
ENDBRANCH   4  27
BRANCH   6  29
HETATM   29  O12 UNL     1      -7.281   0.070   6.143  1.00  0.00    -0.305 OA
BRANCH  29  30
HETATM   30  C18 UNL     1      -7.730   0.296   7.434  1.00  0.00     0.283 C 
HETATM   31  O13 UNL     1      -8.940   0.611   7.559  1.00  0.00    -0.260 OA
BRANCH  30  32
HETATM   32  C19 UNL     1      -6.870   0.185   8.610  1.00  0.00     0.083 C 
HETATM   33  C20 UNL     1      -7.299  -0.176   9.783  1.00  0.00     0.017 C 
BRANCH  33  34
HETATM   34  C21 UNL     1      -6.511  -0.308  10.989  1.00  0.00    -0.036 A 
HETATM   35  C22 UNL     1      -7.120  -0.445  12.222  1.00  0.00     0.011 A 
HETATM   36  C23 UNL     1      -6.399  -0.573  13.390  1.00  0.00     0.001 A 
HETATM   37  C24 UNL     1      -5.020  -0.569  13.362  1.00  0.00     0.000 A 
HETATM   38  C25 UNL     1      -4.393  -0.435  12.155  1.00  0.00     0.001 A 
HETATM   39  C26 UNL     1      -5.137  -0.307  10.995  1.00  0.00     0.011 A 
ENDBRANCH  33  34
ENDBRANCH  30  32
ENDBRANCH  29  30
ENDBRANCH   6  29
BRANCH   3  40
HETATM   40  C4  UNL     1      -7.856  -2.355   1.573  1.00  0.00     0.198 C 
BRANCH  40  41
HETATM   41  O3  UNL     1      -9.057  -3.070   1.475  1.00  0.00    -0.398 OA
ATOM     42  H3  UNL     1      -9.749  -2.652   1.972  1.00  0.00     0.209 HD
ENDBRANCH  40  41
ENDBRANCH   3  40
BRANCH   1  43
HETATM   43  O1  UNL     1      -8.679   0.415   4.091  1.00  0.00    -0.363 OA
HETATM   44  C1  UNL     1      -9.920   1.056   4.092  1.00  0.00     0.204 C 
ENDBRANCH   1  43
TORSDOF 16
ENDMDL
MODEL 5
REMARK VINA RESULT: -7.505027518      4.964      7.407
REMARK  16 active torsions:
REMARK  status: ('A' for Active; 'I' for Inactive)
REMARK    1  A    between atoms: O1_2  and  C2_3 
REMARK    2  A    between atoms: C3_5  and  C4_6 
REMARK    3  A    between atoms: C4_6  and  O3_7 
REMARK    4  A    between atoms: C5_9  and  O4_10 
REMARK    5  A    between atoms: C6_12  and  O5_13 
REMARK    6  A    between atoms: O5_13  and  C7_14 
REMARK    7  A    between atoms: C8_15  and  O6_16 
REMARK    8  A    between atoms: C11_20  and  O7_21 
REMARK    9  A    between atoms: O7_21  and  C12_22 
REMARK   10  A    between atoms: C12_22  and  C14_24 
REMARK   11  A    between atoms: C15_27  and  O10_28 
REMARK   12  A    between atoms: C16_30  and  O11_31 
REMARK   13  A    between atoms: C17_33  and  O12_34 
REMARK   14  A    between atoms: O12_34  and  C18_35 
REMARK   15  A    between atoms: C18_35  and  C19_37 
REMARK   16  A    between atoms: C20_38  and  C21_39 
ROOT
HETATM    1  C2  UNL     1      -3.658   0.812   5.642  1.00  0.00     0.291 C 
HETATM    2  O2  UNL     1      -3.113   1.418   4.515  1.00  0.00    -0.348 OA
HETATM    3  C3  UNL     1      -2.970   0.384   3.601  1.00  0.00     0.179 C 
HETATM    4  C5  UNL     1      -4.254  -0.330   3.303  1.00  0.00     0.180 C 
HETATM    5  C6  UNL     1      -5.473   0.377   3.931  1.00  0.00     0.188 C 
HETATM    6  C17 UNL     1      -5.129   0.644   5.342  1.00  0.00     0.218 C 
ENDROOT
BRANCH   5   7
HETATM    7  O5  UNL     1      -6.639  -0.235   3.671  1.00  0.00    -0.370 OA
BRANCH   7   8
HETATM    8  C7  UNL     1      -7.810   0.466   3.608  1.00  0.00     0.182 C 
HETATM    9  C8  UNL     1      -9.047  -0.330   3.366  1.00  0.00     0.156 C 
HETATM   10  C9  UNL     1     -10.266   0.572   3.498  1.00  0.00     0.045 C 
HETATM   11  C10 UNL     1     -10.305   1.139   4.890  1.00  0.00     0.015 C 
HETATM   12  C11 UNL     1     -10.298   1.627   2.426  1.00  0.00     0.160 C 
HETATM   13  C15 UNL     1      -8.979   1.634   1.688  1.00  0.00     0.178 C 
HETATM   14  C16 UNL     1      -7.789   1.588   2.601  1.00  0.00     0.180 C 
BRANCH   9  15
HETATM   15  O6  UNL     1      -9.277  -1.349   4.263  1.00  0.00    -0.392 OA
ATOM     16  H6  UNL     1      -8.639  -1.426   4.963  1.00  0.00     0.210 HD
ENDBRANCH   9  15
BRANCH  12  17
HETATM   17  O7  UNL     1     -11.264   1.264   1.491  1.00  0.00    -0.367 OA
BRANCH  17  18
HETATM   18  C12 UNL     1     -12.532   1.672   1.815  1.00  0.00     0.218 C 
HETATM   19  C13 UNL     1     -12.728   3.168   1.621  1.00  0.00     0.051 C 
BRANCH  18  20
HETATM   20  C14 UNL     1     -13.480   1.008   0.888  1.00  0.00     0.202 C 
HETATM   21  O8  UNL     1     -14.204   1.755   0.147  1.00  0.00    -0.646 OA
HETATM   22  O9  UNL     1     -13.648  -0.351   0.755  1.00  0.00    -0.646 OA
ENDBRANCH  18  20
ENDBRANCH  17  18
ENDBRANCH  12  17
BRANCH  13  23
HETATM   23  O10 UNL     1      -8.920   2.820   0.958  1.00  0.00    -0.390 OA
ATOM     24  H10 UNL     1      -9.225   2.625   0.079  1.00  0.00     0.210 HD
ENDBRANCH  13  23
BRANCH  14  25
HETATM   25  O11 UNL     1      -7.744   2.796   3.259  1.00  0.00    -0.390 OA
ATOM     26  H11 UNL     1      -7.093   3.356   2.851  1.00  0.00     0.210 HD
ENDBRANCH  14  25
ENDBRANCH   7   8
ENDBRANCH   5   7
BRANCH   4  27
HETATM   27  O4  UNL     1      -4.430  -0.518   1.936  1.00  0.00    -0.390 OA
ATOM     28  H4  UNL     1      -4.736  -1.396   1.740  1.00  0.00     0.210 HD
ENDBRANCH   4  27
BRANCH   6  29
HETATM   29  O12 UNL     1      -5.562  -0.305   6.282  1.00  0.00    -0.305 OA
BRANCH  29  30
HETATM   30  C18 UNL     1      -6.381  -0.034   7.365  1.00  0.00     0.283 C 
HETATM   31  O13 UNL     1      -7.533   0.392   7.104  1.00  0.00    -0.260 OA
BRANCH  30  32
HETATM   32  C19 UNL     1      -5.960  -0.221   8.752  1.00  0.00     0.083 C 
HETATM   33  C20 UNL     1      -6.774  -0.176   9.764  1.00  0.00     0.017 C 
BRANCH  33  34
HETATM   34  C21 UNL     1      -6.432  -0.350  11.158  1.00  0.00    -0.036 A 
HETATM   35  C22 UNL     1      -7.416  -0.533  12.112  1.00  0.00     0.011 A 
HETATM   36  C23 UNL     1      -7.124  -0.702  13.449  1.00  0.00     0.001 A 
HETATM   37  C24 UNL     1      -5.815  -0.695  13.883  1.00  0.00     0.000 A 
HETATM   38  C25 UNL     1      -4.823  -0.515  12.960  1.00  0.00     0.001 A 
HETATM   39  C26 UNL     1      -5.138  -0.347  11.623  1.00  0.00     0.011 A 
ENDBRANCH  33  34
ENDBRANCH  30  32
ENDBRANCH  29  30
ENDBRANCH   6  29
BRANCH   3  40
HETATM   40  C4  UNL     1      -2.443   1.003   2.324  1.00  0.00     0.198 C 
BRANCH  40  41
HETATM   41  O3  UNL     1      -1.639   0.101   1.614  1.00  0.00    -0.398 OA
ATOM     42  H3  UNL     1      -1.444   0.423   0.743  1.00  0.00     0.209 HD
ENDBRANCH  40  41
ENDBRANCH   3  40
BRANCH   1  43
HETATM   43  O1  UNL     1      -3.106  -0.457   5.805  1.00  0.00    -0.363 OA
HETATM   44  C1  UNL     1      -2.452  -0.577   7.034  1.00  0.00     0.204 C 
ENDBRANCH   1  43
TORSDOF 16
ENDMDL
