MODEL 1
REMARK VINA RESULT: -7.443694518      0.000      0.000
REMARK  18 active torsions:
REMARK  status: ('A' for Active; 'I' for Inactive)
REMARK    1  A    between atoms: C5_5  and  O1_6 
REMARK    2  A    between atoms: C5_5  and  C6_8 
REMARK    3  A    between atoms: C6_8  and  C7_10 
REMARK    4  A    between atoms: C7_10  and  O3_11 
REMARK    5  A    between atoms: C7_10  and  C10_15 
REMARK    6  A    between atoms: O3_11  and  C8_12 
REMARK    7  A    between atoms: C10_15  and  O5_16 
REMARK    8  A    between atoms: C10_15  and  C11_18 
REMARK    9  A    between atoms: C11_18  and  C13_20 
REMARK   10  A    between atoms: C14_21  and  C15_22 
REMARK   11  A    between atoms: C15_22  and  O6_24 
REMARK   12  A    between atoms: C15_22  and  C17_26 
REMARK   13  A    between atoms: C17_26  and  C18_27 
REMARK   14  A    between atoms: C18_27  and  O7_28 
REMARK   15  A    between atoms: C18_27  and  C19_30 
REMARK   16  A    between atoms: C19_30  and  O8_31 
REMARK   17  A    between atoms: C19_30  and  C22_35 
REMARK   18  A    between atoms: O8_31  and  C20_32 
ROOT
HETATM    1  C10 UNL     1      -3.353  -0.459   5.764  1.00  0.00     0.162 C 
ENDROOT
BRANCH   1   2
HETATM    2  C7  UNL     1      -3.847  -1.500   6.745  1.00  0.00     0.236 C 
BRANCH   2   3
HETATM    3  C6  UNL     1      -3.621  -1.146   8.162  1.00  0.00     0.220 C 
HETATM    4  O2  UNL     1      -2.539  -1.466   8.648  1.00  0.00    -0.289 OA
BRANCH   3   5
HETATM    5  C5  UNL     1      -4.557  -0.449   9.064  1.00  0.00     0.236 C 
HETATM    6  C4  UNL     1      -5.782  -1.291   9.363  1.00  0.00     0.082 C 
HETATM    7  C3  UNL     1      -6.732  -0.475  10.208  1.00  0.00     0.050 C 
HETATM    8  C2  UNL     1      -6.070  -0.317  11.539  1.00  0.00     0.008 C 
HETATM    9  C1  UNL     1      -6.745  -0.302  12.666  1.00  0.00     0.025 C 
HETATM   10  C23 UNL     1      -4.620  -0.177  11.523  1.00  0.00     0.291 C 
HETATM   11  O12 UNL     1      -3.969  -0.154  10.324  1.00  0.00    -0.272 OA
HETATM   12  O13 UNL     1      -3.967  -0.077  12.591  1.00  0.00    -0.260 OA
BRANCH   5  13
HETATM   13  O1  UNL     1      -5.007   0.766   8.567  1.00  0.00    -0.359 OA
ATOM     14  H1  UNL     1      -5.936   0.672   8.394  1.00  0.00     0.213 HD
ENDBRANCH   5  13
ENDBRANCH   3   5
ENDBRANCH   2   3
BRANCH   2  15
HETATM   15  O3  UNL     1      -3.300  -2.775   6.431  1.00  0.00    -0.306 OA
BRANCH  15  16
HETATM   16  C8  UNL     1      -3.972  -3.959   6.550  1.00  0.00     0.255 C 
HETATM   17  C9  UNL     1      -3.563  -4.955   7.579  1.00  0.00     0.126 C 
HETATM   18  O4  UNL     1      -4.928  -4.189   5.784  1.00  0.00    -0.266 OA
ENDBRANCH  15  16
ENDBRANCH   2  15
ENDBRANCH   1   2
BRANCH   1  19
HETATM   19  O5  UNL     1      -2.690   0.527   6.533  1.00  0.00    -0.392 OA
ATOM     20  H5  UNL     1      -1.759   0.387   6.400  1.00  0.00     0.210 HD
ENDBRANCH   1  19
BRANCH   1  21
HETATM   21  C11 UNL     1      -4.440   0.226   5.005  1.00  0.00     0.035 C 
HETATM   22  C12 UNL     1      -4.094   0.431   3.546  1.00  0.00     0.017 C 
BRANCH  21  23
HETATM   23  C13 UNL     1      -5.636  -0.657   5.040  1.00  0.00    -0.021 C 
HETATM   24  C14 UNL     1      -6.291  -0.979   3.940  1.00  0.00     0.007 C 
BRANCH  24  25
HETATM   25  C15 UNL     1      -7.531  -1.902   4.023  1.00  0.00     0.074 C 
HETATM   26  C16 UNL     1      -7.356  -2.928   2.976  1.00  0.00     0.050 C 
BRANCH  25  27
HETATM   27  O6  UNL     1      -7.424  -2.461   5.313  1.00  0.00    -0.386 OA
ATOM     28  H6  UNL     1      -6.738  -3.109   5.208  1.00  0.00     0.211 HD
ENDBRANCH  25  27
BRANCH  25  29
HETATM   29  C17 UNL     1      -8.682  -1.009   3.955  1.00  0.00     0.076 C 
BRANCH  29  30
HETATM   30  C18 UNL     1      -9.395  -0.472   5.147  1.00  0.00     0.161 C 
BRANCH  30  31
HETATM   31  O7  UNL     1     -10.358  -1.605   5.334  1.00  0.00    -0.392 OA
ATOM     32  H7  UNL     1     -10.471  -1.830   4.418  1.00  0.00     0.210 HD
ENDBRANCH  30  31
BRANCH  30  33
HETATM   33  C19 UNL     1     -10.326   0.670   5.001  1.00  0.00     0.261 C 
BRANCH  33  34
HETATM   34  O8  UNL     1     -10.571   0.826   3.533  1.00  0.00    -0.303 OA
BRANCH  34  35
HETATM   35  C20 UNL     1     -10.347   2.114   3.021  1.00  0.00     0.255 C 
HETATM   36  C21 UNL     1      -9.161   2.324   2.154  1.00  0.00     0.126 C 
HETATM   37  O9  UNL     1     -11.100   3.072   3.269  1.00  0.00    -0.266 OA
ENDBRANCH  34  35
ENDBRANCH  33  34
BRANCH  33  38
HETATM   38  C22 UNL     1     -11.739   0.401   5.427  1.00  0.00     0.206 C 
HETATM   39  O10 UNL     1     -12.090   0.429   6.660  1.00  0.00    -0.646 OA
HETATM   40  O11 UNL     1     -12.717   0.113   4.527  1.00  0.00    -0.646 OA
ENDBRANCH  33  38
ENDBRANCH  30  33
ENDBRANCH  29  30
ENDBRANCH  25  29
ENDBRANCH  24  25
ENDBRANCH  21  23
ENDBRANCH   1  21
TORSDOF 18
ENDMDL
MODEL 2
REMARK VINA RESULT: -7.274798795      2.188      5.122
REMARK  18 active torsions:
REMARK  status: ('A' for Active; 'I' for Inactive)
REMARK    1  A    between atoms: C5_5  and  O1_6 
REMARK    2  A    between atoms: C5_5  and  C6_8 
REMARK    3  A    between atoms: C6_8  and  C7_10 
REMARK    4  A    between atoms: C7_10  and  O3_11 
REMARK    5  A    between atoms: C7_10  and  C10_15 
REMARK    6  A    between atoms: O3_11  and  C8_12 
REMARK    7  A    between atoms: C10_15  and  O5_16 
REMARK    8  A    between atoms: C10_15  and  C11_18 
REMARK    9  A    between atoms: C11_18  and  C13_20 
REMARK   10  A    between atoms: C14_21  and  C15_22 
REMARK   11  A    between atoms: C15_22  and  O6_24 
REMARK   12  A    between atoms: C15_22  and  C17_26 
REMARK   13  A    between atoms: C17_26  and  C18_27 
REMARK   14  A    between atoms: C18_27  and  O7_28 
REMARK   15  A    between atoms: C18_27  and  C19_30 
REMARK   16  A    between atoms: C19_30  and  O8_31 
REMARK   17  A    between atoms: C19_30  and  C22_35 
REMARK   18  A    between atoms: O8_31  and  C20_32 
ROOT
HETATM    1  C10 UNL     1      -5.667  -0.889   7.511  1.00  0.00     0.162 C 
ENDROOT
BRANCH   1   2
HETATM    2  C7  UNL     1      -4.228  -0.545   7.827  1.00  0.00     0.236 C 
BRANCH   2   3
HETATM    3  C6  UNL     1      -3.240  -1.424   7.166  1.00  0.00     0.220 C 
HETATM    4  O2  UNL     1      -2.570  -0.926   6.265  1.00  0.00    -0.289 OA
BRANCH   3   5
HETATM    5  C5  UNL     1      -2.968  -2.841   7.472  1.00  0.00     0.236 C 
HETATM    6  C4  UNL     1      -3.843  -3.350   8.601  1.00  0.00     0.082 C 
HETATM    7  C3  UNL     1      -3.441  -4.770   8.919  1.00  0.00     0.050 C 
HETATM    8  C2  UNL     1      -3.860  -5.592   7.742  1.00  0.00     0.008 C 
HETATM    9  C1  UNL     1      -4.307  -6.821   7.861  1.00  0.00     0.025 C 
HETATM   10  C23 UNL     1      -3.744  -4.952   6.439  1.00  0.00     0.291 C 
HETATM   11  O12 UNL     1      -3.233  -3.689   6.362  1.00  0.00    -0.272 OA
HETATM   12  O13 UNL     1      -4.106  -5.543   5.392  1.00  0.00    -0.260 OA
BRANCH   5  13
HETATM   13  O1  UNL     1      -1.652  -3.091   7.830  1.00  0.00    -0.359 OA
ATOM     14  H1  UNL     1      -1.171  -3.260   7.029  1.00  0.00     0.213 HD
ENDBRANCH   5  13
ENDBRANCH   3   5
ENDBRANCH   2   3
BRANCH   2  15
HETATM   15  O3  UNL     1      -4.028  -0.499   9.234  1.00  0.00    -0.306 OA
BRANCH  15  16
HETATM   16  C8  UNL     1      -3.080   0.262   9.859  1.00  0.00     0.255 C 
HETATM   17  C9  UNL     1      -2.645  -0.067  11.244  1.00  0.00     0.126 C 
HETATM   18  O4  UNL     1      -2.591   1.235   9.252  1.00  0.00    -0.266 OA
ENDBRANCH  15  16
ENDBRANCH   2  15
ENDBRANCH   1   2
BRANCH   1  19
HETATM   19  O5  UNL     1      -5.639  -1.660   6.324  1.00  0.00    -0.392 OA
ATOM     20  H5  UNL     1      -5.450  -2.552   6.591  1.00  0.00     0.210 HD
ENDBRANCH   1  19
BRANCH   1  21
HETATM   21  C11 UNL     1      -6.533   0.297   7.249  1.00  0.00     0.035 C 
HETATM   22  C12 UNL     1      -5.791   1.420   6.557  1.00  0.00     0.017 C 
BRANCH  21  23
HETATM   23  C13 UNL     1      -7.616  -0.132   6.325  1.00  0.00    -0.021 C 
HETATM   24  C14 UNL     1      -8.134   0.693   5.434  1.00  0.00     0.007 C 
BRANCH  24  25
HETATM   25  C15 UNL     1      -9.259   0.202   4.492  1.00  0.00     0.074 C 
HETATM   26  C16 UNL     1     -10.497   0.186   5.297  1.00  0.00     0.050 C 
BRANCH  25  27
HETATM   27  O6  UNL     1      -9.303   1.205   3.502  1.00  0.00    -0.386 OA
ATOM     28  H6  UNL     1      -9.797   0.794   2.803  1.00  0.00     0.211 HD
ENDBRANCH  25  27
BRANCH  25  29
HETATM   29  C17 UNL     1      -8.769  -1.048   3.922  1.00  0.00     0.076 C 
BRANCH  29  30
HETATM   30  C18 UNL     1      -8.050  -1.147   2.622  1.00  0.00     0.161 C 
BRANCH  30  31
HETATM   31  O7  UNL     1      -8.973  -2.121   1.954  1.00  0.00    -0.392 OA
ATOM     32  H7  UNL     1      -9.206  -2.625   2.724  1.00  0.00     0.210 HD
ENDBRANCH  30  31
BRANCH  30  33
HETATM   33  C19 UNL     1      -6.763  -1.877   2.542  1.00  0.00     0.261 C 
BRANCH  33  34
HETATM   34  O8  UNL     1      -5.844  -1.214   3.518  1.00  0.00    -0.303 OA
BRANCH  34  35
HETATM   35  C20 UNL     1      -5.004  -0.228   2.976  1.00  0.00     0.255 C 
HETATM   36  C21 UNL     1      -5.488   1.175   2.968  1.00  0.00     0.126 C 
HETATM   37  O9  UNL     1      -3.883  -0.489   2.507  1.00  0.00    -0.266 OA
ENDBRANCH  34  35
ENDBRANCH  33  34
BRANCH  33  38
HETATM   38  C22 UNL     1      -6.768  -3.248   3.150  1.00  0.00     0.206 C 
HETATM   39  O10 UNL     1      -6.340  -3.461   4.340  1.00  0.00    -0.646 OA
HETATM   40  O11 UNL     1      -7.225  -4.333   2.469  1.00  0.00    -0.646 OA
ENDBRANCH  33  38
ENDBRANCH  30  33
ENDBRANCH  29  30
ENDBRANCH  25  29
ENDBRANCH  24  25
ENDBRANCH  21  23
ENDBRANCH   1  21
TORSDOF 18
ENDMDL
MODEL 3
REMARK VINA RESULT: -7.173050069      1.868      3.303
REMARK  18 active torsions:
REMARK  status: ('A' for Active; 'I' for Inactive)
REMARK    1  A    between atoms: C5_5  and  O1_6 
REMARK    2  A    between atoms: C5_5  and  C6_8 
REMARK    3  A    between atoms: C6_8  and  C7_10 
REMARK    4  A    between atoms: C7_10  and  O3_11 
REMARK    5  A    between atoms: C7_10  and  C10_15 
REMARK    6  A    between atoms: O3_11  and  C8_12 
REMARK    7  A    between atoms: C10_15  and  O5_16 
REMARK    8  A    between atoms: C10_15  and  C11_18 
REMARK    9  A    between atoms: C11_18  and  C13_20 
REMARK   10  A    between atoms: C14_21  and  C15_22 
REMARK   11  A    between atoms: C15_22  and  O6_24 
REMARK   12  A    between atoms: C15_22  and  C17_26 
REMARK   13  A    between atoms: C17_26  and  C18_27 
REMARK   14  A    between atoms: C18_27  and  O7_28 
REMARK   15  A    between atoms: C18_27  and  C19_30 
REMARK   16  A    between atoms: C19_30  and  O8_31 
REMARK   17  A    between atoms: C19_30  and  C22_35 
REMARK   18  A    between atoms: O8_31  and  C20_32 
ROOT
HETATM    1  C10 UNL     1      -3.584  -0.538   5.568  1.00  0.00     0.162 C 
ENDROOT
BRANCH   1   2
HETATM    2  C7  UNL     1      -3.904  -1.520   6.674  1.00  0.00     0.236 C 
BRANCH   2   3
HETATM    3  C6  UNL     1      -3.579  -1.027   8.029  1.00  0.00     0.220 C 
HETATM    4  O2  UNL     1      -2.418  -1.165   8.407  1.00  0.00    -0.289 OA
BRANCH   3   5
HETATM    5  C5  UNL     1      -4.502  -0.384   8.984  1.00  0.00     0.236 C 
HETATM    6  C4  UNL     1      -5.672  -1.285   9.328  1.00  0.00     0.082 C 
HETATM    7  C3  UNL     1      -6.617  -0.524  10.228  1.00  0.00     0.050 C 
HETATM    8  C2  UNL     1      -5.900  -0.354  11.530  1.00  0.00     0.008 C 
HETATM    9  C1  UNL     1      -6.520  -0.385  12.687  1.00  0.00     0.025 C 
HETATM   10  C23 UNL     1      -4.460  -0.149  11.448  1.00  0.00     0.291 C 
HETATM   11  O12 UNL     1      -3.868  -0.081  10.221  1.00  0.00    -0.272 OA
HETATM   12  O13 UNL     1      -3.762  -0.034  12.485  1.00  0.00    -0.260 OA
BRANCH   5  13
HETATM   13  O1  UNL     1      -5.028   0.816   8.528  1.00  0.00    -0.359 OA
ATOM     14  H1  UNL     1      -4.302   1.336   8.205  1.00  0.00     0.213 HD
ENDBRANCH   5  13
ENDBRANCH   3   5
ENDBRANCH   2   3
BRANCH   2  15
HETATM   15  O3  UNL     1      -3.287  -2.775   6.414  1.00  0.00    -0.306 OA
BRANCH  15  16
HETATM   16  C8  UNL     1      -3.843  -3.988   6.708  1.00  0.00     0.255 C 
HETATM   17  C9  UNL     1      -3.509  -4.679   7.984  1.00  0.00     0.126 C 
HETATM   18  O4  UNL     1      -4.630  -4.505   5.891  1.00  0.00    -0.266 OA
ENDBRANCH  15  16
ENDBRANCH   2  15
ENDBRANCH   1   2
BRANCH   1  19
HETATM   19  O5  UNL     1      -2.504   0.249   6.036  1.00  0.00    -0.392 OA
ATOM     20  H5  UNL     1      -1.712  -0.207   5.777  1.00  0.00     0.210 HD
ENDBRANCH   1  19
BRANCH   1  21
HETATM   21  C11 UNL     1      -4.703   0.394   5.241  1.00  0.00     0.035 C 
HETATM   22  C12 UNL     1      -4.332   1.847   5.448  1.00  0.00     0.017 C 
BRANCH  21  23
HETATM   23  C13 UNL     1      -5.010   0.235   3.794  1.00  0.00    -0.021 C 
HETATM   24  C14 UNL     1      -5.739   1.119   3.140  1.00  0.00     0.007 C 
BRANCH  24  25
HETATM   25  C15 UNL     1      -6.034   0.913   1.635  1.00  0.00     0.074 C 
HETATM   26  C16 UNL     1      -5.682   2.181   0.965  1.00  0.00     0.050 C 
BRANCH  25  27
HETATM   27  O6  UNL     1      -5.144  -0.121   1.277  1.00  0.00    -0.386 OA
ATOM     28  H6  UNL     1      -5.697  -0.893   1.293  1.00  0.00     0.211 HD
ENDBRANCH  25  27
BRANCH  25  29
HETATM   29  C17 UNL     1      -7.411   0.437   1.572  1.00  0.00     0.076 C 
BRANCH  29  30
HETATM   30  C18 UNL     1      -7.794  -0.996   1.444  1.00  0.00     0.161 C 
BRANCH  30  31
HETATM   31  O7  UNL     1      -9.279  -0.818   1.542  1.00  0.00    -0.392 OA
ATOM     32  H7  UNL     1      -9.504  -1.720   1.738  1.00  0.00     0.210 HD
ENDBRANCH  30  31
BRANCH  30  33
HETATM   33  C19 UNL     1      -7.546  -1.932   2.566  1.00  0.00     0.261 C 
BRANCH  33  34
HETATM   34  O8  UNL     1      -8.656  -1.716   3.545  1.00  0.00    -0.303 OA
BRANCH  34  35
HETATM   35  C20 UNL     1      -8.254  -1.305   4.826  1.00  0.00     0.255 C 
HETATM   36  C21 UNL     1      -8.858  -0.070   5.385  1.00  0.00     0.126 C 
HETATM   37  O9  UNL     1      -7.418  -1.933   5.497  1.00  0.00    -0.266 OA
ENDBRANCH  34  35
ENDBRANCH  33  34
BRANCH  33  38
HETATM   38  C22 UNL     1      -7.807  -3.377   2.261  1.00  0.00     0.206 C 
HETATM   39  O10 UNL     1      -8.844  -3.754   1.608  1.00  0.00    -0.646 OA
HETATM   40  O11 UNL     1      -6.959  -4.360   2.665  1.00  0.00    -0.646 OA
ENDBRANCH  33  38
ENDBRANCH  30  33
ENDBRANCH  29  30
ENDBRANCH  25  29
ENDBRANCH  24  25
ENDBRANCH  21  23
ENDBRANCH   1  21
TORSDOF 18
ENDMDL
MODEL 4
REMARK VINA RESULT: -7.157882247      2.261      3.846
REMARK  18 active torsions:
REMARK  status: ('A' for Active; 'I' for Inactive)
REMARK    1  A    between atoms: C5_5  and  O1_6 
REMARK    2  A    between atoms: C5_5  and  C6_8 
REMARK    3  A    between atoms: C6_8  and  C7_10 
REMARK    4  A    between atoms: C7_10  and  O3_11 
REMARK    5  A    between atoms: C7_10  and  C10_15 
REMARK    6  A    between atoms: O3_11  and  C8_12 
REMARK    7  A    between atoms: C10_15  and  O5_16 
REMARK    8  A    between atoms: C10_15  and  C11_18 
REMARK    9  A    between atoms: C11_18  and  C13_20 
REMARK   10  A    between atoms: C14_21  and  C15_22 
REMARK   11  A    between atoms: C15_22  and  O6_24 
REMARK   12  A    between atoms: C15_22  and  C17_26 
REMARK   13  A    between atoms: C17_26  and  C18_27 
REMARK   14  A    between atoms: C18_27  and  O7_28 
REMARK   15  A    between atoms: C18_27  and  C19_30 
REMARK   16  A    between atoms: C19_30  and  O8_31 
REMARK   17  A    between atoms: C19_30  and  C22_35 
REMARK   18  A    between atoms: O8_31  and  C20_32 
ROOT
HETATM    1  C10 UNL     1      -3.286  -0.645   6.606  1.00  0.00     0.162 C 
ENDROOT
BRANCH   1   2
HETATM    2  C7  UNL     1      -2.992  -0.920   8.064  1.00  0.00     0.236 C 
BRANCH   2   3
HETATM    3  C6  UNL     1      -4.162  -1.392   8.835  1.00  0.00     0.220 C 
HETATM    4  O2  UNL     1      -4.512  -2.556   8.656  1.00  0.00    -0.289 OA
BRANCH   3   5
HETATM    5  C5  UNL     1      -4.961  -0.614   9.801  1.00  0.00     0.236 C 
HETATM    6  C4  UNL     1      -6.320  -1.242  10.042  1.00  0.00     0.082 C 
HETATM    7  C3  UNL     1      -7.110  -0.341  10.961  1.00  0.00     0.050 C 
HETATM    8  C2  UNL     1      -6.437  -0.418  12.294  1.00  0.00     0.008 C 
HETATM    9  C1  UNL     1      -7.103  -0.376  13.425  1.00  0.00     0.025 C 
HETATM   10  C23 UNL     1      -4.986  -0.543  12.275  1.00  0.00     0.291 C 
HETATM   11  O12 UNL     1      -4.335  -0.538  11.076  1.00  0.00    -0.272 OA
HETATM   12  O13 UNL     1      -4.331  -0.653  13.341  1.00  0.00    -0.260 OA
BRANCH   5  13
HETATM   13  O1  UNL     1      -5.179   0.700   9.412  1.00  0.00    -0.359 OA
ATOM     14  H1  UNL     1      -4.845   1.257  10.104  1.00  0.00     0.213 HD
ENDBRANCH   5  13
ENDBRANCH   3   5
ENDBRANCH   2   3
BRANCH   2  15
HETATM   15  O3  UNL     1      -2.391   0.217   8.671  1.00  0.00    -0.306 OA
BRANCH  15  16
HETATM   16  C8  UNL     1      -1.128   0.243   9.191  1.00  0.00     0.255 C 
HETATM   17  C9  UNL     1      -0.896   0.726  10.581  1.00  0.00     0.126 C 
HETATM   18  O4  UNL     1      -0.176  -0.140   8.482  1.00  0.00    -0.266 OA
ENDBRANCH  15  16
ENDBRANCH   2  15
ENDBRANCH   1   2
BRANCH   1  19
HETATM   19  O5  UNL     1      -2.030  -0.530   5.963  1.00  0.00    -0.392 OA
ATOM     20  H5  UNL     1      -2.209  -0.514   5.030  1.00  0.00     0.210 HD
ENDBRANCH   1  19
BRANCH   1  21
HETATM   21  C11 UNL     1      -4.026   0.628   6.364  1.00  0.00     0.035 C 
HETATM   22  C12 UNL     1      -3.385   1.481   5.291  1.00  0.00     0.017 C 
BRANCH  21  23
HETATM   23  C13 UNL     1      -5.383   0.271   5.871  1.00  0.00    -0.021 C 
HETATM   24  C14 UNL     1      -6.460   0.912   6.284  1.00  0.00     0.007 C 
BRANCH  24  25
HETATM   25  C15 UNL     1      -7.853   0.507   5.744  1.00  0.00     0.074 C 
HETATM   26  C16 UNL     1      -8.738   0.393   6.921  1.00  0.00     0.050 C 
BRANCH  25  27
HETATM   27  O6  UNL     1      -8.211   1.606   4.936  1.00  0.00    -0.386 OA
ATOM     28  H6  UNL     1      -9.128   1.443   4.750  1.00  0.00     0.211 HD
ENDBRANCH  25  27
BRANCH  25  29
HETATM   29  C17 UNL     1      -7.619  -0.672   4.918  1.00  0.00     0.076 C 
BRANCH  29  30
HETATM   30  C18 UNL     1      -8.259  -0.904   3.593  1.00  0.00     0.161 C 
BRANCH  30  31
HETATM   31  O7  UNL     1      -9.185  -2.008   4.007  1.00  0.00    -0.392 OA
ATOM     32  H7  UNL     1      -9.943  -1.736   3.503  1.00  0.00     0.210 HD
ENDBRANCH  30  31
BRANCH  30  33
HETATM   33  C19 UNL     1      -7.497  -1.565   2.509  1.00  0.00     0.261 C 
BRANCH  33  34
HETATM   34  O8  UNL     1      -6.059  -1.517   2.917  1.00  0.00    -0.303 OA
BRANCH  34  35
HETATM   35  C20 UNL     1      -5.283  -0.544   2.266  1.00  0.00     0.255 C 
HETATM   36  C21 UNL     1      -5.938   0.293   1.231  1.00  0.00     0.126 C 
HETATM   37  O9  UNL     1      -4.081  -0.366   2.525  1.00  0.00    -0.266 OA
ENDBRANCH  34  35
ENDBRANCH  33  34
BRANCH  33  38
HETATM   38  C22 UNL     1      -7.650  -3.055   2.437  1.00  0.00     0.206 C 
HETATM   39  O10 UNL     1      -6.913  -3.844   3.130  1.00  0.00    -0.646 OA
HETATM   40  O11 UNL     1      -8.576  -3.644   1.634  1.00  0.00    -0.646 OA
ENDBRANCH  33  38
ENDBRANCH  30  33
ENDBRANCH  29  30
ENDBRANCH  25  29
ENDBRANCH  24  25
ENDBRANCH  21  23
ENDBRANCH   1  21
TORSDOF 18
ENDMDL
MODEL 5
REMARK VINA RESULT: -7.146471872      2.157      4.938
REMARK  18 active torsions:
REMARK  status: ('A' for Active; 'I' for Inactive)
REMARK    1  A    between atoms: C5_5  and  O1_6 
REMARK    2  A    between atoms: C5_5  and  C6_8 
REMARK    3  A    between atoms: C6_8  and  C7_10 
REMARK    4  A    between atoms: C7_10  and  O3_11 
REMARK    5  A    between atoms: C7_10  and  C10_15 
REMARK    6  A    between atoms: O3_11  and  C8_12 
REMARK    7  A    between atoms: C10_15  and  O5_16 
REMARK    8  A    between atoms: C10_15  and  C11_18 
REMARK    9  A    between atoms: C11_18  and  C13_20 
REMARK   10  A    between atoms: C14_21  and  C15_22 
REMARK   11  A    between atoms: C15_22  and  O6_24 
REMARK   12  A    between atoms: C15_22  and  C17_26 
REMARK   13  A    between atoms: C17_26  and  C18_27 
REMARK   14  A    between atoms: C18_27  and  O7_28 
REMARK   15  A    between atoms: C18_27  and  C19_30 
REMARK   16  A    between atoms: C19_30  and  O8_31 
REMARK   17  A    between atoms: C19_30  and  C22_35 
REMARK   18  A    between atoms: O8_31  and  C20_32 
ROOT
HETATM    1  C10 UNL     1      -3.868  -0.648   5.949  1.00  0.00     0.162 C 
ENDROOT
BRANCH   1   2
HETATM    2  C7  UNL     1      -4.227  -1.635   7.037  1.00  0.00     0.236 C 
BRANCH   2   3
HETATM    3  C6  UNL     1      -4.373  -3.028   6.563  1.00  0.00     0.220 C 
HETATM    4  O2  UNL     1      -5.043  -3.202   5.549  1.00  0.00    -0.289 OA
BRANCH   3   5
HETATM    5  C5  UNL     1      -3.799  -4.239   7.179  1.00  0.00     0.236 C 
HETATM    6  C4  UNL     1      -3.517  -4.040   8.656  1.00  0.00     0.082 C 
HETATM    7  C3  UNL     1      -2.844  -5.282   9.189  1.00  0.00     0.050 C 
HETATM    8  C2  UNL     1      -3.883  -6.358   9.164  1.00  0.00     0.008 C 
HETATM    9  C1  UNL     1      -3.955  -7.292  10.084  1.00  0.00     0.025 C 
HETATM   10  C23 UNL     1      -4.824  -6.316   8.052  1.00  0.00     0.291 C 
HETATM   11  O12 UNL     1      -4.682  -5.351   7.098  1.00  0.00    -0.272 OA
HETATM   12  O13 UNL     1      -5.757  -7.151   7.961  1.00  0.00    -0.260 OA
BRANCH   5  13
HETATM   13  O1  UNL     1      -2.615  -4.656   6.588  1.00  0.00    -0.359 OA
ATOM     14  H1  UNL     1      -2.826  -4.940   5.707  1.00  0.00     0.213 HD
ENDBRANCH   5  13
ENDBRANCH   3   5
ENDBRANCH   2   3
BRANCH   2  15
HETATM   15  O3  UNL     1      -5.386  -1.199   7.738  1.00  0.00    -0.306 OA
BRANCH  15  16
HETATM   16  C8  UNL     1      -5.366  -0.524   8.926  1.00  0.00     0.255 C 
HETATM   17  C9  UNL     1      -6.578  -0.490   9.792  1.00  0.00     0.126 C 
HETATM   18  O4  UNL     1      -4.321   0.062   9.270  1.00  0.00    -0.266 OA
ENDBRANCH  15  16
ENDBRANCH   2  15
ENDBRANCH   1   2
BRANCH   1  19
HETATM   19  O5  UNL     1      -2.853   0.181   6.483  1.00  0.00    -0.392 OA
ATOM     20  H5  UNL     1      -2.143  -0.397   6.736  1.00  0.00     0.210 HD
ENDBRANCH   1  19
BRANCH   1  21
HETATM   21  C11 UNL     1      -4.995   0.239   5.536  1.00  0.00     0.035 C 
HETATM   22  C12 UNL     1      -4.736   1.697   5.851  1.00  0.00     0.017 C 
BRANCH  21  23
HETATM   23  C13 UNL     1      -5.127   0.140   4.058  1.00  0.00    -0.021 C 
HETATM   24  C14 UNL     1      -5.850   1.001   3.368  1.00  0.00     0.007 C 
BRANCH  24  25
HETATM   25  C15 UNL     1      -5.959   0.859   1.831  1.00  0.00     0.074 C 
HETATM   26  C16 UNL     1      -5.499   2.142   1.262  1.00  0.00     0.050 C 
BRANCH  25  27
HETATM   27  O6  UNL     1      -5.053  -0.184   1.544  1.00  0.00    -0.386 OA
ATOM     28  H6  UNL     1      -5.147  -0.295   0.606  1.00  0.00     0.211 HD
ENDBRANCH  25  27
BRANCH  25  29
HETATM   29  C17 UNL     1      -7.327   0.422   1.579  1.00  0.00     0.076 C 
BRANCH  29  30
HETATM   30  C18 UNL     1      -7.736  -1.003   1.437  1.00  0.00     0.161 C 
BRANCH  30  31
HETATM   31  O7  UNL     1      -9.217  -0.783   1.377  1.00  0.00    -0.392 OA
ATOM     32  H7  UNL     1      -9.454  -1.611   0.976  1.00  0.00     0.210 HD
ENDBRANCH  30  31
BRANCH  30  33
HETATM   33  C19 UNL     1      -7.632  -1.921   2.594  1.00  0.00     0.261 C 
BRANCH  33  34
HETATM   34  O8  UNL     1      -8.853  -1.686   3.427  1.00  0.00    -0.303 OA
BRANCH  34  35
HETATM   35  C20 UNL     1      -8.612  -1.175   4.712  1.00  0.00     0.255 C 
HETATM   36  C21 UNL     1      -9.265   0.104   5.089  1.00  0.00     0.126 C 
HETATM   37  O9  UNL     1      -7.878  -1.750   5.534  1.00  0.00    -0.266 OA
ENDBRANCH  34  35
ENDBRANCH  33  34
BRANCH  33  38
HETATM   38  C22 UNL     1      -7.862  -3.370   2.283  1.00  0.00     0.206 C 
HETATM   39  O10 UNL     1      -8.862  -3.760   1.580  1.00  0.00    -0.646 OA
HETATM   40  O11 UNL     1      -7.023  -4.343   2.730  1.00  0.00    -0.646 OA
ENDBRANCH  33  38
ENDBRANCH  30  33
ENDBRANCH  29  30
ENDBRANCH  25  29
ENDBRANCH  24  25
ENDBRANCH  21  23
ENDBRANCH   1  21
TORSDOF 18
ENDMDL
