MODEL 1
REMARK VINA RESULT: -6.038946936      0.000      0.000
REMARK  8 active torsions:
REMARK  status: ('A' for Active; 'I' for Inactive)
REMARK    1  A    between atoms: O1_2  and  C2_3 
REMARK    2  A    between atoms: C2_3  and  C3_5 
REMARK    3  A    between atoms: C3_5  and  C12_21 
REMARK    4  A    between atoms: N1_6  and  O3_8 
REMARK    5  A    between atoms: O3_8  and  C4_9 
REMARK    6  A    between atoms: C6_12  and  N2_13 
REMARK    7  A    between atoms: C12_21  and  O4_23 
REMARK    8  A    between atoms: O4_23  and  C14_24 
ROOT
HETATM    1  C3  UNL     1      70.007  37.233   0.629  1.00  0.00     0.136 C 
HETATM    2  N1  UNL     1      68.762  37.456   0.485  1.00  0.00    -0.262 N 
ATOM      3  H1  UNL     1      68.234  37.623   1.343  1.00  0.00     0.194 HD
ENDROOT
BRANCH   2   4
HETATM    4  O3  UNL     1      68.049  37.500  -0.673  1.00  0.00    -0.271 OA
BRANCH   4   5
HETATM    5  C4  UNL     1      67.633  38.767  -1.151  1.00  0.00     0.196 C 
HETATM    6  C5  UNL     1      67.857  39.812  -0.115  1.00  0.00     0.113 C 
HETATM    7  S1  UNL     1      66.433  40.720  -0.686  1.00  0.00    -0.137 SA
HETATM    8  C6  UNL     1      66.185  39.013  -1.208  1.00  0.00     0.196 C 
BRANCH   8   9
HETATM    9  N2  UNL     1      65.278  38.273  -0.388  1.00  0.00    -0.306 N 
HETATM   10  N3  UNL     1      65.446  36.914  -0.028  1.00  0.00    -0.310 N 
HETATM   11  C7  UNL     1      64.495  36.489   0.696  1.00  0.00     0.002 A 
ATOM     12  H3  UNL     1      66.240  36.342  -0.316  1.00  0.00     0.186 HD
HETATM   13  C8  UNL     1      64.306  35.111   1.281  1.00  0.00     0.065 C 
HETATM   14  C9  UNL     1      63.484  37.540   0.954  1.00  0.00     0.080 A 
HETATM   15  C10 UNL     1      64.063  38.733   0.217  1.00  0.00     0.105 A 
HETATM   16  C11 UNL     1      63.020  39.133  -0.828  1.00  0.00     0.034 C 
ENDBRANCH   8   9
ENDBRANCH   4   5
ENDBRANCH   2   4
BRANCH   1  17
HETATM   17  C2  UNL     1      70.823  36.990  -0.551  1.00  0.00     0.310 C 
HETATM   18  O2  UNL     1      71.364  35.852  -0.739  1.00  0.00    -0.258 OA
BRANCH  17  19
HETATM   19  O1  UNL     1      71.068  37.936  -1.528  1.00  0.00    -0.322 OA
HETATM   20  C1  UNL     1      71.439  39.260  -1.185  1.00  0.00     0.213 C 
ENDBRANCH  17  19
ENDBRANCH   1  17
BRANCH   1  21
HETATM   21  C12 UNL     1      70.676  37.208   1.961  1.00  0.00     0.185 C 
HETATM   22  C13 UNL     1      70.418  38.498   2.716  1.00  0.00     0.047 C 
BRANCH  21  23
HETATM   23  O4  UNL     1      70.203  36.120   2.744  1.00  0.00    -0.310 OA
BRANCH  23  24
HETATM   24  C14 UNL     1      70.673  34.852   2.516  1.00  0.00     0.255 C 
HETATM   25  C15 UNL     1      72.096  34.452   2.621  1.00  0.00     0.126 C 
HETATM   26  O5  UNL     1      69.855  33.945   2.192  1.00  0.00    -0.266 OA
ENDBRANCH  23  24
ENDBRANCH  21  23
ENDBRANCH   1  21
TORSDOF 8
ENDMDL
MODEL 2
REMARK VINA RESULT: -5.924655302      2.648      6.573
REMARK  8 active torsions:
REMARK  status: ('A' for Active; 'I' for Inactive)
REMARK    1  A    between atoms: O1_2  and  C2_3 
REMARK    2  A    between atoms: C2_3  and  C3_5 
REMARK    3  A    between atoms: C3_5  and  C12_21 
REMARK    4  A    between atoms: N1_6  and  O3_8 
REMARK    5  A    between atoms: O3_8  and  C4_9 
REMARK    6  A    between atoms: C6_12  and  N2_13 
REMARK    7  A    between atoms: C12_21  and  O4_23 
REMARK    8  A    between atoms: O4_23  and  C14_24 
ROOT
HETATM    1  C3  UNL     1      66.573  38.674  -0.488  1.00  0.00     0.136 C 
HETATM    2  N1  UNL     1      67.545  37.908  -0.186  1.00  0.00    -0.262 N 
ATOM      3  H1  UNL     1      67.328  36.913  -0.126  1.00  0.00     0.194 HD
ENDROOT
BRANCH   2   4
HETATM    4  O3  UNL     1      68.836  38.256   0.064  1.00  0.00    -0.271 OA
BRANCH   4   5
HETATM    5  C4  UNL     1      69.152  38.756   1.352  1.00  0.00     0.196 C 
HETATM    6  C5  UNL     1      70.073  39.920   1.245  1.00  0.00     0.113 C 
HETATM    7  S1  UNL     1      70.845  39.484   2.792  1.00  0.00    -0.137 SA
HETATM    8  C6  UNL     1      70.100  37.971   2.156  1.00  0.00     0.196 C 
BRANCH   8   9
HETATM    9  N2  UNL     1      71.025  37.074   1.539  1.00  0.00    -0.306 N 
HETATM   10  N3  UNL     1      71.660  37.305   0.294  1.00  0.00    -0.310 N 
HETATM   11  C7  UNL     1      72.425  36.349  -0.037  1.00  0.00     0.002 A 
ATOM     12  H3  UNL     1      71.518  38.142  -0.272  1.00  0.00     0.186 HD
HETATM   13  C8  UNL     1      73.272  36.214  -1.279  1.00  0.00     0.065 C 
HETATM   14  C9  UNL     1      72.432  35.269   0.975  1.00  0.00     0.080 A 
HETATM   15  C10 UNL     1      71.486  35.809   2.031  1.00  0.00     0.105 A 
HETATM   16  C11 UNL     1      70.350  34.791   2.143  1.00  0.00     0.034 C 
ENDBRANCH   8   9
ENDBRANCH   4   5
ENDBRANCH   2   4
BRANCH   1  17
HETATM   17  C2  UNL     1      66.809  40.106  -0.594  1.00  0.00     0.310 C 
HETATM   18  O2  UNL     1      66.168  40.922   0.144  1.00  0.00    -0.258 OA
BRANCH  17  19
HETATM   19  O1  UNL     1      67.711  40.676  -1.472  1.00  0.00    -0.322 OA
HETATM   20  C1  UNL     1      68.134  42.019  -1.314  1.00  0.00     0.213 C 
ENDBRANCH  17  19
ENDBRANCH   1  17
BRANCH   1  21
HETATM   21  C12 UNL     1      65.192  38.170  -0.738  1.00  0.00     0.185 C 
HETATM   22  C13 UNL     1      65.215  37.003  -1.707  1.00  0.00     0.047 C 
BRANCH  21  23
HETATM   23  O4  UNL     1      64.583  37.744   0.473  1.00  0.00    -0.310 OA
BRANCH  23  24
HETATM   24  C14 UNL     1      63.261  37.377   0.487  1.00  0.00     0.255 C 
HETATM   25  C15 UNL     1      62.761  36.053   0.926  1.00  0.00     0.126 C 
HETATM   26  O5  UNL     1      62.391  38.209   0.102  1.00  0.00    -0.266 OA
ENDBRANCH  23  24
ENDBRANCH  21  23
ENDBRANCH   1  21
TORSDOF 8
ENDMDL
MODEL 3
REMARK VINA RESULT: -5.895054215      2.787      6.858
REMARK  8 active torsions:
REMARK  status: ('A' for Active; 'I' for Inactive)
REMARK    1  A    between atoms: O1_2  and  C2_3 
REMARK    2  A    between atoms: C2_3  and  C3_5 
REMARK    3  A    between atoms: C3_5  and  C12_21 
REMARK    4  A    between atoms: N1_6  and  O3_8 
REMARK    5  A    between atoms: O3_8  and  C4_9 
REMARK    6  A    between atoms: C6_12  and  N2_13 
REMARK    7  A    between atoms: C12_21  and  O4_23 
REMARK    8  A    between atoms: O4_23  and  C14_24 
ROOT
HETATM    1  C3  UNL     1      66.321  38.713  -0.712  1.00  0.00     0.136 C 
HETATM    2  N1  UNL     1      67.364  37.992  -0.588  1.00  0.00    -0.262 N 
ATOM      3  H1  UNL     1      67.212  36.984  -0.571  1.00  0.00     0.194 HD
ENDROOT
BRANCH   2   4
HETATM    4  O3  UNL     1      68.656  38.405  -0.476  1.00  0.00    -0.271 OA
BRANCH   4   5
HETATM    5  C4  UNL     1      69.253  38.378   0.808  1.00  0.00     0.196 C 
HETATM    6  C5  UNL     1      69.617  39.753   1.242  1.00  0.00     0.113 C 
HETATM    7  S1  UNL     1      71.019  39.126   2.146  1.00  0.00    -0.137 SA
HETATM    8  C6  UNL     1      70.639  37.894   0.886  1.00  0.00     0.196 C 
BRANCH   8   9
HETATM    9  N2  UNL     1      71.500  37.933  -0.254  1.00  0.00    -0.306 N 
HETATM   10  N3  UNL     1      71.283  38.742  -1.397  1.00  0.00    -0.310 N 
HETATM   11  C7  UNL     1      72.185  38.583  -2.274  1.00  0.00     0.002 A 
ATOM     12  H3  UNL     1      70.493  39.379  -1.503  1.00  0.00     0.186 HD
HETATM   13  C8  UNL     1      72.314  39.255  -3.619  1.00  0.00     0.065 C 
HETATM   14  C9  UNL     1      73.205  37.597  -1.847  1.00  0.00     0.080 A 
HETATM   15  C10 UNL     1      72.710  37.198  -0.469  1.00  0.00     0.105 A 
HETATM   16  C11 UNL     1      72.460  35.690  -0.529  1.00  0.00     0.034 C 
ENDBRANCH   8   9
ENDBRANCH   4   5
ENDBRANCH   2   4
BRANCH   1  17
HETATM   17  C2  UNL     1      66.461  40.161  -0.747  1.00  0.00     0.310 C 
HETATM   18  O2  UNL     1      66.091  40.869   0.244  1.00  0.00    -0.258 OA
BRANCH  17  19
HETATM   19  O1  UNL     1      66.988  40.859  -1.817  1.00  0.00    -0.322 OA
HETATM   20  C1  UNL     1      67.637  42.104  -1.628  1.00  0.00     0.213 C 
ENDBRANCH  17  19
ENDBRANCH   1  17
BRANCH   1  21
HETATM   21  C12 UNL     1      64.949  38.138  -0.824  1.00  0.00     0.185 C 
HETATM   22  C13 UNL     1      64.942  36.944  -1.759  1.00  0.00     0.047 C 
BRANCH  21  23
HETATM   23  O4  UNL     1      64.470  37.723   0.448  1.00  0.00    -0.310 OA
BRANCH  23  24
HETATM   24  C14 UNL     1      63.178  37.284   0.587  1.00  0.00     0.255 C 
HETATM   25  C15 UNL     1      62.794  35.966   1.144  1.00  0.00     0.126 C 
HETATM   26  O5  UNL     1      62.233  38.040   0.222  1.00  0.00    -0.266 OA
ENDBRANCH  23  24
ENDBRANCH  21  23
ENDBRANCH   1  21
TORSDOF 8
ENDMDL
MODEL 4
REMARK VINA RESULT: -5.894265435      2.663      6.764
REMARK  8 active torsions:
REMARK  status: ('A' for Active; 'I' for Inactive)
REMARK    1  A    between atoms: O1_2  and  C2_3 
REMARK    2  A    between atoms: C2_3  and  C3_5 
REMARK    3  A    between atoms: C3_5  and  C12_21 
REMARK    4  A    between atoms: N1_6  and  O3_8 
REMARK    5  A    between atoms: O3_8  and  C4_9 
REMARK    6  A    between atoms: C6_12  and  N2_13 
REMARK    7  A    between atoms: C12_21  and  O4_23 
REMARK    8  A    between atoms: O4_23  and  C14_24 
ROOT
HETATM    1  C3  UNL     1      68.868  38.104   0.212  1.00  0.00     0.136 C 
HETATM    2  N1  UNL     1      68.780  37.382   1.257  1.00  0.00    -0.262 N 
ATOM      3  H1  UNL     1      67.963  37.544   1.846  1.00  0.00     0.194 HD
ENDROOT
BRANCH   2   4
HETATM    4  O3  UNL     1      69.645  36.421   1.683  1.00  0.00    -0.271 OA
BRANCH   4   5
HETATM    5  C4  UNL     1      70.190  36.547   2.985  1.00  0.00     0.196 C 
HETATM    6  C5  UNL     1      70.946  37.822   3.110  1.00  0.00     0.113 C 
HETATM    7  S1  UNL     1      72.082  37.066   4.256  1.00  0.00    -0.137 SA
HETATM    8  C6  UNL     1      71.365  35.720   3.296  1.00  0.00     0.196 C 
BRANCH   8   9
HETATM    9  N2  UNL     1      72.211  35.221   2.259  1.00  0.00    -0.306 N 
HETATM   10  N3  UNL     1      72.462  35.888   1.034  1.00  0.00    -0.310 N 
HETATM   11  C7  UNL     1      73.238  35.228   0.280  1.00  0.00     0.002 A 
ATOM     12  H3  UNL     1      72.064  36.795   0.788  1.00  0.00     0.186 HD
HETATM   13  C8  UNL     1      73.743  35.593  -1.095  1.00  0.00     0.065 C 
HETATM   14  C9  UNL     1      73.658  33.949   0.899  1.00  0.00     0.080 A 
HETATM   15  C10 UNL     1      72.954  33.995   2.242  1.00  0.00     0.105 A 
HETATM   16  C11 UNL     1      72.037  32.771   2.283  1.00  0.00     0.034 C 
ENDBRANCH   8   9
ENDBRANCH   4   5
ENDBRANCH   2   4
BRANCH   1  17
HETATM   17  C2  UNL     1      70.007  37.927  -0.677  1.00  0.00     0.310 C 
HETATM   18  O2  UNL     1      69.861  37.353  -1.805  1.00  0.00    -0.258 OA
BRANCH  17  19
HETATM   19  O1  UNL     1      71.289  38.350  -0.383  1.00  0.00    -0.322 OA
HETATM   20  C1  UNL     1      72.066  39.045  -1.341  1.00  0.00     0.213 C 
ENDBRANCH  17  19
ENDBRANCH   1  17
BRANCH   1  21
HETATM   21  C12 UNL     1      67.851  39.134  -0.148  1.00  0.00     0.185 C 
HETATM   22  C13 UNL     1      68.522  40.435  -0.544  1.00  0.00     0.047 C 
BRANCH  21  23
HETATM   23  O4  UNL     1      67.044  38.690  -1.230  1.00  0.00    -0.310 OA
BRANCH  23  24
HETATM   24  C14 UNL     1      65.690  38.540  -1.064  1.00  0.00     0.255 C 
HETATM   25  C15 UNL     1      65.010  37.242  -0.846  1.00  0.00     0.126 C 
HETATM   26  O5  UNL     1      64.953  39.566  -1.094  1.00  0.00    -0.266 OA
ENDBRANCH  23  24
ENDBRANCH  21  23
ENDBRANCH   1  21
TORSDOF 8
ENDMDL
MODEL 5
REMARK VINA RESULT: -5.890356193      1.473      1.954
REMARK  8 active torsions:
REMARK  status: ('A' for Active; 'I' for Inactive)
REMARK    1  A    between atoms: O1_2  and  C2_3 
REMARK    2  A    between atoms: C2_3  and  C3_5 
REMARK    3  A    between atoms: C3_5  and  C12_21 
REMARK    4  A    between atoms: N1_6  and  O3_8 
REMARK    5  A    between atoms: O3_8  and  C4_9 
REMARK    6  A    between atoms: C6_12  and  N2_13 
REMARK    7  A    between atoms: C12_21  and  O4_23 
REMARK    8  A    between atoms: O4_23  and  C14_24 
ROOT
HETATM    1  C3  UNL     1      70.434  37.011   1.280  1.00  0.00     0.136 C 
HETATM    2  N1  UNL     1      69.329  36.955   0.651  1.00  0.00    -0.262 N 
ATOM      3  H1  UNL     1      69.222  36.176   0.000  1.00  0.00     0.194 HD
ENDROOT
BRANCH   2   4
HETATM    4  O3  UNL     1      68.273  37.808   0.741  1.00  0.00    -0.271 OA
BRANCH   4   5
HETATM    5  C4  UNL     1      67.951  38.590  -0.396  1.00  0.00     0.196 C 
HETATM    6  C5  UNL     1      67.653  39.992   0.004  1.00  0.00     0.113 C 
HETATM    7  S1  UNL     1      66.480  40.151  -1.328  1.00  0.00    -0.137 SA
HETATM    8  C6  UNL     1      66.621  38.387  -0.988  1.00  0.00     0.196 C 
BRANCH   8   9
HETATM    9  N2  UNL     1      65.545  37.847  -0.218  1.00  0.00    -0.306 N 
HETATM   10  N3  UNL     1      65.545  36.559   0.373  1.00  0.00    -0.310 N 
HETATM   11  C7  UNL     1      64.466  36.317   0.993  1.00  0.00     0.002 A 
ATOM     12  H3  UNL     1      66.323  35.902   0.306  1.00  0.00     0.186 HD
HETATM   13  C8  UNL     1      64.079  35.069   1.749  1.00  0.00     0.065 C 
HETATM   14  C9  UNL     1      63.519  37.453   0.921  1.00  0.00     0.080 A 
HETATM   15  C10 UNL     1      64.296  38.471   0.108  1.00  0.00     0.105 A 
HETATM   16  C11 UNL     1      63.455  38.751  -1.138  1.00  0.00     0.034 C 
ENDBRANCH   8   9
ENDBRANCH   4   5
ENDBRANCH   2   4
BRANCH   1  17
HETATM   17  C2  UNL     1      70.656  38.094   2.227  1.00  0.00     0.310 C 
HETATM   18  O2  UNL     1      70.616  37.873   3.480  1.00  0.00    -0.258 OA
BRANCH  17  19
HETATM   19  O1  UNL     1      70.917  39.400   1.858  1.00  0.00    -0.322 OA
HETATM   20  C1  UNL     1      71.693  40.250   2.683  1.00  0.00     0.213 C 
ENDBRANCH  17  19
ENDBRANCH   1  17
BRANCH   1  21
HETATM   21  C12 UNL     1      71.524  36.011   1.092  1.00  0.00     0.185 C 
HETATM   22  C13 UNL     1      72.842  36.702   0.799  1.00  0.00     0.047 C 
BRANCH  21  23
HETATM   23  O4  UNL     1      71.680  35.207   2.254  1.00  0.00    -0.310 OA
BRANCH  23  24
HETATM   24  C14 UNL     1      71.269  33.899   2.246  1.00  0.00     0.255 C 
HETATM   25  C15 UNL     1      72.182  32.732   2.269  1.00  0.00     0.126 C 
HETATM   26  O5  UNL     1      70.031  33.646   2.218  1.00  0.00    -0.266 OA
ENDBRANCH  23  24
ENDBRANCH  21  23
ENDBRANCH   1  21
TORSDOF 8
ENDMDL
