MODEL 1
REMARK VINA RESULT: -6.858663904      0.000      0.000
REMARK  6 active torsions:
REMARK  status: ('A' for Active; 'I' for Inactive)
REMARK    1  A    between atoms: O1_2  and  C2_3 
REMARK    2  A    between atoms: C4_5  and  C5_6 
REMARK    3  A    between atoms: C10_11  and  O2_12 
REMARK    4  A    between atoms: O2_12  and  C11_13 
REMARK    5  A    between atoms: C15_21  and  O7_22 
REMARK    6  A    between atoms: C17_24  and  O8_25 
ROOT
HETATM    1  C5  UNL     1      69.612  37.334   0.068  1.00  0.00     0.158 C 
HETATM    2  C6  UNL     1      69.402  38.128   1.330  1.00  0.00     0.042 C 
HETATM    3  C7  UNL     1      68.511  39.255   0.850  1.00  0.00     0.071 C 
HETATM    4  C8  UNL     1      68.427  39.050  -0.635  1.00  0.00     0.172 C 
HETATM    5  C9  UNL     1      67.136  38.370  -1.044  1.00  0.00     0.130 C 
HETATM    6  C10 UNL     1      65.970  39.300  -0.846  1.00  0.00     0.277 C 
HETATM    7  O4  UNL     1      66.230  40.448  -1.607  1.00  0.00    -0.337 OA
HETATM    8  C13 UNL     1      67.404  41.059  -1.166  1.00  0.00     0.344 C 
HETATM    9  O5  UNL     1      68.516  40.260  -1.283  1.00  0.00    -0.331 OA
HETATM   10  O6  UNL     1      69.528  38.289  -0.944  1.00  0.00    -0.345 OA
ENDROOT
BRANCH   1  11
HETATM   11  C4  UNL     1      70.888  36.617   0.032  1.00  0.00    -0.024 A 
HETATM   12  C3  UNL     1      71.203  35.727   1.035  1.00  0.00     0.049 A 
HETATM   13  C2  UNL     1      72.379  35.010   1.084  1.00  0.00     0.104 A 
HETATM   14  C17 UNL     1      73.303  35.180   0.077  1.00  0.00     0.135 A 
HETATM   15  C15 UNL     1      73.020  36.075  -0.959  1.00  0.00     0.104 A 
HETATM   16  C14 UNL     1      71.831  36.774  -0.971  1.00  0.00     0.049 A 
BRANCH  13  17
HETATM   17  O1  UNL     1      72.689  34.115   2.099  1.00  0.00    -0.353 OA
HETATM   18  C1  UNL     1      72.080  32.864   2.267  1.00  0.00     0.210 C 
ENDBRANCH  13  17
BRANCH  14  19
HETATM   19  O8  UNL     1      74.500  34.478   0.087  1.00  0.00    -0.351 OA
HETATM   20  C18 UNL     1      74.543  33.236  -0.577  1.00  0.00     0.210 C 
ENDBRANCH  14  19
BRANCH  15  21
HETATM   21  O7  UNL     1      73.972  36.227  -1.962  1.00  0.00    -0.353 OA
HETATM   22  C16 UNL     1      74.189  37.503  -2.495  1.00  0.00     0.210 C 
ENDBRANCH  15  21
ENDBRANCH   1  11
BRANCH   6  23
HETATM   23  O2  UNL     1      64.811  38.674  -1.360  1.00  0.00    -0.290 OA
BRANCH  23  24
HETATM   24  C11 UNL     1      63.672  38.507  -0.568  1.00  0.00     0.257 C 
HETATM   25  C12 UNL     1      63.383  37.232   0.137  1.00  0.00     0.126 C 
HETATM   26  O3  UNL     1      62.902  39.480  -0.477  1.00  0.00    -0.266 OA
ENDBRANCH  23  24
ENDBRANCH   6  23
TORSDOF 6
ENDMDL
MODEL 2
REMARK VINA RESULT: -6.732899586      0.187      2.524
REMARK  6 active torsions:
REMARK  status: ('A' for Active; 'I' for Inactive)
REMARK    1  A    between atoms: O1_2  and  C2_3 
REMARK    2  A    between atoms: C4_5  and  C5_6 
REMARK    3  A    between atoms: C10_11  and  O2_12 
REMARK    4  A    between atoms: O2_12  and  C11_13 
REMARK    5  A    between atoms: C15_21  and  O7_22 
REMARK    6  A    between atoms: C17_24  and  O8_25 
ROOT
HETATM    1  C5  UNL     1      69.687  37.262   0.196  1.00  0.00     0.158 C 
HETATM    2  C6  UNL     1      69.462  38.045   1.462  1.00  0.00     0.042 C 
HETATM    3  C7  UNL     1      68.631  39.211   0.967  1.00  0.00     0.071 C 
HETATM    4  C8  UNL     1      68.593  39.030  -0.522  1.00  0.00     0.172 C 
HETATM    5  C9  UNL     1      67.294  38.404  -0.988  1.00  0.00     0.130 C 
HETATM    6  C10 UNL     1      66.157  39.375  -0.818  1.00  0.00     0.277 C 
HETATM    7  O4  UNL     1      66.487  40.523  -1.552  1.00  0.00    -0.337 OA
HETATM    8  C13 UNL     1      67.666  41.083  -1.060  1.00  0.00     0.344 C 
HETATM    9  O5  UNL     1      68.751  40.245  -1.150  1.00  0.00    -0.331 OA
HETATM   10  O6  UNL     1      69.676  38.232  -0.804  1.00  0.00    -0.345 OA
ENDROOT
BRANCH   1  11
HETATM   11  C4  UNL     1      70.937  36.497   0.195  1.00  0.00    -0.024 A 
HETATM   12  C3  UNL     1      71.846  36.670  -0.824  1.00  0.00     0.049 A 
HETATM   13  C2  UNL     1      73.045  35.995  -0.907  1.00  0.00     0.104 A 
HETATM   14  C17 UNL     1      73.367  35.091   0.081  1.00  0.00     0.135 A 
HETATM   15  C15 UNL     1      72.469  34.887   1.133  1.00  0.00     0.104 A 
HETATM   16  C14 UNL     1      71.280  35.584   1.179  1.00  0.00     0.049 A 
BRANCH  13  17
HETATM   17  O1  UNL     1      73.956  36.175  -1.938  1.00  0.00    -0.353 OA
HETATM   18  C1  UNL     1      74.311  37.420  -2.475  1.00  0.00     0.210 C 
ENDBRANCH  13  17
BRANCH  14  19
HETATM   19  O8  UNL     1      74.564  34.390   0.037  1.00  0.00    -0.351 OA
HETATM   20  C18 UNL     1      74.579  33.150  -0.633  1.00  0.00     0.210 C 
ENDBRANCH  14  19
BRANCH  15  21
HETATM   21  O7  UNL     1      72.822  33.968   2.116  1.00  0.00    -0.353 OA
HETATM   22  C16 UNL     1      72.093  32.777   2.214  1.00  0.00     0.210 C 
ENDBRANCH  15  21
ENDBRANCH   1  11
BRANCH   6  23
HETATM   23  O2  UNL     1      64.995  38.800  -1.383  1.00  0.00    -0.290 OA
BRANCH  23  24
HETATM   24  C11 UNL     1      63.856  38.569  -0.607  1.00  0.00     0.257 C 
HETATM   25  C12 UNL     1      63.611  37.266   0.063  1.00  0.00     0.126 C 
HETATM   26  O3  UNL     1      63.048  39.509  -0.497  1.00  0.00    -0.266 OA
ENDBRANCH  23  24
ENDBRANCH   6  23
TORSDOF 6
ENDMDL
MODEL 3
REMARK VINA RESULT: -6.628700083      1.255      2.943
REMARK  6 active torsions:
REMARK  status: ('A' for Active; 'I' for Inactive)
REMARK    1  A    between atoms: O1_2  and  C2_3 
REMARK    2  A    between atoms: C4_5  and  C5_6 
REMARK    3  A    between atoms: C10_11  and  O2_12 
REMARK    4  A    between atoms: O2_12  and  C11_13 
REMARK    5  A    between atoms: C15_21  and  O7_22 
REMARK    6  A    between atoms: C17_24  and  O8_25 
ROOT
HETATM    1  C5  UNL     1      69.435  37.652  -0.471  1.00  0.00     0.158 C 
HETATM    2  C6  UNL     1      69.300  38.361   0.851  1.00  0.00     0.042 C 
HETATM    3  C7  UNL     1      68.089  39.240   0.615  1.00  0.00     0.071 C 
HETATM    4  C8  UNL     1      67.761  39.032  -0.835  1.00  0.00     0.172 C 
HETATM    5  C9  UNL     1      66.613  38.060  -1.025  1.00  0.00     0.130 C 
HETATM    6  C10 UNL     1      65.324  38.676  -0.555  1.00  0.00     0.277 C 
HETATM    7  O4  UNL     1      65.146  39.859  -1.286  1.00  0.00    -0.337 OA
HETATM    8  C13 UNL     1      66.204  40.734  -1.046  1.00  0.00     0.344 C 
HETATM    9  O5  UNL     1      67.427  40.232  -1.420  1.00  0.00    -0.331 OA
HETATM   10  O6  UNL     1      68.926  38.565  -1.393  1.00  0.00    -0.345 OA
ENDROOT
BRANCH   1  11
HETATM   11  C4  UNL     1      70.811  37.268  -0.792  1.00  0.00    -0.024 A 
HETATM   12  C3  UNL     1      71.595  38.101  -1.558  1.00  0.00     0.049 A 
HETATM   13  C2  UNL     1      72.898  37.822  -1.909  1.00  0.00     0.104 A 
HETATM   14  C17 UNL     1      73.465  36.645  -1.476  1.00  0.00     0.135 A 
HETATM   15  C15 UNL     1      72.701  35.771  -0.695  1.00  0.00     0.104 A 
HETATM   16  C14 UNL     1      71.400  36.089  -0.365  1.00  0.00     0.049 A 
BRANCH  13  17
HETATM   17  O1  UNL     1      73.681  38.668  -2.683  1.00  0.00    -0.353 OA
HETATM   18  C1  UNL     1      73.411  38.998  -4.018  1.00  0.00     0.210 C 
ENDBRANCH  13  17
BRANCH  14  19
HETATM   19  O8  UNL     1      74.774  36.324  -1.806  1.00  0.00    -0.351 OA
HETATM   20  C18 UNL     1      75.000  35.623  -3.007  1.00  0.00     0.210 C 
ENDBRANCH  14  19
BRANCH  15  21
HETATM   21  O7  UNL     1      73.300  34.589  -0.271  1.00  0.00    -0.353 OA
HETATM   22  C16 UNL     1      73.164  34.211   1.070  1.00  0.00     0.210 C 
ENDBRANCH  15  21
ENDBRANCH   1  11
BRANCH   6  23
HETATM   23  O2  UNL     1      64.267  37.790  -0.871  1.00  0.00    -0.290 OA
BRANCH  23  24
HETATM   24  C11 UNL     1      63.355  37.382   0.105  1.00  0.00     0.257 C 
HETATM   25  C12 UNL     1      63.627  36.232   1.005  1.00  0.00     0.126 C 
HETATM   26  O3  UNL     1      62.295  38.028   0.191  1.00  0.00    -0.266 OA
ENDBRANCH  23  24
ENDBRANCH   6  23
TORSDOF 6
ENDMDL
MODEL 4
REMARK VINA RESULT: -6.606278004      1.258      1.674
REMARK  6 active torsions:
REMARK  status: ('A' for Active; 'I' for Inactive)
REMARK    1  A    between atoms: O1_2  and  C2_3 
REMARK    2  A    between atoms: C4_5  and  C5_6 
REMARK    3  A    between atoms: C10_11  and  O2_12 
REMARK    4  A    between atoms: O2_12  and  C11_13 
REMARK    5  A    between atoms: C15_21  and  O7_22 
REMARK    6  A    between atoms: C17_24  and  O8_25 
ROOT
HETATM    1  C5  UNL     1      69.488  37.683  -0.513  1.00  0.00     0.158 C 
HETATM    2  C6  UNL     1      69.350  38.368   0.822  1.00  0.00     0.042 C 
HETATM    3  C7  UNL     1      68.112  39.216   0.614  1.00  0.00     0.071 C 
HETATM    4  C8  UNL     1      67.772  39.022  -0.835  1.00  0.00     0.172 C 
HETATM    5  C9  UNL     1      66.650  38.021  -1.028  1.00  0.00     0.130 C 
HETATM    6  C10 UNL     1      65.350  38.594  -0.533  1.00  0.00     0.277 C 
HETATM    7  O4  UNL     1      65.130  39.782  -1.243  1.00  0.00    -0.337 OA
HETATM    8  C13 UNL     1      66.167  40.683  -1.001  1.00  0.00     0.344 C 
HETATM    9  O5  UNL     1      67.399  40.221  -1.397  1.00  0.00    -0.331 OA
HETATM   10  O6  UNL     1      68.943  38.596  -1.414  1.00  0.00    -0.345 OA
ENDROOT
BRANCH   1  11
HETATM   11  C4  UNL     1      70.871  37.343  -0.855  1.00  0.00    -0.024 A 
HETATM   12  C3  UNL     1      71.408  36.148  -0.432  1.00  0.00     0.049 A 
HETATM   13  C2  UNL     1      72.697  35.745  -0.707  1.00  0.00     0.104 A 
HETATM   14  C17 UNL     1      73.509  36.575  -1.447  1.00  0.00     0.135 A 
HETATM   15  C15 UNL     1      73.000  37.798  -1.895  1.00  0.00     0.104 A 
HETATM   16  C14 UNL     1      71.704  38.164  -1.599  1.00  0.00     0.049 A 
BRANCH  13  17
HETATM   17  O1  UNL     1      73.231  34.538  -0.276  1.00  0.00    -0.353 OA
HETATM   18  C1  UNL     1      73.264  34.118   1.060  1.00  0.00     0.210 C 
ENDBRANCH  13  17
BRANCH  14  19
HETATM   19  O8  UNL     1      74.813  36.209  -1.746  1.00  0.00    -0.351 OA
HETATM   20  C18 UNL     1      75.040  35.482  -2.932  1.00  0.00     0.210 C 
ENDBRANCH  14  19
BRANCH  15  21
HETATM   21  O7  UNL     1      73.843  38.616  -2.641  1.00  0.00    -0.353 OA
HETATM   22  C16 UNL     1      73.576  38.791  -4.004  1.00  0.00     0.210 C 
ENDBRANCH  15  21
ENDBRANCH   1  11
BRANCH   6  23
HETATM   23  O2  UNL     1      64.314  37.684  -0.850  1.00  0.00    -0.290 OA
BRANCH  23  24
HETATM   24  C11 UNL     1      63.357  37.322   0.101  1.00  0.00     0.257 C 
HETATM   25  C12 UNL     1      63.551  36.166   1.014  1.00  0.00     0.126 C 
HETATM   26  O3  UNL     1      62.325  38.015   0.154  1.00  0.00    -0.266 OA
ENDBRANCH  23  24
ENDBRANCH   6  23
TORSDOF 6
ENDMDL
MODEL 5
REMARK VINA RESULT: -6.393809520      1.001      1.061
REMARK  6 active torsions:
REMARK  status: ('A' for Active; 'I' for Inactive)
REMARK    1  A    between atoms: O1_2  and  C2_3 
REMARK    2  A    between atoms: C4_5  and  C5_6 
REMARK    3  A    between atoms: C10_11  and  O2_12 
REMARK    4  A    between atoms: O2_12  and  C11_13 
REMARK    5  A    between atoms: C15_21  and  O7_22 
REMARK    6  A    between atoms: C17_24  and  O8_25 
ROOT
HETATM    1  C5  UNL     1      69.735  37.371   0.441  1.00  0.00     0.158 C 
HETATM    2  C6  UNL     1      69.504  38.261   1.634  1.00  0.00     0.042 C 
HETATM    3  C7  UNL     1      68.714  39.402   1.027  1.00  0.00     0.071 C 
HETATM    4  C8  UNL     1      68.703  39.100  -0.444  1.00  0.00     0.172 C 
HETATM    5  C9  UNL     1      67.398  38.470  -0.886  1.00  0.00     0.130 C 
HETATM    6  C10 UNL     1      66.283  39.479  -0.822  1.00  0.00     0.277 C 
HETATM    7  O4  UNL     1      66.658  40.554  -1.639  1.00  0.00    -0.337 OA
HETATM    8  C13 UNL     1      67.840  41.124  -1.168  1.00  0.00     0.344 C 
HETATM    9  O5  UNL     1      68.905  40.255  -1.164  1.00  0.00    -0.331 OA
HETATM   10  O6  UNL     1      69.770  38.256  -0.634  1.00  0.00    -0.345 OA
ENDROOT
BRANCH   1  11
HETATM   11  C4  UNL     1      70.964  36.579   0.532  1.00  0.00    -0.024 A 
HETATM   12  C3  UNL     1      71.414  36.149   1.760  1.00  0.00     0.049 A 
HETATM   13  C2  UNL     1      72.558  35.401   1.940  1.00  0.00     0.104 A 
HETATM   14  C17 UNL     1      73.306  35.055   0.837  1.00  0.00     0.135 A 
HETATM   15  C15 UNL     1      72.881  35.473  -0.429  1.00  0.00     0.104 A 
HETATM   16  C14 UNL     1      71.730  36.220  -0.566  1.00  0.00     0.049 A 
BRANCH  13  17
HETATM   17  O1  UNL     1      73.006  34.972   3.182  1.00  0.00    -0.353 OA
HETATM   18  C1  UNL     1      73.691  35.779   4.100  1.00  0.00     0.210 C 
ENDBRANCH  13  17
BRANCH  14  19
HETATM   19  O8  UNL     1      74.464  34.303   0.973  1.00  0.00    -0.351 OA
HETATM   20  C18 UNL     1      74.356  32.901   0.883  1.00  0.00     0.210 C 
ENDBRANCH  14  19
BRANCH  15  21
HETATM   21  O7  UNL     1      73.657  35.108  -1.525  1.00  0.00    -0.353 OA
HETATM   22  C16 UNL     1      74.558  36.041  -2.050  1.00  0.00     0.210 C 
ENDBRANCH  15  21
ENDBRANCH   1  11
BRANCH   6  23
HETATM   23  O2  UNL     1      65.118  38.888  -1.365  1.00  0.00    -0.290 OA
BRANCH  23  24
HETATM   24  C11 UNL     1      64.018  38.593  -0.557  1.00  0.00     0.257 C 
HETATM   25  C12 UNL     1      63.904  37.309   0.182  1.00  0.00     0.126 C 
HETATM   26  O3  UNL     1      63.127  39.459  -0.480  1.00  0.00    -0.266 OA
ENDBRANCH  23  24
ENDBRANCH   6  23
TORSDOF 6
ENDMDL
