MODEL 1
REMARK VINA RESULT: -9.787034664      0.000      0.000
REMARK  9 active torsions:
REMARK  status: ('A' for Active; 'I' for Inactive)
REMARK    1  A    between atoms: C2_5  and  O2_6 
REMARK    2  A    between atoms: N2_10  and  C4_11 
REMARK    3  A    between atoms: N3_14  and  C7_15 
REMARK    4  A    between atoms: C7_15  and  C8_16 
REMARK    5  A    between atoms: C8_16  and  C9_17 
REMARK    6  A    between atoms: N4_20  and  C12_21 
REMARK    7  A    between atoms: N5_24  and  C15_25 
REMARK    8  A    between atoms: C15_25  and  C16_26 
REMARK    9  A    between atoms: C16_26  and  C17_27 
ROOT
HETATM    1  C9  UNL     1       5.163  -1.510 -20.710  1.00  0.00     0.024 C 
HETATM    2  C10 UNL     1       4.732  -2.825 -21.300  1.00  0.00     0.027 C 
HETATM    3  C11 UNL     1       3.345  -2.576 -21.893  1.00  0.00     0.118 C 
HETATM    4  N4  UNL     1       2.488  -1.915 -20.988  1.00  0.00    -0.405 N 
HETATM    5  C23 UNL     1       2.928  -1.755 -19.661  1.00  0.00     0.154 C 
HETATM    6  C24 UNL     1       4.214  -0.902 -19.741  1.00  0.00     0.191 C 
HETATM    7  F1  UNL     1       4.704  -0.620 -18.501  1.00  0.00    -0.247 F 
ENDROOT
BRANCH   1   8
HETATM    8  C8  UNL     1       6.575  -1.455 -20.228  1.00  0.00     0.038 C 
BRANCH   8   9
HETATM    9  C7  UNL     1       7.133  -2.621 -19.546  1.00  0.00     0.273 C 
BRANCH   9  10
HETATM   10  N3  UNL     1       8.415  -3.116 -19.912  1.00  0.00     0.088 N 
HETATM   11  C6  UNL     1       8.721  -2.879 -21.312  1.00  0.00     0.274 C 
HETATM   12  C5  UNL     1       8.705  -4.073 -22.188  1.00  0.00     0.056 C 
HETATM   13  C4  UNL     1       7.595  -5.040 -21.853  1.00  0.00     0.099 C 
HETATM   14  C26 UNL     1       7.767  -5.462 -20.414  1.00  0.00     0.056 C 
HETATM   15  C25 UNL     1       8.663  -4.496 -19.647  1.00  0.00     0.274 C 
BRANCH  13  16
HETATM   16  N2  UNL     1       7.634  -6.197 -22.694  1.00  0.00    -0.281 N 
HETATM   17  C1  UNL     1       8.492  -7.195 -22.820  1.00  0.00     0.330 A 
HETATM   18  O1  UNL     1       9.542  -7.324 -22.148  1.00  0.00    -0.246 OA
HETATM   19  N1  UNL     1       8.117  -8.081 -23.763  1.00  0.00    -0.286 N 
HETATM   20  C2  UNL     1       6.962  -7.641 -24.275  1.00  0.00     0.184 A 
ATOM     21  H1  UNL     1       8.618  -8.927 -24.036  1.00  0.00     0.172 HD
HETATM   22  C3  UNL     1       6.656  -6.461 -23.607  1.00  0.00     0.161 A 
HETATM   23 CL1  UNL     1       5.211  -5.536 -23.965  1.00  0.00    -0.059 Cl
BRANCH  20  24
HETATM   24  O2  UNL     1       6.210  -8.245 -25.284  1.00  0.00    -0.344 OA
ATOM     25  H2  UNL     1       5.409  -8.744 -25.176  1.00  0.00     0.219 HD
ENDBRANCH  20  24
ENDBRANCH  13  16
ENDBRANCH   9  10
ENDBRANCH   8   9
ENDBRANCH   1   8
BRANCH   4  26
HETATM   26  C12 UNL     1       1.134  -1.982 -21.306  1.00  0.00     0.088 C 
HETATM   27  C13 UNL     1       0.458  -0.711 -20.815  1.00  0.00     0.069 C 
HETATM   28  C14 UNL     1      -0.986  -0.688 -21.141  1.00  0.00     0.065 C 
HETATM   29  N5  UNL     1      -1.700  -1.882 -21.007  1.00  0.00    -0.374 N 
HETATM   30  C21 UNL     1      -1.036  -3.100 -21.182  1.00  0.00     0.065 C 
HETATM   31  C22 UNL     1       0.386  -3.139 -20.690  1.00  0.00     0.069 C 
BRANCH  29  32
HETATM   32  C15 UNL     1      -2.966  -1.864 -20.376  1.00  0.00     0.127 C 
BRANCH  32  33
HETATM   33  C16 UNL     1      -3.273  -3.319 -19.982  1.00  0.00     0.024 C 
BRANCH  33  34
HETATM   34  C17 UNL     1      -4.748  -3.415 -19.640  1.00  0.00    -0.013 C 
HETATM   35  C18 UNL     1      -5.209  -2.340 -18.674  1.00  0.00     0.005 C 
HETATM   36  C19 UNL     1      -4.973  -3.331 -17.548  1.00  0.00     0.001 C 
HETATM   37  C20 UNL     1      -5.059  -4.446 -18.579  1.00  0.00     0.005 C 
ENDBRANCH  33  34
ENDBRANCH  32  33
ENDBRANCH  29  32
ENDBRANCH   4  26
TORSDOF 9
ENDMDL
MODEL 2
REMARK VINA RESULT: -9.616207118      1.941      2.720
REMARK  9 active torsions:
REMARK  status: ('A' for Active; 'I' for Inactive)
REMARK    1  A    between atoms: C2_5  and  O2_6 
REMARK    2  A    between atoms: N2_10  and  C4_11 
REMARK    3  A    between atoms: N3_14  and  C7_15 
REMARK    4  A    between atoms: C7_15  and  C8_16 
REMARK    5  A    between atoms: C8_16  and  C9_17 
REMARK    6  A    between atoms: N4_20  and  C12_21 
REMARK    7  A    between atoms: N5_24  and  C15_25 
REMARK    8  A    between atoms: C15_25  and  C16_26 
REMARK    9  A    between atoms: C16_26  and  C17_27 
ROOT
HETATM    1  C9  UNL     1       2.889  -2.479 -20.495  1.00  0.00     0.024 C 
HETATM    2  C10 UNL     1       2.173  -1.182 -20.233  1.00  0.00     0.027 C 
HETATM    3  C11 UNL     1       0.689  -1.538 -20.156  1.00  0.00     0.118 C 
HETATM    4  N4  UNL     1       0.275  -2.344 -21.237  1.00  0.00    -0.405 N 
HETATM    5  C23 UNL     1       1.182  -2.542 -22.295  1.00  0.00     0.154 C 
HETATM    6  C24 UNL     1       2.410  -3.246 -21.674  1.00  0.00     0.191 C 
HETATM    7  F1  UNL     1       3.341  -3.554 -22.622  1.00  0.00    -0.247 F 
ENDROOT
BRANCH   1   8
HETATM    8  C8  UNL     1       4.379  -2.415 -20.430  1.00  0.00     0.038 C 
BRANCH   8   9
HETATM    9  C7  UNL     1       5.039  -2.648 -19.147  1.00  0.00     0.273 C 
BRANCH   9  10
HETATM   10  N3  UNL     1       6.392  -2.256 -18.959  1.00  0.00     0.088 N 
HETATM   11  C6  UNL     1       7.010  -1.788 -20.188  1.00  0.00     0.274 C 
HETATM   12  C5  UNL     1       8.014  -2.693 -20.792  1.00  0.00     0.056 C 
HETATM   13  C4  UNL     1       7.634  -4.151 -20.693  1.00  0.00     0.099 C 
HETATM   14  C26 UNL     1       7.456  -4.485 -19.232  1.00  0.00     0.056 C 
HETATM   15  C25 UNL     1       7.264  -3.231 -18.386  1.00  0.00     0.274 C 
BRANCH  13  16
HETATM   16  N2  UNL     1       8.645  -4.996 -21.252  1.00  0.00    -0.281 N 
HETATM   17  C1  UNL     1       9.966  -4.969 -21.219  1.00  0.00     0.330 A 
HETATM   18  O1  UNL     1      10.649  -4.104 -20.623  1.00  0.00    -0.246 OA
HETATM   19  N1  UNL     1      10.519  -5.989 -21.906  1.00  0.00    -0.286 N 
HETATM   20  C2  UNL     1       9.512  -6.712 -22.409  1.00  0.00     0.184 A 
ATOM     21  H1  UNL     1      11.515  -6.174 -22.021  1.00  0.00     0.172 HD
HETATM   22  C3  UNL     1       8.336  -6.094 -22.001  1.00  0.00     0.161 A 
HETATM   23 CL1  UNL     1       6.757  -6.714 -22.439  1.00  0.00    -0.059 Cl
BRANCH  20  24
HETATM   24  O2  UNL     1       9.618  -7.863 -23.191  1.00  0.00    -0.344 OA
ATOM     25  H2  UNL     1       9.273  -8.724 -22.988  1.00  0.00     0.219 HD
ENDBRANCH  20  24
ENDBRANCH  13  16
ENDBRANCH   9  10
ENDBRANCH   8   9
ENDBRANCH   1   8
BRANCH   4  26
HETATM   26  C12 UNL     1      -1.102  -2.401 -21.434  1.00  0.00     0.088 C 
HETATM   27  C13 UNL     1      -1.722  -1.124 -20.892  1.00  0.00     0.069 C 
HETATM   28  C14 UNL     1      -3.189  -1.090 -21.089  1.00  0.00     0.065 C 
HETATM   29  N5  UNL     1      -3.898  -2.277 -20.888  1.00  0.00    -0.374 N 
HETATM   30  C21 UNL     1      -3.261  -3.501 -21.114  1.00  0.00     0.065 C 
HETATM   31  C22 UNL     1      -1.801  -3.550 -20.749  1.00  0.00     0.069 C 
BRANCH  29  32
HETATM   32  C15 UNL     1      -5.103  -2.247 -20.147  1.00  0.00     0.127 C 
BRANCH  32  33
HETATM   33  C16 UNL     1      -5.031  -3.420 -19.155  1.00  0.00     0.024 C 
BRANCH  33  34
HETATM   34  C17 UNL     1      -4.491  -2.891 -17.839  1.00  0.00    -0.013 C 
HETATM   35  C18 UNL     1      -4.549  -3.909 -16.716  1.00  0.00     0.005 C 
HETATM   36  C19 UNL     1      -5.882  -3.304 -16.313  1.00  0.00     0.001 C 
HETATM   37  C20 UNL     1      -5.484  -2.048 -17.071  1.00  0.00     0.005 C 
ENDBRANCH  33  34
ENDBRANCH  32  33
ENDBRANCH  29  32
ENDBRANCH   4  26
TORSDOF 9
ENDMDL
MODEL 3
REMARK VINA RESULT: -9.615895673      1.016      1.279
REMARK  9 active torsions:
REMARK  status: ('A' for Active; 'I' for Inactive)
REMARK    1  A    between atoms: C2_5  and  O2_6 
REMARK    2  A    between atoms: N2_10  and  C4_11 
REMARK    3  A    between atoms: N3_14  and  C7_15 
REMARK    4  A    between atoms: C7_15  and  C8_16 
REMARK    5  A    between atoms: C8_16  and  C9_17 
REMARK    6  A    between atoms: N4_20  and  C12_21 
REMARK    7  A    between atoms: N5_24  and  C15_25 
REMARK    8  A    between atoms: C15_25  and  C16_26 
REMARK    9  A    between atoms: C16_26  and  C17_27 
ROOT
HETATM    1  C9  UNL     1       4.305  -2.370 -19.296  1.00  0.00     0.024 C 
HETATM    2  C10 UNL     1       3.186  -2.417 -18.293  1.00  0.00     0.027 C 
HETATM    3  C11 UNL     1       1.955  -2.882 -19.069  1.00  0.00     0.118 C 
HETATM    4  N4  UNL     1       1.773  -2.158 -20.266  1.00  0.00    -0.405 N 
HETATM    5  C23 UNL     1       2.586  -1.031 -20.485  1.00  0.00     0.154 C 
HETATM    6  C24 UNL     1       4.040  -1.557 -20.512  1.00  0.00     0.191 C 
HETATM    7  F1  UNL     1       4.927  -0.558 -20.785  1.00  0.00    -0.247 F 
ENDROOT
BRANCH   1   8
HETATM    8  C8  UNL     1       5.664  -2.116 -18.733  1.00  0.00     0.038 C 
BRANCH   8   9
HETATM    9  C7  UNL     1       6.651  -3.194 -18.759  1.00  0.00     0.273 C 
BRANCH   9  10
HETATM   10  N3  UNL     1       7.816  -3.075 -19.564  1.00  0.00     0.088 N 
HETATM   11  C6  UNL     1       7.506  -2.726 -20.940  1.00  0.00     0.274 C 
HETATM   12  C5  UNL     1       7.692  -3.805 -21.937  1.00  0.00     0.056 C 
HETATM   13  C4  UNL     1       7.266  -5.162 -21.430  1.00  0.00     0.099 C 
HETATM   14  C26 UNL     1       8.070  -5.466 -20.189  1.00  0.00     0.056 C 
HETATM   15  C25 UNL     1       8.687  -4.205 -19.594  1.00  0.00     0.274 C 
BRANCH  13  16
HETATM   16  N2  UNL     1       7.495  -6.183 -22.405  1.00  0.00    -0.281 N 
HETATM   17  C1  UNL     1       8.490  -7.028 -22.613  1.00  0.00     0.330 A 
HETATM   18  O1  UNL     1       9.527  -7.098 -21.914  1.00  0.00    -0.246 OA
HETATM   19  N1  UNL     1       8.274  -7.827 -23.677  1.00  0.00    -0.286 N 
HETATM   20  C2  UNL     1       7.084  -7.488 -24.184  1.00  0.00     0.184 A 
ATOM     21  H1  UNL     1       8.898  -8.553 -24.028  1.00  0.00     0.172 HD
HETATM   22  C3  UNL     1       6.592  -6.458 -23.390  1.00  0.00     0.161 A 
HETATM   23 CL1  UNL     1       5.041  -5.703 -23.699  1.00  0.00    -0.059 Cl
BRANCH  20  24
HETATM   24  O2  UNL     1       6.455  -8.053 -25.295  1.00  0.00    -0.344 OA
ATOM     25  H2  UNL     1       6.618  -7.847 -26.208  1.00  0.00     0.219 HD
ENDBRANCH  20  24
ENDBRANCH  13  16
ENDBRANCH   9  10
ENDBRANCH   8   9
ENDBRANCH   1   8
BRANCH   4  26
HETATM   26  C12 UNL     1       0.504  -2.263 -20.829  1.00  0.00     0.088 C 
HETATM   27  C13 UNL     1      -0.408  -1.247 -20.161  1.00  0.00     0.069 C 
HETATM   28  C14 UNL     1      -1.778  -1.272 -20.724  1.00  0.00     0.065 C 
HETATM   29  N5  UNL     1      -2.329  -2.519 -21.030  1.00  0.00    -0.374 N 
HETATM   30  C21 UNL     1      -1.483  -3.573 -21.388  1.00  0.00     0.065 C 
HETATM   31  C22 UNL     1      -0.158  -3.611 -20.674  1.00  0.00     0.069 C 
BRANCH  29  32
HETATM   32  C15 UNL     1      -3.665  -2.796 -20.654  1.00  0.00     0.127 C 
BRANCH  32  33
HETATM   33  C16 UNL     1      -3.822  -2.288 -19.211  1.00  0.00     0.024 C 
BRANCH  33  34
HETATM   34  C17 UNL     1      -5.159  -2.774 -18.682  1.00  0.00    -0.013 C 
HETATM   35  C18 UNL     1      -5.761  -1.852 -17.640  1.00  0.00     0.005 C 
HETATM   36  C19 UNL     1      -5.121  -2.728 -16.578  1.00  0.00     0.001 C 
HETATM   37  C20 UNL     1      -5.038  -3.837 -17.614  1.00  0.00     0.005 C 
ENDBRANCH  33  34
ENDBRANCH  32  33
ENDBRANCH  29  32
ENDBRANCH   4  26
TORSDOF 9
ENDMDL
MODEL 4
REMARK VINA RESULT: -9.587104711      1.874      2.087
REMARK  9 active torsions:
REMARK  status: ('A' for Active; 'I' for Inactive)
REMARK    1  A    between atoms: C2_5  and  O2_6 
REMARK    2  A    between atoms: N2_10  and  C4_11 
REMARK    3  A    between atoms: N3_14  and  C7_15 
REMARK    4  A    between atoms: C7_15  and  C8_16 
REMARK    5  A    between atoms: C8_16  and  C9_17 
REMARK    6  A    between atoms: N4_20  and  C12_21 
REMARK    7  A    between atoms: N5_24  and  C15_25 
REMARK    8  A    between atoms: C15_25  and  C16_26 
REMARK    9  A    between atoms: C16_26  and  C17_27 
ROOT
HETATM    1  C9  UNL     1       4.481  -2.558 -19.051  1.00  0.00     0.024 C 
HETATM    2  C10 UNL     1       3.314  -2.576 -18.103  1.00  0.00     0.027 C 
HETATM    3  C11 UNL     1       2.099  -2.948 -18.951  1.00  0.00     0.118 C 
HETATM    4  N4  UNL     1       2.013  -2.178 -20.130  1.00  0.00    -0.405 N 
HETATM    5  C23 UNL     1       2.895  -1.090 -20.271  1.00  0.00     0.154 C 
HETATM    6  C24 UNL     1       4.318  -1.694 -20.250  1.00  0.00     0.191 C 
HETATM    7  F1  UNL     1       5.269  -0.737 -20.447  1.00  0.00    -0.247 F 
ENDROOT
BRANCH   1   8
HETATM    8  C8  UNL     1       5.823  -2.397 -18.417  1.00  0.00     0.038 C 
BRANCH   8   9
HETATM    9  C7  UNL     1       6.730  -3.542 -18.386  1.00  0.00     0.273 C 
BRANCH   9  10
HETATM   10  N3  UNL     1       7.991  -3.473 -19.040  1.00  0.00     0.088 N 
HETATM   11  C6  UNL     1       8.115  -2.294 -19.880  1.00  0.00     0.274 C 
HETATM   12  C5  UNL     1       8.078  -2.535 -21.340  1.00  0.00     0.056 C 
HETATM   13  C4  UNL     1       7.082  -3.597 -21.741  1.00  0.00     0.099 C 
HETATM   14  C26 UNL     1       7.449  -4.871 -21.021  1.00  0.00     0.056 C 
HETATM   15  C25 UNL     1       8.362  -4.602 -19.829  1.00  0.00     0.274 C 
BRANCH  13  16
HETATM   16  N2  UNL     1       7.102  -3.829 -23.154  1.00  0.00    -0.281 N 
HETATM   17  C1  UNL     1       8.061  -4.149 -24.004  1.00  0.00     0.330 A 
HETATM   18  O1  UNL     1       9.261  -4.331 -23.693  1.00  0.00    -0.246 OA
HETATM   19  N1  UNL     1       7.611  -4.264 -25.269  1.00  0.00    -0.286 N 
HETATM   20  C2  UNL     1       6.298  -4.007 -25.241  1.00  0.00     0.184 A 
ATOM     21  H1  UNL     1       8.165  -4.501 -26.092  1.00  0.00     0.172 HD
HETATM   22  C3  UNL     1       5.975  -3.734 -23.917  1.00  0.00     0.161 A 
HETATM   23 CL1  UNL     1       4.341  -3.341 -23.419  1.00  0.00    -0.059 Cl
BRANCH  20  24
HETATM   24  O2  UNL     1       5.422  -4.010 -26.327  1.00  0.00    -0.344 OA
ATOM     25  H2  UNL     1       4.802  -3.329 -26.561  1.00  0.00     0.219 HD
ENDBRANCH  20  24
ENDBRANCH  13  16
ENDBRANCH   9  10
ENDBRANCH   8   9
ENDBRANCH   1   8
BRANCH   4  26
HETATM   26  C12 UNL     1       0.769  -2.196 -20.754  1.00  0.00     0.088 C 
HETATM   27  C13 UNL     1      -0.064  -1.049 -20.205  1.00  0.00     0.069 C 
HETATM   28  C14 UNL     1      -1.400  -0.977 -20.840  1.00  0.00     0.065 C 
HETATM   29  N5  UNL     1      -2.062  -2.181 -21.094  1.00  0.00    -0.374 N 
HETATM   30  C21 UNL     1      -1.313  -3.337 -21.334  1.00  0.00     0.065 C 
HETATM   31  C22 UNL     1      -0.035  -3.456 -20.547  1.00  0.00     0.069 C 
BRANCH  29  32
HETATM   32  C15 UNL     1      -3.436  -2.297 -20.775  1.00  0.00     0.127 C 
BRANCH  32  33
HETATM   33  C16 UNL     1      -3.508  -2.558 -19.261  1.00  0.00     0.024 C 
BRANCH  33  34
HETATM   34  C17 UNL     1      -4.944  -2.900 -18.909  1.00  0.00    -0.013 C 
HETATM   35  C18 UNL     1      -5.581  -1.904 -17.960  1.00  0.00     0.005 C 
HETATM   36  C19 UNL     1      -5.174  -2.818 -16.818  1.00  0.00     0.001 C 
HETATM   37  C20 UNL     1      -5.069  -3.950 -17.828  1.00  0.00     0.005 C 
ENDBRANCH  33  34
ENDBRANCH  32  33
ENDBRANCH  29  32
ENDBRANCH   4  26
TORSDOF 9
ENDMDL
MODEL 5
REMARK VINA RESULT: -9.572721587      1.332      1.420
REMARK  9 active torsions:
REMARK  status: ('A' for Active; 'I' for Inactive)
REMARK    1  A    between atoms: C2_5  and  O2_6 
REMARK    2  A    between atoms: N2_10  and  C4_11 
REMARK    3  A    between atoms: N3_14  and  C7_15 
REMARK    4  A    between atoms: C7_15  and  C8_16 
REMARK    5  A    between atoms: C8_16  and  C9_17 
REMARK    6  A    between atoms: N4_20  and  C12_21 
REMARK    7  A    between atoms: N5_24  and  C15_25 
REMARK    8  A    between atoms: C15_25  and  C16_26 
REMARK    9  A    between atoms: C16_26  and  C17_27 
ROOT
HETATM    1  C9  UNL     1       4.299  -1.584 -19.694  1.00  0.00     0.024 C 
HETATM    2  C10 UNL     1       4.116  -2.631 -20.759  1.00  0.00     0.027 C 
HETATM    3  C11 UNL     1       2.766  -2.328 -21.409  1.00  0.00     0.118 C 
HETATM    4  N4  UNL     1       1.745  -2.133 -20.455  1.00  0.00    -0.405 N 
HETATM    5  C23 UNL     1       2.037  -2.423 -19.109  1.00  0.00     0.154 C 
HETATM    6  C24 UNL     1       3.189  -1.471 -18.711  1.00  0.00     0.191 C 
HETATM    7  F1  UNL     1       3.520  -1.612 -17.397  1.00  0.00    -0.247 F 
ENDROOT
BRANCH   1   8
HETATM    8  C8  UNL     1       5.639  -1.563 -19.037  1.00  0.00     0.038 C 
BRANCH   8   9
HETATM    9  C7  UNL     1       6.835  -1.553 -19.877  1.00  0.00     0.273 C 
BRANCH   9  10
HETATM   10  N3  UNL     1       7.949  -2.370 -19.541  1.00  0.00     0.088 N 
HETATM   11  C6  UNL     1       9.070  -2.177 -20.445  1.00  0.00     0.274 C 
HETATM   12  C5  UNL     1       9.339  -3.289 -21.386  1.00  0.00     0.056 C 
HETATM   13  C4  UNL     1       8.082  -3.923 -21.930  1.00  0.00     0.099 C 
HETATM   14  C26 UNL     1       7.273  -4.426 -20.760  1.00  0.00     0.056 C 
HETATM   15  C25 UNL     1       7.707  -3.773 -19.452  1.00  0.00     0.274 C 
BRANCH  13  16
HETATM   16  N2  UNL     1       8.381  -5.016 -22.805  1.00  0.00    -0.281 N 
HETATM   17  C1  UNL     1       8.900  -6.215 -22.608  1.00  0.00     0.330 A 
HETATM   18  O1  UNL     1       9.261  -6.664 -21.495  1.00  0.00    -0.246 OA
HETATM   19  N1  UNL     1       9.003  -6.925 -23.749  1.00  0.00    -0.286 N 
HETATM   20  C2  UNL     1       8.530  -6.153 -24.733  1.00  0.00     0.184 A 
ATOM     21  H1  UNL     1       9.372  -7.871 -23.844  1.00  0.00     0.172 HD
HETATM   22  C3  UNL     1       8.139  -4.955 -24.146  1.00  0.00     0.161 A 
HETATM   23 CL1  UNL     1       7.453  -3.640 -25.079  1.00  0.00    -0.059 Cl
BRANCH  20  24
HETATM   24  O2  UNL     1       8.446  -6.481 -26.087  1.00  0.00    -0.344 OA
ATOM     25  H2  UNL     1       8.013  -5.981 -26.769  1.00  0.00     0.219 HD
ENDBRANCH  20  24
ENDBRANCH  13  16
ENDBRANCH   9  10
ENDBRANCH   8   9
ENDBRANCH   1   8
BRANCH   4  26
HETATM   26  C12 UNL     1       0.449  -2.218 -20.956  1.00  0.00     0.088 C 
HETATM   27  C13 UNL     1      -0.379  -1.096 -20.351  1.00  0.00     0.069 C 
HETATM   28  C14 UNL     1      -1.771  -1.097 -20.856  1.00  0.00     0.065 C 
HETATM   29  N5  UNL     1      -2.399  -2.333 -21.022  1.00  0.00    -0.374 N 
HETATM   30  C21 UNL     1      -1.625  -3.461 -21.312  1.00  0.00     0.065 C 
HETATM   31  C22 UNL     1      -0.274  -3.507 -20.650  1.00  0.00     0.069 C 
BRANCH  29  32
HETATM   32  C15 UNL     1      -3.730  -2.500 -20.571  1.00  0.00     0.127 C 
BRANCH  32  33
HETATM   33  C16 UNL     1      -3.636  -2.908 -19.091  1.00  0.00     0.024 C 
BRANCH  33  34
HETATM   34  C17 UNL     1      -5.044  -3.139 -18.574  1.00  0.00    -0.013 C 
HETATM   35  C18 UNL     1      -5.642  -1.920 -17.901  1.00  0.00     0.005 C 
HETATM   36  C19 UNL     1      -5.158  -2.484 -16.577  1.00  0.00     0.001 C 
HETATM   37  C20 UNL     1      -5.092  -3.850 -17.241  1.00  0.00     0.005 C 
ENDBRANCH  33  34
ENDBRANCH  32  33
ENDBRANCH  29  32
ENDBRANCH   4  26
TORSDOF 9
ENDMDL
