MODEL 1
REMARK VINA RESULT: -7.093544236      0.000      0.000
REMARK  4 active torsions:
REMARK  status: ('A' for Active; 'I' for Inactive)
REMARK    1  A    between atoms: C2_2  and  C4_5 
REMARK    2  A    between atoms: C5_6  and  O1_7 
REMARK    3  A    between atoms: C6_9  and  O2_10 
REMARK    4  A    between atoms: C10_16  and  N2_17 
ROOT
HETATM    1  C4  UNL     1      -9.510  14.566  -1.031  1.00  0.00     0.048 A 
HETATM    2  C5  UNL     1     -10.342  14.799   0.112  1.00  0.00     0.129 A 
HETATM    3  C6  UNL     1      -9.646  15.455   1.063  1.00  0.00     0.181 A 
HETATM    4  N1  UNL     1      -8.412  15.649   0.588  1.00  0.00    -0.297 N 
HETATM    5  C7  UNL     1      -7.417  16.263   1.230  1.00  0.00     0.107 A 
HETATM    6  C8  UNL     1      -6.200  16.382   0.619  1.00  0.00    -0.034 A 
HETATM    7  C9  UNL     1      -6.058  15.861  -0.634  1.00  0.00    -0.022 A 
HETATM    8  C10 UNL     1      -7.109  15.205  -1.327  1.00  0.00     0.065 A 
HETATM    9  C15 UNL     1      -8.308  15.113  -0.684  1.00  0.00     0.080 A 
HETATM   10  C16 UNL     1      -4.689  16.145  -1.059  1.00  0.00     0.042 C 
HETATM   11  C17 UNL     1      -3.935  16.139   0.282  1.00  0.00     0.009 C 
HETATM   12  C18 UNL     1      -4.912  17.012   1.080  1.00  0.00     0.041 C 
ENDROOT
BRANCH   8  13
HETATM   13  N2  UNL     1      -6.789  14.647  -2.560  1.00  0.00    -0.374 N 
HETATM   14  C11 UNL     1      -6.181  13.354  -2.814  1.00  0.00     0.149 C 
HETATM   15  C12 UNL     1      -4.951  13.453  -3.669  1.00  0.00     0.187 C 
HETATM   16  O3  UNL     1      -5.200  14.198  -4.792  1.00  0.00    -0.388 OA
HETATM   17  C13 UNL     1      -6.475  14.663  -4.955  1.00  0.00     0.187 C 
HETATM   18  C14 UNL     1      -6.921  15.471  -3.753  1.00  0.00     0.149 C 
ENDBRANCH   8  13
BRANCH   1  19
HETATM   19  C2  UNL     1     -10.065  13.905  -2.181  1.00  0.00     0.128 C 
HETATM   20  C1  UNL     1     -10.400  15.099  -3.188  1.00  0.00     0.057 C 
HETATM   21  C3  UNL     1     -11.488  13.392  -1.913  1.00  0.00     0.057 C 
HETATM   22  F1  UNL     1      -9.424  13.171  -3.063  1.00  0.00    -0.238 F 
ENDBRANCH   1  19
BRANCH   2  23
HETATM   23  O1  UNL     1     -11.671  14.426   0.267  1.00  0.00    -0.356 OA
ATOM     24  H1  UNL     1     -12.431  14.996   0.245  1.00  0.00     0.218 HD
ENDBRANCH   2  23
BRANCH   3  25
HETATM   25  O2  UNL     1     -10.169  15.836   2.300  1.00  0.00    -0.344 OA
ATOM     26  H2  UNL     1     -10.325  16.735   2.562  1.00  0.00     0.219 HD
ENDBRANCH   3  25
TORSDOF 4
ENDMDL
MODEL 2
REMARK VINA RESULT: -6.780324120      2.124      2.905
REMARK  4 active torsions:
REMARK  status: ('A' for Active; 'I' for Inactive)
REMARK    1  A    between atoms: C2_2  and  C4_5 
REMARK    2  A    between atoms: C5_6  and  O1_7 
REMARK    3  A    between atoms: C6_9  and  O2_10 
REMARK    4  A    between atoms: C10_16  and  N2_17 
ROOT
HETATM    1  C4  UNL     1     -10.467  14.872   1.297  1.00  0.00     0.048 A 
HETATM    2  C5  UNL     1     -10.357  15.195   2.688  1.00  0.00     0.129 A 
HETATM    3  C6  UNL     1      -9.156  15.754   2.938  1.00  0.00     0.181 A 
HETATM    4  N1  UNL     1      -8.492  15.803   1.778  1.00  0.00    -0.297 N 
HETATM    5  C7  UNL     1      -7.262  16.288   1.604  1.00  0.00     0.107 A 
HETATM    6  C8  UNL     1      -6.706  16.265   0.356  1.00  0.00    -0.034 A 
HETATM    7  C9  UNL     1      -7.443  15.740  -0.666  1.00  0.00    -0.022 A 
HETATM    8  C10 UNL     1      -8.752  15.220  -0.492  1.00  0.00     0.065 A 
HETATM    9  C15 UNL     1      -9.272  15.267   0.768  1.00  0.00     0.080 A 
HETATM   10  C16 UNL     1      -6.636  15.860  -1.877  1.00  0.00     0.042 C 
HETATM   11  C17 UNL     1      -5.207  15.754  -1.316  1.00  0.00     0.009 C 
HETATM   12  C18 UNL     1      -5.364  16.732  -0.145  1.00  0.00     0.041 C 
ENDROOT
BRANCH   8  13
HETATM   13  N2  UNL     1      -9.345  14.636  -1.607  1.00  0.00    -0.374 N 
HETATM   14  C11 UNL     1      -9.220  13.262  -2.057  1.00  0.00     0.149 C 
HETATM   15  C12 UNL     1      -8.777  13.161  -3.487  1.00  0.00     0.187 C 
HETATM   16  O3  UNL     1      -9.549  13.957  -4.291  1.00  0.00    -0.388 OA
HETATM   17  C13 UNL     1     -10.568  14.640  -3.689  1.00  0.00     0.187 C 
HETATM   18  C14 UNL     1     -10.057  15.492  -2.545  1.00  0.00     0.149 C 
ENDBRANCH   8  13
BRANCH   1  19
HETATM   19  C2  UNL     1     -11.687  14.290   0.805  1.00  0.00     0.128 C 
HETATM   20  C1  UNL     1     -12.822  15.297   1.306  1.00  0.00     0.057 C 
HETATM   21  C3  UNL     1     -12.087  13.040   1.603  1.00  0.00     0.057 C 
HETATM   22  F1  UNL     1     -12.100  14.243  -0.442  1.00  0.00    -0.238 F 
ENDBRANCH   1  19
BRANCH   2  23
HETATM   23  O1  UNL     1     -11.314  14.982   3.673  1.00  0.00    -0.356 OA
ATOM     24  H1  UNL     1     -11.206  14.488   4.477  1.00  0.00     0.218 HD
ENDBRANCH   2  23
BRANCH   3  25
HETATM   25  O2  UNL     1      -8.735  16.186   4.197  1.00  0.00    -0.344 OA
ATOM     26  H2  UNL     1      -7.981  16.745   4.348  1.00  0.00     0.219 HD
ENDBRANCH   3  25
TORSDOF 4
ENDMDL
MODEL 3
REMARK VINA RESULT: -6.716686750      1.591      4.482
REMARK  4 active torsions:
REMARK  status: ('A' for Active; 'I' for Inactive)
REMARK    1  A    between atoms: C2_2  and  C4_5 
REMARK    2  A    between atoms: C5_6  and  O1_7 
REMARK    3  A    between atoms: C6_9  and  O2_10 
REMARK    4  A    between atoms: C10_16  and  N2_17 
ROOT
HETATM    1  C4  UNL     1      -7.227  16.030  -0.070  1.00  0.00     0.048 A 
HETATM    2  C5  UNL     1      -7.898  16.307   1.165  1.00  0.00     0.129 A 
HETATM    3  C6  UNL     1      -9.136  15.773   1.146  1.00  0.00     0.181 A 
HETATM    4  N1  UNL     1      -9.291  15.172  -0.038  1.00  0.00    -0.297 N 
HETATM    5  C7  UNL     1     -10.384  14.526  -0.447  1.00  0.00     0.107 A 
HETATM    6  C8  UNL     1     -10.401  13.965  -1.693  1.00  0.00    -0.034 A 
HETATM    7  C9  UNL     1      -9.287  14.094  -2.470  1.00  0.00    -0.022 A 
HETATM    8  C10 UNL     1      -8.119  14.781  -2.046  1.00  0.00     0.065 A 
HETATM    9  C15 UNL     1      -8.141  15.320  -0.794  1.00  0.00     0.080 A 
HETATM   10  C16 UNL     1      -9.559  13.391  -3.722  1.00  0.00     0.042 C 
HETATM   11  C17 UNL     1     -11.081  13.563  -3.856  1.00  0.00     0.009 C 
HETATM   12  C18 UNL     1     -11.466  13.186  -2.420  1.00  0.00     0.041 C 
ENDROOT
BRANCH   8  13
HETATM   13  N2  UNL     1      -7.097  14.908  -2.981  1.00  0.00    -0.374 N 
HETATM   14  C11 UNL     1      -7.003  15.871  -4.063  1.00  0.00     0.149 C 
HETATM   15  C12 UNL     1      -6.781  15.220  -5.397  1.00  0.00     0.187 C 
HETATM   16  O3  UNL     1      -5.742  14.329  -5.334  1.00  0.00    -0.388 OA
HETATM   17  C13 UNL     1      -5.091  14.222  -4.137  1.00  0.00     0.187 C 
HETATM   18  C14 UNL     1      -6.055  13.892  -3.016  1.00  0.00     0.149 C 
ENDBRANCH   8  13
BRANCH   1  19
HETATM   19  C2  UNL     1      -5.875  16.485  -0.252  1.00  0.00     0.128 C 
HETATM   20  C1  UNL     1      -4.999  15.419   0.554  1.00  0.00     0.057 C 
HETATM   21  C3  UNL     1      -5.577  17.741   0.580  1.00  0.00     0.057 C 
HETATM   22  F1  UNL     1      -5.158  16.431  -1.353  1.00  0.00    -0.238 F 
ENDBRANCH   1  19
BRANCH   2  23
HETATM   23  O1  UNL     1      -7.393  17.014   2.249  1.00  0.00    -0.356 OA
ATOM     24  H1  UNL     1      -6.847  16.675   2.948  1.00  0.00     0.218 HD
ENDBRANCH   2  23
BRANCH   3  25
HETATM   25  O2  UNL     1     -10.047  15.861   2.200  1.00  0.00    -0.344 OA
ATOM     26  H2  UNL     1     -10.644  16.588   2.333  1.00  0.00     0.219 HD
ENDBRANCH   3  25
TORSDOF 4
ENDMDL
MODEL 4
REMARK VINA RESULT: -6.484903569      2.058      4.875
REMARK  4 active torsions:
REMARK  status: ('A' for Active; 'I' for Inactive)
REMARK    1  A    between atoms: C2_2  and  C4_5 
REMARK    2  A    between atoms: C5_6  and  O1_7 
REMARK    3  A    between atoms: C6_9  and  O2_10 
REMARK    4  A    between atoms: C10_16  and  N2_17 
ROOT
HETATM    1  C4  UNL     1      -6.883  15.176  -2.077  1.00  0.00     0.048 A 
HETATM    2  C5  UNL     1      -5.899  15.944  -1.374  1.00  0.00     0.129 A 
HETATM    3  C6  UNL     1      -6.372  16.298  -0.162  1.00  0.00     0.181 A 
HETATM    4  N1  UNL     1      -7.607  15.798  -0.056  1.00  0.00    -0.297 N 
HETATM    5  C7  UNL     1      -8.414  15.931   0.998  1.00  0.00     0.107 A 
HETATM    6  C8  UNL     1      -9.659  15.369   0.960  1.00  0.00    -0.034 A 
HETATM    7  C9  UNL     1     -10.023  14.690  -0.166  1.00  0.00    -0.022 A 
HETATM    8  C10 UNL     1      -9.173  14.543  -1.294  1.00  0.00     0.065 A 
HETATM    9  C15 UNL     1      -7.938  15.114  -1.213  1.00  0.00     0.080 A 
HETATM   10  C16 UNL     1     -11.370  14.175   0.065  1.00  0.00     0.042 C 
HETATM   11  C17 UNL     1     -11.958  15.241   1.007  1.00  0.00     0.009 C 
HETATM   12  C18 UNL     1     -10.773  15.347   1.975  1.00  0.00     0.041 C 
ENDROOT
BRANCH   8  13
HETATM   13  N2  UNL     1      -9.715  13.902  -2.403  1.00  0.00    -0.374 N 
HETATM   14  C11 UNL     1     -10.634  14.454  -3.381  1.00  0.00     0.149 C 
HETATM   15  C12 UNL     1     -11.869  13.617  -3.549  1.00  0.00     0.187 C 
HETATM   16  O3  UNL     1     -11.538  12.303  -3.753  1.00  0.00    -0.388 OA
HETATM   17  C13 UNL     1     -10.206  12.002  -3.809  1.00  0.00     0.187 C 
HETATM   18  C14 UNL     1      -9.485  12.474  -2.564  1.00  0.00     0.149 C 
ENDBRANCH   8  13
BRANCH   1  19
HETATM   19  C2  UNL     1      -6.572  14.667  -3.387  1.00  0.00     0.128 C 
HETATM   20  C1  UNL     1      -5.861  13.266  -3.096  1.00  0.00     0.057 C 
HETATM   21  C3  UNL     1      -5.398  15.420  -4.029  1.00  0.00     0.057 C 
HETATM   22  F1  UNL     1      -7.416  14.198  -4.279  1.00  0.00    -0.238 F 
ENDBRANCH   1  19
BRANCH   2  23
HETATM   23  O1  UNL     1      -4.636  16.299  -1.829  1.00  0.00    -0.356 OA
ATOM     24  H1  UNL     1      -4.363  17.150  -2.151  1.00  0.00     0.218 HD
ENDBRANCH   2  23
BRANCH   3  25
HETATM   25  O2  UNL     1      -5.657  17.051   0.772  1.00  0.00    -0.344 OA
ATOM     26  H2  UNL     1      -6.018  17.781   1.260  1.00  0.00     0.219 HD
ENDBRANCH   3  25
TORSDOF 4
ENDMDL
MODEL 5
REMARK VINA RESULT: -6.419815860      0.655      1.155
REMARK  4 active torsions:
REMARK  status: ('A' for Active; 'I' for Inactive)
REMARK    1  A    between atoms: C2_2  and  C4_5 
REMARK    2  A    between atoms: C5_6  and  O1_7 
REMARK    3  A    between atoms: C6_9  and  O2_10 
REMARK    4  A    between atoms: C10_16  and  N2_17 
ROOT
HETATM    1  C4  UNL     1      -9.520  14.532  -1.010  1.00  0.00     0.048 A 
HETATM    2  C5  UNL     1     -10.346  14.803   0.129  1.00  0.00     0.129 A 
HETATM    3  C6  UNL     1      -9.637  15.467   1.065  1.00  0.00     0.181 A 
HETATM    4  N1  UNL     1      -8.401  15.631   0.584  1.00  0.00    -0.297 N 
HETATM    5  C7  UNL     1      -7.395  16.242   1.212  1.00  0.00     0.107 A 
HETATM    6  C8  UNL     1      -6.178  16.329   0.597  1.00  0.00    -0.034 A 
HETATM    7  C9  UNL     1      -6.047  15.779  -0.645  1.00  0.00    -0.022 A 
HETATM    8  C10 UNL     1      -7.109  15.126  -1.322  1.00  0.00     0.065 A 
HETATM    9  C15 UNL     1      -8.308  15.066  -0.676  1.00  0.00     0.080 A 
HETATM   10  C16 UNL     1      -4.674  16.031  -1.078  1.00  0.00     0.042 C 
HETATM   11  C17 UNL     1      -3.918  16.041   0.262  1.00  0.00     0.009 C 
HETATM   12  C18 UNL     1      -4.879  16.947   1.043  1.00  0.00     0.041 C 
ENDROOT
BRANCH   8  13
HETATM   13  N2  UNL     1      -6.801  14.536  -2.544  1.00  0.00    -0.374 N 
HETATM   14  C11 UNL     1      -6.792  15.166  -3.852  1.00  0.00     0.149 C 
HETATM   15  C12 UNL     1      -7.638  14.432  -4.851  1.00  0.00     0.187 C 
HETATM   16  O3  UNL     1      -7.332  13.097  -4.858  1.00  0.00    -0.388 OA
HETATM   17  C13 UNL     1      -6.328  12.689  -4.026  1.00  0.00     0.187 C 
HETATM   18  C14 UNL     1      -6.604  13.095  -2.592  1.00  0.00     0.149 C 
ENDBRANCH   8  13
BRANCH   1  19
HETATM   19  C2  UNL     1     -10.088  13.856  -2.144  1.00  0.00     0.128 C 
HETATM   20  C1  UNL     1     -10.400  15.034  -3.178  1.00  0.00     0.057 C 
HETATM   21  C3  UNL     1     -11.520  13.376  -1.866  1.00  0.00     0.057 C 
HETATM   22  F1  UNL     1      -9.461  13.090  -3.010  1.00  0.00    -0.238 F 
ENDBRANCH   1  19
BRANCH   2  23
HETATM   23  O1  UNL     1     -11.681  14.454   0.293  1.00  0.00    -0.356 OA
ATOM     24  H1  UNL     1     -12.177  14.462   1.103  1.00  0.00     0.218 HD
ENDBRANCH   2  23
BRANCH   3  25
HETATM   25  O2  UNL     1     -10.153  15.882   2.295  1.00  0.00    -0.344 OA
ATOM     26  H2  UNL     1      -9.628  16.033   3.072  1.00  0.00     0.219 HD
ENDBRANCH   3  25
TORSDOF 4
ENDMDL
