MODEL 1
REMARK VINA RESULT: -6.349463235      0.000      0.000
REMARK  15 active torsions:
REMARK  status: ('A' for Active; 'I' for Inactive)
REMARK    1  A    between atoms: C2_3  and  S1_4 
REMARK    2  A    between atoms: C2_3  and  C21_45 
REMARK    3  A    between atoms: S1_4  and  S2_5 
REMARK    4  A    between atoms: S2_5  and  C3_6 
REMARK    5  A    between atoms: C5_10  and  O1_11 
REMARK    6  A    between atoms: O1_11  and  C6_12 
REMARK    7  A    between atoms: C6_12  and  C7_13 
REMARK    8  A    between atoms: C8_14  and  C9_15 
REMARK    9  A    between atoms: C9_15  and  O2_16 
REMARK   10  A    between atoms: C9_15  and  C10_18 
REMARK   11  A    between atoms: N3_20  and  O4_21 
REMARK   12  A    between atoms: O4_21  and  C11_22 
REMARK   13  A    between atoms: C11_22  and  C12_24 
REMARK   14  A    between atoms: N4_33  and  O6_35 
REMARK   15  A    between atoms: O6_35  and  C19_36 
REMARK       I    between atoms: C19_36  and  N5_38 
REMARK       I    between atoms: N5_38  and  C20_40 
ROOT
HETATM    1  N1  UNL     1      24.445  -1.218 -16.903  1.00  0.00    -0.195 NA
HETATM    2  C1  UNL     1      24.813  -1.938 -17.723  1.00  0.00     0.086 C 
HETATM    3  C2  UNL     1      25.274  -2.856 -18.738  1.00  0.00     0.265 C 
ENDROOT
BRANCH   3   4
HETATM    4  S1  UNL     1      25.734  -4.471 -18.057  1.00  0.00    -0.060 SA
BRANCH   4   5
HETATM    5  S2  UNL     1      24.979  -4.741 -16.095  1.00  0.00    -0.034 SA
BRANCH   5   6
HETATM    6  C3  UNL     1      24.286  -6.371 -15.877  1.00  0.00     0.125 C 
HETATM    7  N2  UNL     1      25.043  -7.350 -15.627  1.00  0.00    -0.377 N 
HETATM    8  C4  UNL     1      24.578  -8.695 -15.438  1.00  0.00     0.176 C 
ATOM      9  H2  UNL     1      26.046  -7.175 -15.555  1.00  0.00     0.160 HD
HETATM   10  C5  UNL     1      23.203  -8.734 -14.874  1.00  0.00     0.271 C 
HETATM   11  N3  UNL     1      22.358  -7.934 -15.757  1.00  0.00    -0.197 N 
HETATM   12  C18 UNL     1      22.848  -6.590 -15.966  1.00  0.00     0.186 C 
HETATM   13  N4  UNL     1      22.014  -5.655 -16.224  1.00  0.00    -0.236 N 
ATOM     14  H4  UNL     1      21.012  -5.839 -16.279  1.00  0.00     0.197 HD
BRANCH  10  15
HETATM   15  O1  UNL     1      23.076  -8.212 -13.613  1.00  0.00    -0.351 OA
BRANCH  15  16
HETATM   16  C6  UNL     1      23.528  -8.995 -12.594  1.00  0.00     0.264 C 
BRANCH  16  17
HETATM   17  C7  UNL     1      24.408  -8.294 -11.667  1.00  0.00    -0.077 C 
HETATM   18  C8  UNL     1      25.159  -7.721 -10.901  1.00  0.00    -0.065 C 
BRANCH  18  19
HETATM   19  C9  UNL     1      26.062  -7.025 -10.005  1.00  0.00     0.258 C 
BRANCH  19  20
HETATM   20  O2  UNL     1      25.927  -5.656 -10.231  1.00  0.00    -0.377 OA
ATOM     21  H2  UNL     1      25.099  -5.376  -9.859  1.00  0.00     0.211 HD
ENDBRANCH  19  20
BRANCH  19  22
HETATM   22  C10 UNL     1      25.801  -7.334  -8.572  1.00  0.00     0.275 C 
HETATM   23  O3  UNL     1      25.388  -6.466  -7.843  1.00  0.00    -0.303 OA
ENDBRANCH  19  22
ENDBRANCH  18  19
ENDBRANCH  16  17
ENDBRANCH  15  16
ENDBRANCH  10  15
BRANCH  11  24
HETATM   24  O4  UNL     1      21.224  -8.389 -16.332  1.00  0.00    -0.188 OA
BRANCH  24  25
HETATM   25  C11 UNL     1      21.246  -8.862 -17.631  1.00  0.00     0.318 C 
HETATM   26  O5  UNL     1      20.295  -8.564 -18.396  1.00  0.00    -0.257 OA
BRANCH  25  27
HETATM   27  C12 UNL     1      22.316  -9.693 -18.169  1.00  0.00     0.084 A 
HETATM   28  C13 UNL     1      22.420 -11.037 -17.879  1.00  0.00     0.052 A 
HETATM   29 CL1  UNL     1      21.259 -11.819 -16.843  1.00  0.00    -0.083 Cl
HETATM   30  C14 UNL     1      23.448 -11.817 -18.398  1.00  0.00     0.025 A 
HETATM   31  C15 UNL     1      24.395 -11.256 -19.223  1.00  0.00     0.003 A 
HETATM   32  C16 UNL     1      24.260  -9.911 -19.491  1.00  0.00     0.025 A 
HETATM   33  C17 UNL     1      23.268  -9.111 -19.001  1.00  0.00     0.052 A 
HETATM   34 CL2  UNL     1      23.138  -7.410 -19.370  1.00  0.00    -0.083 Cl
ENDBRANCH  25  27
ENDBRANCH  24  25
ENDBRANCH  11  24
BRANCH  13  35
HETATM   35  O6  UNL     1      22.517  -4.397 -16.424  1.00  0.00    -0.179 OA
BRANCH  35  36
HETATM   36  C19 UNL     1      21.638  -3.369 -16.697  1.00  0.00     0.389 C 
HETATM   37  O7  UNL     1      20.907  -2.943 -15.772  1.00  0.00    -0.236 OA
HETATM   38  N5  UNL     1      21.548  -2.794 -17.989  1.00  0.00    -0.275 N 
HETATM   39  C20 UNL     1      20.638  -1.737 -18.257  1.00  0.00     0.190 C 
ATOM     40  H5  UNL     1      22.145  -3.145 -18.739  1.00  0.00     0.173 HD
HETATM   41  N6  UNL     1      20.550  -1.210 -19.425  1.00  0.00    -0.373 N 
HETATM   42  N7  UNL     1      19.809  -1.250 -17.217  1.00  0.00    -0.064 NA
ATOM     43  H62 UNL     1      21.147  -1.561 -20.174  1.00  0.00     0.158 HD
ATOM     44  H61 UNL     1      19.896  -0.451 -19.617  1.00  0.00     0.158 HD
ENDBRANCH  35  36
ENDBRANCH  13  35
ENDBRANCH   5   6
ENDBRANCH   4   5
ENDBRANCH   3   4
BRANCH   3  45
HETATM   45  C21 UNL     1      24.300  -3.056 -19.829  1.00  0.00     0.202 C 
HETATM   46  O8  UNL     1      23.514  -2.173 -20.205  1.00  0.00    -0.646 OA
HETATM   47  O9  UNL     1      24.283  -4.313 -20.455  1.00  0.00    -0.646 OA
ENDBRANCH   3  45
TORSDOF 15
ENDMDL
MODEL 2
REMARK VINA RESULT: -6.324254934      3.101      8.294
REMARK  15 active torsions:
REMARK  status: ('A' for Active; 'I' for Inactive)
REMARK    1  A    between atoms: C2_3  and  S1_4 
REMARK    2  A    between atoms: C2_3  and  C21_45 
REMARK    3  A    between atoms: S1_4  and  S2_5 
REMARK    4  A    between atoms: S2_5  and  C3_6 
REMARK    5  A    between atoms: C5_10  and  O1_11 
REMARK    6  A    between atoms: O1_11  and  C6_12 
REMARK    7  A    between atoms: C6_12  and  C7_13 
REMARK    8  A    between atoms: C8_14  and  C9_15 
REMARK    9  A    between atoms: C9_15  and  O2_16 
REMARK   10  A    between atoms: C9_15  and  C10_18 
REMARK   11  A    between atoms: N3_20  and  O4_21 
REMARK   12  A    between atoms: O4_21  and  C11_22 
REMARK   13  A    between atoms: C11_22  and  C12_24 
REMARK   14  A    between atoms: N4_33  and  O6_35 
REMARK   15  A    between atoms: O6_35  and  C19_36 
REMARK       I    between atoms: C19_36  and  N5_38 
REMARK       I    between atoms: N5_38  and  C20_40 
ROOT
HETATM    1  N1  UNL     1      22.662  -7.442 -10.893  1.00  0.00    -0.195 NA
HETATM    2  C1  UNL     1      23.717  -7.233 -11.308  1.00  0.00     0.086 C 
HETATM    3  C2  UNL     1      25.034  -6.982 -11.844  1.00  0.00     0.265 C 
ENDROOT
BRANCH   3   4
HETATM    4  S1  UNL     1      25.348  -7.899 -13.375  1.00  0.00    -0.060 SA
BRANCH   4   5
HETATM    5  S2  UNL     1      23.808  -7.599 -14.801  1.00  0.00    -0.034 SA
BRANCH   5   6
HETATM    6  C3  UNL     1      24.150  -6.198 -15.851  1.00  0.00     0.125 C 
HETATM    7  N2  UNL     1      25.182  -5.498 -15.653  1.00  0.00    -0.377 N 
HETATM    8  C4  UNL     1      25.537  -4.354 -16.444  1.00  0.00     0.176 C 
ATOM      9  H2  UNL     1      25.800  -5.761 -14.886  1.00  0.00     0.160 HD
HETATM   10  C5  UNL     1      25.051  -4.471 -17.844  1.00  0.00     0.271 C 
HETATM   11  N3  UNL     1      23.612  -4.719 -17.775  1.00  0.00    -0.197 N 
HETATM   12  C18 UNL     1      23.260  -5.855 -16.953  1.00  0.00     0.186 C 
HETATM   13  N4  UNL     1      22.191  -6.507 -17.216  1.00  0.00    -0.236 N 
ATOM     14  H4  UNL     1      21.588  -6.244 -17.996  1.00  0.00     0.197 HD
BRANCH  10  15
HETATM   15  O1  UNL     1      25.602  -5.497 -18.568  1.00  0.00    -0.351 OA
BRANCH  15  16
HETATM   16  C6  UNL     1      25.128  -5.655 -19.835  1.00  0.00     0.264 C 
BRANCH  16  17
HETATM   17  C7  UNL     1      24.486  -6.945 -20.060  1.00  0.00    -0.077 C 
HETATM   18  C8  UNL     1      23.939  -8.018 -20.231  1.00  0.00    -0.065 C 
BRANCH  18  19
HETATM   19  C9  UNL     1      23.269  -9.285 -20.443  1.00  0.00     0.258 C 
BRANCH  19  20
HETATM   20  O2  UNL     1      21.894  -9.060 -20.403  1.00  0.00    -0.377 OA
ATOM     21  H2  UNL     1      21.591  -9.236 -19.520  1.00  0.00     0.211 HD
ENDBRANCH  19  20
BRANCH  19  22
HETATM   22  C10 UNL     1      23.645  -9.924 -21.735  1.00  0.00     0.275 C 
HETATM   23  O3  UNL     1      23.450  -9.334 -22.769  1.00  0.00    -0.303 OA
ENDBRANCH  19  22
ENDBRANCH  18  19
ENDBRANCH  16  17
ENDBRANCH  15  16
ENDBRANCH  10  15
BRANCH  11  24
HETATM   24  O4  UNL     1      22.686  -3.970 -18.411  1.00  0.00    -0.188 OA
BRANCH  24  25
HETATM   25  C11 UNL     1      22.553  -2.627 -18.108  1.00  0.00     0.318 C 
HETATM   26  O5  UNL     1      22.666  -2.267 -16.911  1.00  0.00    -0.257 OA
BRANCH  25  27
HETATM   27  C12 UNL     1      22.286  -1.599 -19.106  1.00  0.00     0.084 A 
HETATM   28  C13 UNL     1      21.012  -1.141 -19.368  1.00  0.00     0.052 A 
HETATM   29 CL1  UNL     1      19.640  -1.777 -18.505  1.00  0.00    -0.083 Cl
HETATM   30  C14 UNL     1      20.773  -0.159 -20.324  1.00  0.00     0.025 A 
HETATM   31  C15 UNL     1      21.816   0.383 -21.038  1.00  0.00     0.003 A 
HETATM   32  C16 UNL     1      23.075  -0.099 -20.750  1.00  0.00     0.025 A 
HETATM   33  C17 UNL     1      23.351  -1.061 -19.821  1.00  0.00     0.052 A 
HETATM   34 CL2  UNL     1      24.965  -1.638 -19.491  1.00  0.00    -0.083 Cl
ENDBRANCH  25  27
ENDBRANCH  24  25
ENDBRANCH  11  24
BRANCH  13  35
HETATM   35  O6  UNL     1      21.886  -7.572 -16.411  1.00  0.00    -0.179 OA
BRANCH  35  36
HETATM   36  C19 UNL     1      21.548  -8.772 -17.002  1.00  0.00     0.389 C 
HETATM   37  O7  UNL     1      20.562  -8.803 -17.775  1.00  0.00    -0.236 OA
HETATM   38  N5  UNL     1      22.286  -9.956 -16.751  1.00  0.00    -0.275 N 
HETATM   39  C20 UNL     1      21.926 -11.184 -17.366  1.00  0.00     0.190 C 
ATOM     40  H5  UNL     1      23.087  -9.924 -16.120  1.00  0.00     0.173 HD
HETATM   41  N6  UNL     1      22.590 -12.262 -17.145  1.00  0.00    -0.373 N 
HETATM   42  N7  UNL     1      20.815 -11.228 -18.242  1.00  0.00    -0.064 NA
ATOM     43  H62 UNL     1      23.392 -12.231 -16.514  1.00  0.00     0.158 HD
ATOM     44  H61 UNL     1      22.332 -13.144 -17.586  1.00  0.00     0.158 HD
ENDBRANCH  35  36
ENDBRANCH  13  35
ENDBRANCH   5   6
ENDBRANCH   4   5
ENDBRANCH   3   4
BRANCH   3  45
HETATM   45  C21 UNL     1      25.302  -5.549 -12.081  1.00  0.00     0.202 C 
HETATM   46  O8  UNL     1      24.623  -4.641 -11.579  1.00  0.00    -0.646 OA
HETATM   47  O9  UNL     1      26.384  -5.226 -12.917  1.00  0.00    -0.646 OA
ENDBRANCH   3  45
TORSDOF 15
ENDMDL
MODEL 3
REMARK VINA RESULT: -6.304082583      3.368      8.327
REMARK  15 active torsions:
REMARK  status: ('A' for Active; 'I' for Inactive)
REMARK    1  A    between atoms: C2_3  and  S1_4 
REMARK    2  A    between atoms: C2_3  and  C21_45 
REMARK    3  A    between atoms: S1_4  and  S2_5 
REMARK    4  A    between atoms: S2_5  and  C3_6 
REMARK    5  A    between atoms: C5_10  and  O1_11 
REMARK    6  A    between atoms: O1_11  and  C6_12 
REMARK    7  A    between atoms: C6_12  and  C7_13 
REMARK    8  A    between atoms: C8_14  and  C9_15 
REMARK    9  A    between atoms: C9_15  and  O2_16 
REMARK   10  A    between atoms: C9_15  and  C10_18 
REMARK   11  A    between atoms: N3_20  and  O4_21 
REMARK   12  A    between atoms: O4_21  and  C11_22 
REMARK   13  A    between atoms: C11_22  and  C12_24 
REMARK   14  A    between atoms: N4_33  and  O6_35 
REMARK   15  A    between atoms: O6_35  and  C19_36 
REMARK       I    between atoms: C19_36  and  N5_38 
REMARK       I    between atoms: N5_38  and  C20_40 
ROOT
HETATM    1  N1  UNL     1      20.157 -10.661 -19.623  1.00  0.00    -0.195 NA
HETATM    2  C1  UNL     1      21.209 -10.470 -20.053  1.00  0.00     0.086 C 
HETATM    3  C2  UNL     1      22.529 -10.215 -20.580  1.00  0.00     0.265 C 
ENDROOT
BRANCH   3   4
HETATM    4  S1  UNL     1      23.216  -8.641 -20.002  1.00  0.00    -0.060 SA
BRANCH   4   5
HETATM    5  S2  UNL     1      24.312  -8.876 -18.203  1.00  0.00    -0.034 SA
BRANCH   5   6
HETATM    6  C3  UNL     1      24.155  -7.446 -17.148  1.00  0.00     0.125 C 
HETATM    7  N2  UNL     1      24.839  -6.411 -17.383  1.00  0.00    -0.377 N 
HETATM    8  C4  UNL     1      24.782  -5.215 -16.590  1.00  0.00     0.176 C 
ATOM      9  H2  UNL     1      25.470  -6.424 -18.184  1.00  0.00     0.160 HD
HETATM   10  C5  UNL     1      23.445  -5.023 -15.968  1.00  0.00     0.271 C 
HETATM   11  N3  UNL     1      23.144  -6.243 -15.222  1.00  0.00    -0.197 N 
HETATM   12  C18 UNL     1      23.232  -7.445 -16.020  1.00  0.00     0.186 C 
HETATM   13  N4  UNL     1      22.510  -8.455 -15.708  1.00  0.00    -0.236 N 
ATOM     14  H4  UNL     1      21.871  -8.424 -14.914  1.00  0.00     0.197 HD
BRANCH  10  15
HETATM   15  O1  UNL     1      22.415  -4.826 -16.851  1.00  0.00    -0.351 OA
BRANCH  15  16
HETATM   16  C6  UNL     1      22.715  -4.099 -17.963  1.00  0.00     0.264 C 
BRANCH  16  17
HETATM   17  C7  UNL     1      21.819  -2.969 -18.179  1.00  0.00    -0.077 C 
HETATM   18  C8  UNL     1      21.076  -2.026 -18.380  1.00  0.00    -0.065 C 
BRANCH  18  19
HETATM   19  C9  UNL     1      20.176  -0.917 -18.627  1.00  0.00     0.258 C 
BRANCH  19  20
HETATM   20  O2  UNL     1      19.885  -0.315 -17.405  1.00  0.00    -0.377 OA
ATOM     21  H2  UNL     1      19.878  -0.990 -16.737  1.00  0.00     0.211 HD
ENDBRANCH  19  20
BRANCH  19  22
HETATM   22  C10 UNL     1      20.747   0.086 -19.569  1.00  0.00     0.275 C 
HETATM   23  O3  UNL     1      20.329   0.144 -20.699  1.00  0.00    -0.303 OA
ENDBRANCH  19  22
ENDBRANCH  18  19
ENDBRANCH  16  17
ENDBRANCH  15  16
ENDBRANCH  10  15
BRANCH  11  24
HETATM   24  O4  UNL     1      22.812  -6.265 -13.913  1.00  0.00    -0.188 OA
BRANCH  24  25
HETATM   25  C11 UNL     1      23.724  -5.853 -12.959  1.00  0.00     0.318 C 
HETATM   26  O5  UNL     1      23.745  -4.641 -12.632  1.00  0.00    -0.257 OA
BRANCH  25  27
HETATM   27  C12 UNL     1      24.670  -6.751 -12.308  1.00  0.00     0.084 A 
HETATM   28  C13 UNL     1      26.011  -6.766 -12.630  1.00  0.00     0.052 A 
HETATM   29 CL1  UNL     1      26.649  -5.697 -13.847  1.00  0.00    -0.083 Cl
HETATM   30  C14 UNL     1      26.901  -7.629 -12.000  1.00  0.00     0.025 A 
HETATM   31  C15 UNL     1      26.458  -8.497 -11.030  1.00  0.00     0.003 A 
HETATM   32  C16 UNL     1      25.112  -8.454 -10.734  1.00  0.00     0.025 A 
HETATM   33  C17 UNL     1      24.206  -7.624 -11.329  1.00  0.00     0.052 A 
HETATM   34 CL2  UNL     1      22.510  -7.606 -10.919  1.00  0.00    -0.083 Cl
ENDBRANCH  25  27
ENDBRANCH  24  25
ENDBRANCH  11  24
BRANCH  13  35
HETATM   35  O6  UNL     1      22.627  -9.578 -16.483  1.00  0.00    -0.179 OA
BRANCH  35  36
HETATM   36  C19 UNL     1      21.673 -10.567 -16.362  1.00  0.00     0.389 C 
HETATM   37  O7  UNL     1      20.629 -10.318 -15.713  1.00  0.00    -0.236 OA
HETATM   38  N5  UNL     1      21.850 -11.845 -16.950  1.00  0.00    -0.275 N 
HETATM   39  C20 UNL     1      20.860 -12.854 -16.817  1.00  0.00     0.190 C 
ATOM     40  H5  UNL     1      22.702 -12.042 -17.476  1.00  0.00     0.173 HD
HETATM   41  N6  UNL     1      21.013 -14.014 -17.347  1.00  0.00    -0.373 N 
HETATM   42  N7  UNL     1      19.678 -12.581 -16.087  1.00  0.00    -0.064 NA
ATOM     43  H62 UNL     1      21.864 -14.211 -17.873  1.00  0.00     0.158 HD
ATOM     44  H61 UNL     1      20.302 -14.739 -17.251  1.00  0.00     0.158 HD
ENDBRANCH  35  36
ENDBRANCH  13  35
ENDBRANCH   5   6
ENDBRANCH   4   5
ENDBRANCH   3   4
BRANCH   3  45
HETATM   45  C21 UNL     1      23.492 -11.295 -20.287  1.00  0.00     0.202 C 
HETATM   46  O8  UNL     1      24.641 -11.322 -20.751  1.00  0.00    -0.646 OA
HETATM   47  O9  UNL     1      23.061 -12.328 -19.438  1.00  0.00    -0.646 OA
ENDBRANCH   3  45
TORSDOF 15
ENDMDL
MODEL 4
REMARK VINA RESULT: -6.302151933      3.201      7.446
REMARK  15 active torsions:
REMARK  status: ('A' for Active; 'I' for Inactive)
REMARK    1  A    between atoms: C2_3  and  S1_4 
REMARK    2  A    between atoms: C2_3  and  C21_45 
REMARK    3  A    between atoms: S1_4  and  S2_5 
REMARK    4  A    between atoms: S2_5  and  C3_6 
REMARK    5  A    between atoms: C5_10  and  O1_11 
REMARK    6  A    between atoms: O1_11  and  C6_12 
REMARK    7  A    between atoms: C6_12  and  C7_13 
REMARK    8  A    between atoms: C8_14  and  C9_15 
REMARK    9  A    between atoms: C9_15  and  O2_16 
REMARK   10  A    between atoms: C9_15  and  C10_18 
REMARK   11  A    between atoms: N3_20  and  O4_21 
REMARK   12  A    between atoms: O4_21  and  C11_22 
REMARK   13  A    between atoms: C11_22  and  C12_24 
REMARK   14  A    between atoms: N4_33  and  O6_35 
REMARK   15  A    between atoms: O6_35  and  C19_36 
REMARK       I    between atoms: C19_36  and  N5_38 
REMARK       I    between atoms: N5_38  and  C20_40 
ROOT
HETATM    1  N1  UNL     1      21.510  -9.075 -20.053  1.00  0.00    -0.195 NA
HETATM    2  C1  UNL     1      22.415  -8.376 -19.910  1.00  0.00     0.086 C 
HETATM    3  C2  UNL     1      23.561  -7.515 -19.731  1.00  0.00     0.265 C 
ENDROOT
BRANCH   3   4
HETATM    4  S1  UNL     1      25.089  -8.444 -19.441  1.00  0.00    -0.060 SA
BRANCH   4   5
HETATM    5  S2  UNL     1      25.331  -8.941 -17.394  1.00  0.00    -0.034 SA
BRANCH   5   6
HETATM    6  C3  UNL     1      25.056  -7.528 -16.340  1.00  0.00     0.125 C 
HETATM    7  N2  UNL     1      25.991  -6.706 -16.130  1.00  0.00    -0.377 N 
HETATM    8  C4  UNL     1      25.864  -5.543 -15.297  1.00  0.00     0.176 C 
ATOM      9  H2  UNL     1      26.890  -6.877 -16.580  1.00  0.00     0.160 HD
HETATM   10  C5  UNL     1      24.475  -5.013 -15.287  1.00  0.00     0.271 C 
HETATM   11  N3  UNL     1      23.601  -6.119 -14.899  1.00  0.00    -0.197 N 
HETATM   12  C18 UNL     1      23.756  -7.295 -15.725  1.00  0.00     0.186 C 
HETATM   13  N4  UNL     1      22.759  -8.083 -15.879  1.00  0.00    -0.236 N 
ATOM     14  H4  UNL     1      21.860  -7.893 -15.437  1.00  0.00     0.197 HD
BRANCH  10  15
HETATM   15  O1  UNL     1      24.022  -4.546 -16.494  1.00  0.00    -0.351 OA
BRANCH  15  16
HETATM   16  C6  UNL     1      23.954  -3.192 -16.622  1.00  0.00     0.264 C 
BRANCH  16  17
HETATM   17  C7  UNL     1      22.702  -2.725 -17.208  1.00  0.00    -0.077 C 
HETATM   18  C8  UNL     1      21.648  -2.352 -17.688  1.00  0.00    -0.065 C 
BRANCH  18  19
HETATM   19  C9  UNL     1      20.387  -1.899 -18.238  1.00  0.00     0.258 C 
BRANCH  19  20
HETATM   20  O2  UNL     1      19.685  -1.241 -17.230  1.00  0.00    -0.377 OA
ATOM     21  H2  UNL     1      18.757  -1.317 -17.419  1.00  0.00     0.211 HD
ENDBRANCH  19  20
BRANCH  19  22
HETATM   22  C10 UNL     1      20.563  -0.998 -19.411  1.00  0.00     0.275 C 
HETATM   23  O3  UNL     1      19.811  -0.066 -19.562  1.00  0.00    -0.303 OA
ENDBRANCH  19  22
ENDBRANCH  18  19
ENDBRANCH  16  17
ENDBRANCH  15  16
ENDBRANCH  10  15
BRANCH  11  24
HETATM   24  O4  UNL     1      22.727  -6.064 -13.872  1.00  0.00    -0.188 OA
BRANCH  24  25
HETATM   25  C11 UNL     1      23.162  -6.284 -12.578  1.00  0.00     0.318 C 
HETATM   26  O5  UNL     1      22.641  -5.621 -11.648  1.00  0.00    -0.257 OA
BRANCH  25  27
HETATM   27  C12 UNL     1      24.199  -7.247 -12.229  1.00  0.00     0.084 A 
HETATM   28  C13 UNL     1      23.987  -8.608 -12.287  1.00  0.00     0.052 A 
HETATM   29 CL1  UNL     1      22.448  -9.252 -12.789  1.00  0.00    -0.083 Cl
HETATM   30  C14 UNL     1      24.985  -9.516 -11.950  1.00  0.00     0.025 A 
HETATM   31  C15 UNL     1      26.222  -9.069 -11.546  1.00  0.00     0.003 A 
HETATM   32  C16 UNL     1      26.397  -7.703 -11.500  1.00  0.00     0.025 A 
HETATM   33  C17 UNL     1      25.444  -6.780 -11.821  1.00  0.00     0.052 A 
HETATM   34 CL2  UNL     1      25.715  -5.057 -11.747  1.00  0.00    -0.083 Cl
ENDBRANCH  25  27
ENDBRANCH  24  25
ENDBRANCH  11  24
BRANCH  13  35
HETATM   35  O6  UNL     1      22.946  -9.192 -16.661  1.00  0.00    -0.179 OA
BRANCH  35  36
HETATM   36  C19 UNL     1      22.034 -10.223 -16.574  1.00  0.00     0.389 C 
HETATM   37  O7  UNL     1      20.946 -10.015 -15.986  1.00  0.00    -0.236 OA
HETATM   38  N5  UNL     1      22.302 -11.499 -17.131  1.00  0.00    -0.275 N 
HETATM   39  C20 UNL     1      21.354 -12.552 -17.034  1.00  0.00     0.190 C 
ATOM     40  H5  UNL     1      23.189 -11.663 -17.608  1.00  0.00     0.173 HD
HETATM   41  N6  UNL     1      21.589 -13.711 -17.536  1.00  0.00    -0.373 N 
HETATM   42  N7  UNL     1      20.123 -12.325 -16.373  1.00  0.00    -0.064 NA
ATOM     43  H62 UNL     1      22.476 -13.875 -18.013  1.00  0.00     0.158 HD
ATOM     44  H61 UNL     1      20.908 -14.467 -17.466  1.00  0.00     0.158 HD
ENDBRANCH  35  36
ENDBRANCH  13  35
ENDBRANCH   5   6
ENDBRANCH   4   5
ENDBRANCH   3   4
BRANCH   3  45
HETATM   45  C21 UNL     1      23.772  -6.585 -20.858  1.00  0.00     0.202 C 
HETATM   46  O8  UNL     1      23.365  -6.810 -22.007  1.00  0.00    -0.646 OA
HETATM   47  O9  UNL     1      24.471  -5.397 -20.590  1.00  0.00    -0.646 OA
ENDBRANCH   3  45
TORSDOF 15
ENDMDL
MODEL 5
REMARK VINA RESULT: -6.294167601      2.191      3.905
REMARK  15 active torsions:
REMARK  status: ('A' for Active; 'I' for Inactive)
REMARK    1  A    between atoms: C2_3  and  S1_4 
REMARK    2  A    between atoms: C2_3  and  C21_45 
REMARK    3  A    between atoms: S1_4  and  S2_5 
REMARK    4  A    between atoms: S2_5  and  C3_6 
REMARK    5  A    between atoms: C5_10  and  O1_11 
REMARK    6  A    between atoms: O1_11  and  C6_12 
REMARK    7  A    between atoms: C6_12  and  C7_13 
REMARK    8  A    between atoms: C8_14  and  C9_15 
REMARK    9  A    between atoms: C9_15  and  O2_16 
REMARK   10  A    between atoms: C9_15  and  C10_18 
REMARK   11  A    between atoms: N3_20  and  O4_21 
REMARK   12  A    between atoms: O4_21  and  C11_22 
REMARK   13  A    between atoms: C11_22  and  C12_24 
REMARK   14  A    between atoms: N4_33  and  O6_35 
REMARK   15  A    between atoms: O6_35  and  C19_36 
REMARK       I    between atoms: C19_36  and  N5_38 
REMARK       I    between atoms: N5_38  and  C20_40 
ROOT
HETATM    1  N1  UNL     1      23.740  -5.293 -12.467  1.00  0.00    -0.195 NA
HETATM    2  C1  UNL     1      24.872  -5.485 -12.564  1.00  0.00     0.086 C 
HETATM    3  C2  UNL     1      26.291  -5.717 -12.704  1.00  0.00     0.265 C 
ENDROOT
BRANCH   3   4
HETATM    4  S1  UNL     1      26.904  -5.301 -14.358  1.00  0.00    -0.060 SA
BRANCH   4   5
HETATM    5  S2  UNL     1      25.806  -6.293 -15.875  1.00  0.00    -0.034 SA
BRANCH   5   6
HETATM    6  C3  UNL     1      25.042  -7.786 -15.263  1.00  0.00     0.125 C 
HETATM    7  N2  UNL     1      25.753  -8.795 -14.998  1.00  0.00    -0.377 N 
HETATM    8  C4  UNL     1      25.228 -10.037 -14.504  1.00  0.00     0.176 C 
ATOM      9  H2  UNL     1      26.760  -8.724 -15.142  1.00  0.00     0.160 HD
HETATM   10  C5  UNL     1      23.995  -9.839 -13.696  1.00  0.00     0.271 C 
HETATM   11  N3  UNL     1      23.058  -9.089 -14.530  1.00  0.00    -0.197 N 
HETATM   12  C18 UNL     1      23.603  -7.854 -15.047  1.00  0.00     0.186 C 
HETATM   13  N4  UNL     1      22.812  -6.880 -15.299  1.00  0.00    -0.236 N 
ATOM     14  H4  UNL     1      21.808  -6.958 -15.136  1.00  0.00     0.197 HD
BRANCH  10  15
HETATM   15  O1  UNL     1      24.166  -9.124 -12.539  1.00  0.00    -0.351 OA
BRANCH  15  16
HETATM   16  C6  UNL     1      25.107  -9.601 -11.677  1.00  0.00     0.264 C 
BRANCH  16  17
HETATM   17  C7  UNL     1      25.436  -8.672 -10.602  1.00  0.00    -0.077 C 
HETATM   18  C8  UNL     1      25.700  -7.881  -9.715  1.00  0.00    -0.065 C 
BRANCH  18  19
HETATM   19  C9  UNL     1      25.993  -6.942  -8.651  1.00  0.00     0.258 C 
BRANCH  19  20
HETATM   20  O2  UNL     1      24.937  -6.975  -7.742  1.00  0.00    -0.377 OA
ATOM     21  H2  UNL     1      25.251  -7.376  -6.940  1.00  0.00     0.211 HD
ENDBRANCH  19  20
BRANCH  19  22
HETATM   22  C10 UNL     1      27.276  -7.243  -7.957  1.00  0.00     0.275 C 
HETATM   23  O3  UNL     1      27.273  -7.970  -6.994  1.00  0.00    -0.303 OA
ENDBRANCH  19  22
ENDBRANCH  18  19
ENDBRANCH  16  17
ENDBRANCH  15  16
ENDBRANCH  10  15
BRANCH  11  24
HETATM   24  O4  UNL     1      21.799  -9.495 -14.801  1.00  0.00    -0.188 OA
BRANCH  24  25
HETATM   25  C11 UNL     1      21.422  -9.767 -16.103  1.00  0.00     0.318 C 
HETATM   26  O5  UNL     1      20.745  -8.911 -16.724  1.00  0.00    -0.257 OA
BRANCH  25  27
HETATM   27  C12 UNL     1      21.767 -10.999 -16.801  1.00  0.00     0.084 A 
HETATM   28  C13 UNL     1      22.835 -11.077 -17.669  1.00  0.00     0.052 A 
HETATM   29 CL1  UNL     1      23.839  -9.688 -17.977  1.00  0.00    -0.083 Cl
HETATM   30  C14 UNL     1      23.153 -12.260 -18.329  1.00  0.00     0.025 A 
HETATM   31  C15 UNL     1      22.397 -13.391 -18.127  1.00  0.00     0.003 A 
HETATM   32  C16 UNL     1      21.338 -13.276 -17.253  1.00  0.00     0.025 A 
HETATM   33  C17 UNL     1      20.993 -12.135 -16.587  1.00  0.00     0.052 A 
HETATM   34 CL2  UNL     1      19.641 -12.039 -15.488  1.00  0.00    -0.083 Cl
ENDBRANCH  25  27
ENDBRANCH  24  25
ENDBRANCH  11  24
BRANCH  13  35
HETATM   35  O6  UNL     1      23.365  -5.730 -15.796  1.00  0.00    -0.179 OA
BRANCH  35  36
HETATM   36  C19 UNL     1      22.530  -4.677 -16.106  1.00  0.00     0.389 C 
HETATM   37  O7  UNL     1      21.644  -4.349 -15.282  1.00  0.00    -0.236 OA
HETATM   38  N5  UNL     1      22.654  -3.967 -17.327  1.00  0.00    -0.275 N 
HETATM   39  C20 UNL     1      21.787  -2.885 -17.635  1.00  0.00     0.190 C 
ATOM     40  H5  UNL     1      23.376  -4.238 -17.995  1.00  0.00     0.173 HD
HETATM   41  N6  UNL     1      21.894  -2.237 -18.739  1.00  0.00    -0.373 N 
HETATM   42  N7  UNL     1      20.785  -2.508 -16.709  1.00  0.00    -0.064 NA
ATOM     43  H62 UNL     1      22.616  -2.508 -19.406  1.00  0.00     0.158 HD
ATOM     44  H61 UNL     1      21.271  -1.460 -18.959  1.00  0.00     0.158 HD
ENDBRANCH  35  36
ENDBRANCH  13  35
ENDBRANCH   5   6
ENDBRANCH   4   5
ENDBRANCH   3   4
BRANCH   3  45
HETATM   45  C21 UNL     1      27.100  -4.999 -11.699  1.00  0.00     0.202 C 
HETATM   46  O8  UNL     1      28.287  -5.270 -11.466  1.00  0.00    -0.646 OA
HETATM   47  O9  UNL     1      26.471  -3.964 -10.987  1.00  0.00    -0.646 OA
ENDBRANCH   3  45
TORSDOF 15
ENDMDL
