MODEL 1
REMARK VINA RESULT: -5.935313559      0.000      0.000
REMARK  2 active torsions:
REMARK  status: ('A' for Active; 'I' for Inactive)
REMARK    1  A    between atoms: C4_7  and  N2_8 
REMARK    2  A    between atoms: N2_8  and  C5_11 
ROOT
HETATM    1  N2  UNL     1      -1.281   4.904  10.185  1.00  0.00    -0.063 N 
ATOM      2  H21 UNL     1      -1.811   5.354  10.932  1.00  0.00     0.278 HD
ATOM      3  H22 UNL     1      -1.647   5.444   9.401  1.00  0.00     0.278 HD
ENDROOT
BRANCH   1   4
HETATM    4  C4  UNL     1      -1.582   3.518  10.071  1.00  0.00     0.212 C 
HETATM    5  C3  UNL     1      -2.841   3.261   9.228  1.00  0.00     0.265 C 
HETATM    6  N1  UNL     1      -2.787   1.829   8.931  1.00  0.00    -0.073 N 
HETATM    7  C2  UNL     1      -3.064   1.070  10.117  1.00  0.00     0.232 C 
ATOM      8  H12 UNL     1      -1.901   1.560   8.504  1.00  0.00     0.277 HD
ATOM      9  H11 UNL     1      -3.407   1.576   8.162  1.00  0.00     0.277 HD
HETATM   10  C1  UNL     1      -2.325   1.479  11.330  1.00  0.00     0.029 C 
HETATM   11  C9  UNL     1      -1.882   2.886  11.409  1.00  0.00     0.036 C 
ENDBRANCH   1   4
BRANCH   1  12
HETATM   12  C5  UNL     1       0.133   5.071  10.347  1.00  0.00     0.213 C 
HETATM   13  C6  UNL     1       0.535   6.545  10.466  1.00  0.00     0.062 C 
HETATM   14  C7  UNL     1       2.014   6.453  10.145  1.00  0.00     0.234 C 
HETATM   15  N3  UNL     1       2.219   5.265   9.377  1.00  0.00    -0.073 N 
HETATM   16  C8  UNL     1       0.904   4.694   9.096  1.00  0.00     0.265 C 
ATOM     17  H32 UNL     1       2.771   5.426   8.535  1.00  0.00     0.277 HD
ATOM     18  H31 UNL     1       2.852   4.605   9.828  1.00  0.00     0.277 HD
ENDBRANCH   1  12
TORSDOF 2
ENDMDL
MODEL 2
REMARK VINA RESULT: -5.647588887      1.670      4.941
REMARK  2 active torsions:
REMARK  status: ('A' for Active; 'I' for Inactive)
REMARK    1  A    between atoms: C4_7  and  N2_8 
REMARK    2  A    between atoms: N2_8  and  C5_11 
ROOT
HETATM    1  N2  UNL     1       0.041   3.712  10.630  1.00  0.00    -0.063 N 
ATOM      2  H21 UNL     1       0.042   4.038  11.597  1.00  0.00     0.278 HD
ATOM      3  H22 UNL     1       0.964   3.279  10.620  1.00  0.00     0.278 HD
ENDROOT
BRANCH   1   4
HETATM    4  C4  UNL     1      -0.061   4.784   9.701  1.00  0.00     0.212 C 
HETATM    5  C3  UNL     1       1.002   5.868   9.938  1.00  0.00     0.265 C 
HETATM    6  N1  UNL     1       0.973   6.673   8.718  1.00  0.00    -0.073 N 
HETATM    7  C2  UNL     1      -0.234   7.447   8.667  1.00  0.00     0.232 C 
ATOM      8  H12 UNL     1       1.096   6.103   7.881  1.00  0.00     0.277 HD
ATOM      9  H11 UNL     1       1.805   7.256   8.625  1.00  0.00     0.277 HD
HETATM   10  C1  UNL     1      -1.483   6.712   8.953  1.00  0.00     0.029 C 
HETATM   11  C9  UNL     1      -1.380   5.511   9.808  1.00  0.00     0.036 C 
ENDBRANCH   1   4
BRANCH   1  12
HETATM   12  C5  UNL     1      -1.006   2.765  10.379  1.00  0.00     0.213 C 
HETATM   13  C6  UNL     1      -1.842   2.477  11.631  1.00  0.00     0.062 C 
HETATM   14  C7  UNL     1      -2.498   1.171  11.228  1.00  0.00     0.234 C 
HETATM   15  N3  UNL     1      -1.676   0.561  10.232  1.00  0.00    -0.073 N 
HETATM   16  C8  UNL     1      -0.468   1.374  10.103  1.00  0.00     0.265 C 
ATOM     17  H32 UNL     1      -1.476  -0.421  10.426  1.00  0.00     0.277 HD
ATOM     18  H31 UNL     1      -2.161   0.425   9.345  1.00  0.00     0.277 HD
ENDBRANCH   1  12
TORSDOF 2
ENDMDL
MODEL 3
REMARK VINA RESULT: -5.540907011      1.591      2.011
REMARK  2 active torsions:
REMARK  status: ('A' for Active; 'I' for Inactive)
REMARK    1  A    between atoms: C4_7  and  N2_8 
REMARK    2  A    between atoms: N2_8  and  C5_11 
ROOT
HETATM    1  N2  UNL     1      -0.270   3.050  10.280  1.00  0.00    -0.063 N 
ATOM      2  H21 UNL     1       0.255   2.502   9.598  1.00  0.00     0.278 HD
ATOM      3  H22 UNL     1       0.184   2.704  11.126  1.00  0.00     0.278 HD
ENDROOT
BRANCH   1   4
HETATM    4  C4  UNL     1      -1.660   2.753  10.255  1.00  0.00     0.212 C 
HETATM    5  C3  UNL     1      -2.303   2.841  11.648  1.00  0.00     0.265 C 
HETATM    6  N1  UNL     1      -3.740   2.859  11.380  1.00  0.00    -0.073 N 
HETATM    7  C2  UNL     1      -4.174   1.566  10.934  1.00  0.00     0.232 C 
ATOM      8  H12 UNL     1      -3.997   3.595  10.722  1.00  0.00     0.277 HD
ATOM      9  H11 UNL     1      -4.275   3.185  12.185  1.00  0.00     0.277 HD
HETATM   10  C1  UNL     1      -3.355   0.942   9.874  1.00  0.00     0.029 C 
HETATM   11  C9  UNL     1      -1.935   1.341   9.795  1.00  0.00     0.036 C 
ENDBRANCH   1   4
BRANCH   1  12
HETATM   12  C5  UNL     1      -0.082   4.460  10.102  1.00  0.00     0.213 C 
HETATM   13  C6  UNL     1      -1.260   5.116   9.374  1.00  0.00     0.062 C 
HETATM   14  C7  UNL     1      -0.613   6.408   8.913  1.00  0.00     0.234 C 
HETATM   15  N3  UNL     1       0.797   6.189   8.849  1.00  0.00    -0.073 N 
HETATM   16  C8  UNL     1       1.033   4.772   9.121  1.00  0.00     0.265 C 
ATOM     17  H32 UNL     1       1.209   6.499   7.969  1.00  0.00     0.277 HD
ATOM     18  H31 UNL     1       1.323   6.806   9.468  1.00  0.00     0.277 HD
ENDBRANCH   1  12
TORSDOF 2
ENDMDL
MODEL 4
REMARK VINA RESULT: -5.469083755      3.222      6.613
REMARK  2 active torsions:
REMARK  status: ('A' for Active; 'I' for Inactive)
REMARK    1  A    between atoms: C4_7  and  N2_8 
REMARK    2  A    between atoms: N2_8  and  C5_11 
ROOT
HETATM    1  N2  UNL     1      -5.025   2.027  11.245  1.00  0.00    -0.063 N 
ATOM      2  H21 UNL     1      -5.516   2.921  11.247  1.00  0.00     0.278 HD
ATOM      3  H22 UNL     1      -4.997   1.874  12.253  1.00  0.00     0.278 HD
ENDROOT
BRANCH   1   4
HETATM    4  C4  UNL     1      -3.724   2.128  10.679  1.00  0.00     0.212 C 
HETATM    5  C3  UNL     1      -3.093   0.753  10.412  1.00  0.00     0.265 C 
HETATM    6  N1  UNL     1      -1.959   1.043   9.535  1.00  0.00    -0.073 N 
HETATM    7  C2  UNL     1      -0.923   1.707  10.273  1.00  0.00     0.232 C 
ATOM      8  H12 UNL     1      -2.240   1.573   8.710  1.00  0.00     0.277 HD
ATOM      9  H11 UNL     1      -1.617   0.205   9.065  1.00  0.00     0.277 HD
HETATM   10  C1  UNL     1      -1.357   2.840  11.116  1.00  0.00     0.029 C 
HETATM   11  C9  UNL     1      -2.752   2.823  11.603  1.00  0.00     0.036 C 
ENDBRANCH   1   4
BRANCH   1  12
HETATM   12  C5  UNL     1      -5.762   1.005  10.561  1.00  0.00     0.213 C 
HETATM   13  C6  UNL     1      -6.900   1.579   9.709  1.00  0.00     0.062 C 
HETATM   14  C7  UNL     1      -7.753   0.340   9.520  1.00  0.00     0.234 C 
HETATM   15  N3  UNL     1      -7.463  -0.556  10.594  1.00  0.00    -0.073 N 
HETATM   16  C8  UNL     1      -6.565   0.140  11.514  1.00  0.00     0.265 C 
ATOM     17  H32 UNL     1      -8.301  -0.915  11.051  1.00  0.00     0.277 HD
ATOM     18  H31 UNL     1      -7.091  -1.451  10.275  1.00  0.00     0.277 HD
ENDBRANCH   1  12
TORSDOF 2
ENDMDL
MODEL 5
REMARK VINA RESULT: -5.449143045      3.708      6.163
REMARK  2 active torsions:
REMARK  status: ('A' for Active; 'I' for Inactive)
REMARK    1  A    between atoms: C4_7  and  N2_8 
REMARK    2  A    between atoms: N2_8  and  C5_11 
ROOT
HETATM    1  N2  UNL     1      -3.127  -0.322   9.256  1.00  0.00    -0.063 N 
ATOM      2  H21 UNL     1      -3.300  -1.258   9.623  1.00  0.00     0.278 HD
ATOM      3  H22 UNL     1      -2.195  -0.485   8.873  1.00  0.00     0.278 HD
ENDROOT
BRANCH   1   4
HETATM    4  C4  UNL     1      -3.123   0.665  10.280  1.00  0.00     0.212 C 
HETATM    5  C3  UNL     1      -4.071   1.834   9.970  1.00  0.00     0.265 C 
HETATM    6  N1  UNL     1      -4.201   2.539  11.244  1.00  0.00    -0.073 N 
HETATM    7  C2  UNL     1      -2.978   3.222  11.557  1.00  0.00     0.232 C 
ATOM      8  H12 UNL     1      -4.493   1.916  11.997  1.00  0.00     0.277 HD
ATOM      9  H11 UNL     1      -5.004   3.168  11.252  1.00  0.00     0.277 HD
HETATM   10  C1  UNL     1      -1.742   2.427  11.413  1.00  0.00     0.029 C 
HETATM   11  C9  UNL     1      -1.767   1.306  10.450  1.00  0.00     0.036 C 
ENDBRANCH   1   4
BRANCH   1  12
HETATM   12  C5  UNL     1      -4.073   0.047   8.244  1.00  0.00     0.213 C 
HETATM   13  C6  UNL     1      -5.050  -1.089   7.919  1.00  0.00     0.062 C 
HETATM   14  C7  UNL     1      -5.568  -0.628   6.570  1.00  0.00     0.234 C 
HETATM   15  N3  UNL     1      -4.586   0.239   6.001  1.00  0.00    -0.073 N 
HETATM   16  C8  UNL     1      -3.422   0.222   6.885  1.00  0.00     0.265 C 
ATOM     17  H32 UNL     1      -4.356   0.002   5.036  1.00  0.00     0.277 HD
ATOM     18  H31 UNL     1      -4.939   1.180   5.826  1.00  0.00     0.277 HD
ENDBRANCH   1  12
TORSDOF 2
ENDMDL
