MODEL 1
REMARK VINA RESULT: -6.883243816      0.000      0.000
REMARK  1 active torsions:
REMARK  status: ('A' for Active; 'I' for Inactive)
REMARK    1  A    between atoms: N2_9  and  C4_10 
ROOT
HETATM    1  O1  UNL     1      11.184  -8.188  -1.844  1.00  0.00    -0.265 OA
HETATM    2  C1  UNL     1      11.261  -7.553  -2.933  1.00  0.00     0.288 A 
HETATM    3  C2  UNL     1      10.669  -8.023  -4.098  1.00  0.00     0.143 A 
HETATM    4 CL1  UNL     1       9.746  -9.480  -4.353  1.00  0.00    -0.075 Cl
HETATM    5  C3  UNL     1      10.956  -7.087  -5.064  1.00  0.00     0.145 A 
HETATM    6 CL2  UNL     1      10.477  -7.131  -6.740  1.00  0.00    -0.061 Cl
HETATM    7  N1  UNL     1      11.673  -6.134  -4.479  1.00  0.00    -0.282 N 
ATOM      8  H1  UNL     1      12.028  -5.307  -4.960  1.00  0.00     0.188 HD
HETATM    9  N2  UNL     1      11.870  -6.390  -3.202  1.00  0.00    -0.239 N 
ENDROOT
BRANCH   9  10
HETATM   10  C4  UNL     1      12.592  -5.621  -2.199  1.00  0.00     0.179 C 
HETATM   11  C5  UNL     1      13.381  -6.342  -1.289  1.00  0.00    -0.156 C 
HETATM   12  C6  UNL     1      14.234  -7.051  -0.427  1.00  0.00     0.082 C 
HETATM   13  C7  UNL     1      15.670  -6.464  -0.650  1.00  0.00     0.013 C 
HETATM   14  C8  UNL     1      15.755  -5.692  -1.971  1.00  0.00     0.021 C 
HETATM   15  C9  UNL     1      14.927  -4.578  -2.292  1.00  0.00     0.085 C 
HETATM   16 CL3  UNL     1      15.857  -3.551  -3.477  1.00  0.00    -0.125 Cl
HETATM   17  C10 UNL     1      13.580  -4.675  -2.973  1.00  0.00     0.059 C 
ENDBRANCH   9  10
TORSDOF 1
ENDMDL
MODEL 2
REMARK VINA RESULT: -6.113946576      2.361      5.746
REMARK  1 active torsions:
REMARK  status: ('A' for Active; 'I' for Inactive)
REMARK    1  A    between atoms: N2_9  and  C4_10 
ROOT
HETATM    1  O1  UNL     1      10.436  -8.303  -2.800  1.00  0.00    -0.265 OA
HETATM    2  C1  UNL     1      11.355  -7.498  -3.122  1.00  0.00     0.288 A 
HETATM    3  C2  UNL     1      11.935  -6.640  -2.197  1.00  0.00     0.143 A 
HETATM    4 CL1  UNL     1      11.585  -6.453  -0.499  1.00  0.00    -0.075 Cl
HETATM    5  C3  UNL     1      12.881  -5.926  -2.894  1.00  0.00     0.145 A 
HETATM    6 CL2  UNL     1      13.936  -4.690  -2.263  1.00  0.00    -0.061 Cl
HETATM    7  N1  UNL     1      12.843  -6.356  -4.151  1.00  0.00    -0.282 N 
ATOM      8  H1  UNL     1      13.441  -6.001  -4.897  1.00  0.00     0.188 HD
HETATM    9  N2  UNL     1      11.936  -7.299  -4.313  1.00  0.00    -0.239 N 
ENDROOT
BRANCH   9  10
HETATM   10  C4  UNL     1      11.566  -8.038  -5.511  1.00  0.00     0.179 C 
HETATM   11  C5  UNL     1      11.149  -9.367  -5.337  1.00  0.00    -0.156 C 
HETATM   12  C6  UNL     1      10.657 -10.670  -5.161  1.00  0.00     0.082 C 
HETATM   13  C7  UNL     1       9.210 -10.677  -5.765  1.00  0.00     0.013 C 
HETATM   14  C8  UNL     1       8.665  -9.254  -5.915  1.00  0.00     0.021 C 
HETATM   15  C9  UNL     1       9.301  -8.239  -6.686  1.00  0.00     0.085 C 
HETATM   16 CL3  UNL     1       7.996  -7.084  -7.222  1.00  0.00    -0.125 Cl
HETATM   17  C10 UNL     1      10.347  -7.283  -6.154  1.00  0.00     0.059 C 
ENDBRANCH   9  10
TORSDOF 1
ENDMDL
MODEL 3
REMARK VINA RESULT: -5.915497348      1.910      2.571
REMARK  1 active torsions:
REMARK  status: ('A' for Active; 'I' for Inactive)
REMARK    1  A    between atoms: N2_9  and  C4_10 
ROOT
HETATM    1  O1  UNL     1      10.534  -5.920  -5.675  1.00  0.00    -0.265 OA
HETATM    2  C1  UNL     1      10.792  -6.998  -5.070  1.00  0.00     0.288 A 
HETATM    3  C2  UNL     1      10.399  -8.232  -5.571  1.00  0.00     0.143 A 
HETATM    4 CL1  UNL     1       9.524  -8.597  -7.034  1.00  0.00    -0.075 Cl
HETATM    5  C3  UNL     1      10.845  -9.162  -4.662  1.00  0.00     0.145 A 
HETATM    6 CL2  UNL     1      10.648 -10.892  -4.750  1.00  0.00    -0.061 Cl
HETATM    7  N1  UNL     1      11.460  -8.493  -3.693  1.00  0.00    -0.282 N 
ATOM      8  H1  UNL     1      11.892  -8.930  -2.879  1.00  0.00     0.188 HD
HETATM    9  N2  UNL     1      11.442  -7.194  -3.914  1.00  0.00    -0.239 N 
ENDROOT
BRANCH   9  10
HETATM   10  C4  UNL     1      11.993  -6.106  -3.119  1.00  0.00     0.179 C 
HETATM   11  C5  UNL     1      11.714  -6.116  -1.743  1.00  0.00    -0.156 C 
HETATM   12  C6  UNL     1      11.505  -6.165  -0.355  1.00  0.00     0.082 C 
HETATM   13  C7  UNL     1      12.928  -6.203   0.301  1.00  0.00     0.013 C 
HETATM   14  C8  UNL     1      13.997  -6.618  -0.715  1.00  0.00     0.021 C 
HETATM   15  C9  UNL     1      14.251  -5.918  -1.929  1.00  0.00     0.085 C 
HETATM   16 CL3  UNL     1      15.993  -6.230  -2.367  1.00  0.00    -0.125 Cl
HETATM   17  C10 UNL     1      13.557  -6.197  -3.244  1.00  0.00     0.059 C 
ENDBRANCH   9  10
TORSDOF 1
ENDMDL
MODEL 4
REMARK VINA RESULT: -5.847616222      4.699      7.783
REMARK  1 active torsions:
REMARK  status: ('A' for Active; 'I' for Inactive)
REMARK    1  A    between atoms: N2_9  and  C4_10 
ROOT
HETATM    1  O1  UNL     1       8.773  -8.919  -7.223  1.00  0.00    -0.265 OA
HETATM    2  C1  UNL     1       9.508  -9.103  -6.213  1.00  0.00     0.288 A 
HETATM    3  C2  UNL     1      10.185  -8.058  -5.598  1.00  0.00     0.143 A 
HETATM    4 CL1  UNL     1      10.204  -6.364  -6.014  1.00  0.00    -0.075 Cl
HETATM    5  C3  UNL     1      10.873  -8.624  -4.551  1.00  0.00     0.145 A 
HETATM    6 CL2  UNL     1      11.907  -7.805  -3.412  1.00  0.00    -0.061 Cl
HETATM    7  N1  UNL     1      10.602  -9.925  -4.568  1.00  0.00    -0.282 N 
ATOM      8  H1  UNL     1      10.979 -10.597  -3.901  1.00  0.00     0.188 HD
HETATM    9  N2  UNL     1       9.787 -10.238  -5.555  1.00  0.00    -0.239 N 
ENDROOT
BRANCH   9  10
HETATM   10  C4  UNL     1       9.238 -11.531  -5.935  1.00  0.00     0.179 C 
HETATM   11  C5  UNL     1       9.783 -12.144  -7.074  1.00  0.00    -0.156 C 
HETATM   12  C6  UNL     1      10.377 -12.798  -8.166  1.00  0.00     0.082 C 
HETATM   13  C7  UNL     1      10.915 -14.165  -7.618  1.00  0.00     0.013 C 
HETATM   14  C8  UNL     1      11.029 -14.144  -6.091  1.00  0.00     0.021 C 
HETATM   15  C9  UNL     1       9.933 -13.888  -5.218  1.00  0.00     0.085 C 
HETATM   16 CL3  UNL     1      10.306 -14.721  -3.640  1.00  0.00    -0.125 Cl
HETATM   17  C10 UNL     1       9.517 -12.514  -4.740  1.00  0.00     0.059 C 
ENDBRANCH   9  10
TORSDOF 1
ENDMDL
MODEL 5
REMARK VINA RESULT: -5.450418224      5.018      7.996
REMARK  1 active torsions:
REMARK  status: ('A' for Active; 'I' for Inactive)
REMARK    1  A    between atoms: N2_9  and  C4_10 
ROOT
HETATM    1  O1  UNL     1       9.247 -10.152  -7.397  1.00  0.00    -0.265 OA
HETATM    2  C1  UNL     1       9.869  -9.856  -6.339  1.00  0.00     0.288 A 
HETATM    3  C2  UNL     1      10.049  -8.540  -5.938  1.00  0.00     0.143 A 
HETATM    4 CL1  UNL     1       9.516  -7.071  -6.712  1.00  0.00    -0.075 Cl
HETATM    5  C3  UNL     1      10.759  -8.602  -4.762  1.00  0.00     0.145 A 
HETATM    6 CL2  UNL     1      11.286  -7.259  -3.783  1.00  0.00    -0.061 Cl
HETATM    7  N1  UNL     1      10.973  -9.888  -4.506  1.00  0.00    -0.282 N 
ATOM      8  H1  UNL     1      11.479 -10.234  -3.691  1.00  0.00     0.188 HD
HETATM    9  N2  UNL     1      10.450 -10.661  -5.436  1.00  0.00    -0.239 N 
ENDROOT
BRANCH   9  10
HETATM   10  C4  UNL     1      10.448 -12.112  -5.550  1.00  0.00     0.179 C 
HETATM   11  C5  UNL     1       9.229 -12.725  -5.877  1.00  0.00    -0.156 C 
HETATM   12  C6  UNL     1       8.031 -13.337  -6.282  1.00  0.00     0.082 C 
HETATM   13  C7  UNL     1       8.358 -14.105  -7.609  1.00  0.00     0.013 C 
HETATM   14  C8  UNL     1       9.658 -13.595  -8.240  1.00  0.00     0.021 C 
HETATM   15  C9  UNL     1      10.918 -13.604  -7.575  1.00  0.00     0.085 C 
HETATM   16 CL3  UNL     1      12.199 -13.691  -8.870  1.00  0.00    -0.125 Cl
HETATM   17  C10 UNL     1      11.443 -12.479  -6.710  1.00  0.00     0.059 C 
ENDBRANCH   9  10
TORSDOF 1
ENDMDL
