MODEL 1
REMARK VINA RESULT: -7.901953869      0.000      0.000
REMARK  10 active torsions:
REMARK  status: ('A' for Active; 'I' for Inactive)
REMARK    1  A    between atoms: C3_5  and  C4_6 
REMARK    2  A    between atoms: C4_6  and  C5_7 
REMARK    3  A    between atoms: N3_13  and  O1_14 
REMARK    4  A    between atoms: N4_16  and  C10_17 
REMARK    5  A    between atoms: C16_24  and  C17_25 
REMARK    6  A    between atoms: C17_25  and  C18_26 
REMARK    7  A    between atoms: C23_31  and  O2_32 
REMARK    8  A    between atoms: O2_32  and  C24_33 
REMARK    9  A    between atoms: C24_33  and  C25_34 
REMARK   10  A    between atoms: C25_34  and  O3_35 
ROOT
HETATM    1  C1  UNL     1       5.510   5.289  18.760  1.00  0.00     0.070 C 
HETATM    2  C2  UNL     1       5.953   6.210  19.827  1.00  0.00     0.034 A 
HETATM    3  N1  UNL     1       5.246   7.286  20.186  1.00  0.00    -0.344 N 
ATOM      4  H1  UNL     1       4.358   7.584  19.782  1.00  0.00     0.167 HD
HETATM    5  C3  UNL     1       5.905   7.898  21.159  1.00  0.00     0.115 A 
HETATM    6  N4  UNL     1       7.048   7.179  21.406  1.00  0.00    -0.296 N 
HETATM    7  C16 UNL     1       7.120   6.126  20.607  1.00  0.00     0.064 A 
ENDROOT
BRANCH   7   8
HETATM    8  C17 UNL     1       8.027   5.211  20.525  1.00  0.00     0.046 C 
BRANCH   8   9
HETATM    9  C18 UNL     1       8.185   4.014  19.790  1.00  0.00    -0.001 A 
HETATM   10  C19 UNL     1       8.934   3.952  18.647  1.00  0.00     0.014 A 
HETATM   11  C20 UNL     1       9.116   2.771  17.940  1.00  0.00     0.001 A 
HETATM   12  C21 UNL     1       8.537   1.628  18.385  1.00  0.00     0.003 A 
HETATM   13  C22 UNL     1       7.777   1.643  19.528  1.00  0.00     0.037 A 
HETATM   14  C23 UNL     1       7.613   2.828  20.209  1.00  0.00     0.079 A 
BRANCH  14  15
HETATM   15  O2  UNL     1       6.856   2.819  21.339  1.00  0.00    -0.348 OA
BRANCH  15  16
HETATM   16  C24 UNL     1       5.616   2.157  21.375  1.00  0.00     0.201 C 
BRANCH  16  17
HETATM   17  C25 UNL     1       4.492   3.161  21.636  1.00  0.00     0.190 C 
BRANCH  17  18
HETATM   18  O3  UNL     1       4.877   4.111  22.568  1.00  0.00    -0.399 OA
ATOM     19  H3  UNL     1       5.812   4.279  22.520  1.00  0.00     0.209 HD
ENDBRANCH  17  18
ENDBRANCH  16  17
ENDBRANCH  15  16
ENDBRANCH  14  15
ENDBRANCH   8   9
ENDBRANCH   7   8
BRANCH   6  20
HETATM   20  C10 UNL     1       7.907   7.664  22.426  1.00  0.00     0.041 A 
HETATM   21  C11 UNL     1       7.682   7.419  23.761  1.00  0.00     0.033 A 
HETATM   22  C12 UNL     1       8.508   7.846  24.775  1.00  0.00     0.044 A 
HETATM   23  C13 UNL     1       9.631   8.564  24.427  1.00  0.00     0.116 A 
HETATM   24  F1  UNL     1      10.450   8.987  25.444  1.00  0.00    -0.206 F 
HETATM   25  C14 UNL     1       9.906   8.839  23.103  1.00  0.00     0.044 A 
HETATM   26  C15 UNL     1       9.056   8.395  22.118  1.00  0.00     0.033 A 
ENDBRANCH   6  20
BRANCH   5  27
HETATM   27  C4  UNL     1       5.518   9.011  21.779  1.00  0.00     0.081 C 
BRANCH  27  28
HETATM   28  C5  UNL     1       4.292   9.049  22.573  1.00  0.00     0.068 A 
HETATM   29  C6  UNL     1       4.326   8.749  23.935  1.00  0.00     0.049 A 
HETATM   30  C7  UNL     1       3.117   8.811  24.606  1.00  0.00     0.093 A 
HETATM   31  N2  UNL     1       1.969   9.137  24.006  1.00  0.00    -0.355 N 
HETATM   32  C8  UNL     1       0.713   9.190  24.754  1.00  0.00     0.156 C 
HETATM   33  C9  UNL     1       1.982   9.417  22.693  1.00  0.00     0.215 A 
HETATM   34  N3  UNL     1       3.135   9.376  21.972  1.00  0.00    -0.220 N 
BRANCH  34  35
HETATM   35  O1  UNL     1       3.168   9.660  20.629  1.00  0.00    -0.282 OA
ATOM     36  H1  UNL     1       2.750   9.046  20.036  1.00  0.00     0.245 HD
ENDBRANCH  34  35
ENDBRANCH  27  28
ENDBRANCH   5  27
TORSDOF 10
ENDMDL
MODEL 2
REMARK VINA RESULT: -7.826048985      3.817      7.712
REMARK  10 active torsions:
REMARK  status: ('A' for Active; 'I' for Inactive)
REMARK    1  A    between atoms: C3_5  and  C4_6 
REMARK    2  A    between atoms: C4_6  and  C5_7 
REMARK    3  A    between atoms: N3_13  and  O1_14 
REMARK    4  A    between atoms: N4_16  and  C10_17 
REMARK    5  A    between atoms: C16_24  and  C17_25 
REMARK    6  A    between atoms: C17_25  and  C18_26 
REMARK    7  A    between atoms: C23_31  and  O2_32 
REMARK    8  A    between atoms: O2_32  and  C24_33 
REMARK    9  A    between atoms: C24_33  and  C25_34 
REMARK   10  A    between atoms: C25_34  and  O3_35 
ROOT
HETATM    1  C1  UNL     1       4.220   6.351  20.346  1.00  0.00     0.070 C 
HETATM    2  C2  UNL     1       5.001   5.277  19.700  1.00  0.00     0.034 A 
HETATM    3  N1  UNL     1       4.462   4.422  18.826  1.00  0.00    -0.344 N 
ATOM      4  H1  UNL     1       3.490   4.412  18.516  1.00  0.00     0.167 HD
HETATM    5  C3  UNL     1       5.414   3.589  18.432  1.00  0.00     0.115 A 
HETATM    6  N4  UNL     1       6.571   3.942  19.081  1.00  0.00    -0.296 N 
HETATM    7  C16 UNL     1       6.364   4.981  19.875  1.00  0.00     0.064 A 
ENDROOT
BRANCH   7   8
HETATM    8  C17 UNL     1       7.187   5.607  20.648  1.00  0.00     0.046 C 
BRANCH   8   9
HETATM    9  C18 UNL     1       7.938   6.802  20.562  1.00  0.00    -0.001 A 
HETATM   10  C19 UNL     1       8.229   7.396  19.365  1.00  0.00     0.014 A 
HETATM   11  C20 UNL     1       8.941   8.586  19.279  1.00  0.00     0.001 A 
HETATM   12  C21 UNL     1       9.370   9.192  20.414  1.00  0.00     0.003 A 
HETATM   13  C22 UNL     1       9.100   8.631  21.637  1.00  0.00     0.037 A 
HETATM   14  C23 UNL     1       8.393   7.452  21.692  1.00  0.00     0.079 A 
BRANCH  14  15
HETATM   15  O2  UNL     1       8.137   6.914  22.915  1.00  0.00    -0.348 OA
BRANCH  15  16
HETATM   16  C24 UNL     1       7.685   7.716  23.979  1.00  0.00     0.201 C 
BRANCH  16  17
HETATM   17  C25 UNL     1       6.160   7.664  24.064  1.00  0.00     0.190 C 
BRANCH  17  18
HETATM   18  O3  UNL     1       5.681   6.415  23.702  1.00  0.00    -0.399 OA
ATOM     19  H3  UNL     1       5.541   6.360  22.763  1.00  0.00     0.209 HD
ENDBRANCH  17  18
ENDBRANCH  16  17
ENDBRANCH  15  16
ENDBRANCH  14  15
ENDBRANCH   8   9
ENDBRANCH   7   8
BRANCH   6  20
HETATM   20  C10 UNL     1       7.729   3.171  18.799  1.00  0.00     0.041 A 
HETATM   21  C11 UNL     1       7.929   1.917  19.328  1.00  0.00     0.033 A 
HETATM   22  C12 UNL     1       9.022   1.127  19.054  1.00  0.00     0.044 A 
HETATM   23  C13 UNL     1       9.975   1.630  18.194  1.00  0.00     0.116 A 
HETATM   24  F1  UNL     1      11.062   0.837  17.925  1.00  0.00    -0.206 F 
HETATM   25  C14 UNL     1       9.826   2.882  17.634  1.00  0.00     0.044 A 
HETATM   26  C15 UNL     1       8.718   3.641  17.933  1.00  0.00     0.033 A 
ENDBRANCH   6  20
BRANCH   5  27
HETATM   27  C4  UNL     1       5.264   2.594  17.562  1.00  0.00     0.081 C 
BRANCH  27  28
HETATM   28  C5  UNL     1       5.454   2.804  16.129  1.00  0.00     0.068 A 
HETATM   29  C6  UNL     1       4.776   3.831  15.472  1.00  0.00     0.049 A 
HETATM   30  C7  UNL     1       5.018   3.955  14.115  1.00  0.00     0.093 A 
HETATM   31  N2  UNL     1       5.850   3.149  13.448  1.00  0.00    -0.355 N 
HETATM   32  C8  UNL     1       6.077   3.315  12.013  1.00  0.00     0.156 C 
HETATM   33  C9  UNL     1       6.482   2.174  14.120  1.00  0.00     0.215 A 
HETATM   34  N3  UNL     1       6.291   1.995  15.455  1.00  0.00    -0.220 N 
BRANCH  34  35
HETATM   35  O1  UNL     1       6.928   1.003  16.160  1.00  0.00    -0.282 OA
ATOM     36  H1  UNL     1       7.849   0.854  15.981  1.00  0.00     0.245 HD
ENDBRANCH  34  35
ENDBRANCH  27  28
ENDBRANCH   5  27
TORSDOF 10
ENDMDL
MODEL 3
REMARK VINA RESULT: -7.815602655      2.814      5.575
REMARK  10 active torsions:
REMARK  status: ('A' for Active; 'I' for Inactive)
REMARK    1  A    between atoms: C3_5  and  C4_6 
REMARK    2  A    between atoms: C4_6  and  C5_7 
REMARK    3  A    between atoms: N3_13  and  O1_14 
REMARK    4  A    between atoms: N4_16  and  C10_17 
REMARK    5  A    between atoms: C16_24  and  C17_25 
REMARK    6  A    between atoms: C17_25  and  C18_26 
REMARK    7  A    between atoms: C23_31  and  O2_32 
REMARK    8  A    between atoms: O2_32  and  C24_33 
REMARK    9  A    between atoms: C24_33  and  C25_34 
REMARK   10  A    between atoms: C25_34  and  O3_35 
ROOT
HETATM    1  C1  UNL     1       7.872   4.728  19.794  1.00  0.00     0.070 C 
HETATM    2  C2  UNL     1       7.361   5.780  20.696  1.00  0.00     0.034 A 
HETATM    3  N1  UNL     1       8.136   6.761  21.168  1.00  0.00    -0.344 N 
ATOM      4  H1  UNL     1       9.128   6.891  20.969  1.00  0.00     0.167 HD
HETATM    5  C3  UNL     1       7.387   7.534  21.941  1.00  0.00     0.115 A 
HETATM    6  N4  UNL     1       6.117   7.015  21.944  1.00  0.00    -0.296 N 
HETATM    7  C16 UNL     1       6.052   5.930  21.188  1.00  0.00     0.064 A 
ENDROOT
BRANCH   7   8
HETATM    8  C17 UNL     1       5.049   5.159  20.932  1.00  0.00     0.046 C 
BRANCH   8   9
HETATM    9  C18 UNL     1       4.535   3.962  21.479  1.00  0.00    -0.001 A 
HETATM   10  C19 UNL     1       5.020   2.732  21.130  1.00  0.00     0.014 A 
HETATM   11  C20 UNL     1       4.537   1.555  21.688  1.00  0.00     0.001 A 
HETATM   12  C21 UNL     1       3.547   1.612  22.615  1.00  0.00     0.003 A 
HETATM   13  C22 UNL     1       3.031   2.824  22.995  1.00  0.00     0.037 A 
HETATM   14  C23 UNL     1       3.528   3.975  22.425  1.00  0.00     0.079 A 
BRANCH  14  15
HETATM   15  O2  UNL     1       3.001   5.165  22.818  1.00  0.00    -0.348 OA
BRANCH  15  16
HETATM   16  C24 UNL     1       1.680   5.518  22.487  1.00  0.00     0.201 C 
BRANCH  16  17
HETATM   17  C25 UNL     1       0.967   6.087  23.714  1.00  0.00     0.190 C 
BRANCH  17  18
HETATM   18  O3  UNL     1       1.562   5.650  24.886  1.00  0.00    -0.399 OA
ATOM     19  H3  UNL     1       1.104   5.984  25.649  1.00  0.00     0.209 HD
ENDBRANCH  17  18
ENDBRANCH  16  17
ENDBRANCH  15  16
ENDBRANCH  14  15
ENDBRANCH   8   9
ENDBRANCH   7   8
BRANCH   6  20
HETATM   20  C10 UNL     1       5.143   7.700  22.717  1.00  0.00     0.041 A 
HETATM   21  C11 UNL     1       4.249   8.587  22.162  1.00  0.00     0.033 A 
HETATM   22  C12 UNL     1       3.272   9.245  22.872  1.00  0.00     0.044 A 
HETATM   23  C13 UNL     1       3.187   8.998  24.225  1.00  0.00     0.116 A 
HETATM   24  F1  UNL     1       2.211   9.658  24.927  1.00  0.00    -0.206 F 
HETATM   25  C14 UNL     1       4.058   8.118  24.834  1.00  0.00     0.044 A 
HETATM   26  C15 UNL     1       5.022   7.479  24.090  1.00  0.00     0.033 A 
ENDBRANCH   6  20
BRANCH   5  27
HETATM   27  C4  UNL     1       7.804   8.618  22.591  1.00  0.00     0.081 C 
BRANCH  27  28
HETATM   28  C5  UNL     1       8.855   8.538  23.602  1.00  0.00     0.068 A 
HETATM   29  C6  UNL     1       8.533   8.282  24.935  1.00  0.00     0.049 A 
HETATM   30  C7  UNL     1       9.593   8.224  25.822  1.00  0.00     0.093 A 
HETATM   31  N2  UNL     1      10.864   8.399  25.448  1.00  0.00    -0.355 N 
HETATM   32  C8  UNL     1      11.956   8.330  26.419  1.00  0.00     0.156 C 
HETATM   33  C9  UNL     1      11.130   8.644  24.155  1.00  0.00     0.215 A 
HETATM   34  N3  UNL     1      10.135   8.714  23.229  1.00  0.00    -0.220 N 
BRANCH  34  35
HETATM   35  O1  UNL     1      10.387   8.963  21.902  1.00  0.00    -0.282 OA
ATOM     36  H1  UNL     1      11.294   9.030  21.628  1.00  0.00     0.245 HD
ENDBRANCH  34  35
ENDBRANCH  27  28
ENDBRANCH   5  27
TORSDOF 10
ENDMDL
MODEL 4
REMARK VINA RESULT: -7.785038791      3.549      5.512
REMARK  10 active torsions:
REMARK  status: ('A' for Active; 'I' for Inactive)
REMARK    1  A    between atoms: C3_5  and  C4_6 
REMARK    2  A    between atoms: C4_6  and  C5_7 
REMARK    3  A    between atoms: N3_13  and  O1_14 
REMARK    4  A    between atoms: N4_16  and  C10_17 
REMARK    5  A    between atoms: C16_24  and  C17_25 
REMARK    6  A    between atoms: C17_25  and  C18_26 
REMARK    7  A    between atoms: C23_31  and  O2_32 
REMARK    8  A    between atoms: O2_32  and  C24_33 
REMARK    9  A    between atoms: C24_33  and  C25_34 
REMARK   10  A    between atoms: C25_34  and  O3_35 
ROOT
HETATM    1  C1  UNL     1       7.560   3.103  20.517  1.00  0.00     0.070 C 
HETATM    2  C2  UNL     1       7.422   4.570  20.409  1.00  0.00     0.034 A 
HETATM    3  N1  UNL     1       7.350   5.366  21.481  1.00  0.00    -0.344 N 
ATOM      4  H1  UNL     1       7.380   5.065  22.455  1.00  0.00     0.167 HD
HETATM    5  C3  UNL     1       7.232   6.614  21.052  1.00  0.00     0.115 A 
HETATM    6  N4  UNL     1       7.232   6.585  19.680  1.00  0.00    -0.296 N 
HETATM    7  C16 UNL     1       7.349   5.343  19.237  1.00  0.00     0.064 A 
ENDROOT
BRANCH   7   8
HETATM    8  C17 UNL     1       7.388   4.897  18.026  1.00  0.00     0.046 C 
BRANCH   8   9
HETATM    9  C18 UNL     1       8.173   3.952  17.327  1.00  0.00    -0.001 A 
HETATM   10  C19 UNL     1       9.328   3.435  17.846  1.00  0.00     0.014 A 
HETATM   11  C20 UNL     1      10.085   2.484  17.174  1.00  0.00     0.001 A 
HETATM   12  C21 UNL     1       9.677   2.041  15.958  1.00  0.00     0.003 A 
HETATM   13  C22 UNL     1       8.524   2.532  15.400  1.00  0.00     0.037 A 
HETATM   14  C23 UNL     1       7.794   3.475  16.088  1.00  0.00     0.079 A 
BRANCH  14  15
HETATM   15  O2  UNL     1       6.654   3.947  15.515  1.00  0.00    -0.348 OA
BRANCH  15  16
HETATM   16  C24 UNL     1       6.599   4.231  14.138  1.00  0.00     0.201 C 
BRANCH  16  17
HETATM   17  C25 UNL     1       6.958   5.697  13.891  1.00  0.00     0.190 C 
BRANCH  17  18
HETATM   18  O3  UNL     1       6.626   6.484  14.982  1.00  0.00    -0.399 OA
ATOM     19  H3  UNL     1       7.089   6.201  15.762  1.00  0.00     0.209 HD
ENDBRANCH  17  18
ENDBRANCH  16  17
ENDBRANCH  15  16
ENDBRANCH  14  15
ENDBRANCH   8   9
ENDBRANCH   7   8
BRANCH   6  20
HETATM   20  C10 UNL     1       7.117   7.831  19.009  1.00  0.00     0.041 A 
HETATM   21  C11 UNL     1       5.948   8.244  18.413  1.00  0.00     0.033 A 
HETATM   22  C12 UNL     1       5.789   9.456  17.781  1.00  0.00     0.044 A 
HETATM   23  C13 UNL     1       6.872  10.307  17.747  1.00  0.00     0.116 A 
HETATM   24  F1  UNL     1       6.706  11.514  17.115  1.00  0.00    -0.206 F 
HETATM   25  C14 UNL     1       8.069   9.945  18.329  1.00  0.00     0.044 A 
HETATM   26  C15 UNL     1       8.189   8.724  18.951  1.00  0.00     0.033 A 
ENDBRANCH   6  20
BRANCH   5  27
HETATM   27  C4  UNL     1       7.133   7.693  21.824  1.00  0.00     0.081 C 
BRANCH  27  28
HETATM   28  C5  UNL     1       8.131   7.986  22.850  1.00  0.00     0.068 A 
HETATM   29  C6  UNL     1       9.288   8.694  22.525  1.00  0.00     0.049 A 
HETATM   30  C7  UNL     1      10.176   8.925  23.561  1.00  0.00     0.093 A 
HETATM   31  N2  UNL     1       9.960   8.504  24.811  1.00  0.00    -0.355 N 
HETATM   32  C8  UNL     1      10.926   8.770  25.877  1.00  0.00     0.156 C 
HETATM   33  C9  UNL     1       8.833   7.826  25.080  1.00  0.00     0.215 A 
HETATM   34  N3  UNL     1       7.917   7.564  24.109  1.00  0.00    -0.220 N 
BRANCH  34  35
HETATM   35  O1  UNL     1       6.758   6.872  24.364  1.00  0.00    -0.282 OA
ATOM     36  H1  UNL     1       6.455   6.257  23.705  1.00  0.00     0.245 HD
ENDBRANCH  34  35
ENDBRANCH  27  28
ENDBRANCH   5  27
TORSDOF 10
ENDMDL
MODEL 5
REMARK VINA RESULT: -7.785033788      3.629      5.548
REMARK  10 active torsions:
REMARK  status: ('A' for Active; 'I' for Inactive)
REMARK    1  A    between atoms: C3_5  and  C4_6 
REMARK    2  A    between atoms: C4_6  and  C5_7 
REMARK    3  A    between atoms: N3_13  and  O1_14 
REMARK    4  A    between atoms: N4_16  and  C10_17 
REMARK    5  A    between atoms: C16_24  and  C17_25 
REMARK    6  A    between atoms: C17_25  and  C18_26 
REMARK    7  A    between atoms: C23_31  and  O2_32 
REMARK    8  A    between atoms: O2_32  and  C24_33 
REMARK    9  A    between atoms: C24_33  and  C25_34 
REMARK   10  A    between atoms: C25_34  and  O3_35 
ROOT
HETATM    1  C1  UNL     1       7.924   3.301  20.070  1.00  0.00     0.070 C 
HETATM    2  C2  UNL     1       7.688   4.757  20.120  1.00  0.00     0.034 A 
HETATM    3  N1  UNL     1       7.598   5.432  21.271  1.00  0.00    -0.344 N 
ATOM      4  H1  UNL     1       7.678   5.036  22.207  1.00  0.00     0.167 HD
HETATM    5  C3  UNL     1       7.386   6.707  20.979  1.00  0.00     0.115 A 
HETATM    6  N4  UNL     1       7.345   6.820  19.611  1.00  0.00    -0.296 N 
HETATM    7  C16 UNL     1       7.528   5.641  19.038  1.00  0.00     0.064 A 
ENDROOT
BRANCH   7   8
HETATM    8  C17 UNL     1       7.559   5.326  17.787  1.00  0.00     0.046 C 
BRANCH   8   9
HETATM    9  C18 UNL     1       6.967   4.323  16.986  1.00  0.00    -0.001 A 
HETATM   10  C19 UNL     1       5.629   4.311  16.701  1.00  0.00     0.014 A 
HETATM   11  C20 UNL     1       5.049   3.344  15.890  1.00  0.00     0.001 A 
HETATM   12  C21 UNL     1       5.825   2.368  15.354  1.00  0.00     0.003 A 
HETATM   13  C22 UNL     1       7.172   2.342  15.612  1.00  0.00     0.037 A 
HETATM   14  C23 UNL     1       7.720   3.313  16.420  1.00  0.00     0.079 A 
BRANCH  14  15
HETATM   15  O2  UNL     1       9.057   3.266  16.663  1.00  0.00    -0.348 OA
BRANCH  15  16
HETATM   16  C24 UNL     1       9.784   2.073  16.493  1.00  0.00     0.201 C 
BRANCH  16  17
HETATM   17  C25 UNL     1      10.483   1.695  17.798  1.00  0.00     0.190 C 
BRANCH  17  18
HETATM   18  O3  UNL     1      10.932   0.384  17.763  1.00  0.00    -0.399 OA
ATOM     19  H3  UNL     1      11.790   0.326  17.359  1.00  0.00     0.209 HD
ENDBRANCH  17  18
ENDBRANCH  16  17
ENDBRANCH  15  16
ENDBRANCH  14  15
ENDBRANCH   8   9
ENDBRANCH   7   8
BRANCH   6  20
HETATM   20  C10 UNL     1       7.128   8.118  19.078  1.00  0.00     0.041 A 
HETATM   21  C11 UNL     1       5.885   8.558  18.687  1.00  0.00     0.033 A 
HETATM   22  C12 UNL     1       5.630   9.817  18.196  1.00  0.00     0.044 A 
HETATM   23  C13 UNL     1       6.692  10.690  18.090  1.00  0.00     0.116 A 
HETATM   24  F1  UNL     1       6.430  11.944  17.599  1.00  0.00    -0.206 F 
HETATM   25  C14 UNL     1       7.960  10.302  18.467  1.00  0.00     0.044 A 
HETATM   26  C15 UNL     1       8.175   9.033  18.954  1.00  0.00     0.033 A 
ENDBRANCH   6  20
BRANCH   5  27
HETATM   27  C4  UNL     1       7.241   7.692  21.862  1.00  0.00     0.081 C 
BRANCH  27  28
HETATM   28  C5  UNL     1       8.271   7.975  22.858  1.00  0.00     0.068 A 
HETATM   29  C6  UNL     1       9.456   8.610  22.486  1.00  0.00     0.049 A 
HETATM   30  C7  UNL     1      10.373   8.836  23.497  1.00  0.00     0.093 A 
HETATM   31  N2  UNL     1      10.160   8.477  24.766  1.00  0.00    -0.355 N 
HETATM   32  C8  UNL     1      11.158   8.736  25.804  1.00  0.00     0.156 C 
HETATM   33  C9  UNL     1       9.006   7.868  25.080  1.00  0.00     0.215 A 
HETATM   34  N3  UNL     1       8.060   7.614  24.136  1.00  0.00    -0.220 N 
BRANCH  34  35
HETATM   35  O1  UNL     1       6.873   6.992  24.438  1.00  0.00    -0.282 OA
ATOM     36  H1  UNL     1       6.912   6.165  24.904  1.00  0.00     0.245 HD
ENDBRANCH  34  35
ENDBRANCH  27  28
ENDBRANCH   5  27
TORSDOF 10
ENDMDL
