MODEL 1
REMARK VINA RESULT: -8.547174733      0.000      0.000
REMARK  8 active torsions:
REMARK  status: ('A' for Active; 'I' for Inactive)
REMARK    1  A    between atoms: N2_5  and  C3_6 
REMARK    2  A    between atoms: C3_6  and  C4_7 
REMARK    3  A    between atoms: C4_7  and  C5_8 
REMARK    4  A    between atoms: C10_16  and  N4_17 
REMARK    5  A    between atoms: C12_20  and  C13_21 
REMARK    6  A    between atoms: C13_21  and  C14_22 
REMARK    7  A    between atoms: C17_25  and  O1_26 
REMARK    8  A    between atoms: C20_29  and  O2_30 
ROOT
HETATM    1  C1  UNL     1       9.418   8.206  19.362  1.00  0.00     0.045 C 
HETATM    2  C2  UNL     1       8.704   7.958  20.433  1.00  0.00     0.053 A 
HETATM    3  N1  UNL     1       8.821   8.659  21.614  1.00  0.00    -0.297 N 
ATOM      4  H1  UNL     1       9.473   9.431  21.758  1.00  0.00     0.187 HD
HETATM    5  N2  UNL     1       8.015   8.226  22.511  1.00  0.00    -0.275 N 
HETATM    6  C10 UNL     1       7.266   7.182  22.018  1.00  0.00     0.134 A 
HETATM    7  C12 UNL     1       7.720   7.026  20.696  1.00  0.00     0.038 A 
ENDROOT
BRANCH   7   8
HETATM    8  C13 UNL     1       7.250   6.126  19.887  1.00  0.00     0.032 C 
BRANCH   8   9
HETATM    9  C14 UNL     1       7.722   4.821  19.512  1.00  0.00    -0.002 A 
HETATM   10  C15 UNL     1       8.754   4.592  18.614  1.00  0.00     0.017 A 
HETATM   11  C16 UNL     1       9.213   3.334  18.299  1.00  0.00     0.038 A 
HETATM   12  C17 UNL     1       8.636   2.232  18.893  1.00  0.00     0.070 A 
HETATM   13  C19 UNL     1       7.604   2.412  19.795  1.00  0.00     0.074 A 
HETATM   14  C20 UNL     1       7.166   3.670  20.091  1.00  0.00     0.081 A 
BRANCH  12  15
HETATM   15  O1  UNL     1       9.084   0.943  18.591  1.00  0.00    -0.356 OA
HETATM   16  C18 UNL     1      10.358   0.795  18.011  1.00  0.00     0.210 C 
ENDBRANCH  12  15
BRANCH  14  17
HETATM   17  O2  UNL     1       6.145   3.871  20.980  1.00  0.00    -0.355 OA
HETATM   18  C21 UNL     1       5.304   2.813  21.335  1.00  0.00     0.210 C 
ENDBRANCH  14  17
ENDBRANCH   8   9
ENDBRANCH   7   8
BRANCH   6  19
HETATM   19  N4  UNL     1       6.386   6.573  22.664  1.00  0.00    -0.360 N 
HETATM   20  C11 UNL     1       5.053   6.546  22.953  1.00  0.00     0.120 C 
ATOM     21  H4  UNL     1       6.834   5.805  23.163  1.00  0.00     0.165 HD
ENDBRANCH   6  19
BRANCH   5  22
HETATM   22  C3  UNL     1       7.910   8.736  23.854  1.00  0.00     0.155 C 
BRANCH  22  23
HETATM   23  C4  UNL     1       9.153   9.287  24.443  1.00  0.00     0.062 C 
BRANCH  23  24
HETATM   24  C5  UNL     1       9.886   8.454  25.392  1.00  0.00    -0.040 A 
HETATM   25  C6  UNL     1       9.194   7.745  26.351  1.00  0.00     0.094 A 
HETATM   26  N3  UNL     1       9.901   7.003  27.217  1.00  0.00    -0.373 N 
HETATM   27  C7  UNL     1      11.241   6.912  27.200  1.00  0.00     0.106 A 
ATOM     28  H3  UNL     1       9.391   6.479  27.928  1.00  0.00     0.164 HD
HETATM   29  C8  UNL     1      11.941   7.602  26.262  1.00  0.00     0.026 A 
HETATM   30 BR1  UNL     1      13.850   7.451  26.265  1.00  0.00    -0.050 Br
HETATM   31  C9  UNL     1      11.260   8.375  25.354  1.00  0.00     0.029 A 
ENDBRANCH  23  24
ENDBRANCH  22  23
ENDBRANCH   5  22
TORSDOF 8
ENDMDL
MODEL 2
REMARK VINA RESULT: -8.082115397      1.144      1.634
REMARK  8 active torsions:
REMARK  status: ('A' for Active; 'I' for Inactive)
REMARK    1  A    between atoms: N2_5  and  C3_6 
REMARK    2  A    between atoms: C3_6  and  C4_7 
REMARK    3  A    between atoms: C4_7  and  C5_8 
REMARK    4  A    between atoms: C10_16  and  N4_17 
REMARK    5  A    between atoms: C12_20  and  C13_21 
REMARK    6  A    between atoms: C13_21  and  C14_22 
REMARK    7  A    between atoms: C17_25  and  O1_26 
REMARK    8  A    between atoms: C20_29  and  O2_30 
ROOT
HETATM    1  C1  UNL     1       9.302   8.076  19.357  1.00  0.00     0.045 C 
HETATM    2  C2  UNL     1       8.617   7.887  20.459  1.00  0.00     0.053 A 
HETATM    3  N1  UNL     1       8.809   8.608  21.618  1.00  0.00    -0.297 N 
ATOM      4  H1  UNL     1       9.500   9.351  21.719  1.00  0.00     0.187 HD
HETATM    5  N2  UNL     1       8.016   8.234  22.552  1.00  0.00    -0.275 N 
HETATM    6  C10 UNL     1       7.202   7.216  22.111  1.00  0.00     0.134 A 
HETATM    7  C12 UNL     1       7.599   7.009  20.778  1.00  0.00     0.038 A 
ENDROOT
BRANCH   7   8
HETATM    8  C13 UNL     1       7.059   6.114  20.008  1.00  0.00     0.032 C 
BRANCH   8   9
HETATM    9  C14 UNL     1       7.552   4.875  19.471  1.00  0.00    -0.002 A 
HETATM   10  C15 UNL     1       7.889   3.771  20.239  1.00  0.00     0.017 A 
HETATM   11  C16 UNL     1       8.324   2.582  19.699  1.00  0.00     0.038 A 
HETATM   12  C17 UNL     1       8.437   2.459  18.331  1.00  0.00     0.070 A 
HETATM   13  C19 UNL     1       8.110   3.534  17.525  1.00  0.00     0.074 A 
HETATM   14  C20 UNL     1       7.682   4.702  18.085  1.00  0.00     0.081 A 
BRANCH  12  15
HETATM   15  O1  UNL     1       8.875   1.263  17.756  1.00  0.00    -0.356 OA
HETATM   16  C18 UNL     1      10.153   0.783  18.100  1.00  0.00     0.210 C 
ENDBRANCH  12  15
BRANCH  14  17
HETATM   17  O2  UNL     1       7.354   5.779  17.306  1.00  0.00    -0.355 OA
HETATM   18  C21 UNL     1       6.442   5.637  16.256  1.00  0.00     0.210 C 
ENDBRANCH  14  17
ENDBRANCH   8   9
ENDBRANCH   7   8
BRANCH   6  19
HETATM   19  N4  UNL     1       6.318   6.665  22.802  1.00  0.00    -0.360 N 
HETATM   20  C11 UNL     1       5.004   6.727  23.162  1.00  0.00     0.120 C 
ATOM     21  H4  UNL     1       6.738   5.865  23.275  1.00  0.00     0.165 HD
ENDBRANCH   6  19
BRANCH   5  22
HETATM   22  C3  UNL     1       7.984   8.779  23.885  1.00  0.00     0.155 C 
BRANCH  22  23
HETATM   23  C4  UNL     1       9.270   9.290  24.414  1.00  0.00     0.062 C 
BRANCH  23  24
HETATM   24  C5  UNL     1       9.988   8.462  25.379  1.00  0.00    -0.040 A 
HETATM   25  C6  UNL     1       9.281   7.766  26.336  1.00  0.00     0.094 A 
HETATM   26  N3  UNL     1       9.974   7.029  27.217  1.00  0.00    -0.373 N 
HETATM   27  C7  UNL     1      11.313   6.931  27.218  1.00  0.00     0.106 A 
ATOM     28  H3  UNL     1       9.453   6.513  27.927  1.00  0.00     0.164 HD
HETATM   29  C8  UNL     1      12.028   7.610  26.282  1.00  0.00     0.026 A 
HETATM   30 BR1  UNL     1      13.936   7.449  26.309  1.00  0.00    -0.050 Br
HETATM   31  C9  UNL     1      11.362   8.377  25.359  1.00  0.00     0.029 A 
ENDBRANCH  23  24
ENDBRANCH  22  23
ENDBRANCH   5  22
TORSDOF 8
ENDMDL
MODEL 3
REMARK VINA RESULT: -8.020849189      1.512      1.884
REMARK  8 active torsions:
REMARK  status: ('A' for Active; 'I' for Inactive)
REMARK    1  A    between atoms: N2_5  and  C3_6 
REMARK    2  A    between atoms: C3_6  and  C4_7 
REMARK    3  A    between atoms: C4_7  and  C5_8 
REMARK    4  A    between atoms: C10_16  and  N4_17 
REMARK    5  A    between atoms: C12_20  and  C13_21 
REMARK    6  A    between atoms: C13_21  and  C14_22 
REMARK    7  A    between atoms: C17_25  and  O1_26 
REMARK    8  A    between atoms: C20_29  and  O2_30 
ROOT
HETATM    1  C1  UNL     1       8.268   7.925  19.035  1.00  0.00     0.045 C 
HETATM    2  C2  UNL     1       7.559   7.446  20.028  1.00  0.00     0.053 A 
HETATM    3  N1  UNL     1       7.356   8.110  21.218  1.00  0.00    -0.297 N 
ATOM      4  H1  UNL     1       7.739   9.032  21.431  1.00  0.00     0.187 HD
HETATM    5  N2  UNL     1       6.628   7.433  22.027  1.00  0.00    -0.275 N 
HETATM    6  C10 UNL     1       6.264   6.235  21.456  1.00  0.00     0.134 A 
HETATM    7  C12 UNL     1       6.866   6.262  20.185  1.00  0.00     0.038 A 
ENDROOT
BRANCH   7   8
HETATM    8  C13 UNL     1       6.756   5.293  19.329  1.00  0.00     0.032 C 
BRANCH   8   9
HETATM    9  C14 UNL     1       7.573   4.140  19.060  1.00  0.00    -0.002 A 
HETATM   10  C15 UNL     1       8.723   4.163  18.286  1.00  0.00     0.017 A 
HETATM   11  C16 UNL     1       9.510   3.054  18.074  1.00  0.00     0.038 A 
HETATM   12  C17 UNL     1       9.158   1.852  18.649  1.00  0.00     0.070 A 
HETATM   13  C19 UNL     1       8.019   1.783  19.430  1.00  0.00     0.074 A 
HETATM   14  C20 UNL     1       7.255   2.896  19.625  1.00  0.00     0.081 A 
BRANCH  12  15
HETATM   15  O1  UNL     1       9.939   0.711  18.451  1.00  0.00    -0.356 OA
HETATM   16  C18 UNL     1      10.133   0.252  17.133  1.00  0.00     0.210 C 
ENDBRANCH  12  15
BRANCH  14  17
HETATM   17  O2  UNL     1       6.123   2.850  20.394  1.00  0.00    -0.355 OA
HETATM   18  C21 UNL     1       5.982   1.868  21.379  1.00  0.00     0.210 C 
ENDBRANCH  14  17
ENDBRANCH   8   9
ENDBRANCH   7   8
BRANCH   6  19
HETATM   19  N4  UNL     1       5.541   5.377  22.007  1.00  0.00    -0.360 N 
HETATM   20  C11 UNL     1       4.248   5.010  22.235  1.00  0.00     0.120 C 
ATOM     21  H4  UNL     1       6.148   4.692  22.456  1.00  0.00     0.165 HD
ENDBRANCH   6  19
BRANCH   5  22
HETATM   22  C3  UNL     1       6.254   7.846  23.356  1.00  0.00     0.155 C 
BRANCH  22  23
HETATM   23  C4  UNL     1       6.946   9.042  23.889  1.00  0.00     0.062 C 
BRANCH  23  24
HETATM   24  C5  UNL     1       8.358   8.913  24.239  1.00  0.00    -0.040 A 
HETATM   25  C6  UNL     1       9.302   9.629  23.534  1.00  0.00     0.094 A 
HETATM   26  N3  UNL     1      10.591   9.473  23.872  1.00  0.00    -0.373 N 
HETATM   27  C7  UNL     1      11.011   8.661  24.856  1.00  0.00     0.106 A 
ATOM     28  H3  UNL     1      11.292  10.001  23.352  1.00  0.00     0.164 HD
HETATM   29  C8  UNL     1      10.095   7.947  25.562  1.00  0.00     0.026 A 
HETATM   30 BR1  UNL     1      10.726   6.799  26.960  1.00  0.00    -0.050 Br
HETATM   31  C9  UNL     1       8.764   8.075  25.253  1.00  0.00     0.029 A 
ENDBRANCH  23  24
ENDBRANCH  22  23
ENDBRANCH   5  22
TORSDOF 8
ENDMDL
MODEL 4
REMARK VINA RESULT: -7.893428742      0.743      2.012
REMARK  8 active torsions:
REMARK  status: ('A' for Active; 'I' for Inactive)
REMARK    1  A    between atoms: N2_5  and  C3_6 
REMARK    2  A    between atoms: C3_6  and  C4_7 
REMARK    3  A    between atoms: C4_7  and  C5_8 
REMARK    4  A    between atoms: C10_16  and  N4_17 
REMARK    5  A    between atoms: C12_20  and  C13_21 
REMARK    6  A    between atoms: C13_21  and  C14_22 
REMARK    7  A    between atoms: C17_25  and  O1_26 
REMARK    8  A    between atoms: C20_29  and  O2_30 
ROOT
HETATM    1  C1  UNL     1       4.705   5.992  22.511  1.00  0.00     0.045 C 
HETATM    2  C2  UNL     1       5.798   6.656  22.225  1.00  0.00     0.053 A 
HETATM    3  N1  UNL     1       6.349   7.620  23.042  1.00  0.00    -0.297 N 
ATOM      4  H1  UNL     1       5.955   7.900  23.940  1.00  0.00     0.187 HD
HETATM    5  N2  UNL     1       7.415   8.122  22.540  1.00  0.00    -0.275 N 
HETATM    6  C10 UNL     1       7.693   7.540  21.324  1.00  0.00     0.134 A 
HETATM    7  C12 UNL     1       6.653   6.611  21.141  1.00  0.00     0.038 A 
ENDROOT
BRANCH   7   8
HETATM    8  C13 UNL     1       6.558   5.851  20.093  1.00  0.00     0.032 C 
BRANCH   8   9
HETATM    9  C14 UNL     1       7.273   4.672  19.684  1.00  0.00    -0.002 A 
HETATM   10  C15 UNL     1       8.392   4.683  18.866  1.00  0.00     0.017 A 
HETATM   11  C16 UNL     1       9.082   3.544  18.518  1.00  0.00     0.038 A 
HETATM   12  C17 UNL     1       8.658   2.322  18.996  1.00  0.00     0.070 A 
HETATM   13  C19 UNL     1       7.547   2.264  19.816  1.00  0.00     0.074 A 
HETATM   14  C20 UNL     1       6.880   3.407  20.146  1.00  0.00     0.081 A 
BRANCH  12  15
HETATM   15  O1  UNL     1       9.341   1.150  18.659  1.00  0.00    -0.356 OA
HETATM   16  C18 UNL     1      10.498   1.253  17.862  1.00  0.00     0.210 C 
ENDBRANCH  12  15
BRANCH  14  17
HETATM   17  O2  UNL     1       5.777   3.372  20.955  1.00  0.00    -0.355 OA
HETATM   18  C21 UNL     1       5.365   2.166  21.530  1.00  0.00     0.210 C 
ENDBRANCH  14  17
ENDBRANCH   8   9
ENDBRANCH   7   8
BRANCH   6  19
HETATM   19  N4  UNL     1       8.681   7.820  20.612  1.00  0.00    -0.360 N 
HETATM   20  C11 UNL     1       9.100   8.579  19.559  1.00  0.00     0.120 C 
ATOM     21  H4  UNL     1       9.477   7.275  20.945  1.00  0.00     0.165 HD
ENDBRANCH   6  19
BRANCH   5  22
HETATM   22  C3  UNL     1       8.210   9.163  23.141  1.00  0.00     0.155 C 
BRANCH  22  23
HETATM   23  C4  UNL     1       9.657   8.880  23.286  1.00  0.00     0.062 C 
BRANCH  23  24
HETATM   24  C5  UNL     1      10.123   8.347  24.563  1.00  0.00    -0.040 A 
HETATM   25  C6  UNL     1       9.205   7.986  25.526  1.00  0.00     0.094 A 
HETATM   26  N3  UNL     1       9.669   7.517  26.693  1.00  0.00    -0.373 N 
HETATM   27  C7  UNL     1      10.974   7.379  26.976  1.00  0.00     0.106 A 
ATOM     28  H3  UNL     1       8.991   7.250  27.408  1.00  0.00     0.164 HD
HETATM   29  C8  UNL     1      11.895   7.730  26.040  1.00  0.00     0.026 A 
HETATM   30 BR1  UNL     1      13.750   7.522  26.473  1.00  0.00    -0.050 Br
HETATM   31  C9  UNL     1      11.468   8.215  24.829  1.00  0.00     0.029 A 
ENDBRANCH  23  24
ENDBRANCH  22  23
ENDBRANCH   5  22
TORSDOF 8
ENDMDL
MODEL 5
REMARK VINA RESULT: -7.653935374      1.772      3.216
REMARK  8 active torsions:
REMARK  status: ('A' for Active; 'I' for Inactive)
REMARK    1  A    between atoms: N2_5  and  C3_6 
REMARK    2  A    between atoms: C3_6  and  C4_7 
REMARK    3  A    between atoms: C4_7  and  C5_8 
REMARK    4  A    between atoms: C10_16  and  N4_17 
REMARK    5  A    between atoms: C12_20  and  C13_21 
REMARK    6  A    between atoms: C13_21  and  C14_22 
REMARK    7  A    between atoms: C17_25  and  O1_26 
REMARK    8  A    between atoms: C20_29  and  O2_30 
ROOT
HETATM    1  C1  UNL     1       4.241   4.046  22.052  1.00  0.00     0.045 C 
HETATM    2  C2  UNL     1       5.030   5.063  21.802  1.00  0.00     0.053 A 
HETATM    3  N1  UNL     1       5.193   6.136  22.652  1.00  0.00    -0.297 N 
ATOM      4  H1  UNL     1       4.716   6.233  23.548  1.00  0.00     0.187 HD
HETATM    5  N2  UNL     1       6.016   6.999  22.182  1.00  0.00    -0.275 N 
HETATM    6  C10 UNL     1       6.495   6.589  20.959  1.00  0.00     0.134 A 
HETATM    7  C12 UNL     1       5.855   5.356  20.734  1.00  0.00     0.038 A 
ENDROOT
BRANCH   7   8
HETATM    8  C13 UNL     1       6.047   4.642  19.667  1.00  0.00     0.032 C 
BRANCH   8   9
HETATM    9  C14 UNL     1       7.183   3.899  19.192  1.00  0.00    -0.002 A 
HETATM   10  C15 UNL     1       7.623   2.706  19.745  1.00  0.00     0.017 A 
HETATM   11  C16 UNL     1       8.691   1.994  19.249  1.00  0.00     0.038 A 
HETATM   12  C17 UNL     1       9.372   2.470  18.149  1.00  0.00     0.070 A 
HETATM   13  C19 UNL     1       8.968   3.656  17.564  1.00  0.00     0.074 A 
HETATM   14  C20 UNL     1       7.906   4.344  18.075  1.00  0.00     0.081 A 
BRANCH  12  15
HETATM   15  O1  UNL     1      10.459   1.767  17.625  1.00  0.00    -0.356 OA
HETATM   16  C18 UNL     1      10.540   0.381  17.865  1.00  0.00     0.210 C 
ENDBRANCH  12  15
BRANCH  14  17
HETATM   17  O2  UNL     1       7.491   5.520  17.512  1.00  0.00    -0.355 OA
HETATM   18  C21 UNL     1       6.723   5.508  16.344  1.00  0.00     0.210 C 
ENDBRANCH  14  17
ENDBRANCH   8   9
ENDBRANCH   7   8
BRANCH   6  19
HETATM   19  N4  UNL     1       7.325   7.222  20.273  1.00  0.00    -0.360 N 
HETATM   20  C11 UNL     1       8.656   7.469  20.107  1.00  0.00     0.120 C 
ATOM     21  H4  UNL     1       6.814   7.757  19.571  1.00  0.00     0.165 HD
ENDBRANCH   6  19
BRANCH   5  22
HETATM   22  C3  UNL     1       6.381   8.237  22.823  1.00  0.00     0.155 C 
BRANCH  22  23
HETATM   23  C4  UNL     1       6.978   8.122  24.174  1.00  0.00     0.062 C 
BRANCH  23  24
HETATM   24  C5  UNL     1       8.408   8.383  24.312  1.00  0.00    -0.040 A 
HETATM   25  C6  UNL     1       9.048   9.178  23.385  1.00  0.00     0.094 A 
HETATM   26  N3  UNL     1      10.365   9.382  23.533  1.00  0.00    -0.373 N 
HETATM   27  C7  UNL     1      11.093   8.857  24.532  1.00  0.00     0.106 A 
ATOM     28  H3  UNL     1      10.841   9.969  22.848  1.00  0.00     0.164 HD
HETATM   29  C8  UNL     1      10.481   8.070  25.456  1.00  0.00     0.026 A 
HETATM   30 BR1  UNL     1      11.547   7.337  26.869  1.00  0.00    -0.050 Br
HETATM   31  C9  UNL     1       9.133   7.834  25.346  1.00  0.00     0.029 A 
ENDBRANCH  23  24
ENDBRANCH  22  23
ENDBRANCH   5  22
TORSDOF 8
ENDMDL
