MODEL 1
REMARK VINA RESULT: -6.931528570      0.000      0.000
REMARK  5 active torsions:
REMARK  status: ('A' for Active; 'I' for Inactive)
REMARK    1  A    between atoms: O1_2  and  C2_3 
REMARK    2  A    between atoms: C10_11  and  O2_13 
REMARK    3  A    between atoms: C12_15  and  C13_16 
REMARK    4  A    between atoms: C15_18  and  O3_19 
REMARK    5  A    between atoms: C16_21  and  O4_22 
ROOT
HETATM    1  C2  UNL     1      11.735   1.813 199.718  1.00  0.00     0.121 C 
HETATM    2  C3  UNL     1      11.343   1.477 198.338  1.00  0.00     0.033 C 
HETATM    3  C4  UNL     1      12.390   1.146 197.367  1.00  0.00     0.013 C 
HETATM    4  C5  UNL     1      13.779   1.049 197.894  1.00  0.00    -0.028 C 
HETATM    5  C6  UNL     1      14.325   2.485 197.937  1.00  0.00     0.016 C 
HETATM    6  C7  UNL     1      13.794   0.443 199.254  1.00  0.00    -0.003 C 
HETATM    7  C8  UNL     1      13.262  -0.948 199.225  1.00  0.00     0.008 C 
HETATM    8  C9  UNL     1      13.656  -1.760 198.046  1.00  0.00     0.038 C 
HETATM    9  C10 UNL     1      14.705  -1.190 197.176  1.00  0.00     0.064 C 
HETATM   10  C11 UNL     1      16.067  -1.738 197.634  1.00  0.00     0.046 C 
HETATM   11  C12 UNL     1      14.722   0.279 197.010  1.00  0.00     0.085 C 
HETATM   12  C17 UNL     1      12.999   1.250 200.233  1.00  0.00     0.037 C 
ENDROOT
BRANCH  11  13
HETATM   13  C13 UNL     1      14.597   0.700 195.576  1.00  0.00     0.066 A 
HETATM   14  C14 UNL     1      14.528   1.977 195.043  1.00  0.00     0.075 A 
HETATM   15  C15 UNL     1      14.420   1.877 193.672  1.00  0.00     0.126 A 
HETATM   16  C16 UNL     1      14.428   0.523 193.417  1.00  0.00     0.217 A 
HETATM   17  O5  UNL     1      14.532  -0.118 194.551  1.00  0.00    -0.290 OA
BRANCH  15  18
HETATM   18  O3  UNL     1      14.325   2.917 192.759  1.00  0.00    -0.356 OA
ATOM     19  H3  UNL     1      14.435   2.867 191.817  1.00  0.00     0.218 HD
ENDBRANCH  15  18
BRANCH  16  20
HETATM   20  O4  UNL     1      14.336  -0.006 192.137  1.00  0.00    -0.339 OA
ATOM     21  H4  UNL     1      15.041  -0.494 191.727  1.00  0.00     0.220 HD
ENDBRANCH  16  20
ENDBRANCH  11  13
BRANCH   9  22
HETATM   22  O2  UNL     1      14.527  -1.754 195.887  1.00  0.00    -0.389 OA
ATOM     23  H2  UNL     1      15.323  -1.584 195.396  1.00  0.00     0.210 HD
ENDBRANCH   9  22
BRANCH   1  24
HETATM   24  O1  UNL     1      10.704   1.434 200.582  1.00  0.00    -0.391 OA
HETATM   25  C1  UNL     1      10.268   2.445 201.397  1.00  0.00     0.202 C 
ENDBRANCH   1  24
TORSDOF 5
ENDMDL
MODEL 2
REMARK VINA RESULT: -6.000958082      1.613      3.520
REMARK  5 active torsions:
REMARK  status: ('A' for Active; 'I' for Inactive)
REMARK    1  A    between atoms: O1_2  and  C2_3 
REMARK    2  A    between atoms: C10_11  and  O2_13 
REMARK    3  A    between atoms: C12_15  and  C13_16 
REMARK    4  A    between atoms: C15_18  and  O3_19 
REMARK    5  A    between atoms: C16_21  and  O4_22 
ROOT
HETATM    1  C2  UNL     1      11.279   1.017 201.079  1.00  0.00     0.121 C 
HETATM    2  C3  UNL     1      12.558   0.413 200.668  1.00  0.00     0.033 C 
HETATM    3  C4  UNL     1      13.039   0.638 199.302  1.00  0.00     0.013 C 
HETATM    4  C5  UNL     1      12.248   1.581 198.465  1.00  0.00    -0.028 C 
HETATM    5  C6  UNL     1      11.084   0.766 197.880  1.00  0.00     0.016 C 
HETATM    6  C7  UNL     1      11.734   2.717 199.279  1.00  0.00    -0.003 C 
HETATM    7  C8  UNL     1      12.854   3.511 199.856  1.00  0.00     0.008 C 
HETATM    8  C9  UNL     1      14.025   3.708 198.964  1.00  0.00     0.038 C 
HETATM    9  C10 UNL     1      13.850   3.308 197.552  1.00  0.00     0.064 C 
HETATM   10  C11 UNL     1      13.409   4.544 196.749  1.00  0.00     0.046 C 
HETATM   11  C12 UNL     1      12.996   2.133 197.283  1.00  0.00     0.085 C 
HETATM   12  C17 UNL     1      10.845   2.249 200.389  1.00  0.00     0.037 C 
ENDROOT
BRANCH  11  13
HETATM   13  C13 UNL     1      13.721   1.051 196.538  1.00  0.00     0.066 A 
HETATM   14  C14 UNL     1      14.128  -0.195 196.985  1.00  0.00     0.075 A 
HETATM   15  C15 UNL     1      14.758  -0.851 195.948  1.00  0.00     0.126 A 
HETATM   16  C16 UNL     1      14.710   0.034 194.892  1.00  0.00     0.217 A 
HETATM   17  O5  UNL     1      14.099   1.121 195.283  1.00  0.00    -0.290 OA
BRANCH  15  18
HETATM   18  O3  UNL     1      15.314  -2.121 195.973  1.00  0.00    -0.356 OA
ATOM     19  H3  UNL     1      16.040  -2.421 196.508  1.00  0.00     0.218 HD
ENDBRANCH  15  18
BRANCH  16  20
HETATM   20  O4  UNL     1      15.244  -0.251 193.643  1.00  0.00    -0.339 OA
ATOM     21  H4  UNL     1      16.118   0.014 193.381  1.00  0.00     0.220 HD
ENDBRANCH  16  20
ENDBRANCH  11  13
BRANCH   9  22
HETATM   22  O2  UNL     1      15.141   3.014 197.042  1.00  0.00    -0.389 OA
ATOM     23  H2  UNL     1      15.381   2.156 197.371  1.00  0.00     0.210 HD
ENDBRANCH   9  22
BRANCH   1  24
HETATM   24  O1  UNL     1      11.326   1.279 202.451  1.00  0.00    -0.391 OA
HETATM   25  C1  UNL     1      10.094   1.482 203.016  1.00  0.00     0.202 C 
ENDBRANCH   1  24
TORSDOF 5
ENDMDL
MODEL 3
REMARK VINA RESULT: -5.821240540      1.837      5.913
REMARK  5 active torsions:
REMARK  status: ('A' for Active; 'I' for Inactive)
REMARK    1  A    between atoms: O1_2  and  C2_3 
REMARK    2  A    between atoms: C10_11  and  O2_13 
REMARK    3  A    between atoms: C12_15  and  C13_16 
REMARK    4  A    between atoms: C15_18  and  O3_19 
REMARK    5  A    between atoms: C16_21  and  O4_22 
ROOT
HETATM    1  C2  UNL     1      14.117   2.941 195.060  1.00  0.00     0.121 C 
HETATM    2  C3  UNL     1      14.361   3.431 196.428  1.00  0.00     0.033 C 
HETATM    3  C4  UNL     1      13.688   2.766 197.547  1.00  0.00     0.013 C 
HETATM    4  C5  UNL     1      12.899   1.547 197.219  1.00  0.00    -0.028 C 
HETATM    5  C6  UNL     1      11.527   2.037 196.735  1.00  0.00     0.016 C 
HETATM    6  C7  UNL     1      13.572   0.744 196.160  1.00  0.00    -0.003 C 
HETATM    7  C8  UNL     1      14.906   0.267 196.617  1.00  0.00     0.008 C 
HETATM    8  C9  UNL     1      14.981  -0.166 198.035  1.00  0.00     0.038 C 
HETATM    9  C10 UNL     1      13.694  -0.301 198.749  1.00  0.00     0.064 C 
HETATM   10  C11 UNL     1      13.228  -1.762 198.639  1.00  0.00     0.046 C 
HETATM   11  C12 UNL     1      12.623   0.655 198.399  1.00  0.00     0.085 C 
HETATM   12  C17 UNL     1      13.739   1.523 194.892  1.00  0.00     0.037 C 
ENDROOT
BRANCH  11  13
HETATM   13  C13 UNL     1      12.142   1.443 199.581  1.00  0.00     0.066 A 
HETATM   14  C14 UNL     1      12.509   2.714 199.991  1.00  0.00     0.075 A 
HETATM   15  C15 UNL     1      11.804   3.028 201.134  1.00  0.00     0.126 A 
HETATM   16  C16 UNL     1      11.023   1.920 201.381  1.00  0.00     0.217 A 
HETATM   17  O5  UNL     1      11.254   1.029 200.454  1.00  0.00    -0.290 OA
BRANCH  15  18
HETATM   18  O3  UNL     1      11.874   4.204 201.867  1.00  0.00    -0.356 OA
ATOM     19  H3  UNL     1      11.823   4.298 202.811  1.00  0.00     0.218 HD
ENDBRANCH  15  18
BRANCH  16  20
HETATM   20  O4  UNL     1      10.153   1.834 202.459  1.00  0.00    -0.339 OA
ATOM     21  H4  UNL     1       9.357   1.316 202.441  1.00  0.00     0.220 HD
ENDBRANCH  16  20
ENDBRANCH  11  13
BRANCH   9  22
HETATM   22  O2  UNL     1      13.968  -0.135 200.131  1.00  0.00    -0.389 OA
ATOM     23  H2  UNL     1      13.862   0.789 200.327  1.00  0.00     0.210 HD
ENDBRANCH   9  22
BRANCH   1  24
HETATM   24  O1  UNL     1      15.256   3.184 194.287  1.00  0.00    -0.391 OA
HETATM   25  C1  UNL     1      15.404   2.316 193.237  1.00  0.00     0.202 C 
ENDBRANCH   1  24
TORSDOF 5
ENDMDL
MODEL 4
REMARK VINA RESULT: -5.808426027      1.779      5.923
REMARK  5 active torsions:
REMARK  status: ('A' for Active; 'I' for Inactive)
REMARK    1  A    between atoms: O1_2  and  C2_3 
REMARK    2  A    between atoms: C10_11  and  O2_13 
REMARK    3  A    between atoms: C12_15  and  C13_16 
REMARK    4  A    between atoms: C15_18  and  O3_19 
REMARK    5  A    between atoms: C16_21  and  O4_22 
ROOT
HETATM    1  C2  UNL     1      14.229   2.542 194.838  1.00  0.00     0.121 C 
HETATM    2  C3  UNL     1      14.509   3.132 196.158  1.00  0.00     0.033 C 
HETATM    3  C4  UNL     1      13.824   2.589 197.334  1.00  0.00     0.013 C 
HETATM    4  C5  UNL     1      12.984   1.380 197.115  1.00  0.00    -0.028 C 
HETATM    5  C6  UNL     1      11.626   1.885 196.604  1.00  0.00     0.016 C 
HETATM    6  C7  UNL     1      13.611   0.467 196.120  1.00  0.00    -0.003 C 
HETATM    7  C8  UNL     1      14.931  -0.025 196.602  1.00  0.00     0.008 C 
HETATM    8  C9  UNL     1      15.005  -0.343 198.051  1.00  0.00     0.038 C 
HETATM    9  C10 UNL     1      13.723  -0.366 198.785  1.00  0.00     0.064 C 
HETATM   10  C11 UNL     1      13.197  -1.812 198.800  1.00  0.00     0.046 C 
HETATM   11  C12 UNL     1      12.686   0.600 198.367  1.00  0.00     0.085 C 
HETATM   12  C17 UNL     1      13.794   1.131 194.791  1.00  0.00     0.037 C 
ENDROOT
BRANCH  11  13
HETATM   13  C13 UNL     1      12.252   1.501 199.484  1.00  0.00     0.066 A 
HETATM   14  C14 UNL     1      11.228   1.325 200.400  1.00  0.00     0.075 A 
HETATM   15  C15 UNL     1      11.199   2.415 201.245  1.00  0.00     0.126 A 
HETATM   16  C16 UNL     1      12.222   3.226 200.805  1.00  0.00     0.217 A 
HETATM   17  O5  UNL     1      12.803   2.654 199.783  1.00  0.00    -0.290 OA
BRANCH  15  18
HETATM   18  O3  UNL     1      10.328   2.636 202.301  1.00  0.00    -0.356 OA
ATOM     19  H3  UNL     1       9.378   2.634 202.274  1.00  0.00     0.218 HD
ENDBRANCH  15  18
BRANCH  16  20
HETATM   20  O4  UNL     1      12.531   4.442 201.399  1.00  0.00    -0.339 OA
ATOM     21  H4  UNL     1      12.003   5.223 201.283  1.00  0.00     0.220 HD
ENDBRANCH  16  20
ENDBRANCH  11  13
BRANCH   9  22
HETATM   22  O2  UNL     1      14.019  -0.099 200.147  1.00  0.00    -0.389 OA
ATOM     23  H2  UNL     1      13.293   0.403 200.496  1.00  0.00     0.210 HD
ENDBRANCH   9  22
BRANCH   1  24
HETATM   24  O1  UNL     1      15.368   2.674 194.037  1.00  0.00    -0.391 OA
HETATM   25  C1  UNL     1      15.463   1.724 193.054  1.00  0.00     0.202 C 
ENDBRANCH   1  24
TORSDOF 5
ENDMDL
MODEL 5
REMARK VINA RESULT: -5.712958349      1.681      3.628
REMARK  5 active torsions:
REMARK  status: ('A' for Active; 'I' for Inactive)
REMARK    1  A    between atoms: O1_2  and  C2_3 
REMARK    2  A    between atoms: C10_11  and  O2_13 
REMARK    3  A    between atoms: C12_15  and  C13_16 
REMARK    4  A    between atoms: C15_18  and  O3_19 
REMARK    5  A    between atoms: C16_21  and  O4_22 
ROOT
HETATM    1  C2  UNL     1      11.051   1.125 201.278  1.00  0.00     0.121 C 
HETATM    2  C3  UNL     1      12.336   0.496 200.926  1.00  0.00     0.033 C 
HETATM    3  C4  UNL     1      12.881   0.709 199.583  1.00  0.00     0.013 C 
HETATM    4  C5  UNL     1      12.145   1.663 198.709  1.00  0.00    -0.028 C 
HETATM    5  C6  UNL     1      10.993   0.868 198.075  1.00  0.00     0.016 C 
HETATM    6  C7  UNL     1      11.616   2.811 199.498  1.00  0.00    -0.003 C 
HETATM    7  C8  UNL     1      12.723   3.586 200.122  1.00  0.00     0.008 C 
HETATM    8  C9  UNL     1      13.936   3.759 199.283  1.00  0.00     0.038 C 
HETATM    9  C10 UNL     1      13.817   3.359 197.865  1.00  0.00     0.064 C 
HETATM   10  C11 UNL     1      13.435   4.600 197.041  1.00  0.00     0.046 C 
HETATM   11  C12 UNL     1      12.955   2.199 197.560  1.00  0.00     0.085 C 
HETATM   12  C17 UNL     1      10.670   2.363 200.568  1.00  0.00     0.037 C 
ENDROOT
BRANCH  11  13
HETATM   13  C13 UNL     1      13.691   1.102 196.850  1.00  0.00     0.066 A 
HETATM   14  C14 UNL     1      14.012   0.993 195.507  1.00  0.00     0.075 A 
HETATM   15  C15 UNL     1      14.696  -0.189 195.312  1.00  0.00     0.126 A 
HETATM   16  C16 UNL     1      14.768  -0.763 196.563  1.00  0.00     0.217 A 
HETATM   17  O5  UNL     1      14.171   0.022 197.421  1.00  0.00    -0.290 OA
BRANCH  15  18
HETATM   18  O3  UNL     1      15.198  -0.681 194.117  1.00  0.00    -0.356 OA
ATOM     19  H3  UNL     1      14.734  -1.196 193.467  1.00  0.00     0.218 HD
ENDBRANCH  15  18
BRANCH  16  20
HETATM   20  O4  UNL     1      15.388  -1.982 196.800  1.00  0.00    -0.339 OA
ATOM     21  H4  UNL     1      15.515  -2.337 197.673  1.00  0.00     0.220 HD
ENDBRANCH  16  20
ENDBRANCH  11  13
BRANCH   9  22
HETATM   22  O2  UNL     1      15.124   3.040 197.413  1.00  0.00    -0.389 OA
ATOM     23  H2  UNL     1      15.210   3.400 196.538  1.00  0.00     0.210 HD
ENDBRANCH   9  22
BRANCH   1  24
HETATM   24  O1  UNL     1      11.041   1.389 202.651  1.00  0.00    -0.391 OA
HETATM   25  C1  UNL     1       9.804   1.715 203.141  1.00  0.00     0.202 C 
ENDBRANCH   1  24
TORSDOF 5
ENDMDL
