MODEL 1
REMARK VINA RESULT: -8.647253490      0.000      0.000
REMARK  15 active torsions:
REMARK  status: ('A' for Active; 'I' for Inactive)
REMARK    1  A    between atoms: C2_2  and  C3_3 
REMARK    2  A    between atoms: C2_2  and  O1_9 
REMARK    3  A    between atoms: C4_4  and  C6_6 
REMARK    4  A    between atoms: O1_9  and  C9_10 
REMARK    5  A    between atoms: C10_11  and  O2_12 
REMARK    6  A    between atoms: O2_12  and  C11_13 
REMARK    7  A    between atoms: C11_13  and  C12_15 
REMARK    8  A    between atoms: C13_16  and  C15_18 
REMARK    9  A    between atoms: C17_22  and  O6_23 
REMARK   10  A    between atoms: C20_27  and  O7_28 
REMARK   11  A    between atoms: C20_27  and  C21_30 
REMARK   12  A    between atoms: C21_30  and  O8_31 
REMARK   13  A    between atoms: C23_34  and  O9_35 
REMARK   14  A    between atoms: O9_35  and  C24_36 
REMARK   15  A    between atoms: C24_36  and  C25_38 
ROOT
HETATM    1  C9  UNL     1      59.606  58.183 113.337  1.00  0.00     0.165 C 
HETATM    2  C10 UNL     1      61.012  57.889 113.804  1.00  0.00     0.164 C 
HETATM    3  C16 UNL     1      61.000  57.540 115.297  1.00  0.00     0.067 C 
HETATM    4  C17 UNL     1      60.191  56.261 115.440  1.00  0.00     0.125 C 
HETATM    5  C18 UNL     1      58.832  56.392 114.794  1.00  0.00     0.026 C 
HETATM    6  C19 UNL     1      58.000  57.278 115.659  1.00  0.00     0.048 C 
HETATM    7  C20 UNL     1      56.694  57.691 115.065  1.00  0.00     0.082 C 
HETATM    8  C22 UNL     1      56.766  58.030 113.598  1.00  0.00     0.073 C 
HETATM    9  C23 UNL     1      57.461  56.923 112.870  1.00  0.00     0.141 C 
HETATM   10  C28 UNL     1      58.889  56.849 113.355  1.00  0.00     0.054 C 
ENDROOT
BRANCH   1  11
HETATM   11  O1  UNL     1      59.647  58.773 112.090  1.00  0.00    -0.344 OA
BRANCH  11  12
HETATM   12  C2  UNL     1      60.450  59.852 111.818  1.00  0.00     0.060 C 
HETATM   13  C1  UNL     1      60.309  60.952 112.546  1.00  0.00     0.051 C 
BRANCH  12  14
HETATM   14  C3  UNL     1      61.463  59.878 110.770  1.00  0.00     0.038 C 
HETATM   15  C4  UNL     1      61.367  60.673 109.741  1.00  0.00    -0.078 C 
HETATM   16  C5  UNL     1      60.244  61.605 109.549  1.00  0.00     0.044 C 
BRANCH  15  17
HETATM   17  C6  UNL     1      62.426  60.661 108.687  1.00  0.00     0.006 C 
HETATM   18  C7  UNL     1      63.116  61.998 108.570  1.00  0.00     0.014 C 
HETATM   19  C8  UNL     1      61.864  60.254 107.346  1.00  0.00     0.014 C 
ENDBRANCH  15  17
ENDBRANCH  12  14
ENDBRANCH  11  12
ENDBRANCH   1  11
BRANCH   2  20
HETATM   20  O2  UNL     1      61.415  56.673 113.165  1.00  0.00    -0.310 OA
BRANCH  20  21
HETATM   21  C11 UNL     1      62.774  56.460 112.799  1.00  0.00     0.284 C 
HETATM   22  O3  UNL     1      63.199  55.357 113.146  1.00  0.00    -0.260 OA
BRANCH  21  23
HETATM   23  C12 UNL     1      63.425  57.531 112.099  1.00  0.00     0.095 C 
HETATM   24  C13 UNL     1      64.628  57.975 112.183  1.00  0.00     0.020 C 
HETATM   25  C14 UNL     1      64.933  59.156 111.246  1.00  0.00     0.056 C 
BRANCH  24  26
HETATM   26  C15 UNL     1      65.686  57.517 113.018  1.00  0.00     0.205 C 
HETATM   27  O4  UNL     1      65.767  57.635 114.248  1.00  0.00    -0.644 OA
HETATM   28  O5  UNL     1      66.769  56.852 112.375  1.00  0.00    -0.644 OA
ENDBRANCH  24  26
ENDBRANCH  21  23
ENDBRANCH  20  21
ENDBRANCH   2  20
BRANCH   9  29
HETATM   29  O9  UNL     1      57.314  56.916 111.499  1.00  0.00    -0.315 OA
BRANCH  29  30
HETATM   30  C24 UNL     1      56.849  55.874 110.749  1.00  0.00     0.262 C 
HETATM   31  O10 UNL     1      57.669  54.940 110.552  1.00  0.00    -0.265 OA
BRANCH  30  32
HETATM   32  C25 UNL     1      55.474  55.809 110.186  1.00  0.00     0.077 C 
HETATM   33  C26 UNL     1      54.663  57.020 110.523  1.00  0.00     0.020 C 
HETATM   34  C27 UNL     1      55.651  55.704 108.667  1.00  0.00     0.020 C 
ENDBRANCH  30  32
ENDBRANCH  29  30
ENDBRANCH   9  29
BRANCH   4  35
HETATM   35  O6  UNL     1      59.979  56.070 116.805  1.00  0.00    -0.395 OA
ATOM     36  H6  UNL     1      59.357  56.733 117.081  1.00  0.00     0.210 HD
ENDBRANCH   4  35
BRANCH   7  37
HETATM   37  O7  UNL     1      56.271  58.847 115.729  1.00  0.00    -0.388 OA
ATOM     38  H7  UNL     1      55.322  58.854 115.722  1.00  0.00     0.210 HD
ENDBRANCH   7  37
BRANCH   7  39
HETATM   39  C21 UNL     1      55.645  56.630 115.359  1.00  0.00     0.201 C 
BRANCH  39  40
HETATM   40  O8  UNL     1      55.471  56.639 116.759  1.00  0.00    -0.398 OA
ATOM     41  H8  UNL     1      54.791  57.280 116.931  1.00  0.00     0.209 HD
ENDBRANCH  39  40
ENDBRANCH   7  39
TORSDOF 15
ENDMDL
MODEL 2
REMARK VINA RESULT: -8.429641010      1.667      7.417
REMARK  15 active torsions:
REMARK  status: ('A' for Active; 'I' for Inactive)
REMARK    1  A    between atoms: C2_2  and  C3_3 
REMARK    2  A    between atoms: C2_2  and  O1_9 
REMARK    3  A    between atoms: C4_4  and  C6_6 
REMARK    4  A    between atoms: O1_9  and  C9_10 
REMARK    5  A    between atoms: C10_11  and  O2_12 
REMARK    6  A    between atoms: O2_12  and  C11_13 
REMARK    7  A    between atoms: C11_13  and  C12_15 
REMARK    8  A    between atoms: C13_16  and  C15_18 
REMARK    9  A    between atoms: C17_22  and  O6_23 
REMARK   10  A    between atoms: C20_27  and  O7_28 
REMARK   11  A    between atoms: C20_27  and  C21_30 
REMARK   12  A    between atoms: C21_30  and  O8_31 
REMARK   13  A    between atoms: C23_34  and  O9_35 
REMARK   14  A    between atoms: O9_35  and  C24_36 
REMARK   15  A    between atoms: C24_36  and  C25_38 
ROOT
HETATM    1  C9  UNL     1      59.169  56.947 113.334  1.00  0.00     0.165 C 
HETATM    2  C10 UNL     1      58.324  56.551 114.521  1.00  0.00     0.164 C 
HETATM    3  C16 UNL     1      59.226  56.077 115.666  1.00  0.00     0.067 C 
HETATM    4  C17 UNL     1      60.068  57.273 116.080  1.00  0.00     0.125 C 
HETATM    5  C18 UNL     1      60.785  57.879 114.899  1.00  0.00     0.026 C 
HETATM    6  C19 UNL     1      61.890  56.954 114.513  1.00  0.00     0.048 C 
HETATM    7  C20 UNL     1      62.573  57.291 113.228  1.00  0.00     0.082 C 
HETATM    8  C22 UNL     1      61.637  57.742 112.135  1.00  0.00     0.073 C 
HETATM    9  C23 UNL     1      60.741  58.815 112.666  1.00  0.00     0.141 C 
HETATM   10  C28 UNL     1      59.869  58.225 113.748  1.00  0.00     0.054 C 
ENDROOT
BRANCH   1  11
HETATM   11  O1  UNL     1      58.367  57.090 112.220  1.00  0.00    -0.344 OA
BRANCH  11  12
HETATM   12  C2  UNL     1      58.109  56.047 111.367  1.00  0.00     0.060 C 
HETATM   13  C1  UNL     1      58.883  54.972 111.422  1.00  0.00     0.051 C 
BRANCH  12  14
HETATM   14  C3  UNL     1      57.028  56.036 110.389  1.00  0.00     0.038 C 
HETATM   15  C4  UNL     1      55.814  55.682 110.710  1.00  0.00    -0.078 C 
HETATM   16  C5  UNL     1      55.432  55.272 112.070  1.00  0.00     0.044 C 
BRANCH  15  17
HETATM   17  C6  UNL     1      54.739  55.679 109.672  1.00  0.00     0.006 C 
HETATM   18  C7  UNL     1      55.305  55.797 108.278  1.00  0.00     0.014 C 
HETATM   19  C8  UNL     1      53.738  56.784 109.915  1.00  0.00     0.014 C 
ENDBRANCH  15  17
ENDBRANCH  12  14
ENDBRANCH  11  12
ENDBRANCH   1  11
BRANCH   2  20
HETATM   20  O2  UNL     1      57.724  57.750 115.022  1.00  0.00    -0.310 OA
BRANCH  20  21
HETATM   21  C11 UNL     1      56.309  57.898 115.052  1.00  0.00     0.284 C 
HETATM   22  O3  UNL     1      55.798  57.426 116.070  1.00  0.00    -0.260 OA
BRANCH  21  23
HETATM   23  C12 UNL     1      55.708  58.556 113.927  1.00  0.00     0.095 C 
HETATM   24  C13 UNL     1      54.503  58.519 113.482  1.00  0.00     0.020 C 
HETATM   25  C14 UNL     1      54.263  59.381 112.231  1.00  0.00     0.056 C 
BRANCH  24  26
HETATM   26  C15 UNL     1      53.390  57.793 113.996  1.00  0.00     0.205 C 
HETATM   27  O4  UNL     1      53.294  56.565 114.114  1.00  0.00    -0.644 OA
HETATM   28  O5  UNL     1      52.265  58.559 114.418  1.00  0.00    -0.644 OA
ENDBRANCH  24  26
ENDBRANCH  21  23
ENDBRANCH  20  21
ENDBRANCH   2  20
BRANCH   9  29
HETATM   29  O9  UNL     1      60.066  59.561 111.722  1.00  0.00    -0.315 OA
BRANCH  29  30
HETATM   30  C24 UNL     1      60.472  60.760 111.210  1.00  0.00     0.262 C 
HETATM   31  O10 UNL     1      60.473  61.723 112.021  1.00  0.00    -0.265 OA
BRANCH  30  32
HETATM   32  C25 UNL     1      60.891  60.957 109.797  1.00  0.00     0.077 C 
HETATM   33  C26 UNL     1      60.698  62.369 109.338  1.00  0.00     0.020 C 
HETATM   34  C27 UNL     1      62.379  60.590 109.749  1.00  0.00     0.020 C 
ENDBRANCH  30  32
ENDBRANCH  29  30
ENDBRANCH   9  29
BRANCH   4  35
HETATM   35  O6  UNL     1      61.046  56.793 116.952  1.00  0.00    -0.395 OA
ATOM     36  H6  UNL     1      61.862  56.779 116.466  1.00  0.00     0.210 HD
ENDBRANCH   4  35
BRANCH   7  37
HETATM   37  O7  UNL     1      63.207  56.132 112.768  1.00  0.00    -0.388 OA
ATOM     38  H7  UNL     1      63.150  56.129 111.820  1.00  0.00     0.210 HD
ENDBRANCH   7  37
BRANCH   7  39
HETATM   39  C21 UNL     1      63.679  58.300 113.491  1.00  0.00     0.201 C 
BRANCH  39  40
HETATM   40  O8  UNL     1      64.698  57.589 114.159  1.00  0.00    -0.398 OA
ATOM     41  H8  UNL     1      65.382  58.223 114.338  1.00  0.00     0.209 HD
ENDBRANCH  39  40
ENDBRANCH   7  39
TORSDOF 15
ENDMDL
MODEL 3
REMARK VINA RESULT: -8.267812649      1.534      7.286
REMARK  15 active torsions:
REMARK  status: ('A' for Active; 'I' for Inactive)
REMARK    1  A    between atoms: C2_2  and  C3_3 
REMARK    2  A    between atoms: C2_2  and  O1_9 
REMARK    3  A    between atoms: C4_4  and  C6_6 
REMARK    4  A    between atoms: O1_9  and  C9_10 
REMARK    5  A    between atoms: C10_11  and  O2_12 
REMARK    6  A    between atoms: O2_12  and  C11_13 
REMARK    7  A    between atoms: C11_13  and  C12_15 
REMARK    8  A    between atoms: C13_16  and  C15_18 
REMARK    9  A    between atoms: C17_22  and  O6_23 
REMARK   10  A    between atoms: C20_27  and  O7_28 
REMARK   11  A    between atoms: C20_27  and  C21_30 
REMARK   12  A    between atoms: C21_30  and  O8_31 
REMARK   13  A    between atoms: C23_34  and  O9_35 
REMARK   14  A    between atoms: O9_35  and  C24_36 
REMARK   15  A    between atoms: C24_36  and  C25_38 
ROOT
HETATM    1  C9  UNL     1      59.455  56.787 113.543  1.00  0.00     0.165 C 
HETATM    2  C10 UNL     1      58.744  56.349 114.801  1.00  0.00     0.164 C 
HETATM    3  C16 UNL     1      59.769  55.884 115.842  1.00  0.00     0.067 C 
HETATM    4  C17 UNL     1      60.616  57.096 116.191  1.00  0.00     0.125 C 
HETATM    5  C18 UNL     1      61.194  57.741 114.955  1.00  0.00     0.026 C 
HETATM    6  C19 UNL     1      62.279  56.854 114.444  1.00  0.00     0.048 C 
HETATM    7  C20 UNL     1      62.820  57.230 113.103  1.00  0.00     0.082 C 
HETATM    8  C22 UNL     1      61.767  57.671 112.118  1.00  0.00     0.073 C 
HETATM    9  C23 UNL     1      60.901  58.710 112.756  1.00  0.00     0.141 C 
HETATM   10  C28 UNL     1      60.158  58.079 113.909  1.00  0.00     0.054 C 
ENDROOT
BRANCH   1  11
HETATM   11  O1  UNL     1      58.541  56.925 112.518  1.00  0.00    -0.344 OA
BRANCH  11  12
HETATM   12  C2  UNL     1      58.297  55.920 111.617  1.00  0.00     0.060 C 
HETATM   13  C1  UNL     1      59.100  54.864 111.607  1.00  0.00     0.051 C 
BRANCH  12  14
HETATM   14  C3  UNL     1      57.204  55.929 110.654  1.00  0.00     0.038 C 
HETATM   15  C4  UNL     1      55.995  56.286 110.989  1.00  0.00    -0.078 C 
HETATM   16  C5  UNL     1      55.633  56.710 112.351  1.00  0.00     0.044 C 
BRANCH  15  17
HETATM   17  C6  UNL     1      54.903  56.274 109.969  1.00  0.00     0.006 C 
HETATM   18  C7  UNL     1      55.404  55.823 108.618  1.00  0.00     0.014 C 
HETATM   19  C8  UNL     1      54.249  57.630 109.848  1.00  0.00     0.014 C 
ENDBRANCH  15  17
ENDBRANCH  12  14
ENDBRANCH  11  12
ENDBRANCH   1  11
BRANCH   2  20
HETATM   20  O2  UNL     1      58.166  57.523 115.381  1.00  0.00    -0.310 OA
BRANCH  20  21
HETATM   21  C11 UNL     1      56.835  57.506 115.885  1.00  0.00     0.284 C 
HETATM   22  O3  UNL     1      56.156  58.454 115.485  1.00  0.00    -0.260 OA
BRANCH  21  23
HETATM   23  C12 UNL     1      56.493  56.418 116.757  1.00  0.00     0.095 C 
HETATM   24  C13 UNL     1      55.559  55.539 116.672  1.00  0.00     0.020 C 
HETATM   25  C14 UNL     1      55.532  54.529 117.831  1.00  0.00     0.056 C 
BRANCH  24  26
HETATM   26  C15 UNL     1      54.570  55.393 115.658  1.00  0.00     0.205 C 
HETATM   27  O4  UNL     1      53.559  56.089 115.499  1.00  0.00    -0.644 OA
HETATM   28  O5  UNL     1      54.759  54.332 114.726  1.00  0.00    -0.644 OA
ENDBRANCH  24  26
ENDBRANCH  21  23
ENDBRANCH  20  21
ENDBRANCH   2  20
BRANCH   9  29
HETATM   29  O9  UNL     1      60.115  59.450 111.898  1.00  0.00    -0.315 OA
BRANCH  29  30
HETATM   30  C24 UNL     1      60.429  60.674 111.379  1.00  0.00     0.262 C 
HETATM   31  O10 UNL     1      60.421  61.629 112.199  1.00  0.00    -0.265 OA
BRANCH  30  32
HETATM   32  C25 UNL     1      60.764  60.905 109.949  1.00  0.00     0.077 C 
HETATM   33  C26 UNL     1      60.540  62.326 109.534  1.00  0.00     0.020 C 
HETATM   34  C27 UNL     1      62.248  60.546 109.805  1.00  0.00     0.020 C 
ENDBRANCH  30  32
ENDBRANCH  29  30
ENDBRANCH   9  29
BRANCH   4  35
HETATM   35  O6  UNL     1      61.690  56.631 116.952  1.00  0.00    -0.395 OA
ATOM     36  H6  UNL     1      62.356  56.348 116.338  1.00  0.00     0.210 HD
ENDBRANCH   4  35
BRANCH   7  37
HETATM   37  O7  UNL     1      63.435  56.096 112.561  1.00  0.00    -0.388 OA
ATOM     38  H7  UNL     1      63.279  56.104 111.624  1.00  0.00     0.210 HD
ENDBRANCH   7  37
BRANCH   7  39
HETATM   39  C21 UNL     1      63.919  58.265 113.272  1.00  0.00     0.201 C 
BRANCH  39  40
HETATM   40  O8  UNL     1      64.852  57.695 114.163  1.00  0.00    -0.398 OA
ATOM     41  H8  UNL     1      65.289  58.426 114.584  1.00  0.00     0.209 HD
ENDBRANCH  39  40
ENDBRANCH   7  39
TORSDOF 15
ENDMDL
MODEL 4
REMARK VINA RESULT: -8.254409958      1.819      6.727
REMARK  15 active torsions:
REMARK  status: ('A' for Active; 'I' for Inactive)
REMARK    1  A    between atoms: C2_2  and  C3_3 
REMARK    2  A    between atoms: C2_2  and  O1_9 
REMARK    3  A    between atoms: C4_4  and  C6_6 
REMARK    4  A    between atoms: O1_9  and  C9_10 
REMARK    5  A    between atoms: C10_11  and  O2_12 
REMARK    6  A    between atoms: O2_12  and  C11_13 
REMARK    7  A    between atoms: C11_13  and  C12_15 
REMARK    8  A    between atoms: C13_16  and  C15_18 
REMARK    9  A    between atoms: C17_22  and  O6_23 
REMARK   10  A    between atoms: C20_27  and  O7_28 
REMARK   11  A    between atoms: C20_27  and  C21_30 
REMARK   12  A    between atoms: C21_30  and  O8_31 
REMARK   13  A    between atoms: C23_34  and  O9_35 
REMARK   14  A    between atoms: O9_35  and  C24_36 
REMARK   15  A    between atoms: C24_36  and  C25_38 
ROOT
HETATM    1  C9  UNL     1      59.936  57.452 112.891  1.00  0.00     0.165 C 
HETATM    2  C10 UNL     1      58.720  57.038 112.097  1.00  0.00     0.164 C 
HETATM    3  C16 UNL     1      59.074  55.859 111.184  1.00  0.00     0.067 C 
HETATM    4  C17 UNL     1      59.446  54.699 112.093  1.00  0.00     0.125 C 
HETATM    5  C18 UNL     1      60.515  55.095 113.083  1.00  0.00     0.026 C 
HETATM    6  C19 UNL     1      61.802  55.215 112.340  1.00  0.00     0.048 C 
HETATM    7  C20 UNL     1      62.928  55.806 113.124  1.00  0.00     0.082 C 
HETATM    8  C22 UNL     1      62.525  56.967 113.997  1.00  0.00     0.073 C 
HETATM    9  C23 UNL     1      61.333  56.578 114.813  1.00  0.00     0.141 C 
HETATM   10  C28 UNL     1      60.171  56.330 113.882  1.00  0.00     0.054 C 
ENDROOT
BRANCH   1  11
HETATM   11  O1  UNL     1      59.707  58.677 113.486  1.00  0.00    -0.344 OA
BRANCH  11  12
HETATM   12  C2  UNL     1      60.379  59.811 113.104  1.00  0.00     0.060 C 
HETATM   13  C1  UNL     1      61.135  60.435 113.998  1.00  0.00     0.051 C 
BRANCH  12  14
HETATM   14  C3  UNL     1      60.321  60.388 111.768  1.00  0.00     0.038 C 
HETATM   15  C4  UNL     1      61.271  60.196 110.894  1.00  0.00    -0.078 C 
HETATM   16  C5  UNL     1      62.467  59.387 111.175  1.00  0.00     0.044 C 
BRANCH  15  17
HETATM   17  C6  UNL     1      61.171  60.813 109.537  1.00  0.00     0.006 C 
HETATM   18  C7  UNL     1      62.530  61.158 108.977  1.00  0.00     0.014 C 
HETATM   19  C8  UNL     1      60.296  62.044 109.555  1.00  0.00     0.014 C 
ENDBRANCH  15  17
ENDBRANCH  12  14
ENDBRANCH  11  12
ENDBRANCH   1  11
BRANCH   2  20
HETATM   20  O2  UNL     1      57.784  56.489 113.030  1.00  0.00    -0.310 OA
BRANCH  20  21
HETATM   21  C11 UNL     1      56.495  57.069 113.194  1.00  0.00     0.284 C 
HETATM   22  O3  UNL     1      56.213  57.291 114.373  1.00  0.00    -0.260 OA
BRANCH  21  23
HETATM   23  C12 UNL     1      55.739  57.303 111.996  1.00  0.00     0.095 C 
HETATM   24  C13 UNL     1      55.080  56.489 111.251  1.00  0.00     0.020 C 
HETATM   25  C14 UNL     1      54.401  57.149 110.039  1.00  0.00     0.056 C 
BRANCH  24  26
HETATM   26  C15 UNL     1      54.909  55.084 111.408  1.00  0.00     0.205 C 
HETATM   27  O4  UNL     1      55.319  54.195 110.650  1.00  0.00    -0.644 OA
HETATM   28  O5  UNL     1      54.188  54.650 112.558  1.00  0.00    -0.644 OA
ENDBRANCH  24  26
ENDBRANCH  21  23
ENDBRANCH  20  21
ENDBRANCH   2  20
BRANCH   9  29
HETATM   29  O9  UNL     1      61.048  57.390 115.891  1.00  0.00    -0.315 OA
BRANCH  29  30
HETATM   30  C24 UNL     1      60.626  56.971 117.120  1.00  0.00     0.262 C 
HETATM   31  O10 UNL     1      60.957  57.705 118.087  1.00  0.00    -0.265 OA
BRANCH  30  32
HETATM   32  C25 UNL     1      59.827  55.736 117.343  1.00  0.00     0.077 C 
HETATM   33  C26 UNL     1      60.072  55.137 118.693  1.00  0.00     0.020 C 
HETATM   34  C27 UNL     1      58.359  56.161 117.219  1.00  0.00     0.020 C 
ENDBRANCH  30  32
ENDBRANCH  29  30
ENDBRANCH   9  29
BRANCH   4  35
HETATM   35  O6  UNL     1      59.990  53.707 111.277  1.00  0.00    -0.395 OA
ATOM     36  H6  UNL     1      60.934  53.811 111.312  1.00  0.00     0.210 HD
ENDBRANCH   4  35
BRANCH   7  37
HETATM   37  O7  UNL     1      63.871  56.293 112.211  1.00  0.00    -0.388 OA
ATOM     38  H7  UNL     1      64.666  55.784 112.319  1.00  0.00     0.210 HD
ENDBRANCH   7  37
BRANCH   7  39
HETATM   39  C21 UNL     1      63.629  54.711 113.910  1.00  0.00     0.201 C 
BRANCH  39  40
HETATM   40  O8  UNL     1      64.967  55.135 114.051  1.00  0.00    -0.398 OA
ATOM     41  H8  UNL     1      64.985  56.039 113.760  1.00  0.00     0.209 HD
ENDBRANCH  39  40
ENDBRANCH   7  39
TORSDOF 15
ENDMDL
MODEL 5
REMARK VINA RESULT: -8.235550163      1.626      7.180
REMARK  15 active torsions:
REMARK  status: ('A' for Active; 'I' for Inactive)
REMARK    1  A    between atoms: C2_2  and  C3_3 
REMARK    2  A    between atoms: C2_2  and  O1_9 
REMARK    3  A    between atoms: C4_4  and  C6_6 
REMARK    4  A    between atoms: O1_9  and  C9_10 
REMARK    5  A    between atoms: C10_11  and  O2_12 
REMARK    6  A    between atoms: O2_12  and  C11_13 
REMARK    7  A    between atoms: C11_13  and  C12_15 
REMARK    8  A    between atoms: C13_16  and  C15_18 
REMARK    9  A    between atoms: C17_22  and  O6_23 
REMARK   10  A    between atoms: C20_27  and  O7_28 
REMARK   11  A    between atoms: C20_27  and  C21_30 
REMARK   12  A    between atoms: C21_30  and  O8_31 
REMARK   13  A    between atoms: C23_34  and  O9_35 
REMARK   14  A    between atoms: O9_35  and  C24_36 
REMARK   15  A    between atoms: C24_36  and  C25_38 
ROOT
HETATM    1  C9  UNL     1      59.471  56.763 113.529  1.00  0.00     0.165 C 
HETATM    2  C10 UNL     1      58.787  56.250 114.773  1.00  0.00     0.164 C 
HETATM    3  C16 UNL     1      59.836  55.754 115.775  1.00  0.00     0.067 C 
HETATM    4  C17 UNL     1      60.664  56.965 116.173  1.00  0.00     0.125 C 
HETATM    5  C18 UNL     1      61.212  57.681 114.962  1.00  0.00     0.026 C 
HETATM    6  C19 UNL     1      62.307  56.842 114.394  1.00  0.00     0.048 C 
HETATM    7  C20 UNL     1      62.821  57.294 113.066  1.00  0.00     0.082 C 
HETATM    8  C22 UNL     1      61.746  57.761 112.118  1.00  0.00     0.073 C 
HETATM    9  C23 UNL     1      60.868  58.751 112.818  1.00  0.00     0.141 C 
HETATM   10  C28 UNL     1      60.155  58.049 113.948  1.00  0.00     0.054 C 
ENDROOT
BRANCH   1  11
HETATM   11  O1  UNL     1      58.540  56.933 112.524  1.00  0.00    -0.344 OA
BRANCH  11  12
HETATM   12  C2  UNL     1      58.259  55.945 111.615  1.00  0.00     0.060 C 
HETATM   13  C1  UNL     1      59.056  54.886 111.556  1.00  0.00     0.051 C 
BRANCH  12  14
HETATM   14  C3  UNL     1      57.130  55.974 110.694  1.00  0.00     0.038 C 
HETATM   15  C4  UNL     1      55.910  55.745 111.094  1.00  0.00    -0.078 C 
HETATM   16  C5  UNL     1      55.568  55.443 112.493  1.00  0.00     0.044 C 
BRANCH  15  17
HETATM   17  C6  UNL     1      54.784  55.780 110.112  1.00  0.00     0.006 C 
HETATM   18  C7  UNL     1      55.282  55.819 108.688  1.00  0.00     0.014 C 
HETATM   19  C8  UNL     1      53.868  56.953 110.369  1.00  0.00     0.014 C 
ENDBRANCH  15  17
ENDBRANCH  12  14
ENDBRANCH  11  12
ENDBRANCH   1  11
BRANCH   2  20
HETATM   20  O2  UNL     1      58.195  57.382 115.418  1.00  0.00    -0.310 OA
BRANCH  20  21
HETATM   21  C11 UNL     1      56.820  57.372 115.788  1.00  0.00     0.284 C 
HETATM   22  O3  UNL     1      56.295  58.484 115.717  1.00  0.00    -0.260 OA
BRANCH  21  23
HETATM   23  C12 UNL     1      56.270  56.104 116.176  1.00  0.00     0.095 C 
HETATM   24  C13 UNL     1      56.311  55.483 117.300  1.00  0.00     0.020 C 
HETATM   25  C14 UNL     1      55.585  54.127 117.302  1.00  0.00     0.056 C 
BRANCH  24  26
HETATM   26  C15 UNL     1      56.934  55.889 118.515  1.00  0.00     0.205 C 
HETATM   27  O4  UNL     1      58.149  55.951 118.743  1.00  0.00    -0.644 OA
HETATM   28  O5  UNL     1      56.070  56.263 119.584  1.00  0.00    -0.644 OA
ENDBRANCH  24  26
ENDBRANCH  21  23
ENDBRANCH  20  21
ENDBRANCH   2  20
BRANCH   9  29
HETATM   29  O9  UNL     1      60.056  59.516 112.007  1.00  0.00    -0.315 OA
BRANCH  29  30
HETATM   30  C24 UNL     1      60.397  60.702 111.423  1.00  0.00     0.262 C 
HETATM   31  O10 UNL     1      60.438  61.695 112.196  1.00  0.00    -0.265 OA
BRANCH  30  32
HETATM   32  C25 UNL     1      60.709  60.853 109.977  1.00  0.00     0.077 C 
HETATM   33  C26 UNL     1      60.365  62.215 109.460  1.00  0.00     0.020 C 
HETATM   34  C27 UNL     1      62.217  60.611 109.848  1.00  0.00     0.020 C 
ENDBRANCH  30  32
ENDBRANCH  29  30
ENDBRANCH   9  29
BRANCH   4  35
HETATM   35  O6  UNL     1      61.757  56.485 116.895  1.00  0.00    -0.395 OA
ATOM     36  H6  UNL     1      61.437  55.770 117.432  1.00  0.00     0.210 HD
ENDBRANCH   4  35
BRANCH   7  37
HETATM   37  O7  UNL     1      63.450  56.201 112.460  1.00  0.00    -0.388 OA
ATOM     38  H7  UNL     1      63.637  56.438 111.560  1.00  0.00     0.210 HD
ENDBRANCH   7  37
BRANCH   7  39
HETATM   39  C21 UNL     1      63.902  58.342 113.271  1.00  0.00     0.201 C 
BRANCH  39  40
HETATM   40  O8  UNL     1      64.876  57.735 114.091  1.00  0.00    -0.398 OA
ATOM     41  H8  UNL     1      64.643  57.964 114.984  1.00  0.00     0.209 HD
ENDBRANCH  39  40
ENDBRANCH   7  39
TORSDOF 15
ENDMDL
