MODEL 1
REMARK VINA RESULT: -7.696149910      0.000      0.000
REMARK  5 active torsions:
REMARK  status: ('A' for Active; 'I' for Inactive)
REMARK       I    between atoms: N1_2  and  C2_4 
REMARK    1  A    between atoms: C2_4  and  C3_6 
REMARK    2  A    between atoms: C3_6  and  C4_7 
REMARK    3  A    between atoms: C3_6  and  N3_11 
REMARK    4  A    between atoms: C4_7  and  C5_8 
REMARK       I    between atoms: N3_11  and  C6_13 
REMARK    5  A    between atoms: C6_13  and  C7_15 
ROOT
HETATM    1  N3  UNL     1       4.689  20.097  49.878  1.00  0.00    -0.347 N 
ATOM      2  H3  UNL     1       5.340  19.639  49.240  1.00  0.00     0.163 HD
HETATM    3  C6  UNL     1       3.324  19.777  49.769  1.00  0.00     0.227 C 
HETATM    4  O3  UNL     1       2.451  20.293  50.515  1.00  0.00    -0.273 OA
ENDROOT
BRANCH   3   5
HETATM    5  C7  UNL     1       2.864  18.795  48.745  1.00  0.00     0.043 C 
HETATM    6  C8  UNL     1       4.058  18.044  48.233  1.00  0.00     0.024 C 
HETATM    7  C9  UNL     1       3.609  17.036  47.176  1.00  0.00    -0.012 C 
HETATM    8  C10 UNL     1       2.705  16.057  47.876  1.00  0.00     0.009 C 
HETATM    9  C14 UNL     1       2.921  17.805  46.086  1.00  0.00     0.025 C 
HETATM   10  C11 UNL     1       1.488  16.783  48.396  1.00  0.00    -0.012 C 
HETATM   11  C12 UNL     1       0.794  17.405  47.207  1.00  0.00     0.025 C 
HETATM   12  C16 UNL     1       1.852  17.838  49.391  1.00  0.00     0.024 C 
HETATM   13  C13 UNL     1       1.676  18.472  46.623  1.00  0.00     0.020 C 
HETATM   14 BR1  UNL     1       0.786  19.322  45.126  1.00  0.00    -0.085 Br
HETATM   15  C15 UNL     1       2.088  19.497  47.637  1.00  0.00     0.040 C 
ENDBRANCH   3   5
BRANCH   1  16
HETATM   16  C3  UNL     1       5.238  21.058  50.858  1.00  0.00     0.184 C 
BRANCH  16  17
HETATM   17  C2  UNL     1       6.540  21.495  50.344  1.00  0.00     0.240 C 
HETATM   18  N1  UNL     1       7.067  22.759  50.662  1.00  0.00    -0.364 N 
HETATM   19  C1  UNL     1       8.368  23.115  50.117  1.00  0.00     0.149 C 
ATOM     20  H1  UNL     1       6.552  23.409  51.258  1.00  0.00     0.161 HD
HETATM   21  O1  UNL     1       7.171  20.681  49.593  1.00  0.00    -0.271 OA
ENDBRANCH  16  17
BRANCH  16  22
HETATM   22  C4  UNL     1       5.375  20.366  52.170  1.00  0.00     0.134 C 
BRANCH  22  23
HETATM   23  C5  UNL     1       5.278  21.232  53.333  1.00  0.00     0.233 C 
HETATM   24  N2  UNL     1       6.445  21.931  53.836  1.00  0.00    -0.062 NA
HETATM   25  O2  UNL     1       4.244  21.459  53.988  1.00  0.00    -0.277 OA
ENDBRANCH  22  23
ENDBRANCH  16  22
ENDBRANCH   1  16
TORSDOF 5
ENDMDL
MODEL 2
REMARK VINA RESULT: -7.647869731      1.556      1.868
REMARK  5 active torsions:
REMARK  status: ('A' for Active; 'I' for Inactive)
REMARK       I    between atoms: N1_2  and  C2_4 
REMARK    1  A    between atoms: C2_4  and  C3_6 
REMARK    2  A    between atoms: C3_6  and  C4_7 
REMARK    3  A    between atoms: C3_6  and  N3_11 
REMARK    4  A    between atoms: C4_7  and  C5_8 
REMARK       I    between atoms: N3_11  and  C6_13 
REMARK    5  A    between atoms: C6_13  and  C7_15 
ROOT
HETATM    1  N3  UNL     1       5.682  20.392  50.843  1.00  0.00    -0.347 N 
ATOM      2  H3  UNL     1       6.281  19.574  50.732  1.00  0.00     0.163 HD
HETATM    3  C6  UNL     1       4.322  20.263  50.512  1.00  0.00     0.227 C 
HETATM    4  O3  UNL     1       3.510  21.218  50.619  1.00  0.00    -0.273 OA
ENDROOT
BRANCH   3   5
HETATM    5  C7  UNL     1       3.793  18.960  50.012  1.00  0.00     0.043 C 
HETATM    6  C8  UNL     1       4.817  17.896  50.277  1.00  0.00     0.024 C 
HETATM    7  C9  UNL     1       4.297  16.554  49.766  1.00  0.00    -0.012 C 
HETATM    8  C10 UNL     1       3.069  16.235  50.576  1.00  0.00     0.009 C 
HETATM    9  C14 UNL     1       4.018  16.709  48.299  1.00  0.00     0.025 C 
HETATM   10  C11 UNL     1       2.015  17.285  50.323  1.00  0.00    -0.012 C 
HETATM   11  C12 UNL     1       1.708  17.267  48.844  1.00  0.00     0.025 C 
HETATM   12  C16 UNL     1       2.477  18.646  50.737  1.00  0.00     0.024 C 
HETATM   13  C13 UNL     1       2.919  17.723  48.082  1.00  0.00     0.020 C 
HETATM   14 BR1  UNL     1       2.534  17.758  46.183  1.00  0.00    -0.085 Br
HETATM   15  C15 UNL     1       3.415  19.063  48.539  1.00  0.00     0.040 C 
ENDBRANCH   3   5
BRANCH   1  16
HETATM   16  C3  UNL     1       6.297  21.640  51.343  1.00  0.00     0.184 C 
BRANCH  16  17
HETATM   17  C2  UNL     1       7.284  22.060  50.344  1.00  0.00     0.240 C 
HETATM   18  N1  UNL     1       7.682  23.404  50.226  1.00  0.00    -0.364 N 
HETATM   19  C1  UNL     1       8.672  23.737  49.213  1.00  0.00     0.149 C 
ATOM     20  H1  UNL     1       7.289  24.124  50.833  1.00  0.00     0.161 HD
HETATM   21  O1  UNL     1       7.762  21.155  49.585  1.00  0.00    -0.271 OA
ENDBRANCH  16  17
BRANCH  16  22
HETATM   22  C4  UNL     1       6.938  21.356  52.657  1.00  0.00     0.134 C 
BRANCH  22  23
HETATM   23  C5  UNL     1       6.186  21.803  53.817  1.00  0.00     0.233 C 
HETATM   24  N2  UNL     1       4.762  21.546  53.922  1.00  0.00    -0.062 NA
HETATM   25  O2  UNL     1       6.651  22.418  54.795  1.00  0.00    -0.277 OA
ENDBRANCH  22  23
ENDBRANCH  16  22
ENDBRANCH   1  16
TORSDOF 5
ENDMDL
MODEL 3
REMARK VINA RESULT: -7.378371511      1.410      2.203
REMARK  5 active torsions:
REMARK  status: ('A' for Active; 'I' for Inactive)
REMARK       I    between atoms: N1_2  and  C2_4 
REMARK    1  A    between atoms: C2_4  and  C3_6 
REMARK    2  A    between atoms: C3_6  and  C4_7 
REMARK    3  A    between atoms: C3_6  and  N3_11 
REMARK    4  A    between atoms: C4_7  and  C5_8 
REMARK       I    between atoms: N3_11  and  C6_13 
REMARK    5  A    between atoms: C6_13  and  C7_15 
ROOT
HETATM    1  N3  UNL     1       4.684  20.141  49.922  1.00  0.00    -0.347 N 
ATOM      2  H3  UNL     1       5.322  19.697  49.261  1.00  0.00     0.163 HD
HETATM    3  C6  UNL     1       3.321  19.804  49.850  1.00  0.00     0.227 C 
HETATM    4  O3  UNL     1       2.464  20.302  50.626  1.00  0.00    -0.273 OA
ENDROOT
BRANCH   3   5
HETATM    5  C7  UNL     1       2.844  18.827  48.830  1.00  0.00     0.043 C 
HETATM    6  C8  UNL     1       1.438  19.184  48.447  1.00  0.00     0.024 C 
HETATM    7  C9  UNL     1       0.927  18.190  47.406  1.00  0.00    -0.012 C 
HETATM    8  C10 UNL     1       1.800  18.356  46.191  1.00  0.00     0.009 C 
HETATM    9  C14 UNL     1       1.010  16.820  48.015  1.00  0.00     0.025 C 
HETATM   10  C11 UNL     1       3.223  17.994  46.544  1.00  0.00    -0.012 C 
HETATM   11  C12 UNL     1       3.218  16.559  47.014  1.00  0.00     0.025 C 
HETATM   12  C16 UNL     1       3.775  18.884  47.610  1.00  0.00     0.024 C 
HETATM   13  C13 UNL     1       2.450  16.463  48.302  1.00  0.00     0.020 C 
HETATM   14 BR1  UNL     1       2.473  14.639  48.954  1.00  0.00    -0.085 Br
HETATM   15  C15 UNL     1       2.969  17.400  49.352  1.00  0.00     0.040 C 
ENDBRANCH   3   5
BRANCH   1  16
HETATM   16  C3  UNL     1       5.250  21.099  50.896  1.00  0.00     0.184 C 
BRANCH  16  17
HETATM   17  C2  UNL     1       6.549  21.527  50.368  1.00  0.00     0.240 C 
HETATM   18  N1  UNL     1       7.086  22.790  50.676  1.00  0.00    -0.364 N 
HETATM   19  C1  UNL     1       8.383  23.137  50.117  1.00  0.00     0.149 C 
ATOM     20  H1  UNL     1       6.580  23.444  51.275  1.00  0.00     0.161 HD
HETATM   21  O1  UNL     1       7.168  20.708  49.614  1.00  0.00    -0.271 OA
ENDBRANCH  16  17
BRANCH  16  22
HETATM   22  C4  UNL     1       5.396  20.407  52.207  1.00  0.00     0.134 C 
BRANCH  22  23
HETATM   23  C5  UNL     1       5.310  21.273  53.370  1.00  0.00     0.233 C 
HETATM   24  N2  UNL     1       6.480  21.976  53.861  1.00  0.00    -0.062 NA
HETATM   25  O2  UNL     1       4.282  21.497  54.037  1.00  0.00    -0.277 OA
ENDBRANCH  22  23
ENDBRANCH  16  22
ENDBRANCH   1  16
TORSDOF 5
ENDMDL
MODEL 4
REMARK VINA RESULT: -7.378004227      2.242      2.964
REMARK  5 active torsions:
REMARK  status: ('A' for Active; 'I' for Inactive)
REMARK       I    between atoms: N1_2  and  C2_4 
REMARK    1  A    between atoms: C2_4  and  C3_6 
REMARK    2  A    between atoms: C3_6  and  C4_7 
REMARK    3  A    between atoms: C3_6  and  N3_11 
REMARK    4  A    between atoms: C4_7  and  C5_8 
REMARK       I    between atoms: N3_11  and  C6_13 
REMARK    5  A    between atoms: C6_13  and  C7_15 
ROOT
HETATM    1  N3  UNL     1       5.735  20.388  50.858  1.00  0.00    -0.347 N 
ATOM      2  H3  UNL     1       6.342  19.574  50.759  1.00  0.00     0.163 HD
HETATM    3  C6  UNL     1       4.375  20.240  50.534  1.00  0.00     0.227 C 
HETATM    4  O3  UNL     1       3.555  21.190  50.627  1.00  0.00    -0.273 OA
ENDROOT
BRANCH   3   5
HETATM    5  C7  UNL     1       3.857  18.924  50.060  1.00  0.00     0.043 C 
HETATM    6  C8  UNL     1       2.582  18.622  50.791  1.00  0.00     0.024 C 
HETATM    7  C9  UNL     1       2.037  17.273  50.324  1.00  0.00    -0.012 C 
HETATM    8  C10 UNL     1       1.713  17.426  48.863  1.00  0.00     0.009 C 
HETATM    9  C14 UNL     1       3.096  16.244  50.595  1.00  0.00     0.025 C 
HETATM   10  C11 UNL     1       2.980  17.723  48.097  1.00  0.00    -0.012 C 
HETATM   11  C12 UNL     1       3.924  16.565  48.325  1.00  0.00     0.025 C 
HETATM   12  C16 UNL     1       3.614  19.001  48.546  1.00  0.00     0.024 C 
HETATM   13  C13 UNL     1       4.329  16.534  49.771  1.00  0.00     0.020 C 
HETATM   14 BR1  UNL     1       5.581  15.088  50.078  1.00  0.00    -0.085 Br
HETATM   15  C15 UNL     1       4.910  17.837  50.234  1.00  0.00     0.040 C 
ENDBRANCH   3   5
BRANCH   1  16
HETATM   16  C3  UNL     1       6.341  21.650  51.333  1.00  0.00     0.184 C 
BRANCH  16  17
HETATM   17  C2  UNL     1       7.323  22.058  50.324  1.00  0.00     0.240 C 
HETATM   18  N1  UNL     1       7.711  23.403  50.180  1.00  0.00    -0.364 N 
HETATM   19  C1  UNL     1       8.696  23.725  49.159  1.00  0.00     0.149 C 
ATOM     20  H1  UNL     1       7.313  24.131  50.774  1.00  0.00     0.161 HD
HETATM   21  O1  UNL     1       7.807  21.144  49.581  1.00  0.00    -0.271 OA
ENDBRANCH  16  17
BRANCH  16  22
HETATM   22  C4  UNL     1       6.987  21.396  52.651  1.00  0.00     0.134 C 
BRANCH  22  23
HETATM   23  C5  UNL     1       6.208  21.809  53.806  1.00  0.00     0.233 C 
HETATM   24  N2  UNL     1       4.794  21.496  53.897  1.00  0.00    -0.062 NA
HETATM   25  O2  UNL     1       6.640  22.438  54.789  1.00  0.00    -0.277 OA
ENDBRANCH  22  23
ENDBRANCH  16  22
ENDBRANCH   1  16
TORSDOF 5
ENDMDL
MODEL 5
REMARK VINA RESULT: -7.320509351      1.861      2.331
REMARK  5 active torsions:
REMARK  status: ('A' for Active; 'I' for Inactive)
REMARK       I    between atoms: N1_2  and  C2_4 
REMARK    1  A    between atoms: C2_4  and  C3_6 
REMARK    2  A    between atoms: C3_6  and  C4_7 
REMARK    3  A    between atoms: C3_6  and  N3_11 
REMARK    4  A    between atoms: C4_7  and  C5_8 
REMARK       I    between atoms: N3_11  and  C6_13 
REMARK    5  A    between atoms: C6_13  and  C7_15 
ROOT
HETATM    1  N3  UNL     1       5.998  20.634  50.320  1.00  0.00    -0.347 N 
ATOM      2  H3  UNL     1       6.503  19.845  49.915  1.00  0.00     0.163 HD
HETATM    3  C6  UNL     1       4.599  20.538  50.422  1.00  0.00     0.227 C 
HETATM    4  O3  UNL     1       3.896  21.461  50.909  1.00  0.00    -0.273 OA
ENDROOT
BRANCH   3   5
HETATM    5  C7  UNL     1       3.895  19.312  49.945  1.00  0.00     0.043 C 
HETATM    6  C8  UNL     1       4.401  18.136  50.727  1.00  0.00     0.024 C 
HETATM    7  C9  UNL     1       3.696  16.868  50.249  1.00  0.00    -0.012 C 
HETATM    8  C10 UNL     1       2.236  17.046  50.564  1.00  0.00     0.009 C 
HETATM    9  C14 UNL     1       3.975  16.726  48.780  1.00  0.00     0.025 C 
HETATM   10  C11 UNL     1       1.694  18.220  49.784  1.00  0.00    -0.012 C 
HETATM   11  C12 UNL     1       1.899  17.917  48.318  1.00  0.00     0.025 C 
HETATM   12  C16 UNL     1       2.384  19.495  50.148  1.00  0.00     0.024 C 
HETATM   13  C13 UNL     1       3.370  17.884  48.020  1.00  0.00     0.020 C 
HETATM   14 BR1  UNL     1       3.659  17.548  46.134  1.00  0.00    -0.085 Br
HETATM   15  C15 UNL     1       4.071  19.142  48.440  1.00  0.00     0.040 C 
ENDBRANCH   3   5
BRANCH   1  16
HETATM   16  C3  UNL     1       6.782  21.806  50.762  1.00  0.00     0.184 C 
BRANCH  16  17
HETATM   17  C2  UNL     1       7.859  21.992  49.785  1.00  0.00     0.240 C 
HETATM   18  N1  UNL     1       8.375  23.269  49.497  1.00  0.00    -0.364 N 
HETATM   19  C1  UNL     1       9.448  23.368  48.520  1.00  0.00     0.149 C 
ATOM     20  H1  UNL     1       8.008  24.101  49.961  1.00  0.00     0.161 HD
HETATM   21  O1  UNL     1       8.304  20.949  49.205  1.00  0.00    -0.271 OA
ENDBRANCH  16  17
BRANCH  16  22
HETATM   22  C4  UNL     1       7.322  21.526  52.121  1.00  0.00     0.134 C 
BRANCH  22  23
HETATM   23  C5  UNL     1       7.267  20.133  52.529  1.00  0.00     0.233 C 
HETATM   24  N2  UNL     1       8.254  19.181  52.054  1.00  0.00    -0.062 NA
HETATM   25  O2  UNL     1       6.418  19.629  53.289  1.00  0.00    -0.277 OA
ENDBRANCH  22  23
ENDBRANCH  16  22
ENDBRANCH   1  16
TORSDOF 5
ENDMDL
