MODEL 1
REMARK VINA RESULT: -8.675754313      0.000      0.000
REMARK  11 active torsions:
REMARK  status: ('A' for Active; 'I' for Inactive)
REMARK    1  A    between atoms: N2_5  and  C2_6 
REMARK    2  A    between atoms: C2_6  and  O2_7 
REMARK    3  A    between atoms: C3_9  and  C4_10 
REMARK    4  A    between atoms: C3_9  and  C11_17 
REMARK    5  A    between atoms: C4_10  and  C5_11 
REMARK    6  A    between atoms: C11_17  and  N3_18 
REMARK    7  A    between atoms: C15_25  and  C16_26 
REMARK    8  A    between atoms: C16_26  and  C17_27 
REMARK    9  A    between atoms: C17_27  and  O4_28 
REMARK   10  A    between atoms: C18_32  and  C19_33 
REMARK   11  A    between atoms: C19_33  and  C20_34 
ROOT
HETATM    1  O1  UNL     1      -5.947  19.738   8.703  1.00  0.00    -0.269 OA
HETATM    2  C1  UNL     1      -4.713  19.610   8.777  1.00  0.00     0.259 C 
HETATM    3  N1  UNL     1      -3.862  20.418   9.609  1.00  0.00    -0.258 N 
ATOM      4  H1  UNL     1      -4.264  20.903  10.411  1.00  0.00     0.190 HD
HETATM    5  N2  UNL     1      -2.460  20.556   9.334  1.00  0.00    -0.219 N 
HETATM    6  C15 UNL     1      -1.893  19.412   8.722  1.00  0.00     0.104 C 
HETATM    7  N5  UNL     1      -2.711  18.868   7.627  1.00  0.00    -0.365 N 
ATOM      8  H5  UNL     1      -2.336  18.725   6.690  1.00  0.00     0.161 HD
HETATM    9  C18 UNL     1      -4.054  18.555   7.959  1.00  0.00     0.177 C 
ENDROOT
BRANCH   5  10
HETATM   10  C2  UNL     1      -1.889  21.782   9.712  1.00  0.00     0.167 C 
HETATM   11  C3  UNL     1      -0.569  22.162  10.163  1.00  0.00    -0.009 C 
BRANCH  10  12
HETATM   12  O2  UNL     1      -2.684  22.850   9.659  1.00  0.00    -0.344 OA
ATOM     13  H2  UNL     1      -3.192  23.039  10.440  1.00  0.00     0.219 HD
ENDBRANCH  10  12
BRANCH  11  14
HETATM   14  C4  UNL     1       0.098  21.387  11.234  1.00  0.00     0.045 C 
BRANCH  14  15
HETATM   15  C5  UNL     1       0.552  22.190  12.414  1.00  0.00    -0.010 C 
HETATM   16  C6  UNL     1       1.353  21.452  13.421  1.00  0.00     0.005 C 
HETATM   17  C7  UNL     1       0.481  20.470  14.205  1.00  0.00     0.000 C 
HETATM   18  C8  UNL     1      -0.367  21.319  15.142  1.00  0.00     0.000 C 
HETATM   19  C9  UNL     1      -0.539  22.726  14.606  1.00  0.00     0.000 C 
HETATM   20  C10 UNL     1      -0.683  22.743  13.096  1.00  0.00     0.005 C 
ENDBRANCH  14  15
ENDBRANCH  11  14
BRANCH  11  21
HETATM   21  C11 UNL     1       0.372  22.603   9.080  1.00  0.00     0.166 C 
BRANCH  21  22
HETATM   22  N3  UNL     1       1.736  22.240   9.193  1.00  0.00    -0.329 N 
HETATM   23  C12 UNL     1       2.803  23.129   9.637  1.00  0.00     0.147 C 
HETATM   24  C13 UNL     1       4.089  22.369   9.429  1.00  0.00     0.144 C 
HETATM   25  N4  UNL     1       3.713  21.024   9.086  1.00  0.00    -0.341 N 
HETATM   26  C14 UNL     1       2.294  20.969   8.888  1.00  0.00     0.318 C 
ATOM     27  H4  UNL     1       4.354  20.235   8.997  1.00  0.00     0.164 HD
HETATM   28  O3  UNL     1       1.723  19.913   8.502  1.00  0.00    -0.247 OA
ENDBRANCH  21  22
ENDBRANCH  11  21
ENDBRANCH   5  10
BRANCH   6  29
HETATM   29  C16 UNL     1      -1.320  18.336   9.548  1.00  0.00     0.104 C 
BRANCH  29  30
HETATM   30  C17 UNL     1      -0.674  17.164   8.933  1.00  0.00     0.171 C 
BRANCH  30  31
HETATM   31  O4  UNL     1      -1.443  16.002   8.913  1.00  0.00    -0.400 OA
ATOM     32  H4  UNL     1      -1.490  15.562   8.073  1.00  0.00     0.209 HD
ENDBRANCH  30  31
ENDBRANCH  29  30
ENDBRANCH   6  29
BRANCH   9  33
HETATM   33  C19 UNL     1      -4.852  18.509   6.652  1.00  0.00     0.039 C 
BRANCH  33  34
HETATM   34  C20 UNL     1      -4.455  17.451   5.705  1.00  0.00    -0.012 C 
HETATM   35  C21 UNL     1      -5.719  16.762   5.220  1.00  0.00     0.005 C 
HETATM   36  C22 UNL     1      -5.327  15.853   4.094  1.00  0.00     0.000 C 
HETATM   37  C23 UNL     1      -3.889  15.999   3.678  1.00  0.00     0.000 C 
HETATM   38  C24 UNL     1      -2.919  15.807   4.806  1.00  0.00     0.000 C 
HETATM   39  C25 UNL     1      -3.366  16.523   6.085  1.00  0.00     0.005 C 
ENDBRANCH  33  34
ENDBRANCH   9  33
TORSDOF 11
ENDMDL
MODEL 2
REMARK VINA RESULT: -8.438374832      1.593      2.207
REMARK  11 active torsions:
REMARK  status: ('A' for Active; 'I' for Inactive)
REMARK    1  A    between atoms: N2_5  and  C2_6 
REMARK    2  A    between atoms: C2_6  and  O2_7 
REMARK    3  A    between atoms: C3_9  and  C4_10 
REMARK    4  A    between atoms: C3_9  and  C11_17 
REMARK    5  A    between atoms: C4_10  and  C5_11 
REMARK    6  A    between atoms: C11_17  and  N3_18 
REMARK    7  A    between atoms: C15_25  and  C16_26 
REMARK    8  A    between atoms: C16_26  and  C17_27 
REMARK    9  A    between atoms: C17_27  and  O4_28 
REMARK   10  A    between atoms: C18_32  and  C19_33 
REMARK   11  A    between atoms: C19_33  and  C20_34 
ROOT
HETATM    1  O1  UNL     1      -6.106  19.644   8.633  1.00  0.00    -0.269 OA
HETATM    2  C1  UNL     1      -4.870  19.609   8.744  1.00  0.00     0.259 C 
HETATM    3  N1  UNL     1      -4.111  20.447   9.633  1.00  0.00    -0.258 N 
ATOM      4  H1  UNL     1      -4.573  20.869  10.438  1.00  0.00     0.190 HD
HETATM    5  N2  UNL     1      -2.716  20.703   9.410  1.00  0.00    -0.219 N 
HETATM    6  C15 UNL     1      -2.042  19.631   8.777  1.00  0.00     0.104 C 
HETATM    7  N5  UNL     1      -2.781  19.068   7.636  1.00  0.00    -0.365 N 
ATOM      8  H5  UNL     1      -2.368  18.990   6.707  1.00  0.00     0.161 HD
HETATM    9  C18 UNL     1      -4.105  18.639   7.911  1.00  0.00     0.177 C 
ENDROOT
BRANCH   5  10
HETATM   10  C2  UNL     1      -2.254  21.954   9.851  1.00  0.00     0.167 C 
HETATM   11  C3  UNL     1      -0.942  22.464  10.185  1.00  0.00    -0.009 C 
BRANCH  10  12
HETATM   12  O2  UNL     1      -3.173  22.906  10.007  1.00  0.00    -0.344 OA
ATOM     13  H2  UNL     1      -3.383  23.149  10.902  1.00  0.00     0.219 HD
ENDBRANCH  10  12
BRANCH  11  14
HETATM   14  C4  UNL     1      -0.054  21.689  11.080  1.00  0.00     0.045 C 
BRANCH  14  15
HETATM   15  C5  UNL     1       0.477  22.443  12.261  1.00  0.00    -0.010 C 
HETATM   16  C6  UNL     1       1.308  21.655  13.203  1.00  0.00     0.005 C 
HETATM   17  C7  UNL     1       0.453  20.668  13.998  1.00  0.00     0.000 C 
HETATM   18  C8  UNL     1      -0.327  21.504  15.003  1.00  0.00     0.000 C 
HETATM   19  C9  UNL     1      -0.492  22.931  14.521  1.00  0.00     0.000 C 
HETATM   20  C10 UNL     1      -0.710  23.000  13.021  1.00  0.00     0.005 C 
ENDBRANCH  14  15
ENDBRANCH  11  14
BRANCH  11  21
HETATM   21  C11 UNL     1      -0.209  23.125   9.054  1.00  0.00     0.166 C 
BRANCH  21  22
HETATM   22  N3  UNL     1       0.134  24.492   9.191  1.00  0.00    -0.329 N 
HETATM   23  C12 UNL     1       1.493  25.005   9.306  1.00  0.00     0.147 C 
HETATM   24  C13 UNL     1       1.357  26.477   9.605  1.00  0.00     0.144 C 
HETATM   25  N4  UNL     1      -0.036  26.797   9.441  1.00  0.00    -0.341 N 
HETATM   26  C14 UNL     1      -0.776  25.583   9.249  1.00  0.00     0.318 C 
ATOM     27  H4  UNL     1      -0.434  27.736   9.459  1.00  0.00     0.164 HD
HETATM   28  O3  UNL     1      -2.033  25.586   9.158  1.00  0.00    -0.247 OA
ENDBRANCH  21  22
ENDBRANCH  11  21
ENDBRANCH   5  10
BRANCH   6  29
HETATM   29  C16 UNL     1      -1.413  18.570   9.582  1.00  0.00     0.104 C 
BRANCH  29  30
HETATM   30  C17 UNL     1      -0.544  17.556   8.963  1.00  0.00     0.171 C 
BRANCH  30  31
HETATM   31  O4  UNL     1      -0.835  16.236   9.303  1.00  0.00    -0.400 OA
ATOM     32  H4  UNL     1      -1.759  16.026   9.361  1.00  0.00     0.209 HD
ENDBRANCH  30  31
ENDBRANCH  29  30
ENDBRANCH   6  29
BRANCH   9  33
HETATM   33  C19 UNL     1      -4.857  18.583   6.578  1.00  0.00     0.039 C 
BRANCH  33  34
HETATM   34  C20 UNL     1      -4.455  17.491   5.671  1.00  0.00    -0.012 C 
HETATM   35  C21 UNL     1      -5.719  16.795   5.193  1.00  0.00     0.005 C 
HETATM   36  C22 UNL     1      -5.318  15.846   4.103  1.00  0.00     0.000 C 
HETATM   37  C23 UNL     1      -3.874  15.968   3.700  1.00  0.00     0.000 C 
HETATM   38  C24 UNL     1      -2.920  15.808   4.847  1.00  0.00     0.000 C 
HETATM   39  C25 UNL     1      -3.378  16.569   6.095  1.00  0.00     0.005 C 
ENDBRANCH  33  34
ENDBRANCH   9  33
TORSDOF 11
ENDMDL
MODEL 3
REMARK VINA RESULT: -8.392313453      1.053      1.147
REMARK  11 active torsions:
REMARK  status: ('A' for Active; 'I' for Inactive)
REMARK    1  A    between atoms: N2_5  and  C2_6 
REMARK    2  A    between atoms: C2_6  and  O2_7 
REMARK    3  A    between atoms: C3_9  and  C4_10 
REMARK    4  A    between atoms: C3_9  and  C11_17 
REMARK    5  A    between atoms: C4_10  and  C5_11 
REMARK    6  A    between atoms: C11_17  and  N3_18 
REMARK    7  A    between atoms: C15_25  and  C16_26 
REMARK    8  A    between atoms: C16_26  and  C17_27 
REMARK    9  A    between atoms: C17_27  and  O4_28 
REMARK   10  A    between atoms: C18_32  and  C19_33 
REMARK   11  A    between atoms: C19_33  and  C20_34 
ROOT
HETATM    1  O1  UNL     1      -5.733  19.727   9.008  1.00  0.00    -0.269 OA
HETATM    2  C1  UNL     1      -4.491  19.718   9.021  1.00  0.00     0.259 C 
HETATM    3  N1  UNL     1      -3.681  20.594   9.824  1.00  0.00    -0.258 N 
ATOM      4  H1  UNL     1      -4.087  21.028  10.653  1.00  0.00     0.190 HD
HETATM    5  N2  UNL     1      -2.314  20.870   9.484  1.00  0.00    -0.219 N 
HETATM    6  C15 UNL     1      -1.671  19.794   8.826  1.00  0.00     0.104 C 
HETATM    7  N5  UNL     1      -2.486  19.187   7.763  1.00  0.00    -0.365 N 
ATOM      8  H5  UNL     1      -2.147  19.093   6.806  1.00  0.00     0.161 HD
HETATM    9  C18 UNL     1      -3.775  18.741   8.154  1.00  0.00     0.177 C 
ENDROOT
BRANCH   5  10
HETATM   10  C2  UNL     1      -1.845  22.141   9.855  1.00  0.00     0.167 C 
HETATM   11  C3  UNL     1      -0.529  22.663  10.151  1.00  0.00    -0.009 C 
BRANCH  10  12
HETATM   12  O2  UNL     1      -2.760  23.103   9.969  1.00  0.00    -0.344 OA
ATOM     13  H2  UNL     1      -3.418  22.985  10.644  1.00  0.00     0.219 HD
ENDBRANCH  10  12
BRANCH  11  14
HETATM   14  C4  UNL     1       0.364  21.933  11.079  1.00  0.00     0.045 C 
BRANCH  14  15
HETATM   15  C5  UNL     1       0.676  22.647  12.358  1.00  0.00    -0.010 C 
HETATM   16  C6  UNL     1       1.463  21.873  13.348  1.00  0.00     0.005 C 
HETATM   17  C7  UNL     1       0.620  20.760  13.972  1.00  0.00     0.000 C 
HETATM   18  C8  UNL     1      -0.350  21.452  14.920  1.00  0.00     0.000 C 
HETATM   19  C9  UNL     1      -0.595  22.889  14.505  1.00  0.00     0.000 C 
HETATM   20  C10 UNL     1      -0.640  23.043  12.996  1.00  0.00     0.005 C 
ENDBRANCH  14  15
ENDBRANCH  11  14
BRANCH  11  21
HETATM   21  C11 UNL     1       0.196  23.262   8.982  1.00  0.00     0.166 C 
BRANCH  21  22
HETATM   22  N3  UNL     1       1.583  23.514   9.115  1.00  0.00    -0.329 N 
HETATM   23  C12 UNL     1       2.162  24.737   9.655  1.00  0.00     0.147 C 
HETATM   24  C13 UNL     1       3.650  24.622   9.438  1.00  0.00     0.144 C 
HETATM   25  N4  UNL     1       3.892  23.277   8.989  1.00  0.00    -0.341 N 
HETATM   26  C14 UNL     1       2.634  22.634   8.740  1.00  0.00     0.318 C 
ATOM     27  H4  UNL     1       4.810  22.850   8.866  1.00  0.00     0.164 HD
HETATM   28  O3  UNL     1       2.575  21.468   8.262  1.00  0.00    -0.247 OA
ENDBRANCH  21  22
ENDBRANCH  11  21
ENDBRANCH   5  10
BRANCH   6  29
HETATM   29  C16 UNL     1      -0.957  18.768   9.605  1.00  0.00     0.104 C 
BRANCH  29  30
HETATM   30  C17 UNL     1       0.505  18.621   9.514  1.00  0.00     0.171 C 
BRANCH  30  31
HETATM   31  O4  UNL     1       1.061  18.948   8.279  1.00  0.00    -0.400 OA
ATOM     32  H4  UNL     1       1.307  18.209   7.736  1.00  0.00     0.209 HD
ENDBRANCH  30  31
ENDBRANCH  29  30
ENDBRANCH   6  29
BRANCH   9  33
HETATM   33  C19 UNL     1      -4.629  18.635   6.887  1.00  0.00     0.039 C 
BRANCH  33  34
HETATM   34  C20 UNL     1      -4.252  17.551   5.959  1.00  0.00    -0.012 C 
HETATM   35  C21 UNL     1      -5.533  16.934   5.422  1.00  0.00     0.005 C 
HETATM   36  C22 UNL     1      -5.145  15.998   4.316  1.00  0.00     0.000 C 
HETATM   37  C23 UNL     1      -3.685  16.060   3.961  1.00  0.00     0.000 C 
HETATM   38  C24 UNL     1      -2.776  15.820   5.130  1.00  0.00     0.000 C 
HETATM   39  C25 UNL     1      -3.236  16.565   6.387  1.00  0.00     0.005 C 
ENDBRANCH  33  34
ENDBRANCH   9  33
TORSDOF 11
ENDMDL
MODEL 4
REMARK VINA RESULT: -8.343417061      0.914      1.076
REMARK  11 active torsions:
REMARK  status: ('A' for Active; 'I' for Inactive)
REMARK    1  A    between atoms: N2_5  and  C2_6 
REMARK    2  A    between atoms: C2_6  and  O2_7 
REMARK    3  A    between atoms: C3_9  and  C4_10 
REMARK    4  A    between atoms: C3_9  and  C11_17 
REMARK    5  A    between atoms: C4_10  and  C5_11 
REMARK    6  A    between atoms: C11_17  and  N3_18 
REMARK    7  A    between atoms: C15_25  and  C16_26 
REMARK    8  A    between atoms: C16_26  and  C17_27 
REMARK    9  A    between atoms: C17_27  and  O4_28 
REMARK   10  A    between atoms: C18_32  and  C19_33 
REMARK   11  A    between atoms: C19_33  and  C20_34 
ROOT
HETATM    1  O1  UNL     1      -5.969  19.733   8.690  1.00  0.00    -0.269 OA
HETATM    2  C1  UNL     1      -4.735  19.620   8.773  1.00  0.00     0.259 C 
HETATM    3  N1  UNL     1      -3.901  20.432   9.618  1.00  0.00    -0.258 N 
ATOM      4  H1  UNL     1      -4.315  20.905  10.422  1.00  0.00     0.190 HD
HETATM    5  N2  UNL     1      -2.499  20.590   9.356  1.00  0.00    -0.219 N 
HETATM    6  C15 UNL     1      -1.912  19.459   8.739  1.00  0.00     0.104 C 
HETATM    7  N5  UNL     1      -2.713  18.914   7.634  1.00  0.00    -0.365 N 
ATOM      8  H5  UNL     1      -2.329  18.783   6.698  1.00  0.00     0.161 HD
HETATM    9  C18 UNL     1      -4.055  18.580   7.952  1.00  0.00     0.177 C 
ENDROOT
BRANCH   5  10
HETATM   10  C2  UNL     1      -1.947  21.820   9.749  1.00  0.00     0.167 C 
HETATM   11  C3  UNL     1      -0.627  22.218  10.188  1.00  0.00    -0.009 C 
BRANCH  10  12
HETATM   12  O2  UNL     1      -2.763  22.872   9.729  1.00  0.00    -0.344 OA
ATOM     13  H2  UNL     1      -3.126  23.113   8.884  1.00  0.00     0.219 HD
ENDBRANCH  10  12
BRANCH  11  14
HETATM   14  C4  UNL     1       0.071  21.437  11.233  1.00  0.00     0.045 C 
BRANCH  14  15
HETATM   15  C5  UNL     1       0.519  22.225  12.426  1.00  0.00    -0.010 C 
HETATM   16  C6  UNL     1       1.346  21.484  13.409  1.00  0.00     0.005 C 
HETATM   17  C7  UNL     1       0.505  20.467  14.180  1.00  0.00     0.000 C 
HETATM   18  C8  UNL     1      -0.352  21.276  15.144  1.00  0.00     0.000 C 
HETATM   19  C9  UNL     1      -0.561  22.690  14.640  1.00  0.00     0.000 C 
HETATM   20  C10 UNL     1      -0.721  22.736  13.132  1.00  0.00     0.005 C 
ENDBRANCH  14  15
ENDBRANCH  11  14
BRANCH  11  21
HETATM   21  C11 UNL     1       0.288  22.698   9.099  1.00  0.00     0.166 C 
BRANCH  21  22
HETATM   22  N3  UNL     1       1.667  22.395   9.205  1.00  0.00    -0.329 N 
HETATM   23  C12 UNL     1       2.275  21.126   8.829  1.00  0.00     0.147 C 
HETATM   24  C13 UNL     1       3.712  21.205   9.277  1.00  0.00     0.144 C 
HETATM   25  N4  UNL     1       3.933  22.565   9.690  1.00  0.00    -0.341 N 
HETATM   26  C14 UNL     1       2.680  23.262   9.699  1.00  0.00     0.318 C 
ATOM     27  H4  UNL     1       4.837  22.969   9.938  1.00  0.00     0.164 HD
HETATM   28  O3  UNL     1       2.592  24.454  10.100  1.00  0.00    -0.247 OA
ENDBRANCH  21  22
ENDBRANCH  11  21
ENDBRANCH   5  10
BRANCH   6  29
HETATM   29  C16 UNL     1      -1.332  18.383   9.561  1.00  0.00     0.104 C 
BRANCH  29  30
HETATM   30  C17 UNL     1      -0.674  17.221   8.942  1.00  0.00     0.171 C 
BRANCH  30  31
HETATM   31  O4  UNL     1      -1.434  16.054   8.908  1.00  0.00    -0.400 OA
ATOM     32  H4  UNL     1      -1.014  15.307   8.499  1.00  0.00     0.209 HD
ENDBRANCH  30  31
ENDBRANCH  29  30
ENDBRANCH   6  29
BRANCH   9  33
HETATM   33  C19 UNL     1      -4.842  18.536   6.638  1.00  0.00     0.039 C 
BRANCH  33  34
HETATM   34  C20 UNL     1      -4.449  17.466   5.702  1.00  0.00    -0.012 C 
HETATM   35  C21 UNL     1      -5.717  16.788   5.211  1.00  0.00     0.005 C 
HETATM   36  C22 UNL     1      -5.325  15.866   4.095  1.00  0.00     0.000 C 
HETATM   37  C23 UNL     1      -3.883  15.994   3.689  1.00  0.00     0.000 C 
HETATM   38  C24 UNL     1      -2.924  15.799   4.826  1.00  0.00     0.000 C 
HETATM   39  C25 UNL     1      -3.374  16.529   6.097  1.00  0.00     0.005 C 
ENDBRANCH  33  34
ENDBRANCH   9  33
TORSDOF 11
ENDMDL
MODEL 5
REMARK VINA RESULT: -7.971938279      4.354      8.292
REMARK  11 active torsions:
REMARK  status: ('A' for Active; 'I' for Inactive)
REMARK    1  A    between atoms: N2_5  and  C2_6 
REMARK    2  A    between atoms: C2_6  and  O2_7 
REMARK    3  A    between atoms: C3_9  and  C4_10 
REMARK    4  A    between atoms: C3_9  and  C11_17 
REMARK    5  A    between atoms: C4_10  and  C5_11 
REMARK    6  A    between atoms: C11_17  and  N3_18 
REMARK    7  A    between atoms: C15_25  and  C16_26 
REMARK    8  A    between atoms: C16_26  and  C17_27 
REMARK    9  A    between atoms: C17_27  and  O4_28 
REMARK   10  A    between atoms: C18_32  and  C19_33 
REMARK   11  A    between atoms: C19_33  and  C20_34 
ROOT
HETATM    1  O1  UNL     1      -7.832  21.140   4.982  1.00  0.00    -0.269 OA
HETATM    2  C1  UNL     1      -7.469  21.262   6.164  1.00  0.00     0.259 C 
HETATM    3  N1  UNL     1      -6.264  20.695   6.706  1.00  0.00    -0.258 N 
ATOM      4  H1  UNL     1      -5.499  20.452   6.076  1.00  0.00     0.190 HD
HETATM    5  N2  UNL     1      -6.113  20.464   8.115  1.00  0.00    -0.219 N 
HETATM    6  C15 UNL     1      -6.826  21.389   8.915  1.00  0.00     0.104 C 
HETATM    7  N5  UNL     1      -8.200  21.630   8.448  1.00  0.00    -0.365 N 
ATOM      8  H5  UNL     1      -9.009  21.508   9.056  1.00  0.00     0.161 HD
HETATM    9  C18 UNL     1      -8.327  22.045   7.097  1.00  0.00     0.177 C 
ENDROOT
BRANCH   5  10
HETATM   10  C2  UNL     1      -5.296  19.377   8.463  1.00  0.00     0.167 C 
HETATM   11  C3  UNL     1      -4.618  18.360   7.690  1.00  0.00    -0.009 C 
BRANCH  10  12
HETATM   12  O2  UNL     1      -5.061  19.201   9.763  1.00  0.00    -0.344 OA
ATOM     13  H2  UNL     1      -5.356  18.380  10.140  1.00  0.00     0.219 HD
ENDBRANCH  10  12
BRANCH  11  14
HETATM   14  C4  UNL     1      -5.350  17.623   6.634  1.00  0.00     0.045 C 
BRANCH  14  15
HETATM   15  C5  UNL     1      -4.711  17.649   5.280  1.00  0.00    -0.010 C 
HETATM   16  C6  UNL     1      -5.635  17.477   4.132  1.00  0.00     0.005 C 
HETATM   17  C7  UNL     1      -6.152  16.040   4.053  1.00  0.00     0.000 C 
HETATM   18  C8  UNL     1      -4.984  15.201   3.553  1.00  0.00     0.000 C 
HETATM   19  C9  UNL     1      -3.657  15.854   3.882  1.00  0.00     0.000 C 
HETATM   20  C10 UNL     1      -3.682  16.537   5.236  1.00  0.00     0.005 C 
ENDBRANCH  14  15
ENDBRANCH  11  14
BRANCH  11  21
HETATM   21  C11 UNL     1      -3.203  18.687   7.309  1.00  0.00     0.166 C 
BRANCH  21  22
HETATM   22  N3  UNL     1      -2.178  18.396   8.240  1.00  0.00    -0.329 N 
HETATM   23  C12 UNL     1      -1.533  19.374   9.106  1.00  0.00     0.147 C 
HETATM   24  C13 UNL     1      -0.400  18.646   9.784  1.00  0.00     0.144 C 
HETATM   25  N4  UNL     1      -0.562  17.254   9.459  1.00  0.00    -0.341 N 
HETATM   26  C14 UNL     1      -1.601  17.119   8.480  1.00  0.00     0.318 C 
ATOM     27  H4  UNL     1      -0.023  16.486   9.860  1.00  0.00     0.164 HD
HETATM   28  O3  UNL     1      -1.884  16.001   7.971  1.00  0.00    -0.247 OA
ENDBRANCH  21  22
ENDBRANCH  11  21
ENDBRANCH   5  10
BRANCH   6  29
HETATM   29  C16 UNL     1      -6.184  22.640   9.355  1.00  0.00     0.104 C 
BRANCH  29  30
HETATM   30  C17 UNL     1      -6.634  23.343  10.567  1.00  0.00     0.171 C 
BRANCH  30  31
HETATM   31  O4  UNL     1      -7.210  22.535  11.545  1.00  0.00    -0.400 OA
ATOM     32  H4  UNL     1      -8.137  22.680  11.696  1.00  0.00     0.209 HD
ENDBRANCH  30  31
ENDBRANCH  29  30
ENDBRANCH   6  29
BRANCH   9  33
HETATM   33  C19 UNL     1      -9.764  21.748   6.658  1.00  0.00     0.039 C 
BRANCH  33  34
HETATM   34  C20 UNL     1     -10.567  22.928   6.282  1.00  0.00    -0.012 C 
HETATM   35  C21 UNL     1     -11.285  23.417   7.529  1.00  0.00     0.005 C 
HETATM   36  C22 UNL     1     -11.908  24.739   7.193  1.00  0.00     0.000 C 
HETATM   37  C23 UNL     1     -11.523  25.256   5.834  1.00  0.00     0.000 C 
HETATM   38  C24 UNL     1     -11.821  24.293   4.724  1.00  0.00     0.000 C 
HETATM   39  C25 UNL     1     -11.422  22.856   5.077  1.00  0.00     0.005 C 
ENDBRANCH  33  34
ENDBRANCH   9  33
TORSDOF 11
ENDMDL
