MODEL 1
REMARK VINA RESULT: -7.258657323      0.000      0.000
REMARK  10 active torsions:
REMARK  status: ('A' for Active; 'I' for Inactive)
REMARK    1  A    between atoms: C3_3  and  N1_4 
REMARK    2  A    between atoms: N1_4  and  C4_6 
REMARK    3  A    between atoms: C4_6  and  O1_7 
REMARK    4  A    between atoms: C4_6  and  C5_9 
REMARK    5  A    between atoms: C5_9  and  C6_10 
REMARK    6  A    between atoms: C5_9  and  C17_29 
REMARK       I    between atoms: C6_10  and  N2_12 
REMARK    7  A    between atoms: N2_12  and  C7_14 
REMARK    8  A    between atoms: C7_14  and  C9_16 
REMARK    9  A    between atoms: C9_16  and  C10_18 
REMARK       I    between atoms: C10_18  and  N3_20 
REMARK   10  A    between atoms: N3_20  and  C11_22 
ROOT
HETATM    1  C1  UNL     1      -4.954 -23.636  11.468  1.00  0.00     0.099 C 
HETATM    2  C2  UNL     1      -4.904 -22.417  11.428  1.00  0.00    -0.157 C 
HETATM    3  C3  UNL     1      -4.809 -20.931  11.399  1.00  0.00     0.080 C 
HETATM    4  C20 UNL     1      -5.783 -20.355  12.473  1.00  0.00     0.043 C 
HETATM    5  C21 UNL     1      -7.047 -21.085  12.613  1.00  0.00     0.003 C 
HETATM    6  C22 UNL     1      -8.273 -20.325  12.201  1.00  0.00     0.000 C 
HETATM    7  C23 UNL     1      -8.103 -19.638  10.857  1.00  0.00     0.000 C 
HETATM    8  C24 UNL     1      -7.869 -20.659   9.800  1.00  0.00     0.000 C 
HETATM    9  C25 UNL     1      -6.514 -21.124   9.528  1.00  0.00     0.003 C 
HETATM   10  C26 UNL     1      -5.340 -20.403  10.106  1.00  0.00     0.043 C 
ENDROOT
BRANCH   3  11
HETATM   11  N1  UNL     1      -3.533 -20.573  11.808  1.00  0.00    -0.378 N 
ATOM     12  H1  UNL     1      -3.504 -20.285  12.787  1.00  0.00     0.157 HD
BRANCH  11  13
HETATM   13  C4  UNL     1      -2.323 -20.515  11.218  1.00  0.00     0.228 C 
BRANCH  13  14
HETATM   14  O1  UNL     1      -2.013 -19.237  10.648  1.00  0.00    -0.376 OA
ATOM     15  H1  UNL     1      -1.112 -18.966  10.776  1.00  0.00     0.212 HD
ENDBRANCH  13  14
BRANCH  13  16
HETATM   16  C5  UNL     1      -1.119 -20.857  12.037  1.00  0.00     0.129 C 
BRANCH  16  17
HETATM   17  C6  UNL     1      -0.198 -19.686  12.255  1.00  0.00     0.227 C 
HETATM   18  O2  UNL     1      -0.267 -19.023  13.312  1.00  0.00    -0.273 OA
HETATM   19  N2  UNL     1       0.755 -19.315  11.280  1.00  0.00    -0.349 N 
ATOM     20  H2  UNL     1       0.778 -19.876  10.428  1.00  0.00     0.163 HD
BRANCH  19  21
HETATM   21  C7  UNL     1       1.695 -18.231  11.360  1.00  0.00     0.160 C 
HETATM   22  C8  UNL     1       1.164 -16.990  10.636  1.00  0.00     0.041 C 
BRANCH  21  23
HETATM   23  C9  UNL     1       2.975 -18.561  10.681  1.00  0.00     0.238 C 
HETATM   24  O3  UNL     1       3.495 -17.748   9.861  1.00  0.00    -0.285 OA
BRANCH  23  25
HETATM   25  C10 UNL     1       3.654 -19.810  10.946  1.00  0.00     0.289 C 
HETATM   26  O4  UNL     1       3.189 -20.587  11.804  1.00  0.00    -0.264 OA
HETATM   27  N3  UNL     1       4.844 -20.183  10.250  1.00  0.00    -0.350 N 
ATOM     28  H3  UNL     1       5.214 -19.541   9.549  1.00  0.00     0.163 HD
BRANCH  27  29
HETATM   29  C11 UNL     1       5.553 -21.418  10.483  1.00  0.00     0.088 C 
HETATM   30  C12 UNL     1       6.699 -21.238  11.445  1.00  0.00     0.055 C 
HETATM   31  C13 UNL     1       8.017 -21.502  10.785  1.00  0.00     0.274 C 
HETATM   32  N4  UNL     1       8.024 -22.920  10.416  1.00  0.00     0.084 N 
HETATM   33  C14 UNL     1       7.996 -23.750  11.613  1.00  0.00     0.309 C 
HETATM   34  C15 UNL     1       6.918 -23.215   9.541  1.00  0.00     0.274 C 
HETATM   35  C16 UNL     1       6.054 -22.042   9.214  1.00  0.00     0.055 C 
ENDBRANCH  27  29
ENDBRANCH  23  25
ENDBRANCH  21  23
ENDBRANCH  19  21
ENDBRANCH  16  17
BRANCH  16  36
HETATM   36  C17 UNL     1      -0.390 -21.985  11.335  1.00  0.00    -0.006 C 
HETATM   37  C18 UNL     1       0.451 -22.799  12.274  1.00  0.00     0.010 C 
HETATM   38  C19 UNL     1      -1.386 -22.932  10.671  1.00  0.00     0.010 C 
ENDBRANCH  16  36
ENDBRANCH  13  16
ENDBRANCH  11  13
ENDBRANCH   3  11
TORSDOF 10
ENDMDL
MODEL 2
REMARK VINA RESULT: -7.082561777      3.119      5.453
REMARK  10 active torsions:
REMARK  status: ('A' for Active; 'I' for Inactive)
REMARK    1  A    between atoms: C3_3  and  N1_4 
REMARK    2  A    between atoms: N1_4  and  C4_6 
REMARK    3  A    between atoms: C4_6  and  O1_7 
REMARK    4  A    between atoms: C4_6  and  C5_9 
REMARK    5  A    between atoms: C5_9  and  C6_10 
REMARK    6  A    between atoms: C5_9  and  C17_29 
REMARK       I    between atoms: C6_10  and  N2_12 
REMARK    7  A    between atoms: N2_12  and  C7_14 
REMARK    8  A    between atoms: C7_14  and  C9_16 
REMARK    9  A    between atoms: C9_16  and  C10_18 
REMARK       I    between atoms: C10_18  and  N3_20 
REMARK   10  A    between atoms: N3_20  and  C11_22 
ROOT
HETATM    1  C1  UNL     1       0.257 -22.771  15.518  1.00  0.00     0.099 C 
HETATM    2  C2  UNL     1       0.576 -23.065  14.377  1.00  0.00    -0.157 C 
HETATM    3  C3  UNL     1       0.947 -23.392  12.973  1.00  0.00     0.080 C 
HETATM    4  C20 UNL     1      -0.066 -24.446  12.427  1.00  0.00     0.043 C 
HETATM    5  C21 UNL     1      -0.499 -25.448  13.406  1.00  0.00     0.003 C 
HETATM    6  C22 UNL     1      -0.058 -26.852  13.120  1.00  0.00     0.000 C 
HETATM    7  C23 UNL     1       1.417 -26.935  12.764  1.00  0.00     0.000 C 
HETATM    8  C24 UNL     1       2.236 -26.466  13.915  1.00  0.00     0.000 C 
HETATM    9  C25 UNL     1       2.537 -25.046  14.059  1.00  0.00     0.003 C 
HETATM   10  C26 UNL     1       2.263 -24.100  12.937  1.00  0.00     0.043 C 
ENDROOT
BRANCH   3  11
HETATM   11  N1  UNL     1       0.766 -22.253  12.203  1.00  0.00    -0.378 N 
ATOM     12  H1  UNL     1       0.139 -22.411  11.414  1.00  0.00     0.157 HD
BRANCH  11  13
HETATM   13  C4  UNL     1       1.224 -20.986  12.251  1.00  0.00     0.228 C 
BRANCH  13  14
HETATM   14  O1  UNL     1       2.622 -20.860  11.960  1.00  0.00    -0.376 OA
ATOM     15  H1  UNL     1       2.920 -21.421  11.254  1.00  0.00     0.212 HD
ENDBRANCH  13  14
BRANCH  13  16
HETATM   16  C5  UNL     1       0.570 -19.963  11.377  1.00  0.00     0.129 C 
BRANCH  16  17
HETATM   17  C6  UNL     1       1.438 -18.761  11.117  1.00  0.00     0.227 C 
HETATM   18  O2  UNL     1       1.209 -17.684  11.708  1.00  0.00    -0.273 OA
HETATM   19  N2  UNL     1       2.520 -18.824  10.211  1.00  0.00    -0.349 N 
ATOM     20  H2  UNL     1       2.672 -19.718   9.744  1.00  0.00     0.163 HD
BRANCH  19  21
HETATM   21  C7  UNL     1       3.428 -17.762   9.876  1.00  0.00     0.160 C 
HETATM   22  C8  UNL     1       2.947 -16.999   8.639  1.00  0.00     0.041 C 
BRANCH  21  23
HETATM   23  C9  UNL     1       4.774 -18.281   9.516  1.00  0.00     0.238 C 
HETATM   24  O3  UNL     1       5.471 -17.697   8.635  1.00  0.00    -0.285 OA
BRANCH  23  25
HETATM   25  C10 UNL     1       5.313 -19.456  10.163  1.00  0.00     0.289 C 
HETATM   26  O4  UNL     1       5.166 -19.595  11.394  1.00  0.00    -0.264 OA
HETATM   27  N3  UNL     1       6.011 -20.465   9.433  1.00  0.00    -0.350 N 
ATOM     28  H3  UNL     1       6.124 -20.341   8.427  1.00  0.00     0.163 HD
BRANCH  27  29
HETATM   29  C11 UNL     1       6.565 -21.651  10.038  1.00  0.00     0.088 C 
HETATM   30  C12 UNL     1       8.070 -21.599  10.108  1.00  0.00     0.055 C 
HETATM   31  C13 UNL     1       8.696 -22.668   9.267  1.00  0.00     0.274 C 
HETATM   32  N4  UNL     1       8.313 -23.949   9.866  1.00  0.00     0.084 N 
HETATM   33  C14 UNL     1       8.902 -24.079  11.192  1.00  0.00     0.309 C 
HETATM   34  C15 UNL     1       6.878 -24.073   9.908  1.00  0.00     0.274 C 
HETATM   35  C16 UNL     1       6.137 -22.908   9.341  1.00  0.00     0.055 C 
ENDBRANCH  27  29
ENDBRANCH  23  25
ENDBRANCH  21  23
ENDBRANCH  19  21
ENDBRANCH  16  17
BRANCH  16  36
HETATM   36  C17 UNL     1      -0.727 -19.550  12.044  1.00  0.00    -0.006 C 
HETATM   37  C18 UNL     1      -1.909 -20.319  11.530  1.00  0.00     0.010 C 
HETATM   38  C19 UNL     1      -0.649 -19.781  13.550  1.00  0.00     0.010 C 
ENDBRANCH  16  36
ENDBRANCH  13  16
ENDBRANCH  11  13
ENDBRANCH   3  11
TORSDOF 10
ENDMDL
MODEL 3
REMARK VINA RESULT: -6.801850178      1.818     10.204
REMARK  10 active torsions:
REMARK  status: ('A' for Active; 'I' for Inactive)
REMARK    1  A    between atoms: C3_3  and  N1_4 
REMARK    2  A    between atoms: N1_4  and  C4_6 
REMARK    3  A    between atoms: C4_6  and  O1_7 
REMARK    4  A    between atoms: C4_6  and  C5_9 
REMARK    5  A    between atoms: C5_9  and  C6_10 
REMARK    6  A    between atoms: C5_9  and  C17_29 
REMARK       I    between atoms: C6_10  and  N2_12 
REMARK    7  A    between atoms: N2_12  and  C7_14 
REMARK    8  A    between atoms: C7_14  and  C9_16 
REMARK    9  A    between atoms: C9_16  and  C10_18 
REMARK       I    between atoms: C10_18  and  N3_20 
REMARK   10  A    between atoms: N3_20  and  C11_22 
ROOT
HETATM    1  C1  UNL     1       3.440 -22.829  12.412  1.00  0.00     0.099 C 
HETATM    2  C2  UNL     1       4.044 -21.842  12.026  1.00  0.00    -0.157 C 
HETATM    3  C3  UNL     1       4.747 -20.619  11.549  1.00  0.00     0.080 C 
HETATM    4  C20 UNL     1       5.182 -20.847  10.068  1.00  0.00     0.043 C 
HETATM    5  C21 UNL     1       5.624 -22.210   9.759  1.00  0.00     0.003 C 
HETATM    6  C22 UNL     1       7.074 -22.345   9.402  1.00  0.00     0.000 C 
HETATM    7  C23 UNL     1       7.981 -21.608  10.373  1.00  0.00     0.000 C 
HETATM    8  C24 UNL     1       7.830 -22.187  11.735  1.00  0.00     0.000 C 
HETATM    9  C25 UNL     1       6.782 -21.693  12.622  1.00  0.00     0.003 C 
HETATM   10  C26 UNL     1       6.037 -20.443  12.283  1.00  0.00     0.043 C 
ENDROOT
BRANCH   3  11
HETATM   11  N1  UNL     1       3.831 -19.578  11.523  1.00  0.00    -0.378 N 
ATOM     12  H1  UNL     1       4.006 -18.886  12.253  1.00  0.00     0.157 HD
BRANCH  11  13
HETATM   13  C4  UNL     1       2.765 -19.264  10.760  1.00  0.00     0.228 C 
BRANCH  13  14
HETATM   14  O1  UNL     1       1.961 -20.392  10.391  1.00  0.00    -0.376 OA
ATOM     15  H1  UNL     1       2.050 -20.647   9.481  1.00  0.00     0.212 HD
ENDBRANCH  13  14
BRANCH  13  16
HETATM   16  C5  UNL     1       1.784 -18.267  11.291  1.00  0.00     0.129 C 
BRANCH  16  17
HETATM   17  C6  UNL     1       0.487 -18.890  11.735  1.00  0.00     0.227 C 
HETATM   18  O2  UNL     1      -0.595 -18.500  11.245  1.00  0.00    -0.273 OA
HETATM   19  N2  UNL     1       0.464 -19.919  12.703  1.00  0.00    -0.349 N 
ATOM     20  H2  UNL     1       1.365 -20.207  13.083  1.00  0.00     0.163 HD
BRANCH  19  21
HETATM   21  C7  UNL     1      -0.694 -20.602  13.209  1.00  0.00     0.160 C 
HETATM   22  C8  UNL     1      -0.371 -21.335  14.515  1.00  0.00     0.041 C 
BRANCH  21  23
HETATM   23  C9  UNL     1      -1.163 -21.658  12.275  1.00  0.00     0.238 C 
HETATM   24  O3  UNL     1      -0.346 -22.241  11.504  1.00  0.00    -0.285 OA
BRANCH  23  25
HETATM   25  C10 UNL     1      -2.556 -22.042  12.229  1.00  0.00     0.289 C 
HETATM   26  O4  UNL     1      -2.854 -23.253  12.183  1.00  0.00    -0.264 OA
HETATM   27  N3  UNL     1      -3.607 -21.074  12.236  1.00  0.00    -0.350 N 
ATOM     28  H3  UNL     1      -3.351 -20.087  12.276  1.00  0.00     0.163 HD
BRANCH  27  29
HETATM   29  C11 UNL     1      -5.007 -21.413  12.191  1.00  0.00     0.088 C 
HETATM   30  C12 UNL     1      -5.530 -21.468  10.778  1.00  0.00     0.055 C 
HETATM   31  C13 UNL     1      -6.566 -20.415  10.534  1.00  0.00     0.274 C 
HETATM   32  N4  UNL     1      -7.706 -20.743  11.394  1.00  0.00     0.084 N 
HETATM   33  C14 UNL     1      -8.303 -22.004  10.977  1.00  0.00     0.309 C 
HETATM   34  C15 UNL     1      -7.297 -20.781  12.775  1.00  0.00     0.274 C 
HETATM   35  C16 UNL     1      -5.853 -20.478  13.004  1.00  0.00     0.055 C 
ENDBRANCH  27  29
ENDBRANCH  23  25
ENDBRANCH  21  23
ENDBRANCH  19  21
ENDBRANCH  16  17
BRANCH  16  36
HETATM   36  C17 UNL     1       1.538 -17.240  10.204  1.00  0.00    -0.006 C 
HETATM   37  C18 UNL     1       1.306 -15.864  10.755  1.00  0.00     0.010 C 
HETATM   38  C19 UNL     1       2.737 -17.163   9.263  1.00  0.00     0.010 C 
ENDBRANCH  16  36
ENDBRANCH  13  16
ENDBRANCH  11  13
ENDBRANCH   3  11
TORSDOF 10
ENDMDL
MODEL 4
REMARK VINA RESULT: -6.783148754      4.686      9.240
REMARK  10 active torsions:
REMARK  status: ('A' for Active; 'I' for Inactive)
REMARK    1  A    between atoms: C3_3  and  N1_4 
REMARK    2  A    between atoms: N1_4  and  C4_6 
REMARK    3  A    between atoms: C4_6  and  O1_7 
REMARK    4  A    between atoms: C4_6  and  C5_9 
REMARK    5  A    between atoms: C5_9  and  C6_10 
REMARK    6  A    between atoms: C5_9  and  C17_29 
REMARK       I    between atoms: C6_10  and  N2_12 
REMARK    7  A    between atoms: N2_12  and  C7_14 
REMARK    8  A    between atoms: C7_14  and  C9_16 
REMARK    9  A    between atoms: C9_16  and  C10_18 
REMARK       I    between atoms: C10_18  and  N3_20 
REMARK   10  A    between atoms: N3_20  and  C11_22 
ROOT
HETATM    1  C1  UNL     1       6.034 -21.188   8.935  1.00  0.00     0.099 C 
HETATM    2  C2  UNL     1       5.781 -20.640   9.996  1.00  0.00    -0.157 C 
HETATM    3  C3  UNL     1       5.497 -19.995  11.307  1.00  0.00     0.080 C 
HETATM    4  C20 UNL     1       4.163 -20.582  11.867  1.00  0.00     0.043 C 
HETATM    5  C21 UNL     1       3.137 -20.850  10.855  1.00  0.00     0.003 C 
HETATM    6  C22 UNL     1       1.908 -19.995  10.950  1.00  0.00     0.000 C 
HETATM    7  C23 UNL     1       2.239 -18.522  11.117  1.00  0.00     0.000 C 
HETATM    8  C24 UNL     1       2.992 -18.041   9.927  1.00  0.00     0.000 C 
HETATM    9  C25 UNL     1       4.444 -18.175   9.884  1.00  0.00     0.003 C 
HETATM   10  C26 UNL     1       5.203 -18.542  11.117  1.00  0.00     0.043 C 
ENDROOT
BRANCH   3  11
HETATM   11  N1  UNL     1       6.487 -20.378  12.200  1.00  0.00    -0.378 N 
ATOM     12  H1  UNL     1       6.957 -19.580  12.627  1.00  0.00     0.157 HD
BRANCH  11  13
HETATM   13  C4  UNL     1       6.975 -21.557  12.635  1.00  0.00     0.228 C 
BRANCH  13  14
HETATM   14  O1  UNL     1       6.123 -22.230  13.571  1.00  0.00    -0.376 OA
ATOM     15  H1  UNL     1       5.238 -22.369  13.255  1.00  0.00     0.212 HD
ENDBRANCH  13  14
BRANCH  13  16
HETATM   16  C5  UNL     1       7.308 -22.603  11.619  1.00  0.00     0.129 C 
BRANCH  16  17
HETATM   17  C6  UNL     1       6.807 -23.973  11.992  1.00  0.00     0.227 C 
HETATM   18  O2  UNL     1       7.598 -24.827  12.446  1.00  0.00    -0.273 OA
HETATM   19  N2  UNL     1       5.446 -24.319  11.838  1.00  0.00    -0.349 N 
ATOM     20  H2  UNL     1       4.832 -23.598  11.460  1.00  0.00     0.163 HD
BRANCH  19  21
HETATM   21  C7  UNL     1       4.834 -25.580  12.158  1.00  0.00     0.160 C 
HETATM   22  C8  UNL     1       4.806 -26.501  10.936  1.00  0.00     0.041 C 
BRANCH  21  23
HETATM   23  C9  UNL     1       3.412 -25.416  12.557  1.00  0.00     0.238 C 
HETATM   24  O3  UNL     1       2.553 -26.291  12.242  1.00  0.00    -0.285 OA
BRANCH  23  25
HETATM   25  C10 UNL     1       2.981 -24.261  13.313  1.00  0.00     0.289 C 
HETATM   26  O4  UNL     1       3.799 -23.677  14.052  1.00  0.00    -0.264 OA
HETATM   27  N3  UNL     1       1.643 -23.767  13.238  1.00  0.00    -0.350 N 
ATOM     28  H3  UNL     1       0.984 -24.252  12.629  1.00  0.00     0.163 HD
BRANCH  27  29
HETATM   29  C11 UNL     1       1.172 -22.620  13.975  1.00  0.00     0.088 C 
HETATM   30  C12 UNL     1       0.642 -23.000  15.333  1.00  0.00     0.055 C 
HETATM   31  C13 UNL     1      -0.823 -22.714  15.451  1.00  0.00     0.274 C 
HETATM   32  N4  UNL     1      -0.974 -21.260  15.357  1.00  0.00     0.084 N 
HETATM   33  C14 UNL     1      -0.341 -20.614  16.499  1.00  0.00     0.309 C 
HETATM   34  C15 UNL     1      -0.433 -20.780  14.110  1.00  0.00     0.274 C 
HETATM   35  C16 UNL     1       0.129 -21.843  13.226  1.00  0.00     0.055 C 
ENDBRANCH  27  29
ENDBRANCH  23  25
ENDBRANCH  21  23
ENDBRANCH  19  21
ENDBRANCH  16  17
BRANCH  16  36
HETATM   36  C17 UNL     1       8.814 -22.615  11.448  1.00  0.00    -0.006 C 
HETATM   37  C18 UNL     1       9.265 -21.810  10.265  1.00  0.00     0.010 C 
HETATM   38  C19 UNL     1       9.495 -22.036  12.685  1.00  0.00     0.010 C 
ENDBRANCH  16  36
ENDBRANCH  13  16
ENDBRANCH  11  13
ENDBRANCH   3  11
TORSDOF 10
ENDMDL
MODEL 5
REMARK VINA RESULT: -6.652582702      2.475      5.547
REMARK  10 active torsions:
REMARK  status: ('A' for Active; 'I' for Inactive)
REMARK    1  A    between atoms: C3_3  and  N1_4 
REMARK    2  A    between atoms: N1_4  and  C4_6 
REMARK    3  A    between atoms: C4_6  and  O1_7 
REMARK    4  A    between atoms: C4_6  and  C5_9 
REMARK    5  A    between atoms: C5_9  and  C6_10 
REMARK    6  A    between atoms: C5_9  and  C17_29 
REMARK       I    between atoms: C6_10  and  N2_12 
REMARK    7  A    between atoms: N2_12  and  C7_14 
REMARK    8  A    between atoms: C7_14  and  C9_16 
REMARK    9  A    between atoms: C9_16  and  C10_18 
REMARK       I    between atoms: C10_18  and  N3_20 
REMARK   10  A    between atoms: N3_20  and  C11_22 
ROOT
HETATM    1  C1  UNL     1      -0.504 -20.451  14.253  1.00  0.00     0.099 C 
HETATM    2  C2  UNL     1      -0.508 -20.574  13.039  1.00  0.00    -0.157 C 
HETATM    3  C3  UNL     1      -0.492 -20.691  11.555  1.00  0.00     0.080 C 
HETATM    4  C20 UNL     1      -1.860 -20.177  11.005  1.00  0.00     0.043 C 
HETATM    5  C21 UNL     1      -3.021 -20.513  11.833  1.00  0.00     0.003 C 
HETATM    6  C22 UNL     1      -3.998 -21.464  11.208  1.00  0.00     0.000 C 
HETATM    7  C23 UNL     1      -3.315 -22.670  10.585  1.00  0.00     0.000 C 
HETATM    8  C24 UNL     1      -2.600 -23.439  11.640  1.00  0.00     0.000 C 
HETATM    9  C25 UNL     1      -1.233 -23.078  12.000  1.00  0.00     0.003 C 
HETATM   10  C26 UNL     1      -0.456 -22.129  11.149  1.00  0.00     0.043 C 
ENDROOT
BRANCH   3  11
HETATM   11  N1  UNL     1       0.469 -19.820  11.064  1.00  0.00    -0.378 N 
ATOM     12  H1  UNL     1       0.153 -19.317  10.235  1.00  0.00     0.157 HD
BRANCH  11  13
HETATM   13  C4  UNL     1       1.723 -19.482  11.425  1.00  0.00     0.228 C 
BRANCH  13  14
HETATM   14  O1  UNL     1       2.488 -20.569  11.962  1.00  0.00    -0.376 OA
ATOM     15  H1  UNL     1       3.097 -20.312  12.643  1.00  0.00     0.212 HD
ENDBRANCH  13  14
BRANCH  13  16
HETATM   16  C5  UNL     1       2.618 -18.875  10.391  1.00  0.00     0.129 C 
BRANCH  16  17
HETATM   17  C6  UNL     1       4.076 -19.165  10.624  1.00  0.00     0.227 C 
HETATM   18  O2  UNL     1       4.796 -18.327  11.208  1.00  0.00    -0.273 OA
HETATM   19  N2  UNL     1       4.657 -20.379  10.193  1.00  0.00    -0.349 N 
ATOM     20  H2  UNL     1       4.040 -21.036   9.715  1.00  0.00     0.163 HD
BRANCH  19  21
HETATM   21  C7  UNL     1       6.026 -20.787  10.355  1.00  0.00     0.160 C 
HETATM   22  C8  UNL     1       6.507 -21.585   9.140  1.00  0.00     0.041 C 
BRANCH  21  23
HETATM   23  C9  UNL     1       6.195 -21.700  11.515  1.00  0.00     0.238 C 
HETATM   24  O3  UNL     1       7.196 -21.583  12.281  1.00  0.00    -0.285 OA
BRANCH  23  25
HETATM   25  C10 UNL     1       5.222 -22.733  11.794  1.00  0.00     0.289 C 
HETATM   26  O4  UNL     1       5.021 -23.625  10.945  1.00  0.00    -0.264 OA
HETATM   27  N3  UNL     1       4.483 -22.762  13.015  1.00  0.00    -0.350 N 
ATOM     28  H3  UNL     1       4.658 -22.028  13.702  1.00  0.00     0.163 HD
BRANCH  27  29
HETATM   29  C11 UNL     1       3.504 -23.772  13.333  1.00  0.00     0.088 C 
HETATM   30  C12 UNL     1       2.187 -23.170  13.752  1.00  0.00     0.055 C 
HETATM   31  C13 UNL     1       1.860 -23.500  15.175  1.00  0.00     0.274 C 
HETATM   32  N4  UNL     1       1.673 -24.952  15.236  1.00  0.00     0.084 N 
HETATM   33  C14 UNL     1       0.508 -25.341  14.452  1.00  0.00     0.309 C 
HETATM   34  C15 UNL     1       2.863 -25.630  14.790  1.00  0.00     0.274 C 
HETATM   35  C16 UNL     1       3.981 -24.725  14.390  1.00  0.00     0.055 C 
ENDBRANCH  27  29
ENDBRANCH  23  25
ENDBRANCH  21  23
ENDBRANCH  19  21
ENDBRANCH  16  17
BRANCH  16  36
HETATM   36  C17 UNL     1       2.366 -17.380  10.385  1.00  0.00    -0.006 C 
HETATM   37  C18 UNL     1       2.407 -16.795   9.004  1.00  0.00     0.010 C 
HETATM   38  C19 UNL     1       0.994 -17.069  10.976  1.00  0.00     0.010 C 
ENDBRANCH  16  36
ENDBRANCH  13  16
ENDBRANCH  11  13
ENDBRANCH   3  11
TORSDOF 10
ENDMDL
