MODEL 1
REMARK VINA RESULT: -5.598884742      0.000      0.000
REMARK  0 active torsions:
REMARK  status: ('A' for Active; 'I' for Inactive)
ROOT
HETATM    1  C1  UNL     1     -32.705  -0.671 -40.207  1.00  0.00     0.015 C 
HETATM    2  C2  UNL     1     -33.054   0.027 -38.922  1.00  0.00    -0.037 C 
HETATM    3  C3  UNL     1     -34.420  -0.470 -38.438  1.00  0.00     0.015 C 
HETATM    4  C4  UNL     1     -32.058  -0.457 -37.863  1.00  0.00     0.029 C 
HETATM    5  C5  UNL     1     -30.748   0.239 -38.085  1.00  0.00     0.114 C 
HETATM    6  N1  UNL     1     -30.889   1.624 -37.769  1.00  0.00    -0.420 N 
ATOM      7  H1  UNL     1     -30.099   2.209 -37.498  1.00  0.00     0.153 HD
HETATM    8  C6  UNL     1     -32.227   2.129 -37.862  1.00  0.00     0.124 C 
HETATM    9  C7  UNL     1     -33.001   1.509 -39.025  1.00  0.00    -0.018 C 
HETATM   10  C8  UNL     1     -34.337   2.176 -39.142  1.00  0.00     0.012 C 
HETATM   11  C9  UNL     1     -33.976   3.581 -39.537  1.00  0.00     0.001 C 
HETATM   12  C10 UNL     1     -32.736   3.450 -40.367  1.00  0.00     0.001 C 
HETATM   13  C11 UNL     1     -32.296   1.998 -40.284  1.00  0.00     0.012 C 
ENDROOT
TORSDOF 0
ENDMDL
MODEL 2
REMARK VINA RESULT: -5.005303153      1.769      3.783
REMARK  0 active torsions:
REMARK  status: ('A' for Active; 'I' for Inactive)
ROOT
HETATM    1  C1  UNL     1     -31.456   2.218 -39.845  1.00  0.00     0.015 C 
HETATM    2  C2  UNL     1     -32.565   1.958 -38.864  1.00  0.00    -0.037 C 
HETATM    3  C3  UNL     1     -32.038   2.183 -37.442  1.00  0.00     0.015 C 
HETATM    4  C4  UNL     1     -33.618   3.050 -39.074  1.00  0.00     0.029 C 
HETATM    5  C5  UNL     1     -34.404   2.726 -40.309  1.00  0.00     0.114 C 
HETATM    6  N1  UNL     1     -35.203   1.567 -40.070  1.00  0.00    -0.420 N 
ATOM      7  H1  UNL     1     -36.055   1.369 -40.595  1.00  0.00     0.153 HD
HETATM    8  C6  UNL     1     -34.715   0.703 -39.037  1.00  0.00     0.124 C 
HETATM    9  C7  UNL     1     -33.189   0.618 -39.024  1.00  0.00    -0.018 C 
HETATM   10  C8  UNL     1     -32.758  -0.398 -38.011  1.00  0.00     0.012 C 
HETATM   11  C9  UNL     1     -33.277  -1.686 -38.588  1.00  0.00     0.001 C 
HETATM   12  C10 UNL     1     -33.199  -1.512 -40.074  1.00  0.00     0.001 C 
HETATM   13  C11 UNL     1     -32.813  -0.066 -40.333  1.00  0.00     0.012 C 
ENDROOT
TORSDOF 0
ENDMDL
MODEL 3
REMARK VINA RESULT: -4.709487466      1.864      3.895
REMARK  0 active torsions:
REMARK  status: ('A' for Active; 'I' for Inactive)
ROOT
HETATM    1  C1  UNL     1     -34.355   3.023 -39.163  1.00  0.00     0.015 C 
HETATM    2  C2  UNL     1     -32.958   3.357 -39.606  1.00  0.00    -0.037 C 
HETATM    3  C3  UNL     1     -32.846   3.135 -41.118  1.00  0.00     0.015 C 
HETATM    4  C4  UNL     1     -32.772   4.865 -39.411  1.00  0.00     0.029 C 
HETATM    5  C5  UNL     1     -32.558   5.137 -37.952  1.00  0.00     0.114 C 
HETATM    6  N1  UNL     1     -31.290   4.615 -37.555  1.00  0.00    -0.420 N 
ATOM      7  H1  UNL     1     -30.776   4.972 -36.750  1.00  0.00     0.153 HD
HETATM    8  C6  UNL     1     -30.795   3.549 -38.375  1.00  0.00     0.124 C 
HETATM    9  C7  UNL     1     -31.911   2.619 -38.852  1.00  0.00    -0.018 C 
HETATM   10  C8  UNL     1     -31.309   1.461 -39.589  1.00  0.00     0.012 C 
HETATM   11  C9  UNL     1     -30.547   0.739 -38.511  1.00  0.00     0.001 C 
HETATM   12  C10 UNL     1     -31.340   0.953 -37.258  1.00  0.00     0.001 C 
HETATM   13  C11 UNL     1     -32.441   1.946 -37.592  1.00  0.00     0.012 C 
ENDROOT
TORSDOF 0
ENDMDL
MODEL 4
REMARK VINA RESULT: -4.572938814      2.298      3.510
REMARK  0 active torsions:
REMARK  status: ('A' for Active; 'I' for Inactive)
ROOT
HETATM    1  C1  UNL     1     -32.229   3.236 -40.725  1.00  0.00     0.015 C 
HETATM    2  C2  UNL     1     -33.098   3.605 -39.555  1.00  0.00    -0.037 C 
HETATM    3  C3  UNL     1     -34.554   3.702 -40.024  1.00  0.00     0.015 C 
HETATM    4  C4  UNL     1     -33.072   2.421 -38.584  1.00  0.00     0.029 C 
HETATM    5  C5  UNL     1     -31.770   2.438 -37.841  1.00  0.00     0.114 C 
HETATM    6  N1  UNL     1     -31.743   3.561 -36.961  1.00  0.00    -0.420 N 
ATOM      7  H1  UNL     1     -31.158   3.590 -36.125  1.00  0.00     0.153 HD
HETATM    8  C6  UNL     1     -32.600   4.645 -37.342  1.00  0.00     0.124 C 
HETATM    9  C7  UNL     1     -32.650   4.839 -38.857  1.00  0.00    -0.018 C 
HETATM   10  C8  UNL     1     -33.454   6.063 -39.173  1.00  0.00     0.012 C 
HETATM   11  C9  UNL     1     -32.613   7.171 -38.603  1.00  0.00     0.001 C 
HETATM   12  C10 UNL     1     -31.196   6.714 -38.766  1.00  0.00     0.001 C 
HETATM   13  C11 UNL     1     -31.245   5.276 -39.254  1.00  0.00     0.012 C 
ENDROOT
TORSDOF 0
ENDMDL
MODEL 5
REMARK VINA RESULT: -4.560272363      1.941      3.082
REMARK  0 active torsions:
REMARK  status: ('A' for Active; 'I' for Inactive)
ROOT
HETATM    1  C1  UNL     1     -30.486   2.398 -38.923  1.00  0.00     0.015 C 
HETATM    2  C2  UNL     1     -31.757   2.593 -38.145  1.00  0.00    -0.037 C 
HETATM    3  C3  UNL     1     -31.913   1.441 -37.146  1.00  0.00     0.015 C 
HETATM    4  C4  UNL     1     -31.568   3.844 -37.281  1.00  0.00     0.029 C 
HETATM    5  C5  UNL     1     -31.715   5.055 -38.152  1.00  0.00     0.114 C 
HETATM    6  N1  UNL     1     -33.074   5.171 -38.574  1.00  0.00    -0.420 N 
ATOM      7  H1  UNL     1     -33.488   6.060 -38.854  1.00  0.00     0.153 HD
HETATM    8  C6  UNL     1     -33.812   3.943 -38.573  1.00  0.00     0.124 C 
HETATM    9  C7  UNL     1     -32.956   2.753 -39.008  1.00  0.00    -0.018 C 
HETATM   10  C8  UNL     1     -33.821   1.533 -39.110  1.00  0.00     0.012 C 
HETATM   11  C9  UNL     1     -34.740   1.870 -40.251  1.00  0.00     0.001 C 
HETATM   12  C10 UNL     1     -33.925   2.722 -41.176  1.00  0.00     0.001 C 
HETATM   13  C11 UNL     1     -32.613   3.016 -40.469  1.00  0.00     0.012 C 
ENDROOT
TORSDOF 0
ENDMDL
