MODEL 1
REMARK VINA RESULT: 0.030166496      0.000      0.000
REMARK  2 active torsions:
REMARK  status: ('A' for Active; 'I' for Inactive)
REMARK    1  A    between atoms: N2_4  and  N3_6 
REMARK    2  A    between atoms: C1_8  and  C2_9 
ROOT
HETATM    1  N3  UNL     1       8.104  54.155  44.049  1.00  0.00    -0.300 N 
ATOM      2  H3  UNL     1       8.111  55.175  44.023  1.00  0.00     0.187 HD
HETATM    3  C1  UNL     1       7.124  53.495  44.575  1.00  0.00     0.116 C 
ENDROOT
BRANCH   1   4
HETATM    4  N2  UNL     1       9.153  53.397  43.519  1.00  0.00    -0.250 N 
HETATM    5  N1  UNL     1      10.296  53.473  44.022  1.00  0.00    -0.331 N 
ATOM      6  H12 UNL     1      10.446  54.092  44.819  1.00  0.00     0.178 HD
ATOM      7  H11 UNL     1      11.061  52.921  43.636  1.00  0.00     0.178 HD
ATOM      8  H2  UNL     1       8.986  52.783  42.721  1.00  0.00     0.207 HD
ENDBRANCH   1   4
BRANCH   3   9
HETATM    9  C2  UNL     1       6.005  54.286  45.140  1.00  0.00     0.251 A 
HETATM   10  C3  UNL     1       4.924  53.532  45.770  1.00  0.00     0.271 A 
HETATM   11  N4  UNL     1       5.889  54.375  46.575  1.00  0.00    -0.062 N 
ATOM     12  H42 UNL     1       6.511  54.213  47.367  1.00  0.00     0.278 HD
ATOM     13  H41 UNL     1       5.802  55.133  47.252  1.00  0.00     0.278 HD
ENDBRANCH   3   9
TORSDOF 2
ENDMDL
MODEL 2
REMARK VINA RESULT: 0.181123955      6.676      6.980
REMARK  2 active torsions:
REMARK  status: ('A' for Active; 'I' for Inactive)
REMARK    1  A    between atoms: N2_4  and  N3_6 
REMARK    2  A    between atoms: C1_8  and  C2_9 
ROOT
HETATM    1  N3  UNL     1       9.311  61.110  44.027  1.00  0.00    -0.300 N 
ATOM      2  H3  UNL     1       8.561  61.617  44.497  1.00  0.00     0.187 HD
HETATM    3  C1  UNL     1       9.225  59.844  43.778  1.00  0.00     0.116 C 
ENDROOT
BRANCH   1   4
HETATM    4  N2  UNL     1      10.487  61.747  43.617  1.00  0.00    -0.250 N 
HETATM    5  N1  UNL     1      11.143  61.291  42.654  1.00  0.00    -0.331 N 
ATOM      6  H12 UNL     1      10.807  60.454  42.179  1.00  0.00     0.178 HD
ATOM      7  H11 UNL     1      12.000  61.756  42.354  1.00  0.00     0.178 HD
ATOM      8  H2  UNL     1      10.809  62.584  44.104  1.00  0.00     0.207 HD
ENDBRANCH   1   4
BRANCH   3   9
HETATM    9  C2  UNL     1       7.984  59.156  44.207  1.00  0.00     0.251 A 
HETATM   10  C3  UNL     1       7.160  59.850  45.194  1.00  0.00     0.271 A 
HETATM   11  N4  UNL     1       6.720  59.684  43.755  1.00  0.00    -0.062 N 
ATOM     12  H42 UNL     1       6.418  60.312  43.010  1.00  0.00     0.278 HD
ATOM     13  H41 UNL     1       5.899  59.303  43.285  1.00  0.00     0.278 HD
ENDBRANCH   3   9
TORSDOF 2
ENDMDL
MODEL 3
REMARK VINA RESULT: 0.404631497      2.019      2.113
REMARK  2 active torsions:
REMARK  status: ('A' for Active; 'I' for Inactive)
REMARK    1  A    between atoms: N2_4  and  N3_6 
REMARK    2  A    between atoms: C1_8  and  C2_9 
ROOT
HETATM    1  N3  UNL     1       7.922  53.958  46.370  1.00  0.00    -0.300 N 
ATOM      2  H3  UNL     1       7.581  54.765  46.892  1.00  0.00     0.187 HD
HETATM    3  C1  UNL     1       7.213  53.395  45.447  1.00  0.00     0.116 C 
ENDROOT
BRANCH   1   4
HETATM    4  N2  UNL     1       9.182  53.402  46.616  1.00  0.00    -0.250 N 
HETATM    5  N1  UNL     1       9.647  53.394  47.777  1.00  0.00    -0.331 N 
ATOM      6  H12 UNL     1       9.095  53.797  48.534  1.00  0.00     0.178 HD
ATOM      7  H11 UNL     1      10.565  52.988  47.957  1.00  0.00     0.178 HD
ATOM      8  H2  UNL     1       9.722  53.002  45.847  1.00  0.00     0.207 HD
ENDBRANCH   1   4
BRANCH   3   9
HETATM    9  C2  UNL     1       5.876  53.976  45.177  1.00  0.00     0.251 A 
HETATM   10  C3  UNL     1       4.755  53.412  45.926  1.00  0.00     0.271 A 
HETATM   11  N4  UNL     1       5.276  54.808  46.191  1.00  0.00    -0.062 N 
ATOM     12  H42 UNL     1       5.613  55.316  47.009  1.00  0.00     0.278 HD
ATOM     13  H41 UNL     1       4.869  55.743  46.217  1.00  0.00     0.278 HD
ENDBRANCH   3   9
TORSDOF 2
ENDMDL
MODEL 4
REMARK VINA RESULT: 0.549647293      6.709      6.997
REMARK  2 active torsions:
REMARK  status: ('A' for Active; 'I' for Inactive)
REMARK    1  A    between atoms: N2_4  and  N3_6 
REMARK    2  A    between atoms: C1_8  and  C2_9 
ROOT
HETATM    1  N3  UNL     1       9.603  60.212  43.595  1.00  0.00    -0.300 N 
ATOM      2  H3  UNL     1       9.997  61.026  44.067  1.00  0.00     0.187 HD
HETATM    3  C1  UNL     1       8.499  59.667  43.987  1.00  0.00     0.116 C 
ENDROOT
BRANCH   1   4
HETATM    4  N2  UNL     1      10.229  59.628  42.489  1.00  0.00    -0.250 N 
HETATM    5  N1  UNL     1      10.631  60.346  41.546  1.00  0.00    -0.331 N 
ATOM      6  H12 UNL     1      10.493  61.355  41.599  1.00  0.00     0.178 HD
ATOM      7  H11 UNL     1      11.088  59.920  40.740  1.00  0.00     0.178 HD
ATOM      8  H2  UNL     1      10.359  58.616  42.451  1.00  0.00     0.207 HD
ENDBRANCH   1   4
BRANCH   3   9
HETATM    9  C2  UNL     1       7.825  60.277  45.158  1.00  0.00     0.251 A 
HETATM   10  C3  UNL     1       8.664  61.061  46.060  1.00  0.00     0.271 A 
HETATM   11  N4  UNL     1       7.628  61.706  45.165  1.00  0.00    -0.062 N 
ATOM     12  H42 UNL     1       7.633  62.444  44.461  1.00  0.00     0.278 HD
ATOM     13  H41 UNL     1       6.834  62.329  45.304  1.00  0.00     0.278 HD
ENDBRANCH   3   9
TORSDOF 2
ENDMDL
MODEL 5
REMARK VINA RESULT: 1.238498646      6.453      6.723
REMARK  2 active torsions:
REMARK  status: ('A' for Active; 'I' for Inactive)
REMARK    1  A    between atoms: N2_4  and  N3_6 
REMARK    2  A    between atoms: C1_8  and  C2_9 
ROOT
HETATM    1  N3  UNL     1       9.172  61.167  44.167  1.00  0.00    -0.300 N 
ATOM      2  H3  UNL     1       8.750  61.811  44.837  1.00  0.00     0.187 HD
HETATM    3  C1  UNL     1       8.567  60.090  43.786  1.00  0.00     0.116 C 
ENDROOT
BRANCH   1   4
HETATM    4  N2  UNL     1      10.434  61.404  43.613  1.00  0.00    -0.250 N 
HETATM    5  N1  UNL     1      10.845  60.695  42.667  1.00  0.00    -0.331 N 
ATOM      6  H12 UNL     1      10.247  59.949  42.313  1.00  0.00     0.178 HD
ATOM      7  H11 UNL     1      11.765  60.867  42.263  1.00  0.00     0.178 HD
ATOM      8  H2  UNL     1      11.020  62.154  43.980  1.00  0.00     0.207 HD
ENDBRANCH   1   4
BRANCH   3   9
HETATM    9  C2  UNL     1       7.228  59.828  44.366  1.00  0.00     0.251 A 
HETATM   10  C3  UNL     1       7.125  58.703  45.291  1.00  0.00     0.271 A 
HETATM   11  N4  UNL     1       7.014  60.138  45.758  1.00  0.00    -0.062 N 
ATOM     12  H42 UNL     1       7.485  60.714  46.456  1.00  0.00     0.278 HD
ATOM     13  H41 UNL     1       6.331  60.680  46.286  1.00  0.00     0.278 HD
ENDBRANCH   3   9
TORSDOF 2
ENDMDL
