MODEL 1
REMARK VINA RESULT: -8.803318349      0.000      0.000
REMARK  10 active torsions:
REMARK  status: ('A' for Active; 'I' for Inactive)
REMARK    1  A    between atoms: O1_2  and  C2_3 
REMARK    2  A    between atoms: C3_6  and  N2_7 
REMARK    3  A    between atoms: C4_12  and  N4_13 
REMARK    4  A    between atoms: N4_13  and  C5_15 
REMARK    5  A    between atoms: C5_15  and  C6_16 
REMARK    6  A    between atoms: C7_18  and  C8_19 
REMARK    7  A    between atoms: C8_19  and  C9_20 
REMARK    8  A    between atoms: C9_20  and  N5_21 
REMARK    9  A    between atoms: N5_21  and  C10_23 
REMARK   10  A    between atoms: C11_26  and  C12_27 
ROOT
HETATM    1  C12 UNL     1      41.172 272.786 168.449  1.00  0.00     0.170 C 
HETATM    2  N7  UNL     1      39.848 273.312 168.739  1.00  0.00    -0.078 NA
HETATM    3  N8  UNL     1      41.900 272.597 169.412  1.00  0.00    -0.279 N 
ATOM      4  H8  UNL     1      41.380 272.865 170.248  1.00  0.00     0.179 HD
HETATM    5  C13 UNL     1      43.097 272.181 169.803  1.00  0.00     0.183 C 
HETATM    6  N9  UNL     1      44.130 271.823 170.168  1.00  0.00    -0.172 NA
ENDROOT
BRANCH   1   7
HETATM    7  C11 UNL     1      41.499 272.536 167.006  1.00  0.00     0.156 A 
HETATM    8  N6  UNL     1      40.837 273.110 166.047  1.00  0.00    -0.319 N 
HETATM    9  C10 UNL     1      41.154 272.867 164.788  1.00  0.00     0.162 A 
ATOM     10  H6  UNL     1      40.072 273.748 166.266  1.00  0.00     0.169 HD
HETATM   11  S1  UNL     1      42.448 271.775 164.969  1.00  0.00     0.024 SA
HETATM   12  N10 UNL     1      42.490 271.709 166.668  1.00  0.00    -0.307 N 
ATOM     13  H10 UNL     1      43.112 271.175 167.273  1.00  0.00     0.176 HD
BRANCH   9  14
HETATM   14  N5  UNL     1      40.598 273.354 163.706  1.00  0.00    -0.369 N 
ATOM     15  H5  UNL     1      40.814 274.302 163.398  1.00  0.00     0.161 HD
BRANCH  14  16
HETATM   16  C9  UNL     1      39.679 272.540 162.954  1.00  0.00     0.126 C 
BRANCH  16  17
HETATM   17  C8  UNL     1      40.045 272.586 161.506  1.00  0.00     0.066 C 
BRANCH  17  18
HETATM   18  C7  UNL     1      40.044 271.259 160.839  1.00  0.00     0.039 A 
HETATM   19  C2  UNL     1      41.181 270.487 160.763  1.00  0.00     0.167 A 
HETATM   20  N1  UNL     1      41.129 269.279 160.137  1.00  0.00    -0.170 N 
HETATM   21  C3  UNL     1      39.990 268.828 159.593  1.00  0.00     0.679 A 
ATOM     22  H1  UNL     1      41.972 268.708 160.080  1.00  0.00     0.186 HD
HETATM   23  N3  UNL     1      38.882 269.581 159.669  1.00  0.00    -0.176 N 
HETATM   24  C4  UNL     1      38.858 270.778 160.269  1.00  0.00     0.128 A 
ATOM     25  H3  UNL     1      38.021 269.226 159.253  1.00  0.00     0.186 HD
BRANCH  19  26
HETATM   26  O1  UNL     1      42.340 270.964 161.324  1.00  0.00    -0.340 OA
HETATM   27  C1  UNL     1      43.520 270.266 161.558  1.00  0.00     0.211 C 
ENDBRANCH  19  26
BRANCH  21  28
HETATM   28  N2  UNL     1      39.936 267.672 158.993  1.00  0.00    -0.234 N 
ATOM     29  H22 UNL     1      40.702 267.010 159.116  1.00  0.00     0.174 HD
ATOM     30  H21 UNL     1      39.144 267.417 158.404  1.00  0.00     0.174 HD
ENDBRANCH  21  28
BRANCH  24  31
HETATM   31  N4  UNL     1      37.819 271.506 160.349  1.00  0.00    -0.369 N 
ATOM     32  H4  UNL     1      37.698 272.055 161.200  1.00  0.00     0.161 HD
BRANCH  31  33
HETATM   33  C5  UNL     1      36.804 271.618 159.345  1.00  0.00     0.190 C 
BRANCH  33  34
HETATM   34  C6  UNL     1      35.496 271.890 159.970  1.00  0.00     0.250 C 
HETATM   35  O2  UNL     1      34.630 272.447 159.313  1.00  0.00    -0.305 OA
ENDBRANCH  33  34
ENDBRANCH  31  33
ENDBRANCH  24  31
ENDBRANCH  17  18
ENDBRANCH  16  17
ENDBRANCH  14  16
ENDBRANCH   9  14
ENDBRANCH   1   7
TORSDOF 10
ENDMDL
MODEL 2
REMARK VINA RESULT: -8.743242054      1.134      3.780
REMARK  10 active torsions:
REMARK  status: ('A' for Active; 'I' for Inactive)
REMARK    1  A    between atoms: O1_2  and  C2_3 
REMARK    2  A    between atoms: C3_6  and  N2_7 
REMARK    3  A    between atoms: C4_12  and  N4_13 
REMARK    4  A    between atoms: N4_13  and  C5_15 
REMARK    5  A    between atoms: C5_15  and  C6_16 
REMARK    6  A    between atoms: C7_18  and  C8_19 
REMARK    7  A    between atoms: C8_19  and  C9_20 
REMARK    8  A    between atoms: C9_20  and  N5_21 
REMARK    9  A    between atoms: N5_21  and  C10_23 
REMARK   10  A    between atoms: C11_26  and  C12_27 
ROOT
HETATM    1  C12 UNL     1      41.223 272.836 168.465  1.00  0.00     0.170 C 
HETATM    2  N7  UNL     1      39.918 273.391 168.787  1.00  0.00    -0.078 NA
HETATM    3  N8  UNL     1      41.975 272.644 169.408  1.00  0.00    -0.279 N 
ATOM      4  H8  UNL     1      41.487 272.933 170.255  1.00  0.00     0.179 HD
HETATM    5  C13 UNL     1      43.175 272.209 169.768  1.00  0.00     0.183 C 
HETATM    6  N9  UNL     1      44.212 271.836 170.107  1.00  0.00    -0.172 NA
ENDROOT
BRANCH   1   7
HETATM    7  C11 UNL     1      41.501 272.560 167.016  1.00  0.00     0.156 A 
HETATM    8  N6  UNL     1      40.867 273.184 166.069  1.00  0.00    -0.319 N 
HETATM    9  C10 UNL     1      41.139 272.916 164.805  1.00  0.00     0.162 A 
ATOM     10  H6  UNL     1      40.158 273.880 166.302  1.00  0.00     0.169 HD
HETATM   11  S1  UNL     1      42.347 271.727 164.963  1.00  0.00     0.024 SA
HETATM   12  N10 UNL     1      42.417 271.659 166.660  1.00  0.00    -0.307 N 
ATOM     13  H10 UNL     1      43.007 271.077 167.254  1.00  0.00     0.176 HD
BRANCH   9  14
HETATM   14  N5  UNL     1      40.601 273.445 163.732  1.00  0.00    -0.369 N 
ATOM     15  H5  UNL     1      40.758 274.428 163.510  1.00  0.00     0.161 HD
BRANCH  14  16
HETATM   16  C9  UNL     1      39.787 272.627 162.871  1.00  0.00     0.126 C 
BRANCH  16  17
HETATM   17  C8  UNL     1      40.423 272.542 161.522  1.00  0.00     0.066 C 
BRANCH  17  18
HETATM   18  C7  UNL     1      40.214 271.241 160.836  1.00  0.00     0.039 A 
HETATM   19  C2  UNL     1      38.987 270.882 160.325  1.00  0.00     0.167 A 
HETATM   20  N1  UNL     1      38.846 269.677 159.709  1.00  0.00    -0.170 N 
HETATM   21  C3  UNL     1      39.880 268.832 159.590  1.00  0.00     0.679 A 
ATOM     22  H1  UNL     1      37.937 269.411 159.331  1.00  0.00     0.186 HD
HETATM   23  N3  UNL     1      41.076 269.184 160.088  1.00  0.00    -0.176 N 
HETATM   24  C4  UNL     1      41.289 270.353 160.707  1.00  0.00     0.128 A 
ATOM     25  H3  UNL     1      41.856 268.534 159.991  1.00  0.00     0.186 HD
BRANCH  19  26
HETATM   26  O1  UNL     1      37.938 271.758 160.455  1.00  0.00    -0.340 OA
HETATM   27  C1  UNL     1      36.649 271.619 159.950  1.00  0.00     0.211 C 
ENDBRANCH  19  26
BRANCH  21  28
HETATM   28  N2  UNL     1      39.750 267.677 159.001  1.00  0.00    -0.234 N 
ATOM     29  H22 UNL     1      38.835 267.399 158.646  1.00  0.00     0.174 HD
ATOM     30  H21 UNL     1      40.543 267.046 158.888  1.00  0.00     0.174 HD
ENDBRANCH  21  28
BRANCH  24  31
HETATM   31  N4  UNL     1      42.414 270.702 161.185  1.00  0.00    -0.369 N 
ATOM     32  H4  UNL     1      42.463 271.609 161.649  1.00  0.00     0.161 HD
BRANCH  31  33
HETATM   33  C5  UNL     1      43.618 269.929 161.127  1.00  0.00     0.190 C 
BRANCH  33  34
HETATM   34  C6  UNL     1      43.827 269.215 162.401  1.00  0.00     0.250 C 
HETATM   35  O2  UNL     1      44.136 268.033 162.373  1.00  0.00    -0.305 OA
ENDBRANCH  33  34
ENDBRANCH  31  33
ENDBRANCH  24  31
ENDBRANCH  17  18
ENDBRANCH  16  17
ENDBRANCH  14  16
ENDBRANCH   9  14
ENDBRANCH   1   7
TORSDOF 10
ENDMDL
MODEL 3
REMARK VINA RESULT: -8.371510838      5.180      8.493
REMARK  10 active torsions:
REMARK  status: ('A' for Active; 'I' for Inactive)
REMARK    1  A    between atoms: O1_2  and  C2_3 
REMARK    2  A    between atoms: C3_6  and  N2_7 
REMARK    3  A    between atoms: C4_12  and  N4_13 
REMARK    4  A    between atoms: N4_13  and  C5_15 
REMARK    5  A    between atoms: C5_15  and  C6_16 
REMARK    6  A    between atoms: C7_18  and  C8_19 
REMARK    7  A    between atoms: C8_19  and  C9_20 
REMARK    8  A    between atoms: C9_20  and  N5_21 
REMARK    9  A    between atoms: N5_21  and  C10_23 
REMARK   10  A    between atoms: C11_26  and  C12_27 
ROOT
HETATM    1  C12 UNL     1      35.215 271.574 158.791  1.00  0.00     0.170 C 
HETATM    2  N7  UNL     1      34.399 270.382 158.625  1.00  0.00    -0.078 NA
HETATM    3  N8  UNL     1      34.815 272.584 158.232  1.00  0.00    -0.279 N 
ATOM      4  H8  UNL     1      33.948 272.346 157.750  1.00  0.00     0.179 HD
HETATM    5  C13 UNL     1      35.059 273.867 158.004  1.00  0.00     0.183 C 
HETATM    6  N9  UNL     1      35.249 274.984 157.791  1.00  0.00    -0.172 NA
ENDROOT
BRANCH   1   7
HETATM    7  C11 UNL     1      36.454 271.434 159.627  1.00  0.00     0.156 A 
HETATM    8  N6  UNL     1      37.424 270.641 159.282  1.00  0.00    -0.319 N 
HETATM    9  C10 UNL     1      38.499 270.545 160.042  1.00  0.00     0.162 A 
ATOM     10  H6  UNL     1      37.354 270.093 158.424  1.00  0.00     0.169 HD
HETATM   11  S1  UNL     1      38.121 271.623 161.303  1.00  0.00     0.024 SA
HETATM   12  N10 UNL     1      36.592 272.127 160.758  1.00  0.00    -0.307 N 
ATOM     13  H10 UNL     1      35.946 272.790 161.185  1.00  0.00     0.176 HD
BRANCH   9  14
HETATM   14  N5  UNL     1      39.562 269.802 159.848  1.00  0.00    -0.369 N 
ATOM     15  H5  UNL     1      39.560 269.079 159.128  1.00  0.00     0.161 HD
BRANCH  14  16
HETATM   16  C9  UNL     1      40.733 270.015 160.659  1.00  0.00     0.126 C 
BRANCH  16  17
HETATM   17  C8  UNL     1      41.531 268.754 160.718  1.00  0.00     0.066 C 
BRANCH  17  18
HETATM   18  C7  UNL     1      42.632 268.688 159.724  1.00  0.00     0.039 A 
HETATM   19  C2  UNL     1      42.441 268.160 158.467  1.00  0.00     0.167 A 
HETATM   20  N1  UNL     1      43.484 268.118 157.594  1.00  0.00    -0.170 N 
HETATM   21  C3  UNL     1      44.695 268.582 157.934  1.00  0.00     0.679 A 
ATOM     22  H1  UNL     1      43.342 267.726 156.663  1.00  0.00     0.186 HD
HETATM   23  N3  UNL     1      44.879 269.098 159.160  1.00  0.00    -0.176 N 
HETATM   24  C4  UNL     1      43.901 269.171 160.071  1.00  0.00     0.128 A 
ATOM     25  H3  UNL     1      45.804 269.448 159.407  1.00  0.00     0.186 HD
BRANCH  19  26
HETATM   26  O1  UNL     1      41.196 267.688 158.134  1.00  0.00    -0.340 OA
HETATM   27  C1  UNL     1      40.776 267.196 156.902  1.00  0.00     0.211 C 
ENDBRANCH  19  26
BRANCH  21  28
HETATM   28  N2  UNL     1      45.696 268.544 157.101  1.00  0.00    -0.234 N 
ATOM     29  H22 UNL     1      45.795 267.744 156.476  1.00  0.00     0.174 HD
ATOM     30  H21 UNL     1      46.382 269.298 157.060  1.00  0.00     0.174 HD
ENDBRANCH  21  28
BRANCH  24  31
HETATM   31  N4  UNL     1      44.058 269.655 161.236  1.00  0.00    -0.369 N 
ATOM     32  H4  UNL     1      43.260 269.615 161.870  1.00  0.00     0.161 HD
BRANCH  31  33
HETATM   33  C5  UNL     1      45.261 270.251 161.733  1.00  0.00     0.190 C 
BRANCH  33  34
HETATM   34  C6  UNL     1      45.655 269.620 163.006  1.00  0.00     0.250 C 
HETATM   35  O2  UNL     1      46.748 269.079 163.086  1.00  0.00    -0.305 OA
ENDBRANCH  33  34
ENDBRANCH  31  33
ENDBRANCH  24  31
ENDBRANCH  17  18
ENDBRANCH  16  17
ENDBRANCH  14  16
ENDBRANCH   9  14
ENDBRANCH   1   7
TORSDOF 10
ENDMDL
MODEL 4
REMARK VINA RESULT: -8.314357095      2.795      8.436
REMARK  10 active torsions:
REMARK  status: ('A' for Active; 'I' for Inactive)
REMARK    1  A    between atoms: O1_2  and  C2_3 
REMARK    2  A    between atoms: C3_6  and  N2_7 
REMARK    3  A    between atoms: C4_12  and  N4_13 
REMARK    4  A    between atoms: N4_13  and  C5_15 
REMARK    5  A    between atoms: C5_15  and  C6_16 
REMARK    6  A    between atoms: C7_18  and  C8_19 
REMARK    7  A    between atoms: C8_19  and  C9_20 
REMARK    8  A    between atoms: C9_20  and  N5_21 
REMARK    9  A    between atoms: N5_21  and  C10_23 
REMARK   10  A    between atoms: C11_26  and  C12_27 
ROOT
HETATM    1  C12 UNL     1      39.881 266.896 156.191  1.00  0.00     0.170 C 
HETATM    2  N7  UNL     1      40.593 266.274 155.085  1.00  0.00    -0.078 NA
HETATM    3  N8  UNL     1      38.664 266.937 156.094  1.00  0.00    -0.279 N 
ATOM      4  H8  UNL     1      38.411 266.498 155.209  1.00  0.00     0.179 HD
HETATM    5  C13 UNL     1      37.541 267.325 156.684  1.00  0.00     0.183 C 
HETATM    6  N9  UNL     1      36.551 267.651 157.175  1.00  0.00    -0.172 NA
ENDROOT
BRANCH   1   7
HETATM    7  C11 UNL     1      40.717 267.417 157.324  1.00  0.00     0.156 A 
HETATM    8  N6  UNL     1      40.179 267.890 158.407  1.00  0.00    -0.319 N 
HETATM    9  C10 UNL     1      40.946 268.338 159.384  1.00  0.00     0.162 A 
ATOM     10  H6  UNL     1      39.164 267.915 158.504  1.00  0.00     0.169 HD
HETATM   11  S1  UNL     1      42.501 268.080 158.739  1.00  0.00     0.024 SA
HETATM   12  N10 UNL     1      42.048 267.406 157.245  1.00  0.00    -0.307 N 
ATOM     13  H10 UNL     1      42.642 267.078 156.484  1.00  0.00     0.176 HD
BRANCH   9  14
HETATM   14  N5  UNL     1      40.576 268.845 160.535  1.00  0.00    -0.369 N 
ATOM     15  H5  UNL     1      39.591 269.026 160.725  1.00  0.00     0.161 HD
BRANCH  14  16
HETATM   16  C9  UNL     1      41.573 269.143 161.531  1.00  0.00     0.126 C 
BRANCH  16  17
HETATM   17  C8  UNL     1      41.913 270.597 161.473  1.00  0.00     0.066 C 
BRANCH  17  18
HETATM   18  C7  UNL     1      41.616 271.337 162.726  1.00  0.00     0.039 A 
HETATM   19  C2  UNL     1      42.390 271.189 163.854  1.00  0.00     0.167 A 
HETATM   20  N1  UNL     1      42.073 271.887 164.979  1.00  0.00    -0.170 N 
HETATM   21  C3  UNL     1      41.020 272.717 165.007  1.00  0.00     0.679 A 
ATOM     22  H1  UNL     1      42.646 271.777 165.815  1.00  0.00     0.186 HD
HETATM   23  N3  UNL     1      40.267 272.860 163.906  1.00  0.00    -0.176 N 
HETATM   24  C4  UNL     1      40.518 272.207 162.765  1.00  0.00     0.128 A 
ATOM     25  H3  UNL     1      39.469 273.495 163.940  1.00  0.00     0.186 HD
BRANCH  19  26
HETATM   26  O1  UNL     1      43.464 270.336 163.808  1.00  0.00    -0.340 OA
HETATM   27  C1  UNL     1      44.814 270.666 163.876  1.00  0.00     0.211 C 
ENDBRANCH  19  26
BRANCH  21  28
HETATM   28  N2  UNL     1      40.713 273.387 166.082  1.00  0.00    -0.234 N 
ATOM     29  H22 UNL     1      41.327 273.335 166.895  1.00  0.00     0.174 HD
ATOM     30  H21 UNL     1      39.872 273.962 166.127  1.00  0.00     0.174 HD
ENDBRANCH  21  28
BRANCH  24  31
HETATM   31  N4  UNL     1      39.815 272.329 161.713  1.00  0.00    -0.369 N 
ATOM     32  H4  UNL     1      40.207 272.882 160.951  1.00  0.00     0.161 HD
BRANCH  31  33
HETATM   33  C5  UNL     1      38.518 271.757 161.509  1.00  0.00     0.190 C 
BRANCH  33  34
HETATM   34  C6  UNL     1      38.398 271.244 160.131  1.00  0.00     0.250 C 
HETATM   35  O2  UNL     1      37.338 271.381 159.539  1.00  0.00    -0.305 OA
ENDBRANCH  33  34
ENDBRANCH  31  33
ENDBRANCH  24  31
ENDBRANCH  17  18
ENDBRANCH  16  17
ENDBRANCH  14  16
ENDBRANCH   9  14
ENDBRANCH   1   7
TORSDOF 10
ENDMDL
MODEL 5
REMARK VINA RESULT: -8.254411436      2.358      4.216
REMARK  10 active torsions:
REMARK  status: ('A' for Active; 'I' for Inactive)
REMARK    1  A    between atoms: O1_2  and  C2_3 
REMARK    2  A    between atoms: C3_6  and  N2_7 
REMARK    3  A    between atoms: C4_12  and  N4_13 
REMARK    4  A    between atoms: N4_13  and  C5_15 
REMARK    5  A    between atoms: C5_15  and  C6_16 
REMARK    6  A    between atoms: C7_18  and  C8_19 
REMARK    7  A    between atoms: C8_19  and  C9_20 
REMARK    8  A    between atoms: C9_20  and  N5_21 
REMARK    9  A    between atoms: N5_21  and  C10_23 
REMARK   10  A    between atoms: C11_26  and  C12_27 
ROOT
HETATM    1  C12 UNL     1      42.023 271.930 165.765  1.00  0.00     0.170 C 
HETATM    2  N7  UNL     1      40.900 272.267 164.906  1.00  0.00    -0.078 NA
HETATM    3  N8  UNL     1      41.881 272.163 166.956  1.00  0.00    -0.279 N 
ATOM      4  H8  UNL     1      40.952 272.563 167.083  1.00  0.00     0.179 HD
HETATM    5  C13 UNL     1      42.456 272.102 168.150  1.00  0.00     0.183 C 
HETATM    6  N9  UNL     1      42.933 272.060 169.198  1.00  0.00    -0.172 NA
ENDROOT
BRANCH   1   7
HETATM    7  C11 UNL     1      43.229 271.335 165.097  1.00  0.00     0.156 A 
HETATM    8  N6  UNL     1      43.130 270.632 164.010  1.00  0.00    -0.319 N 
HETATM    9  C10 UNL     1      44.213 270.126 163.450  1.00  0.00     0.162 A 
ATOM     10  H6  UNL     1      42.215 270.469 163.589  1.00  0.00     0.169 HD
HETATM   11  S1  UNL     1      45.429 270.669 164.510  1.00  0.00     0.024 SA
HETATM   12  N10 UNL     1      44.447 271.518 165.609  1.00  0.00    -0.307 N 
ATOM     13  H10 UNL     1      44.720 272.034 166.445  1.00  0.00     0.176 HD
BRANCH   9  14
HETATM   14  N5  UNL     1      44.296 269.398 162.362  1.00  0.00    -0.369 N 
ATOM     15  H5  UNL     1      45.204 269.213 161.936  1.00  0.00     0.161 HD
BRANCH  14  16
HETATM   16  C9  UNL     1      43.095 268.863 161.775  1.00  0.00     0.126 C 
BRANCH  16  17
HETATM   17  C8  UNL     1      42.713 269.689 160.589  1.00  0.00     0.066 C 
BRANCH  17  18
HETATM   18  C7  UNL     1      41.271 270.040 160.537  1.00  0.00     0.039 A 
HETATM   19  C2  UNL     1      40.336 269.182 160.006  1.00  0.00     0.167 A 
HETATM   20  N1  UNL     1      39.026 269.553 159.977  1.00  0.00    -0.170 N 
HETATM   21  C3  UNL     1      38.631 270.739 160.458  1.00  0.00     0.679 A 
ATOM     22  H1  UNL     1      38.334 268.916 159.582  1.00  0.00     0.186 HD
HETATM   23  N3  UNL     1      39.544 271.575 160.977  1.00  0.00    -0.176 N 
HETATM   24  C4  UNL     1      40.848 271.278 161.038  1.00  0.00     0.128 A 
ATOM     25  H3  UNL     1      39.230 272.475 161.340  1.00  0.00     0.186 HD
BRANCH  19  26
HETATM   26  O1  UNL     1      40.757 267.969 159.516  1.00  0.00    -0.340 OA
HETATM   27  C1  UNL     1      41.070 267.648 158.200  1.00  0.00     0.211 C 
ENDBRANCH  19  26
BRANCH  21  28
HETATM   28  N2  UNL     1      37.378 271.098 160.433  1.00  0.00    -0.234 N 
ATOM     29  H22 UNL     1      36.891 271.273 161.312  1.00  0.00     0.174 HD
ATOM     30  H21 UNL     1      36.875 271.208 159.553  1.00  0.00     0.174 HD
ENDBRANCH  21  28
BRANCH  24  31
HETATM   31  N4  UNL     1      41.726 272.058 161.525  1.00  0.00    -0.369 N 
ATOM     32  H4  UNL     1      42.594 271.636 161.853  1.00  0.00     0.161 HD
BRANCH  31  33
HETATM   33  C5  UNL     1      41.598 273.478 161.651  1.00  0.00     0.190 C 
BRANCH  33  34
HETATM   34  C6  UNL     1      42.728 274.026 162.424  1.00  0.00     0.250 C 
HETATM   35  O2  UNL     1      43.784 273.413 162.445  1.00  0.00    -0.305 OA
ENDBRANCH  33  34
ENDBRANCH  31  33
ENDBRANCH  24  31
ENDBRANCH  17  18
ENDBRANCH  16  17
ENDBRANCH  14  16
ENDBRANCH   9  14
ENDBRANCH   1   7
TORSDOF 10
ENDMDL
