MODEL 1
REMARK VINA RESULT: -7.206615450      0.000      0.000
REMARK  6 active torsions:
REMARK  status: ('A' for Active; 'I' for Inactive)
REMARK    1  A    between atoms: C1_2  and  O2_4 
REMARK    2  A    between atoms: O2_4  and  C2_5 
REMARK    3  A    between atoms: C6_9  and  S1_10 
REMARK    4  A    between atoms: S1_10  and  N2_13 
REMARK    5  A    between atoms: N2_13  and  N3_15 
REMARK    6  A    between atoms: N3_15  and  C7_17 
ROOT
HETATM    1  C2  UNL     1     -25.478  -1.155 -28.631  1.00  0.00     0.082 A 
HETATM    2  C3  UNL     1     -26.295  -0.069 -28.371  1.00  0.00     0.037 A 
HETATM    3  C4  UNL     1     -26.557   0.371 -27.094  1.00  0.00     0.004 A 
HETATM    4  C5  UNL     1     -25.976  -0.305 -26.043  1.00  0.00     0.025 A 
HETATM    5  C6  UNL     1     -25.160  -1.386 -26.252  1.00  0.00     0.083 A 
HETATM    6  C8  UNL     1     -24.915  -1.805 -27.543  1.00  0.00     0.062 A 
ENDROOT
BRANCH   5   7
HETATM    7  S1  UNL     1     -24.436  -2.223 -24.872  1.00  0.00     0.276 S 
HETATM    8  O3  UNL     1     -25.170  -1.864 -23.618  1.00  0.00    -0.199 OA
HETATM    9  O4  UNL     1     -24.641  -3.694 -25.113  1.00  0.00    -0.199 OA
BRANCH   7  10
HETATM   10  N2  UNL     1     -22.760  -1.922 -24.760  1.00  0.00    -0.221 N 
ATOM     11  H2  UNL     1     -22.119  -2.013 -25.548  1.00  0.00     0.200 HD
BRANCH  10  12
HETATM   12  N3  UNL     1     -22.355  -1.539 -23.473  1.00  0.00    -0.269 N 
ATOM     13  H3  UNL     1     -22.333  -2.215 -22.710  1.00  0.00     0.189 HD
BRANCH  12  14
HETATM   14  C7  UNL     1     -21.980  -0.202 -23.256  1.00  0.00     0.200 C 
HETATM   15  N4  UNL     1     -20.698   0.234 -23.651  1.00  0.00    -0.068 NA
HETATM   16  S2  UNL     1     -23.011   0.830 -22.560  1.00  0.00    -0.043 SA
ENDBRANCH  12  14
ENDBRANCH  10  12
ENDBRANCH   7  10
ENDBRANCH   5   7
BRANCH   1  17
HETATM   17  O2  UNL     1     -25.231  -1.579 -29.919  1.00  0.00    -0.264 OA
BRANCH  17  18
HETATM   18  C1  UNL     1     -25.333  -0.672 -30.959  1.00  0.00     0.378 C 
HETATM   19  N1  UNL     1     -26.471  -0.672 -31.801  1.00  0.00    -0.032 NA
HETATM   20  O1  UNL     1     -24.390   0.142 -31.127  1.00  0.00    -0.242 OA
ENDBRANCH  17  18
ENDBRANCH   1  17
TORSDOF 6
ENDMDL
MODEL 2
REMARK VINA RESULT: -7.162908325      3.129      4.171
REMARK  6 active torsions:
REMARK  status: ('A' for Active; 'I' for Inactive)
REMARK    1  A    between atoms: C1_2  and  O2_4 
REMARK    2  A    between atoms: O2_4  and  C2_5 
REMARK    3  A    between atoms: C6_9  and  S1_10 
REMARK    4  A    between atoms: S1_10  and  N2_13 
REMARK    5  A    between atoms: N2_13  and  N3_15 
REMARK    6  A    between atoms: N3_15  and  C7_17 
ROOT
HETATM    1  C2  UNL     1     -25.075  -1.839 -25.349  1.00  0.00     0.082 A 
HETATM    2  C3  UNL     1     -24.853  -3.095 -24.812  1.00  0.00     0.037 A 
HETATM    3  C4  UNL     1     -23.855  -3.345 -23.899  1.00  0.00     0.004 A 
HETATM    4  C5  UNL     1     -23.053  -2.293 -23.511  1.00  0.00     0.025 A 
HETATM    5  C6  UNL     1     -23.235  -1.032 -24.016  1.00  0.00     0.083 A 
HETATM    6  C8  UNL     1     -24.243  -0.811 -24.930  1.00  0.00     0.062 A 
ENDROOT
BRANCH   5   7
HETATM    7  S1  UNL     1     -22.180   0.287 -23.489  1.00  0.00     0.276 S 
HETATM    8  O3  UNL     1     -20.757  -0.178 -23.466  1.00  0.00    -0.199 OA
HETATM    9  O4  UNL     1     -22.290   1.361 -24.537  1.00  0.00    -0.199 OA
BRANCH   7  10
HETATM   10  N2  UNL     1     -22.682   0.938 -21.994  1.00  0.00    -0.221 N 
ATOM     11  H2  UNL     1     -23.060   0.373 -21.233  1.00  0.00     0.200 HD
BRANCH  10  12
HETATM   12  N3  UNL     1     -22.522   2.329 -21.918  1.00  0.00    -0.269 N 
ATOM     13  H3  UNL     1     -21.595   2.742 -21.816  1.00  0.00     0.189 HD
BRANCH  12  14
HETATM   14  C7  UNL     1     -23.666   3.143 -21.984  1.00  0.00     0.200 C 
HETATM   15  N4  UNL     1     -23.567   4.439 -22.530  1.00  0.00    -0.068 NA
HETATM   16  S2  UNL     1     -25.087   2.596 -21.439  1.00  0.00    -0.043 SA
ENDBRANCH  12  14
ENDBRANCH  10  12
ENDBRANCH   7  10
ENDBRANCH   5   7
BRANCH   1  17
HETATM   17  O2  UNL     1     -26.081  -1.613 -26.263  1.00  0.00    -0.264 OA
BRANCH  17  18
HETATM   18  C1  UNL     1     -25.816  -0.837 -27.378  1.00  0.00     0.378 C 
HETATM   19  N1  UNL     1     -24.980  -1.328 -28.410  1.00  0.00    -0.032 NA
HETATM   20  O1  UNL     1     -26.337   0.306 -27.440  1.00  0.00    -0.242 OA
ENDBRANCH  17  18
ENDBRANCH   1  17
TORSDOF 6
ENDMDL
MODEL 3
REMARK VINA RESULT: -7.114435069      2.990      3.727
REMARK  6 active torsions:
REMARK  status: ('A' for Active; 'I' for Inactive)
REMARK    1  A    between atoms: C1_2  and  O2_4 
REMARK    2  A    between atoms: O2_4  and  C2_5 
REMARK    3  A    between atoms: C6_9  and  S1_10 
REMARK    4  A    between atoms: S1_10  and  N2_13 
REMARK    5  A    between atoms: N2_13  and  N3_15 
REMARK    6  A    between atoms: N3_15  and  C7_17 
ROOT
HETATM    1  C2  UNL     1     -24.841  -1.231 -26.346  1.00  0.00     0.082 A 
HETATM    2  C3  UNL     1     -25.525  -2.186 -25.615  1.00  0.00     0.037 A 
HETATM    3  C4  UNL     1     -25.285  -2.409 -24.280  1.00  0.00     0.004 A 
HETATM    4  C5  UNL     1     -24.323  -1.643 -23.657  1.00  0.00     0.025 A 
HETATM    5  C6  UNL     1     -23.619  -0.686 -24.340  1.00  0.00     0.083 A 
HETATM    6  C8  UNL     1     -23.881  -0.485 -25.679  1.00  0.00     0.062 A 
ENDROOT
BRANCH   5   7
HETATM    7  S1  UNL     1     -22.392   0.272 -23.499  1.00  0.00     0.276 S 
HETATM    8  O3  UNL     1     -21.144  -0.536 -23.330  1.00  0.00    -0.199 OA
HETATM    9  O4  UNL     1     -22.066   1.429 -24.404  1.00  0.00    -0.199 OA
BRANCH   7  10
HETATM   10  N2  UNL     1     -22.979   0.891 -22.021  1.00  0.00    -0.221 N 
ATOM     11  H2  UNL     1     -23.483   0.328 -21.336  1.00  0.00     0.200 HD
BRANCH  10  12
HETATM   12  N3  UNL     1     -22.696   2.253 -21.845  1.00  0.00    -0.269 N 
ATOM     13  H3  UNL     1     -21.739   2.572 -21.692  1.00  0.00     0.189 HD
BRANCH  12  14
HETATM   14  C7  UNL     1     -23.760   3.172 -21.881  1.00  0.00     0.200 C 
HETATM   15  N4  UNL     1     -23.568   4.434 -22.480  1.00  0.00    -0.068 NA
HETATM   16  S2  UNL     1     -25.193   2.784 -21.242  1.00  0.00    -0.043 SA
ENDBRANCH  12  14
ENDBRANCH  10  12
ENDBRANCH   7  10
ENDBRANCH   5   7
BRANCH   1  17
HETATM   17  O2  UNL     1     -25.098  -1.026 -27.685  1.00  0.00    -0.264 OA
BRANCH  17  18
HETATM   18  C1  UNL     1     -26.246  -0.348 -28.054  1.00  0.00     0.378 C 
HETATM   19  N1  UNL     1     -26.983  -0.755 -29.193  1.00  0.00    -0.032 NA
HETATM   20  O1  UNL     1     -26.606   0.631 -27.352  1.00  0.00    -0.242 OA
ENDBRANCH  17  18
ENDBRANCH   1  17
TORSDOF 6
ENDMDL
MODEL 4
REMARK VINA RESULT: -7.054895392      3.029      6.634
REMARK  6 active torsions:
REMARK  status: ('A' for Active; 'I' for Inactive)
REMARK    1  A    between atoms: C1_2  and  O2_4 
REMARK    2  A    between atoms: O2_4  and  C2_5 
REMARK    3  A    between atoms: C6_9  and  S1_10 
REMARK    4  A    between atoms: S1_10  and  N2_13 
REMARK    5  A    between atoms: N2_13  and  N3_15 
REMARK    6  A    between atoms: N3_15  and  C7_17 
ROOT
HETATM    1  C2  UNL     1     -23.336  -1.775 -24.081  1.00  0.00     0.082 A 
HETATM    2  C3  UNL     1     -24.211  -2.759 -23.654  1.00  0.00     0.037 A 
HETATM    3  C4  UNL     1     -25.376  -3.055 -24.321  1.00  0.00     0.004 A 
HETATM    4  C5  UNL     1     -25.671  -2.337 -25.460  1.00  0.00     0.025 A 
HETATM    5  C6  UNL     1     -24.836  -1.353 -25.921  1.00  0.00     0.083 A 
HETATM    6  C8  UNL     1     -23.675  -1.077 -25.231  1.00  0.00     0.062 A 
ENDROOT
BRANCH   5   7
HETATM    7  S1  UNL     1     -25.257  -0.456 -27.388  1.00  0.00     0.276 S 
HETATM    8  O3  UNL     1     -26.507   0.335 -27.158  1.00  0.00    -0.199 OA
HETATM    9  O4  UNL     1     -24.138   0.521 -27.622  1.00  0.00    -0.199 OA
BRANCH   7  10
HETATM   10  N2  UNL     1     -25.370  -1.484 -28.745  1.00  0.00    -0.221 N 
ATOM     11  H2  UNL     1     -24.826  -2.341 -28.848  1.00  0.00     0.200 HD
BRANCH  10  12
HETATM   12  N3  UNL     1     -26.288  -1.030 -29.703  1.00  0.00    -0.269 N 
ATOM     13  H3  UNL     1     -27.217  -0.713 -29.426  1.00  0.00     0.189 HD
BRANCH  12  14
HETATM   14  C7  UNL     1     -25.902  -1.021 -31.055  1.00  0.00     0.200 C 
HETATM   15  N4  UNL     1     -26.658  -1.745 -31.999  1.00  0.00    -0.068 NA
HETATM   16  S2  UNL     1     -24.599  -0.186 -31.523  1.00  0.00    -0.043 SA
ENDBRANCH  12  14
ENDBRANCH  10  12
ENDBRANCH   7  10
ENDBRANCH   5   7
BRANCH   1  17
HETATM   17  O2  UNL     1     -22.174  -1.495 -23.395  1.00  0.00    -0.264 OA
BRANCH  17  18
HETATM   18  C1  UNL     1     -21.827  -0.175 -23.168  1.00  0.00     0.378 C 
HETATM   19  N1  UNL     1     -22.678   0.670 -22.414  1.00  0.00    -0.032 NA
HETATM   20  O1  UNL     1     -20.744   0.243 -23.649  1.00  0.00    -0.242 OA
ENDBRANCH  17  18
ENDBRANCH   1  17
TORSDOF 6
ENDMDL
MODEL 5
REMARK VINA RESULT: -6.856810522      3.805      6.447
REMARK  6 active torsions:
REMARK  status: ('A' for Active; 'I' for Inactive)
REMARK    1  A    between atoms: C1_2  and  O2_4 
REMARK    2  A    between atoms: O2_4  and  C2_5 
REMARK    3  A    between atoms: C6_9  and  S1_10 
REMARK    4  A    between atoms: S1_10  and  N2_13 
REMARK    5  A    between atoms: N2_13  and  N3_15 
REMARK    6  A    between atoms: N3_15  and  C7_17 
ROOT
HETATM    1  C2  UNL     1     -23.809   1.478 -22.907  1.00  0.00     0.082 A 
HETATM    2  C3  UNL     1     -22.457   1.747 -23.032  1.00  0.00     0.037 A 
HETATM    3  C4  UNL     1     -21.530   0.769 -23.308  1.00  0.00     0.004 A 
HETATM    4  C5  UNL     1     -21.979  -0.525 -23.465  1.00  0.00     0.025 A 
HETATM    5  C6  UNL     1     -23.308  -0.839 -23.350  1.00  0.00     0.083 A 
HETATM    6  C8  UNL     1     -24.215   0.162 -23.073  1.00  0.00     0.062 A 
ENDROOT
BRANCH   5   7
HETATM    7  S1  UNL     1     -23.838  -2.514 -23.559  1.00  0.00     0.276 S 
HETATM    8  O3  UNL     1     -22.754  -3.449 -23.120  1.00  0.00    -0.199 OA
HETATM    9  O4  UNL     1     -25.007  -2.707 -22.632  1.00  0.00    -0.199 OA
BRANCH   7  10
HETATM   10  N2  UNL     1     -24.359  -2.817 -25.155  1.00  0.00    -0.221 N 
ATOM     11  H2  UNL     1     -23.837  -3.392 -25.817  1.00  0.00     0.200 HD
BRANCH  10  12
HETATM   12  N3  UNL     1     -25.577  -2.194 -25.464  1.00  0.00    -0.269 N 
ATOM     13  H3  UNL     1     -26.439  -2.477 -24.999  1.00  0.00     0.189 HD
BRANCH  12  14
HETATM   14  C7  UNL     1     -25.585  -1.171 -26.427  1.00  0.00     0.200 C 
HETATM   15  N4  UNL     1     -24.404  -0.443 -26.678  1.00  0.00    -0.068 NA
HETATM   16  S2  UNL     1     -26.939  -0.831 -27.243  1.00  0.00    -0.043 SA
ENDBRANCH  12  14
ENDBRANCH  10  12
ENDBRANCH   7  10
ENDBRANCH   5   7
BRANCH   1  17
HETATM   17  O2  UNL     1     -24.719   2.474 -22.629  1.00  0.00    -0.264 OA
BRANCH  17  18
HETATM   18  C1  UNL     1     -24.548   3.247 -21.495  1.00  0.00     0.378 C 
HETATM   19  N1  UNL     1     -23.700   4.382 -21.523  1.00  0.00    -0.032 NA
HETATM   20  O1  UNL     1     -25.162   2.910 -20.451  1.00  0.00    -0.242 OA
ENDBRANCH  17  18
ENDBRANCH   1  17
TORSDOF 6
ENDMDL
