MODEL 1
REMARK VINA RESULT: -7.992705692      0.000      0.000
REMARK  6 active torsions:
REMARK  status: ('A' for Active; 'I' for Inactive)
REMARK    1  A    between atoms: C1_2  and  C2_4 
REMARK       I    between atoms: N1_8  and  C6_9 
REMARK    2  A    between atoms: C6_9  and  C7_11 
REMARK    3  A    between atoms: C8_12  and  C9_13 
REMARK    4  A    between atoms: C10_16  and  C11_17 
REMARK    5  A    between atoms: C11_17  and  O6_18 
REMARK    6  A    between atoms: N2_20  and  O7_22 
ROOT
HETATM    1  C7  UNL     1     -24.075   0.972 -23.249  1.00  0.00     0.106 A 
HETATM    2  C8  UNL     1     -22.594   1.187 -23.584  1.00  0.00     0.113 A 
HETATM    3  C10 UNL     1     -23.169   1.481 -22.243  1.00  0.00     0.091 A 
ENDROOT
BRANCH   1   4
HETATM    4  C6  UNL     1     -24.580  -0.415 -23.342  1.00  0.00     0.225 C 
HETATM    5  N1  UNL     1     -25.206  -1.030 -24.438  1.00  0.00    -0.351 N 
HETATM    6  C5  UNL     1     -25.708  -2.403 -24.240  1.00  0.00     0.126 C 
HETATM    7  C12 UNL     1     -25.368  -0.533 -25.777  1.00  0.00     0.141 C 
HETATM    8  C4  UNL     1     -24.914  -3.371 -25.054  1.00  0.00     0.021 C 
HETATM    9  C3  UNL     1     -24.770  -2.872 -26.455  1.00  0.00     0.019 C 
HETATM   10  C2  UNL     1     -25.583  -1.663 -26.771  1.00  0.00     0.105 C 
HETATM   11  O3  UNL     1     -24.389  -1.105 -22.260  1.00  0.00    -0.273 OA
BRANCH  10  12
HETATM   12  C1  UNL     1     -25.161  -1.156 -28.103  1.00  0.00     0.178 C 
HETATM   13  O1  UNL     1     -25.247  -1.862 -29.140  1.00  0.00    -0.648 OA
HETATM   14  O2  UNL     1     -24.648   0.130 -28.275  1.00  0.00    -0.648 OA
ENDBRANCH  10  12
ENDBRANCH   1   4
BRANCH   2  15
HETATM   15  C9  UNL     1     -21.657   0.109 -23.770  1.00  0.00     0.178 C 
HETATM   16  O4  UNL     1     -20.391   0.255 -23.594  1.00  0.00    -0.648 OA
HETATM   17  O5  UNL     1     -22.032  -1.161 -24.150  1.00  0.00    -0.648 OA
ENDBRANCH   2  15
BRANCH   3  18
HETATM   18  C11 UNL     1     -23.255   2.947 -21.914  1.00  0.00     0.141 C 
HETATM   19  N2  UNL     1     -22.521   3.797 -22.529  1.00  0.00    -0.251 N 
ATOM     20  H2  UNL     1     -21.882   3.447 -23.242  1.00  0.00     0.196 HD
BRANCH  18  21
HETATM   21  O6  UNL     1     -24.132   3.345 -20.947  1.00  0.00    -0.348 OA
ATOM     22  H6  UNL     1     -24.071   4.235 -20.621  1.00  0.00     0.219 HD
ENDBRANCH  18  21
BRANCH  19  23
HETATM   23  O7  UNL     1     -22.538   5.138 -22.291  1.00  0.00    -0.288 OA
ATOM     24  H7  UNL     1     -22.129   5.786 -22.854  1.00  0.00     0.244 HD
ENDBRANCH  19  23
ENDBRANCH   3  18
TORSDOF 6
ENDMDL
MODEL 2
REMARK VINA RESULT: -7.028344282      2.402      6.514
REMARK  6 active torsions:
REMARK  status: ('A' for Active; 'I' for Inactive)
REMARK    1  A    between atoms: C1_2  and  C2_4 
REMARK       I    between atoms: N1_8  and  C6_9 
REMARK    2  A    between atoms: C6_9  and  C7_11 
REMARK    3  A    between atoms: C8_12  and  C9_13 
REMARK    4  A    between atoms: C10_16  and  C11_17 
REMARK    5  A    between atoms: C11_17  and  O6_18 
REMARK    6  A    between atoms: N2_20  and  O7_22 
ROOT
HETATM    1  C7  UNL     1     -24.726  -1.219 -27.694  1.00  0.00     0.106 A 
HETATM    2  C8  UNL     1     -25.811  -0.176 -27.993  1.00  0.00     0.113 A 
HETATM    3  C10 UNL     1     -25.624  -1.404 -28.813  1.00  0.00     0.091 A 
ENDROOT
BRANCH   1   4
HETATM    4  C6  UNL     1     -24.812  -1.907 -26.388  1.00  0.00     0.225 C 
HETATM    5  N1  UNL     1     -24.002  -1.711 -25.258  1.00  0.00    -0.351 N 
HETATM    6  C5  UNL     1     -24.233  -2.602 -24.105  1.00  0.00     0.126 C 
HETATM    7  C12 UNL     1     -23.008  -0.698 -25.029  1.00  0.00     0.141 C 
HETATM    8  C4  UNL     1     -24.798  -1.831 -22.957  1.00  0.00     0.021 C 
HETATM    9  C3  UNL     1     -24.008  -0.583 -22.732  1.00  0.00     0.019 C 
HETATM   10  C2  UNL     1     -22.762  -0.482 -23.544  1.00  0.00     0.105 C 
HETATM   11  O3  UNL     1     -25.770  -2.779 -26.329  1.00  0.00    -0.273 OA
BRANCH  10  12
HETATM   12  C1  UNL     1     -22.219   0.893 -23.390  1.00  0.00     0.178 C 
HETATM   13  O1  UNL     1     -22.923   1.841 -22.957  1.00  0.00    -0.648 OA
HETATM   14  O2  UNL     1     -20.899   1.206 -23.716  1.00  0.00    -0.648 OA
ENDBRANCH  10  12
ENDBRANCH   1   4
BRANCH   2  15
HETATM   15  C9  UNL     1     -26.986   0.002 -27.180  1.00  0.00     0.178 C 
HETATM   16  O4  UNL     1     -27.062   0.902 -26.263  1.00  0.00    -0.648 OA
HETATM   17  O5  UNL     1     -28.120  -0.768 -27.311  1.00  0.00    -0.648 OA
ENDBRANCH   2  15
BRANCH   3  18
HETATM   18  C11 UNL     1     -25.072  -1.150 -30.190  1.00  0.00     0.141 C 
HETATM   19  N2  UNL     1     -24.495  -0.042 -30.467  1.00  0.00    -0.251 N 
ATOM     20  H2  UNL     1     -24.423   0.656 -29.727  1.00  0.00     0.196 HD
BRANCH  18  21
HETATM   21  O6  UNL     1     -25.204  -2.128 -31.133  1.00  0.00    -0.348 OA
ATOM     22  H6  UNL     1     -24.440  -2.645 -31.358  1.00  0.00     0.219 HD
ENDBRANCH  18  21
BRANCH  19  23
HETATM   23  O7  UNL     1     -23.970   0.266 -31.686  1.00  0.00    -0.288 OA
ATOM     24  H7  UNL     1     -24.140  -0.225 -32.481  1.00  0.00     0.244 HD
ENDBRANCH  19  23
ENDBRANCH   3  18
TORSDOF 6
ENDMDL
MODEL 3
REMARK VINA RESULT: -6.606438618      2.366      3.955
REMARK  6 active torsions:
REMARK  status: ('A' for Active; 'I' for Inactive)
REMARK    1  A    between atoms: C1_2  and  C2_4 
REMARK       I    between atoms: N1_8  and  C6_9 
REMARK    2  A    between atoms: C6_9  and  C7_11 
REMARK    3  A    between atoms: C8_12  and  C9_13 
REMARK    4  A    between atoms: C10_16  and  C11_17 
REMARK    5  A    between atoms: C11_17  and  O6_18 
REMARK    6  A    between atoms: N2_20  and  O7_22 
ROOT
HETATM    1  C7  UNL     1     -23.977  -0.408 -25.670  1.00  0.00     0.106 A 
HETATM    2  C8  UNL     1     -23.730  -1.756 -24.982  1.00  0.00     0.113 A 
HETATM    3  C10 UNL     1     -23.721  -0.462 -24.248  1.00  0.00     0.091 A 
ENDROOT
BRANCH   1   4
HETATM    4  C6  UNL     1     -25.298  -0.224 -26.310  1.00  0.00     0.225 C 
HETATM    5  N1  UNL     1     -25.569   0.044 -27.661  1.00  0.00    -0.351 N 
HETATM    6  C5  UNL     1     -26.977   0.285 -28.027  1.00  0.00     0.126 C 
HETATM    7  C12 UNL     1     -24.663   0.045 -28.777  1.00  0.00     0.141 C 
HETATM    8  C4  UNL     1     -27.492  -0.830 -28.878  1.00  0.00     0.021 C 
HETATM    9  C3  UNL     1     -26.524  -1.134 -29.974  1.00  0.00     0.019 C 
HETATM   10  C2  UNL     1     -25.395  -0.168 -30.092  1.00  0.00     0.105 C 
HETATM   11  O3  UNL     1     -26.289  -0.341 -25.482  1.00  0.00    -0.273 OA
BRANCH  10  12
HETATM   12  C1  UNL     1     -24.408  -0.723 -31.054  1.00  0.00     0.178 C 
HETATM   13  O1  UNL     1     -24.250  -1.962 -31.203  1.00  0.00    -0.648 OA
HETATM   14  O2  UNL     1     -23.604   0.099 -31.845  1.00  0.00    -0.648 OA
ENDBRANCH  10  12
ENDBRANCH   1   4
BRANCH   2  15
HETATM   15  C9  UNL     1     -24.764  -2.733 -24.754  1.00  0.00     0.178 C 
HETATM   16  O4  UNL     1     -25.056  -3.644 -25.615  1.00  0.00    -0.648 OA
HETATM   17  O5  UNL     1     -25.524  -2.776 -23.607  1.00  0.00    -0.648 OA
ENDBRANCH   2  15
BRANCH   3  18
HETATM   18  C11 UNL     1     -22.360  -0.029 -23.774  1.00  0.00     0.141 C 
HETATM   19  N2  UNL     1     -21.998   1.195 -23.863  1.00  0.00    -0.251 N 
ATOM     20  H2  UNL     1     -22.660   1.860 -24.263  1.00  0.00     0.196 HD
BRANCH  18  21
HETATM   21  O6  UNL     1     -21.524  -0.973 -23.249  1.00  0.00    -0.348 OA
ATOM     22  H6  UNL     1     -21.202  -0.849 -22.364  1.00  0.00     0.219 HD
ENDBRANCH  18  21
BRANCH  19  23
HETATM   23  O7  UNL     1     -20.786   1.668 -23.457  1.00  0.00    -0.288 OA
ATOM     24  H7  UNL     1     -20.195   1.199 -22.881  1.00  0.00     0.244 HD
ENDBRANCH  19  23
ENDBRANCH   3  18
TORSDOF 6
ENDMDL
MODEL 4
REMARK VINA RESULT: -6.389304568      3.693      6.201
REMARK  6 active torsions:
REMARK  status: ('A' for Active; 'I' for Inactive)
REMARK    1  A    between atoms: C1_2  and  C2_4 
REMARK       I    between atoms: N1_8  and  C6_9 
REMARK    2  A    between atoms: C6_9  and  C7_11 
REMARK    3  A    between atoms: C8_12  and  C9_13 
REMARK    4  A    between atoms: C10_16  and  C11_17 
REMARK    5  A    between atoms: C11_17  and  O6_18 
REMARK    6  A    between atoms: N2_20  and  O7_22 
ROOT
HETATM    1  C7  UNL     1     -24.827  -1.578 -27.410  1.00  0.00     0.106 A 
HETATM    2  C8  UNL     1     -26.149  -1.490 -26.637  1.00  0.00     0.113 A 
HETATM    3  C10 UNL     1     -24.853  -1.028 -26.072  1.00  0.00     0.091 A 
ENDROOT
BRANCH   1   4
HETATM    4  C6  UNL     1     -24.743  -0.803 -28.667  1.00  0.00     0.225 C 
HETATM    5  N1  UNL     1     -24.859  -1.282 -29.981  1.00  0.00    -0.351 N 
HETATM    6  C5  UNL     1     -24.635  -0.312 -31.070  1.00  0.00     0.126 C 
HETATM    7  C12 UNL     1     -25.244  -2.592 -30.431  1.00  0.00     0.141 C 
HETATM    8  C4  UNL     1     -25.909  -0.052 -31.806  1.00  0.00     0.021 C 
HETATM    9  C3  UNL     1     -26.585  -1.342 -32.142  1.00  0.00     0.019 C 
HETATM   10  C2  UNL     1     -25.776  -2.560 -31.854  1.00  0.00     0.105 C 
HETATM   11  O3  UNL     1     -24.545   0.465 -28.476  1.00  0.00    -0.273 OA
BRANCH  10  12
HETATM   12  C1  UNL     1     -26.654  -3.748 -32.017  1.00  0.00     0.178 C 
HETATM   13  O1  UNL     1     -27.758  -3.681 -32.616  1.00  0.00    -0.648 OA
HETATM   14  O2  UNL     1     -26.302  -5.001 -31.513  1.00  0.00    -0.648 OA
ENDBRANCH  10  12
ENDBRANCH   1   4
BRANCH   2  15
HETATM   15  C9  UNL     1     -27.196  -0.553 -26.958  1.00  0.00     0.178 C 
HETATM   16  O4  UNL     1     -28.271  -0.903 -27.572  1.00  0.00    -0.648 OA
HETATM   17  O5  UNL     1     -27.137   0.785 -26.639  1.00  0.00    -0.648 OA
ENDBRANCH   2  15
BRANCH   3  18
HETATM   18  C11 UNL     1     -24.320  -1.891 -24.960  1.00  0.00     0.141 C 
HETATM   19  N2  UNL     1     -23.079  -2.202 -24.915  1.00  0.00    -0.251 N 
ATOM     20  H2  UNL     1     -22.471  -1.847 -25.652  1.00  0.00     0.196 HD
BRANCH  18  21
HETATM   21  O6  UNL     1     -25.190  -2.333 -24.006  1.00  0.00    -0.348 OA
ATOM     22  H6  UNL     1     -24.872  -2.437 -23.118  1.00  0.00     0.219 HD
ENDBRANCH  18  21
BRANCH  19  23
HETATM   23  O7  UNL     1     -22.517  -2.977 -23.944  1.00  0.00    -0.288 OA
ATOM     24  H7  UNL     1     -22.795  -2.980 -23.036  1.00  0.00     0.244 HD
ENDBRANCH  19  23
ENDBRANCH   3  18
TORSDOF 6
ENDMDL
MODEL 5
REMARK VINA RESULT: -5.802172640      6.430     10.545
REMARK  6 active torsions:
REMARK  status: ('A' for Active; 'I' for Inactive)
REMARK    1  A    between atoms: C1_2  and  C2_4 
REMARK       I    between atoms: N1_8  and  C6_9 
REMARK    2  A    between atoms: C6_9  and  C7_11 
REMARK    3  A    between atoms: C8_12  and  C9_13 
REMARK    4  A    between atoms: C10_16  and  C11_17 
REMARK    5  A    between atoms: C11_17  and  O6_18 
REMARK    6  A    between atoms: N2_20  and  O7_22 
ROOT
HETATM    1  C7  UNL     1     -25.409  -4.617 -32.980  1.00  0.00     0.106 A 
HETATM    2  C8  UNL     1     -26.753  -5.312 -33.235  1.00  0.00     0.113 A 
HETATM    3  C10 UNL     1     -26.134  -5.225 -31.885  1.00  0.00     0.091 A 
ENDROOT
BRANCH   1   4
HETATM    4  C6  UNL     1     -25.344  -3.171 -33.283  1.00  0.00     0.225 C 
HETATM    5  N1  UNL     1     -25.775  -2.104 -32.479  1.00  0.00    -0.351 N 
HETATM    6  C5  UNL     1     -25.689  -0.750 -33.059  1.00  0.00     0.126 C 
HETATM    7  C12 UNL     1     -26.229  -2.131 -31.116  1.00  0.00     0.141 C 
HETATM    8  C4  UNL     1     -24.654   0.057 -32.346  1.00  0.00     0.021 C 
HETATM    9  C3  UNL     1     -24.834  -0.063 -30.867  1.00  0.00     0.019 C 
HETATM   10  C2  UNL     1     -26.074  -0.775 -30.448  1.00  0.00     0.105 C 
HETATM   11  O3  UNL     1     -24.811  -2.912 -34.437  1.00  0.00    -0.273 OA
BRANCH  10  12
HETATM   12  C1  UNL     1     -25.996  -1.017 -28.984  1.00  0.00     0.178 C 
HETATM   13  O1  UNL     1     -24.965  -1.491 -28.443  1.00  0.00    -0.648 OA
HETATM   14  O2  UNL     1     -27.063  -0.733 -28.130  1.00  0.00    -0.648 OA
ENDBRANCH  10  12
ENDBRANCH   1   4
BRANCH   2  15
HETATM   15  C9  UNL     1     -27.968  -4.602 -33.543  1.00  0.00     0.178 C 
HETATM   16  O4  UNL     1     -28.070  -3.813 -34.554  1.00  0.00    -0.648 OA
HETATM   17  O5  UNL     1     -29.116  -4.705 -32.789  1.00  0.00    -0.648 OA
ENDBRANCH   2  15
BRANCH   3  18
HETATM   18  C11 UNL     1     -25.615  -6.534 -31.355  1.00  0.00     0.141 C 
HETATM   19  N2  UNL     1     -24.636  -7.127 -31.928  1.00  0.00    -0.251 N 
ATOM     20  H2  UNL     1     -24.224  -6.683 -32.748  1.00  0.00     0.196 HD
BRANCH  18  21
HETATM   21  O6  UNL     1     -26.215  -7.072 -30.253  1.00  0.00    -0.348 OA
ATOM     22  H6  UNL     1     -26.802  -7.808 -30.373  1.00  0.00     0.219 HD
ENDBRANCH  18  21
BRANCH  19  23
HETATM   23  O7  UNL     1     -24.108  -8.312 -31.513  1.00  0.00    -0.288 OA
ATOM     24  H7  UNL     1     -24.381  -8.774 -30.729  1.00  0.00     0.244 HD
ENDBRANCH  19  23
ENDBRANCH   3  18
TORSDOF 6
ENDMDL
