MODEL 1
REMARK VINA RESULT: -5.677024157      0.000      0.000
REMARK  5 active torsions:
REMARK  status: ('A' for Active; 'I' for Inactive)
REMARK    1  A    between atoms: C2_2  and  C3_3 
REMARK    2  A    between atoms: C3_3  and  C6_6 
REMARK    3  A    between atoms: C6_6  and  C7_8 
REMARK    4  A    between atoms: C7_8  and  N1_9 
REMARK    5  A    between atoms: N1_9  and  C8_11 
ROOT
HETATM    1  C7  UNL     1     -24.044  -1.352 -24.585  1.00  0.00     0.257 C 
HETATM    2  C9  UNL     1     -23.066  -2.391 -25.011  1.00  0.00     0.271 C 
HETATM    3  O2  UNL     1     -22.388  -2.099 -26.055  1.00  0.00    -0.269 OA
HETATM    4  N3  UNL     1     -22.867  -3.610 -24.352  1.00  0.00    -0.276 N 
ATOM      5  H3  UNL     1     -22.295  -4.335 -24.784  1.00  0.00     0.173 HD
HETATM    6  C10 UNL     1     -23.462  -3.839 -23.084  1.00  0.00     0.329 C 
HETATM    7  O3  UNL     1     -23.250  -4.945 -22.542  1.00  0.00    -0.247 OA
HETATM    8  N4  UNL     1     -24.250  -2.813 -22.513  1.00  0.00    -0.276 N 
ATOM      9  H4  UNL     1     -24.679  -2.969 -21.602  1.00  0.00     0.173 HD
HETATM   10  C11 UNL     1     -24.463  -1.563 -23.174  1.00  0.00     0.271 C 
HETATM   11  O4  UNL     1     -25.020  -0.667 -22.490  1.00  0.00    -0.269 OA
ENDROOT
BRANCH   1  12
HETATM   12  C6  UNL     1     -25.149  -1.350 -25.555  1.00  0.00     0.185 C 
HETATM   13  O1  UNL     1     -26.089  -2.129 -25.284  1.00  0.00    -0.293 OA
BRANCH  12  14
HETATM   14  C3  UNL     1     -25.302  -0.574 -26.778  1.00  0.00     0.034 C 
HETATM   15  C4  UNL     1     -24.172   0.420 -27.009  1.00  0.00     0.027 C 
HETATM   16  C5  UNL     1     -25.218  -1.508 -28.002  1.00  0.00     0.027 C 
BRANCH  14  17
HETATM   17  C2  UNL     1     -26.631   0.085 -26.926  1.00  0.00    -0.020 C 
HETATM   18  C1  UNL     1     -27.575  -0.412 -27.703  1.00  0.00     0.008 C 
ENDBRANCH  14  17
ENDBRANCH  12  14
ENDBRANCH   1  12
BRANCH   1  19
HETATM   19  N1  UNL     1     -23.306  -0.078 -24.670  1.00  0.00    -0.338 N 
ATOM     20  H1  UNL     1     -23.501   0.527 -25.467  1.00  0.00     0.163 HD
BRANCH  19  21
HETATM   21  C8  UNL     1     -22.360   0.362 -23.744  1.00  0.00     0.182 C 
HETATM   22  N2  UNL     1     -21.057  -0.170 -23.601  1.00  0.00    -0.070 NA
HETATM   23  S1  UNL     1     -22.784   1.600 -22.735  1.00  0.00    -0.044 SA
ENDBRANCH  19  21
ENDBRANCH   1  19
TORSDOF 5
ENDMDL
MODEL 2
REMARK VINA RESULT: -5.409713000      0.331      1.140
REMARK  5 active torsions:
REMARK  status: ('A' for Active; 'I' for Inactive)
REMARK    1  A    between atoms: C2_2  and  C3_3 
REMARK    2  A    between atoms: C3_3  and  C6_6 
REMARK    3  A    between atoms: C6_6  and  C7_8 
REMARK    4  A    between atoms: C7_8  and  N1_9 
REMARK    5  A    between atoms: N1_9  and  C8_11 
ROOT
HETATM    1  C7  UNL     1     -24.079  -1.360 -24.621  1.00  0.00     0.257 C 
HETATM    2  C9  UNL     1     -23.105  -2.401 -25.051  1.00  0.00     0.271 C 
HETATM    3  O2  UNL     1     -22.427  -2.109 -26.095  1.00  0.00    -0.269 OA
HETATM    4  N3  UNL     1     -22.908  -3.622 -24.395  1.00  0.00    -0.276 N 
ATOM      5  H3  UNL     1     -22.338  -4.348 -24.829  1.00  0.00     0.173 HD
HETATM    6  C10 UNL     1     -23.501  -3.852 -23.126  1.00  0.00     0.329 C 
HETATM    7  O3  UNL     1     -23.292  -4.960 -22.587  1.00  0.00    -0.247 OA
HETATM    8  N4  UNL     1     -24.285  -2.825 -22.552  1.00  0.00    -0.276 N 
ATOM      9  H4  UNL     1     -24.714  -2.982 -21.640  1.00  0.00     0.173 HD
HETATM   10  C11 UNL     1     -24.496  -1.573 -23.209  1.00  0.00     0.271 C 
HETATM   11  O4  UNL     1     -25.049  -0.677 -22.523  1.00  0.00    -0.269 OA
ENDROOT
BRANCH   1  12
HETATM   12  C6  UNL     1     -25.185  -1.352 -25.589  1.00  0.00     0.185 C 
HETATM   13  O1  UNL     1     -26.145  -2.099 -25.298  1.00  0.00    -0.293 OA
BRANCH  12  14
HETATM   14  C3  UNL     1     -25.319  -0.604 -26.831  1.00  0.00     0.034 C 
HETATM   15  C4  UNL     1     -26.577   0.252 -26.890  1.00  0.00     0.027 C 
HETATM   16  C5  UNL     1     -24.176   0.424 -26.946  1.00  0.00     0.027 C 
BRANCH  14  17
HETATM   17  C2  UNL     1     -25.179  -1.430 -28.064  1.00  0.00    -0.020 C 
HETATM   18  C1  UNL     1     -25.168  -0.890 -29.269  1.00  0.00     0.008 C 
ENDBRANCH  14  17
ENDBRANCH  12  14
ENDBRANCH   1  12
BRANCH   1  19
HETATM   19  N1  UNL     1     -23.337  -0.088 -24.705  1.00  0.00    -0.338 N 
ATOM     20  H1  UNL     1     -23.529   0.518 -25.502  1.00  0.00     0.163 HD
BRANCH  19  21
HETATM   21  C8  UNL     1     -22.391   0.349 -23.777  1.00  0.00     0.182 C 
HETATM   22  N2  UNL     1     -21.097  -0.201 -23.619  1.00  0.00    -0.070 NA
HETATM   23  S1  UNL     1     -22.804   1.604 -22.785  1.00  0.00    -0.044 SA
ENDBRANCH  19  21
ENDBRANCH   1  19
TORSDOF 5
ENDMDL
MODEL 3
REMARK VINA RESULT: -5.135850718      1.555      1.693
REMARK  5 active torsions:
REMARK  status: ('A' for Active; 'I' for Inactive)
REMARK    1  A    between atoms: C2_2  and  C3_3 
REMARK    2  A    between atoms: C3_3  and  C6_6 
REMARK    3  A    between atoms: C6_6  and  C7_8 
REMARK    4  A    between atoms: C7_8  and  N1_9 
REMARK    5  A    between atoms: N1_9  and  C8_11 
ROOT
HETATM    1  C7  UNL     1     -24.529  -1.512 -25.046  1.00  0.00     0.257 C 
HETATM    2  C9  UNL     1     -23.129  -1.790 -24.623  1.00  0.00     0.271 C 
HETATM    3  O2  UNL     1     -22.312  -0.820 -24.785  1.00  0.00    -0.269 OA
HETATM    4  N3  UNL     1     -22.691  -3.005 -24.081  1.00  0.00    -0.276 N 
ATOM      5  H3  UNL     1     -21.693  -3.177 -23.957  1.00  0.00     0.173 HD
HETATM    6  C10 UNL     1     -23.632  -3.998 -23.706  1.00  0.00     0.329 C 
HETATM    7  O3  UNL     1     -23.184  -5.062 -23.228  1.00  0.00    -0.247 OA
HETATM    8  N4  UNL     1     -25.008  -3.727 -23.892  1.00  0.00    -0.276 N 
ATOM      9  H4  UNL     1     -25.691  -4.436 -23.624  1.00  0.00     0.173 HD
HETATM   10  C11 UNL     1     -25.471  -2.493 -24.444  1.00  0.00     0.271 C 
HETATM   11  O4  UNL     1     -26.711  -2.295 -24.386  1.00  0.00    -0.269 OA
ENDROOT
BRANCH   1  12
HETATM   12  C6  UNL     1     -24.554  -1.467 -26.516  1.00  0.00     0.185 C 
HETATM   13  O1  UNL     1     -23.997  -2.433 -27.081  1.00  0.00    -0.293 OA
BRANCH  12  14
HETATM   14  C3  UNL     1     -25.129  -0.461 -27.398  1.00  0.00     0.034 C 
HETATM   15  C4  UNL     1     -24.209   0.726 -27.645  1.00  0.00     0.027 C 
HETATM   16  C5  UNL     1     -25.336  -1.058 -28.804  1.00  0.00     0.027 C 
BRANCH  14  17
HETATM   17  C2  UNL     1     -26.492  -0.005 -27.003  1.00  0.00    -0.020 C 
HETATM   18  C1  UNL     1     -27.582  -0.629 -27.409  1.00  0.00     0.008 C 
ENDBRANCH  14  17
ENDBRANCH  12  14
ENDBRANCH   1  12
BRANCH   1  19
HETATM   19  N1  UNL     1     -24.832  -0.175 -24.502  1.00  0.00    -0.338 N 
ATOM     20  H1  UNL     1     -25.215   0.519 -25.144  1.00  0.00     0.163 HD
BRANCH  19  21
HETATM   21  C8  UNL     1     -24.635   0.213 -23.177  1.00  0.00     0.182 C 
HETATM   22  N2  UNL     1     -24.228  -0.650 -22.132  1.00  0.00    -0.070 NA
HETATM   23  S1  UNL     1     -24.891   1.798 -22.790  1.00  0.00    -0.044 SA
ENDBRANCH  19  21
ENDBRANCH   1  19
TORSDOF 5
ENDMDL
MODEL 4
REMARK VINA RESULT: -4.961662101      7.107      8.868
REMARK  5 active torsions:
REMARK  status: ('A' for Active; 'I' for Inactive)
REMARK    1  A    between atoms: C2_2  and  C3_3 
REMARK    2  A    between atoms: C3_3  and  C6_6 
REMARK    3  A    between atoms: C6_6  and  C7_8 
REMARK    4  A    between atoms: C7_8  and  N1_9 
REMARK    5  A    between atoms: N1_9  and  C8_11 
ROOT
HETATM    1  C7  UNL     1     -25.780  -3.104 -32.429  1.00  0.00     0.257 C 
HETATM    2  C9  UNL     1     -26.331  -2.833 -33.785  1.00  0.00     0.271 C 
HETATM    3  O2  UNL     1     -25.906  -1.762 -34.338  1.00  0.00    -0.269 OA
HETATM    4  N3  UNL     1     -27.247  -3.659 -34.449  1.00  0.00    -0.276 N 
ATOM      5  H3  UNL     1     -27.697  -3.336 -35.305  1.00  0.00     0.173 HD
HETATM    6  C10 UNL     1     -27.551  -4.944 -33.930  1.00  0.00     0.329 C 
HETATM    7  O3  UNL     1     -28.376  -5.638 -34.563  1.00  0.00    -0.247 OA
HETATM    8  N4  UNL     1     -26.910  -5.361 -32.741  1.00  0.00    -0.276 N 
ATOM      9  H4  UNL     1     -27.123  -6.284 -32.362  1.00  0.00     0.173 HD
HETATM   10  C11 UNL     1     -25.974  -4.530 -32.051  1.00  0.00     0.271 C 
HETATM   11  O4  UNL     1     -25.333  -5.078 -31.119  1.00  0.00    -0.269 OA
ENDROOT
BRANCH   1  12
HETATM   12  C6  UNL     1     -26.383  -2.139 -31.498  1.00  0.00     0.185 C 
HETATM   13  O1  UNL     1     -27.609  -2.289 -31.306  1.00  0.00    -0.293 OA
BRANCH  12  14
HETATM   14  C3  UNL     1     -25.757  -1.042 -30.773  1.00  0.00     0.034 C 
HETATM   15  C4  UNL     1     -24.904  -0.142 -31.655  1.00  0.00     0.027 C 
HETATM   16  C5  UNL     1     -26.841  -0.092 -30.227  1.00  0.00     0.027 C 
BRANCH  14  17
HETATM   17  C2  UNL     1     -25.006  -1.460 -29.554  1.00  0.00    -0.020 C 
HETATM   18  C1  UNL     1     -25.068  -0.776 -28.427  1.00  0.00     0.008 C 
ENDBRANCH  14  17
ENDBRANCH  12  14
ENDBRANCH   1  12
BRANCH   1  19
HETATM   19  N1  UNL     1     -24.333  -2.843 -32.548  1.00  0.00    -0.338 N 
ATOM     20  H1  UNL     1     -23.917  -2.189 -31.886  1.00  0.00     0.163 HD
BRANCH  19  21
HETATM   21  C8  UNL     1     -23.491  -3.421 -33.498  1.00  0.00     0.182 C 
HETATM   22  N2  UNL     1     -23.653  -4.716 -34.043  1.00  0.00    -0.070 NA
HETATM   23  S1  UNL     1     -22.206  -2.532 -34.035  1.00  0.00    -0.044 SA
ENDBRANCH  19  21
ENDBRANCH   1  19
TORSDOF 5
ENDMDL
MODEL 5
REMARK VINA RESULT: -4.831474281      2.240      3.846
REMARK  5 active torsions:
REMARK  status: ('A' for Active; 'I' for Inactive)
REMARK    1  A    between atoms: C2_2  and  C3_3 
REMARK    2  A    between atoms: C3_3  and  C6_6 
REMARK    3  A    between atoms: C6_6  and  C7_8 
REMARK    4  A    between atoms: C7_8  and  N1_9 
REMARK    5  A    between atoms: N1_9  and  C8_11 
ROOT
HETATM    1  C7  UNL     1     -24.106  -0.691 -24.904  1.00  0.00     0.257 C 
HETATM    2  C9  UNL     1     -24.384   0.451 -23.991  1.00  0.00     0.271 C 
HETATM    3  O2  UNL     1     -25.622   0.716 -23.816  1.00  0.00    -0.269 OA
HETATM    4  N3  UNL     1     -23.398   1.210 -23.347  1.00  0.00    -0.276 N 
ATOM      5  H3  UNL     1     -23.653   2.069 -22.860  1.00  0.00     0.173 HD
HETATM    6  C10 UNL     1     -22.044   0.785 -23.371  1.00  0.00     0.329 C 
HETATM    7  O3  UNL     1     -21.207   1.501 -22.780  1.00  0.00    -0.247 OA
HETATM    8  N4  UNL     1     -21.725  -0.411 -24.056  1.00  0.00    -0.276 N 
ATOM      9  H4  UNL     1     -20.754  -0.723 -24.077  1.00  0.00     0.173 HD
HETATM   10  C11 UNL     1     -22.719  -1.195 -24.718  1.00  0.00     0.271 C 
HETATM   11  O4  UNL     1     -22.347  -2.325 -25.126  1.00  0.00    -0.269 OA
ENDROOT
BRANCH   1  12
HETATM   12  C6  UNL     1     -24.419  -0.258 -26.274  1.00  0.00     0.185 C 
HETATM   13  O1  UNL     1     -23.626   0.581 -26.754  1.00  0.00    -0.293 OA
BRANCH  12  14
HETATM   14  C3  UNL     1     -25.515  -0.665 -27.142  1.00  0.00     0.034 C 
HETATM   15  C4  UNL     1     -26.405  -1.739 -26.532  1.00  0.00     0.027 C 
HETATM   16  C5  UNL     1     -26.476   0.521 -27.360  1.00  0.00     0.027 C 
BRANCH  14  17
HETATM   17  C2  UNL     1     -25.097  -1.041 -28.523  1.00  0.00    -0.020 C 
HETATM   18  C1  UNL     1     -25.593  -0.442 -29.590  1.00  0.00     0.008 C 
ENDBRANCH  14  17
ENDBRANCH  12  14
ENDBRANCH   1  12
BRANCH   1  19
HETATM   19  N1  UNL     1     -25.049  -1.746 -24.489  1.00  0.00    -0.338 N 
ATOM     20  H1  UNL     1     -26.000  -1.698 -24.852  1.00  0.00     0.163 HD
BRANCH  19  21
HETATM   21  C8  UNL     1     -24.739  -2.806 -23.637  1.00  0.00     0.182 C 
HETATM   22  N2  UNL     1     -24.628  -2.708 -22.229  1.00  0.00    -0.070 NA
HETATM   23  S1  UNL     1     -24.483  -4.292 -24.312  1.00  0.00    -0.044 SA
ENDBRANCH  19  21
ENDBRANCH   1  19
TORSDOF 5
ENDMDL
