MODEL 1
REMARK VINA RESULT: -6.206955138      0.000      0.000
REMARK  8 active torsions:
REMARK  status: ('A' for Active; 'I' for Inactive)
REMARK    1  A    between atoms: C3_3  and  C4_4 
REMARK    2  A    between atoms: C5_5  and  C6_6 
REMARK    3  A    between atoms: C8_9  and  O2_10 
REMARK    4  A    between atoms: C9_12  and  C10_13 
REMARK    5  A    between atoms: C12_17  and  O5_18 
REMARK    6  A    between atoms: C14_22  and  C15_23 
REMARK    7  A    between atoms: C15_23  and  C16_25 
REMARK    8  A    between atoms: C16_25  and  O8_27 
ROOT
HETATM    1  C6  UNL     1      17.692  44.515 -38.762  1.00  0.00     0.159 C 
HETATM    2  O1  UNL     1      18.937  44.331 -38.182  1.00  0.00    -0.371 OA
HETATM    3  C7  UNL     1      19.813  43.973 -39.203  1.00  0.00     0.181 C 
HETATM    4  C8  UNL     1      20.761  45.129 -39.395  1.00  0.00     0.164 C 
HETATM    5  C9  UNL     1      21.785  44.889 -40.465  1.00  0.00     0.122 C 
HETATM    6  C11 UNL     1      21.223  44.257 -41.704  1.00  0.00     0.078 C 
HETATM    7  C12 UNL     1      20.807  42.821 -41.467  1.00  0.00     0.258 C 
HETATM    8  O6  UNL     1      19.470  42.674 -41.204  1.00  0.00    -0.353 OA
HETATM    9  C13 UNL     1      18.993  43.677 -40.424  1.00  0.00     0.170 C 
HETATM   10  C14 UNL     1      17.664  43.317 -39.735  1.00  0.00     0.122 C 
ENDROOT
BRANCH  10  11
HETATM   11  C15 UNL     1      17.760  42.098 -38.925  1.00  0.00     0.164 C 
HETATM   12  O7  UNL     1      16.912  41.846 -38.051  1.00  0.00    -0.295 OA
BRANCH  11  13
HETATM   13  C16 UNL     1      18.853  41.107 -39.086  1.00  0.00     0.184 C 
HETATM   14  C17 UNL     1      19.087  40.338 -37.780  1.00  0.00     0.047 C 
BRANCH  13  15
HETATM   15  O8  UNL     1      18.657  40.213 -40.104  1.00  0.00    -0.388 OA
ATOM     16  H8  UNL     1      19.456  39.923 -40.528  1.00  0.00     0.210 HD
ENDBRANCH  13  15
ENDBRANCH  11  13
ENDBRANCH  10  11
BRANCH   1  17
HETATM   17  C5  UNL     1      16.591  44.490 -37.816  1.00  0.00     0.006 C 
HETATM   18  C4  UNL     1      15.378  44.844 -38.190  1.00  0.00    -0.002 C 
BRANCH  18  19
HETATM   19  C3  UNL     1      14.278  44.820 -37.245  1.00  0.00    -0.005 C 
HETATM   20  C2  UNL     1      13.424  45.804 -37.213  1.00  0.00    -0.031 C 
HETATM   21  C1  UNL     1      12.302  45.769 -36.244  1.00  0.00     0.036 C 
ENDBRANCH  18  19
ENDBRANCH   1  17
BRANCH   4  22
HETATM   22  O2  UNL     1      20.072  46.324 -39.577  1.00  0.00    -0.392 OA
ATOM     23  H2  UNL     1      20.551  47.058 -39.212  1.00  0.00     0.210 HD
ENDBRANCH   4  22
BRANCH   7  24
HETATM   24  O5  UNL     1      21.106  42.045 -42.608  1.00  0.00    -0.371 OA
ATOM     25  H5  UNL     1      20.433  42.172 -43.267  1.00  0.00     0.212 HD
ENDBRANCH   7  24
BRANCH   5  26
HETATM   26  C10 UNL     1      22.397  46.190 -40.835  1.00  0.00     0.179 C 
HETATM   27  O3  UNL     1      23.211  46.788 -40.089  1.00  0.00    -0.648 OA
HETATM   28  O4  UNL     1      22.055  46.763 -42.048  1.00  0.00    -0.648 OA
ENDBRANCH   5  26
TORSDOF 8
ENDMDL
MODEL 2
REMARK VINA RESULT: -5.885345976      1.976      2.861
REMARK  8 active torsions:
REMARK  status: ('A' for Active; 'I' for Inactive)
REMARK    1  A    between atoms: C3_3  and  C4_4 
REMARK    2  A    between atoms: C5_5  and  C6_6 
REMARK    3  A    between atoms: C8_9  and  O2_10 
REMARK    4  A    between atoms: C9_12  and  C10_13 
REMARK    5  A    between atoms: C12_17  and  O5_18 
REMARK    6  A    between atoms: C14_22  and  C15_23 
REMARK    7  A    between atoms: C15_23  and  C16_25 
REMARK    8  A    between atoms: C16_25  and  O8_27 
ROOT
HETATM    1  C6  UNL     1      17.823  43.631 -39.466  1.00  0.00     0.159 C 
HETATM    2  O1  UNL     1      19.093  44.161 -39.629  1.00  0.00    -0.371 OA
HETATM    3  C7  UNL     1      19.909  43.129 -40.084  1.00  0.00     0.181 C 
HETATM    4  C8  UNL     1      20.268  43.447 -41.512  1.00  0.00     0.164 C 
HETATM    5  C9  UNL     1      21.163  42.423 -42.145  1.00  0.00     0.122 C 
HETATM    6  C11 UNL     1      20.766  41.008 -41.842  1.00  0.00     0.078 C 
HETATM    7  C12 UNL     1      21.009  40.651 -40.391  1.00  0.00     0.258 C 
HETATM    8  O6  UNL     1      19.892  40.766 -39.604  1.00  0.00    -0.353 OA
HETATM    9  C13 UNL     1      19.143  41.846 -39.942  1.00  0.00     0.170 C 
HETATM   10  C14 UNL     1      18.173  42.272 -38.825  1.00  0.00     0.122 C 
ENDROOT
BRANCH  10  11
HETATM   11  C15 UNL     1      18.858  42.554 -37.558  1.00  0.00     0.164 C 
HETATM   12  O7  UNL     1      19.167  43.717 -37.248  1.00  0.00    -0.295 OA
BRANCH  11  13
HETATM   13  C16 UNL     1      19.223  41.494 -36.586  1.00  0.00     0.184 C 
HETATM   14  C17 UNL     1      18.192  40.359 -36.606  1.00  0.00     0.047 C 
BRANCH  13  15
HETATM   15  O8  UNL     1      20.473  40.968 -36.770  1.00  0.00    -0.388 OA
ATOM     16  H8  UNL     1      20.668  40.221 -36.216  1.00  0.00     0.210 HD
ENDBRANCH  13  15
ENDBRANCH  11  13
ENDBRANCH  10  11
BRANCH   1  17
HETATM   17  C5  UNL     1      16.951  44.435 -38.628  1.00  0.00     0.006 C 
HETATM   18  C4  UNL     1      15.688  44.101 -38.460  1.00  0.00    -0.002 C 
BRANCH  18  19
HETATM   19  C3  UNL     1      14.817  44.904 -37.623  1.00  0.00    -0.005 C 
HETATM   20  C2  UNL     1      13.536  44.938 -37.859  1.00  0.00    -0.031 C 
HETATM   21  C1  UNL     1      12.654  45.761 -36.998  1.00  0.00     0.036 C 
ENDBRANCH  18  19
ENDBRANCH   1  17
BRANCH   4  22
HETATM   22  O2  UNL     1      19.132  43.703 -42.274  1.00  0.00    -0.392 OA
ATOM     23  H2  UNL     1      19.081  43.121 -43.023  1.00  0.00     0.210 HD
ENDBRANCH   4  22
BRANCH   7  24
HETATM   24  O5  UNL     1      21.461  39.317 -40.299  1.00  0.00    -0.371 OA
ATOM     25  H5  UNL     1      21.708  39.124 -39.402  1.00  0.00     0.212 HD
ENDBRANCH   7  24
BRANCH   5  26
HETATM   26  C10 UNL     1      21.137  42.615 -43.616  1.00  0.00     0.179 C 
HETATM   27  O3  UNL     1      20.626  41.775 -44.397  1.00  0.00    -0.648 OA
HETATM   28  O4  UNL     1      21.700  43.765 -44.145  1.00  0.00    -0.648 OA
ENDBRANCH   5  26
TORSDOF 8
ENDMDL
MODEL 3
REMARK VINA RESULT: -5.859253252      2.058      3.035
REMARK  8 active torsions:
REMARK  status: ('A' for Active; 'I' for Inactive)
REMARK    1  A    between atoms: C3_3  and  C4_4 
REMARK    2  A    between atoms: C5_5  and  C6_6 
REMARK    3  A    between atoms: C8_9  and  O2_10 
REMARK    4  A    between atoms: C9_12  and  C10_13 
REMARK    5  A    between atoms: C12_17  and  O5_18 
REMARK    6  A    between atoms: C14_22  and  C15_23 
REMARK    7  A    between atoms: C15_23  and  C16_25 
REMARK    8  A    between atoms: C16_25  and  O8_27 
ROOT
HETATM    1  C6  UNL     1      17.735  43.589 -39.620  1.00  0.00     0.159 C 
HETATM    2  O1  UNL     1      18.722  44.505 -39.946  1.00  0.00    -0.371 OA
HETATM    3  C7  UNL     1      19.902  43.786 -40.123  1.00  0.00     0.181 C 
HETATM    4  C8  UNL     1      20.234  43.841 -41.592  1.00  0.00     0.164 C 
HETATM    5  C9  UNL     1      21.497  43.114 -41.946  1.00  0.00     0.122 C 
HETATM    6  C11 UNL     1      21.636  41.784 -41.266  1.00  0.00     0.078 C 
HETATM    7  C12 UNL     1      21.872  41.931 -39.778  1.00  0.00     0.258 C 
HETATM    8  O6  UNL     1      20.732  41.806 -39.028  1.00  0.00    -0.353 OA
HETATM    9  C13 UNL     1      19.663  42.390 -39.627  1.00  0.00     0.170 C 
HETATM   10  C14 UNL     1      18.514  42.681 -38.644  1.00  0.00     0.122 C 
ENDROOT
BRANCH  10  11
HETATM   11  C15 UNL     1      18.934  43.518 -37.515  1.00  0.00     0.164 C 
HETATM   12  O7  UNL     1      18.262  44.505 -37.170  1.00  0.00    -0.295 OA
BRANCH  11  13
HETATM   13  C16 UNL     1      20.163  43.251 -36.727  1.00  0.00     0.184 C 
HETATM   14  C17 UNL     1      20.462  44.414 -35.775  1.00  0.00     0.047 C 
BRANCH  13  15
HETATM   15  O8  UNL     1      20.132  42.083 -36.014  1.00  0.00    -0.388 OA
ATOM     16  H8  UNL     1      19.461  41.471 -36.296  1.00  0.00     0.210 HD
ENDBRANCH  13  15
ENDBRANCH  11  13
ENDBRANCH  10  11
BRANCH   1  17
HETATM   17  C5  UNL     1      16.558  44.182 -39.010  1.00  0.00     0.006 C 
HETATM   18  C4  UNL     1      15.364  43.667 -39.218  1.00  0.00    -0.002 C 
BRANCH  18  19
HETATM   19  C3  UNL     1      14.188  44.259 -38.609  1.00  0.00    -0.005 C 
HETATM   20  C2  UNL     1      14.318  45.081 -37.606  1.00  0.00    -0.031 C 
HETATM   21  C1  UNL     1      13.110  45.682 -36.990  1.00  0.00     0.036 C 
ENDBRANCH  18  19
ENDBRANCH   1  17
BRANCH   4  22
HETATM   22  O2  UNL     1      19.153  43.437 -42.370  1.00  0.00    -0.392 OA
ATOM     23  H2  UNL     1      18.514  44.134 -42.461  1.00  0.00     0.210 HD
ENDBRANCH   4  22
BRANCH   7  24
HETATM   24  O5  UNL     1      22.782  40.944 -39.341  1.00  0.00    -0.371 OA
ATOM     25  H5  UNL     1      22.325  40.300 -38.811  1.00  0.00     0.212 HD
ENDBRANCH   7  24
BRANCH   5  26
HETATM   26  C10 UNL     1      21.525  42.899 -43.414  1.00  0.00     0.179 C 
HETATM   27  O3  UNL     1      21.767  43.826 -44.227  1.00  0.00    -0.648 OA
HETATM   28  O4  UNL     1      21.274  41.628 -43.903  1.00  0.00    -0.648 OA
ENDBRANCH   5  26
TORSDOF 8
ENDMDL
MODEL 4
REMARK VINA RESULT: -5.834303349      1.576      1.870
REMARK  8 active torsions:
REMARK  status: ('A' for Active; 'I' for Inactive)
REMARK    1  A    between atoms: C3_3  and  C4_4 
REMARK    2  A    between atoms: C5_5  and  C6_6 
REMARK    3  A    between atoms: C8_9  and  O2_10 
REMARK    4  A    between atoms: C9_12  and  C10_13 
REMARK    5  A    between atoms: C12_17  and  O5_18 
REMARK    6  A    between atoms: C14_22  and  C15_23 
REMARK    7  A    between atoms: C15_23  and  C16_25 
REMARK    8  A    between atoms: C16_25  and  O8_27 
ROOT
HETATM    1  C6  UNL     1      17.471  44.045 -38.860  1.00  0.00     0.159 C 
HETATM    2  O1  UNL     1      18.158  44.248 -37.674  1.00  0.00    -0.371 OA
HETATM    3  C7  UNL     1      19.475  43.853 -37.894  1.00  0.00     0.181 C 
HETATM    4  C8  UNL     1      20.318  45.101 -37.874  1.00  0.00     0.164 C 
HETATM    5  C9  UNL     1      21.780  44.838 -38.088  1.00  0.00     0.122 C 
HETATM    6  C11 UNL     1      22.058  43.846 -39.178  1.00  0.00     0.078 C 
HETATM    7  C12 UNL     1      21.633  42.446 -38.791  1.00  0.00     0.258 C 
HETATM    8  O6  UNL     1      20.396  42.098 -39.267  1.00  0.00    -0.353 OA
HETATM    9  C13 UNL     1      19.521  43.134 -39.210  1.00  0.00     0.170 C 
HETATM   10  C14 UNL     1      18.052  42.679 -39.283  1.00  0.00     0.122 C 
ENDROOT
BRANCH  10  11
HETATM   11  C15 UNL     1      17.706  41.716 -38.232  1.00  0.00     0.164 C 
HETATM   12  O7  UNL     1      16.591  41.747 -37.683  1.00  0.00    -0.295 OA
BRANCH  11  13
HETATM   13  C16 UNL     1      18.642  40.665 -37.761  1.00  0.00     0.184 C 
HETATM   14  C17 UNL     1      18.091  39.965 -36.514  1.00  0.00     0.047 C 
BRANCH  13  15
HETATM   15  O8  UNL     1      18.952  39.724 -38.705  1.00  0.00    -0.388 OA
ATOM     16  H8  UNL     1      18.357  39.702 -39.445  1.00  0.00     0.210 HD
ENDBRANCH  13  15
ENDBRANCH  11  13
ENDBRANCH  10  11
BRANCH   1  17
HETATM   17  C5  UNL     1      16.027  44.013 -38.707  1.00  0.00     0.006 C 
HETATM   18  C4  UNL     1      15.416  44.888 -37.935  1.00  0.00    -0.002 C 
BRANCH  18  19
HETATM   19  C3  UNL     1      13.974  44.856 -37.782  1.00  0.00    -0.005 C 
HETATM   20  C2  UNL     1      13.394  45.626 -36.905  1.00  0.00    -0.031 C 
HETATM   21  C1  UNL     1      11.920  45.587 -36.756  1.00  0.00     0.036 C 
ENDBRANCH  18  19
ENDBRANCH   1  17
BRANCH   4  22
HETATM   22  O2  UNL     1      19.819  46.063 -38.747  1.00  0.00    -0.392 OA
ATOM     23  H2  UNL     1      19.104  46.549 -38.352  1.00  0.00     0.210 HD
ENDBRANCH   4  22
BRANCH   7  24
HETATM   24  O5  UNL     1      22.563  41.510 -39.295  1.00  0.00    -0.371 OA
ATOM     25  H5  UNL     1      22.112  40.709 -39.537  1.00  0.00     0.212 HD
ENDBRANCH   7  24
BRANCH   5  26
HETATM   26  C10 UNL     1      22.447  46.118 -38.433  1.00  0.00     0.179 C 
HETATM   27  O3  UNL     1      22.594  46.503 -39.620  1.00  0.00    -0.648 OA
HETATM   28  O4  UNL     1      22.924  46.915 -37.406  1.00  0.00    -0.648 OA
ENDBRANCH   5  26
TORSDOF 8
ENDMDL
MODEL 5
REMARK VINA RESULT: -5.822717069      2.108      2.724
REMARK  8 active torsions:
REMARK  status: ('A' for Active; 'I' for Inactive)
REMARK    1  A    between atoms: C3_3  and  C4_4 
REMARK    2  A    between atoms: C5_5  and  C6_6 
REMARK    3  A    between atoms: C8_9  and  O2_10 
REMARK    4  A    between atoms: C9_12  and  C10_13 
REMARK    5  A    between atoms: C12_17  and  O5_18 
REMARK    6  A    between atoms: C14_22  and  C15_23 
REMARK    7  A    between atoms: C15_23  and  C16_25 
REMARK    8  A    between atoms: C16_25  and  O8_27 
ROOT
HETATM    1  C6  UNL     1      17.793  44.806 -38.494  1.00  0.00     0.159 C 
HETATM    2  O1  UNL     1      18.432  44.168 -37.442  1.00  0.00    -0.371 OA
HETATM    3  C7  UNL     1      19.796  44.192 -37.719  1.00  0.00     0.181 C 
HETATM    4  C8  UNL     1      20.431  45.126 -36.722  1.00  0.00     0.164 C 
HETATM    5  C9  UNL     1      21.918  45.252 -36.885  1.00  0.00     0.122 C 
HETATM    6  C11 UNL     1      22.357  45.379 -38.314  1.00  0.00     0.078 C 
HETATM    7  C12 UNL     1      22.155  44.092 -39.085  1.00  0.00     0.258 C 
HETATM    8  O6  UNL     1      20.992  44.064 -39.809  1.00  0.00    -0.353 OA
HETATM    9  C13 UNL     1      19.964  44.646 -39.139  1.00  0.00     0.170 C 
HETATM   10  C14 UNL     1      18.586  44.230 -39.686  1.00  0.00     0.122 C 
ENDROOT
BRANCH  10  11
HETATM   11  C15 UNL     1      18.389  42.776 -39.676  1.00  0.00     0.164 C 
HETATM   12  O7  UNL     1      17.277  42.287 -39.412  1.00  0.00    -0.295 OA
BRANCH  11  13
HETATM   13  C16 UNL     1      19.479  41.813 -39.969  1.00  0.00     0.184 C 
HETATM   14  C17 UNL     1      19.068  40.390 -39.575  1.00  0.00     0.047 C 
BRANCH  13  15
HETATM   15  O8  UNL     1      19.895  41.815 -41.273  1.00  0.00    -0.388 OA
ATOM     16  H8  UNL     1      20.799  41.550 -41.395  1.00  0.00     0.210 HD
ENDBRANCH  13  15
ENDBRANCH  11  13
ENDBRANCH  10  11
BRANCH   1  17
HETATM   17  C5  UNL     1      16.372  44.523 -38.580  1.00  0.00     0.006 C 
HETATM   18  C4  UNL     1      15.553  44.904 -37.620  1.00  0.00    -0.002 C 
BRANCH  18  19
HETATM   19  C3  UNL     1      14.133  44.621 -37.707  1.00  0.00    -0.005 C 
HETATM   20  C2  UNL     1      13.272  45.438 -37.168  1.00  0.00    -0.031 C 
HETATM   21  C1  UNL     1      11.823  45.141 -37.262  1.00  0.00     0.036 C 
ENDBRANCH  18  19
ENDBRANCH   1  17
BRANCH   4  22
HETATM   22  O2  UNL     1      19.792  46.362 -36.709  1.00  0.00    -0.392 OA
ATOM     23  H2  UNL     1      19.947  46.822 -35.892  1.00  0.00     0.210 HD
ENDBRANCH   4  22
BRANCH   7  24
HETATM   24  O5  UNL     1      23.225  43.907 -39.988  1.00  0.00    -0.371 OA
ATOM     25  H5  UNL     1      23.223  44.604 -40.634  1.00  0.00     0.212 HD
ENDBRANCH   7  24
BRANCH   5  26
HETATM   26  C10 UNL     1      22.376  46.451 -36.141  1.00  0.00     0.179 C 
HETATM   27  O3  UNL     1      22.868  47.454 -36.716  1.00  0.00    -0.648 OA
HETATM   28  O4  UNL     1      22.258  46.461 -34.762  1.00  0.00    -0.648 OA
ENDBRANCH   5  26
TORSDOF 8
ENDMDL
