MODEL 1
REMARK VINA RESULT: -7.404646603      0.000      0.000
REMARK  9 active torsions:
REMARK  status: ('A' for Active; 'I' for Inactive)
REMARK    1  A    between atoms: C2_2  and  C3_3 
REMARK    2  A    between atoms: C3_3  and  C4_4 
REMARK    3  A    between atoms: C4_4  and  N1_5 
REMARK    4  A    between atoms: C4_4  and  N3_17 
REMARK       I    between atoms: N1_5  and  C5_7 
REMARK       I    between atoms: C5_7  and  N2_9 
REMARK    5  A    between atoms: N2_9  and  C6_11 
REMARK    6  A    between atoms: N3_17  and  C12_19 
REMARK    7  A    between atoms: C12_19  and  C13_20 
REMARK    8  A    between atoms: C12_19  and  C14_22 
REMARK    9  A    between atoms: C14_22  and  O3_23 
ROOT
HETATM    1  C4  UNL     1      -6.478  19.759 -25.550  1.00  0.00     0.185 C 
ENDROOT
BRANCH   1   2
HETATM    2  C3  UNL     1      -7.161  18.471 -26.057  1.00  0.00     0.072 C 
BRANCH   2   3
HETATM    3  C2  UNL     1      -6.490  17.281 -25.499  1.00  0.00    -0.033 C 
HETATM    4  C1  UNL     1      -7.132  16.447 -24.691  1.00  0.00     0.007 C 
ENDBRANCH   2   3
ENDBRANCH   1   2
BRANCH   1   5
HETATM    5  N1  UNL     1      -7.500  20.357 -24.668  1.00  0.00    -0.322 N 
HETATM    6  C5  UNL     1      -7.524  20.121 -23.285  1.00  0.00     0.318 C 
HETATM    7  O1  UNL     1      -6.686  19.390 -22.706  1.00  0.00    -0.247 OA
HETATM    8  N2  UNL     1      -8.541  20.734 -22.507  1.00  0.00    -0.338 N 
ATOM      9  H2  UNL     1      -9.222  21.328 -22.979  1.00  0.00     0.164 HD
ATOM     10  H1  UNL     1      -8.211  20.961 -25.078  1.00  0.00     0.166 HD
BRANCH   8  11
HETATM   11  C6  UNL     1      -8.657  20.555 -21.072  1.00  0.00     0.086 C 
HETATM   12  C7  UNL     1      -8.233  21.863 -20.431  1.00  0.00     0.025 C 
HETATM   13  C8  UNL     1      -8.944  22.067 -19.108  1.00  0.00     0.002 C 
HETATM   14  C9  UNL     1     -10.426  22.339 -19.332  1.00  0.00     0.000 C 
HETATM   15  C10 UNL     1     -10.851  21.661 -20.598  1.00  0.00     0.002 C 
HETATM   16  C11 UNL     1     -10.126  20.324 -20.742  1.00  0.00     0.025 C 
ENDBRANCH   8  11
ENDBRANCH   1   5
BRANCH   1  17
HETATM   17  N3  UNL     1      -6.360  20.599 -26.678  1.00  0.00    -0.389 N 
ATOM     18  H3  UNL     1      -7.194  20.880 -27.193  1.00  0.00     0.156 HD
BRANCH  17  19
HETATM   19  C12 UNL     1      -5.094  21.047 -27.090  1.00  0.00     0.163 C 
BRANCH  19  20
HETATM   20  C13 UNL     1      -5.172  22.282 -27.902  1.00  0.00     0.258 C 
HETATM   21  O2  UNL     1      -4.773  23.339 -27.473  1.00  0.00    -0.305 OA
ENDBRANCH  19  20
BRANCH  19  22
HETATM   22  C14 UNL     1      -4.302  21.390 -25.814  1.00  0.00     0.196 C 
BRANCH  22  23
HETATM   23  O3  UNL     1      -3.009  21.748 -26.098  1.00  0.00    -0.398 OA
ATOM     24  H3  UNL     1      -2.771  22.568 -25.682  1.00  0.00     0.209 HD
ENDBRANCH  22  23
ENDBRANCH  19  22
ENDBRANCH  17  19
ENDBRANCH   1  17
TORSDOF 9
ENDMDL
MODEL 2
REMARK VINA RESULT: -7.346210762      0.508      1.256
REMARK  9 active torsions:
REMARK  status: ('A' for Active; 'I' for Inactive)
REMARK    1  A    between atoms: C2_2  and  C3_3 
REMARK    2  A    between atoms: C3_3  and  C4_4 
REMARK    3  A    between atoms: C4_4  and  N1_5 
REMARK    4  A    between atoms: C4_4  and  N3_17 
REMARK       I    between atoms: N1_5  and  C5_7 
REMARK       I    between atoms: C5_7  and  N2_9 
REMARK    5  A    between atoms: N2_9  and  C6_11 
REMARK    6  A    between atoms: N3_17  and  C12_19 
REMARK    7  A    between atoms: C12_19  and  C13_20 
REMARK    8  A    between atoms: C12_19  and  C14_22 
REMARK    9  A    between atoms: C14_22  and  O3_23 
ROOT
HETATM    1  C4  UNL     1      -6.023  19.541 -25.695  1.00  0.00     0.185 C 
ENDROOT
BRANCH   1   2
HETATM    2  C3  UNL     1      -6.811  18.318 -26.211  1.00  0.00     0.072 C 
BRANCH   2   3
HETATM    3  C2  UNL     1      -6.397  17.100 -25.487  1.00  0.00    -0.033 C 
HETATM    4  C1  UNL     1      -7.263  16.410 -24.755  1.00  0.00     0.007 C 
ENDBRANCH   2   3
ENDBRANCH   1   2
BRANCH   1   5
HETATM    5  N1  UNL     1      -7.007  20.241 -24.846  1.00  0.00    -0.322 N 
HETATM    6  C5  UNL     1      -7.107  20.004 -23.466  1.00  0.00     0.318 C 
HETATM    7  O1  UNL     1      -6.372  19.187 -22.863  1.00  0.00    -0.247 OA
HETATM    8  N2  UNL     1      -8.080  20.719 -22.720  1.00  0.00    -0.338 N 
ATOM      9  H2  UNL     1      -8.677  21.383 -23.212  1.00  0.00     0.164 HD
ATOM     10  H1  UNL     1      -7.636  20.918 -25.276  1.00  0.00     0.166 HD
BRANCH   8  11
HETATM   11  C6  UNL     1      -8.267  20.548 -21.292  1.00  0.00     0.086 C 
HETATM   12  C7  UNL     1      -7.952  21.885 -20.646  1.00  0.00     0.025 C 
HETATM   13  C8  UNL     1      -8.747  22.062 -19.367  1.00  0.00     0.002 C 
HETATM   14  C9  UNL     1     -10.226  22.248 -19.677  1.00  0.00     0.000 C 
HETATM   15  C10 UNL     1     -10.541  21.534 -20.955  1.00  0.00     0.002 C 
HETATM   16  C11 UNL     1      -9.737  20.239 -21.041  1.00  0.00     0.025 C 
ENDBRANCH   8  11
ENDBRANCH   1   5
BRANCH   1  17
HETATM   17  N3  UNL     1      -5.797  20.355 -26.825  1.00  0.00    -0.389 N 
ATOM     18  H3  UNL     1      -6.097  20.041 -27.748  1.00  0.00     0.156 HD
BRANCH  17  19
HETATM   19  C12 UNL     1      -5.158  21.598 -26.679  1.00  0.00     0.163 C 
BRANCH  19  20
HETATM   20  C13 UNL     1      -3.705  21.459 -26.441  1.00  0.00     0.258 C 
HETATM   21  O2  UNL     1      -2.973  22.420 -26.449  1.00  0.00    -0.305 OA
ENDBRANCH  19  20
BRANCH  19  22
HETATM   22  C14 UNL     1      -5.331  22.350 -28.012  1.00  0.00     0.196 C 
BRANCH  22  23
HETATM   23  O3  UNL     1      -5.078  23.692 -27.877  1.00  0.00    -0.398 OA
ATOM     24  H3  UNL     1      -5.130  24.146 -28.709  1.00  0.00     0.209 HD
ENDBRANCH  22  23
ENDBRANCH  19  22
ENDBRANCH  17  19
ENDBRANCH   1  17
TORSDOF 9
ENDMDL
MODEL 3
REMARK VINA RESULT: -7.121435412      1.779      2.674
REMARK  9 active torsions:
REMARK  status: ('A' for Active; 'I' for Inactive)
REMARK    1  A    between atoms: C2_2  and  C3_3 
REMARK    2  A    between atoms: C3_3  and  C4_4 
REMARK    3  A    between atoms: C4_4  and  N1_5 
REMARK    4  A    between atoms: C4_4  and  N3_17 
REMARK       I    between atoms: N1_5  and  C5_7 
REMARK       I    between atoms: C5_7  and  N2_9 
REMARK    5  A    between atoms: N2_9  and  C6_11 
REMARK    6  A    between atoms: N3_17  and  C12_19 
REMARK    7  A    between atoms: C12_19  and  C13_20 
REMARK    8  A    between atoms: C12_19  and  C14_22 
REMARK    9  A    between atoms: C14_22  and  O3_23 
ROOT
HETATM    1  C4  UNL     1      -6.677  19.247 -23.708  1.00  0.00     0.185 C 
ENDROOT
BRANCH   1   2
HETATM    2  C3  UNL     1      -6.015  17.868 -23.501  1.00  0.00     0.072 C 
BRANCH   2   3
HETATM    3  C2  UNL     1      -7.031  16.863 -23.130  1.00  0.00    -0.033 C 
HETATM    4  C1  UNL     1      -7.386  15.904 -23.975  1.00  0.00     0.007 C 
ENDBRANCH   2   3
ENDBRANCH   1   2
BRANCH   1   5
HETATM    5  N1  UNL     1      -7.725  19.277 -22.669  1.00  0.00    -0.322 N 
HETATM    6  C5  UNL     1      -8.352  20.468 -22.273  1.00  0.00     0.318 C 
HETATM    7  O1  UNL     1      -8.066  21.583 -22.770  1.00  0.00    -0.247 OA
HETATM    8  N2  UNL     1      -9.351  20.410 -21.266  1.00  0.00    -0.338 N 
ATOM      9  H2  UNL     1      -9.582  19.502 -20.863  1.00  0.00     0.164 HD
ATOM     10  H1  UNL     1      -8.003  18.402 -22.225  1.00  0.00     0.166 HD
BRANCH   8  11
HETATM   11  C6  UNL     1     -10.058  21.581 -20.783  1.00  0.00     0.086 C 
HETATM   12  C7  UNL     1     -11.504  21.168 -20.581  1.00  0.00     0.025 C 
HETATM   13  C8  UNL     1     -12.145  21.987 -19.478  1.00  0.00     0.002 C 
HETATM   14  C9  UNL     1     -11.561  21.612 -18.123  1.00  0.00     0.000 C 
HETATM   15  C10 UNL     1     -10.154  21.138 -18.323  1.00  0.00     0.002 C 
HETATM   16  C11 UNL     1      -9.481  21.954 -19.424  1.00  0.00     0.025 C 
ENDBRANCH   8  11
ENDBRANCH   1   5
BRANCH   1  17
HETATM   17  N3  UNL     1      -7.332  19.173 -24.956  1.00  0.00    -0.389 N 
ATOM     18  H3  UNL     1      -8.038  18.456 -25.121  1.00  0.00     0.156 HD
BRANCH  17  19
HETATM   19  C12 UNL     1      -7.010  20.089 -25.973  1.00  0.00     0.163 C 
BRANCH  19  20
HETATM   20  C13 UNL     1      -5.554  20.336 -26.067  1.00  0.00     0.258 C 
HETATM   21  O2  UNL     1      -5.096  21.056 -26.922  1.00  0.00    -0.305 OA
ENDBRANCH  19  20
BRANCH  19  22
HETATM   22  C14 UNL     1      -7.452  19.452 -27.305  1.00  0.00     0.196 C 
BRANCH  22  23
HETATM   23  O3  UNL     1      -7.732  20.402 -28.254  1.00  0.00    -0.398 OA
ATOM     24  H3  UNL     1      -7.849  21.262 -27.869  1.00  0.00     0.209 HD
ENDBRANCH  22  23
ENDBRANCH  19  22
ENDBRANCH  17  19
ENDBRANCH   1  17
TORSDOF 9
ENDMDL
MODEL 4
REMARK VINA RESULT: -6.998964191      1.722      2.238
REMARK  9 active torsions:
REMARK  status: ('A' for Active; 'I' for Inactive)
REMARK    1  A    between atoms: C2_2  and  C3_3 
REMARK    2  A    between atoms: C3_3  and  C4_4 
REMARK    3  A    between atoms: C4_4  and  N1_5 
REMARK    4  A    between atoms: C4_4  and  N3_17 
REMARK       I    between atoms: N1_5  and  C5_7 
REMARK       I    between atoms: C5_7  and  N2_9 
REMARK    5  A    between atoms: N2_9  and  C6_11 
REMARK    6  A    between atoms: N3_17  and  C12_19 
REMARK    7  A    between atoms: C12_19  and  C13_20 
REMARK    8  A    between atoms: C12_19  and  C14_22 
REMARK    9  A    between atoms: C14_22  and  O3_23 
ROOT
HETATM    1  C4  UNL     1      -6.349  18.931 -24.452  1.00  0.00     0.185 C 
ENDROOT
BRANCH   1   2
HETATM    2  C3  UNL     1      -7.557  18.078 -24.893  1.00  0.00     0.072 C 
BRANCH   2   3
HETATM    3  C2  UNL     1      -7.203  16.644 -24.880  1.00  0.00    -0.033 C 
HETATM    4  C1  UNL     1      -7.391  15.901 -23.797  1.00  0.00     0.007 C 
ENDBRANCH   2   3
ENDBRANCH   1   2
BRANCH   1   5
HETATM    5  N1  UNL     1      -6.706  19.334 -23.077  1.00  0.00    -0.322 N 
HETATM    6  C5  UNL     1      -7.707  20.281 -22.812  1.00  0.00     0.318 C 
HETATM    7  O1  UNL     1      -8.363  20.847 -23.719  1.00  0.00    -0.247 OA
HETATM    8  N2  UNL     1      -7.990  20.614 -21.462  1.00  0.00    -0.338 N 
ATOM      9  H2  UNL     1      -7.456  20.153 -20.726  1.00  0.00     0.164 HD
ATOM     10  H1  UNL     1      -6.209  18.910 -22.295  1.00  0.00     0.166 HD
BRANCH   8  11
HETATM   11  C6  UNL     1      -9.003  21.580 -21.079  1.00  0.00     0.086 C 
HETATM   12  C7  UNL     1     -10.264  20.794 -20.775  1.00  0.00     0.025 C 
HETATM   13  C8  UNL     1     -11.107  21.515 -19.741  1.00  0.00     0.002 C 
HETATM   14  C9  UNL     1     -10.428  21.482 -18.378  1.00  0.00     0.000 C 
HETATM   15  C10 UNL     1      -8.946  21.413 -18.583  1.00  0.00     0.002 C 
HETATM   16  C11 UNL     1      -8.547  22.256 -19.792  1.00  0.00     0.025 C 
ENDBRANCH   8  11
ENDBRANCH   1   5
BRANCH   1  17
HETATM   17  N3  UNL     1      -6.390  20.094 -25.250  1.00  0.00    -0.389 N 
ATOM     18  H3  UNL     1      -6.493  21.010 -24.812  1.00  0.00     0.156 HD
BRANCH  17  19
HETATM   19  C12 UNL     1      -6.291  19.990 -26.648  1.00  0.00     0.163 C 
BRANCH  19  20
HETATM   20  C13 UNL     1      -7.561  20.328 -27.328  1.00  0.00     0.258 C 
HETATM   21  O2  UNL     1      -8.020  19.615 -28.188  1.00  0.00    -0.305 OA
ENDBRANCH  19  20
BRANCH  19  22
HETATM   22  C14 UNL     1      -5.242  21.024 -27.100  1.00  0.00     0.196 C 
BRANCH  22  23
HETATM   23  O3  UNL     1      -5.451  21.427 -28.395  1.00  0.00    -0.398 OA
ATOM     24  H3  UNL     1      -6.324  21.206 -28.696  1.00  0.00     0.209 HD
ENDBRANCH  22  23
ENDBRANCH  19  22
ENDBRANCH  17  19
ENDBRANCH   1  17
TORSDOF 9
ENDMDL
MODEL 5
REMARK VINA RESULT: -6.945170814      1.847      2.523
REMARK  9 active torsions:
REMARK  status: ('A' for Active; 'I' for Inactive)
REMARK    1  A    between atoms: C2_2  and  C3_3 
REMARK    2  A    between atoms: C3_3  and  C4_4 
REMARK    3  A    between atoms: C4_4  and  N1_5 
REMARK    4  A    between atoms: C4_4  and  N3_17 
REMARK       I    between atoms: N1_5  and  C5_7 
REMARK       I    between atoms: C5_7  and  N2_9 
REMARK    5  A    between atoms: N2_9  and  C6_11 
REMARK    6  A    between atoms: N3_17  and  C12_19 
REMARK    7  A    between atoms: C12_19  and  C13_20 
REMARK    8  A    between atoms: C12_19  and  C14_22 
REMARK    9  A    between atoms: C14_22  and  O3_23 
ROOT
HETATM    1  C4  UNL     1      -6.720  19.669 -23.703  1.00  0.00     0.185 C 
ENDROOT
BRANCH   1   2
HETATM    2  C3  UNL     1      -6.155  18.240 -23.563  1.00  0.00     0.072 C 
BRANCH   2   3
HETATM    3  C2  UNL     1      -7.242  17.286 -23.269  1.00  0.00    -0.033 C 
HETATM    4  C1  UNL     1      -7.408  16.189 -23.998  1.00  0.00     0.007 C 
ENDBRANCH   2   3
ENDBRANCH   1   2
BRANCH   1   5
HETATM    5  N1  UNL     1      -7.918  19.642 -22.842  1.00  0.00    -0.322 N 
HETATM    6  C5  UNL     1      -8.286  20.732 -22.038  1.00  0.00     0.318 C 
HETATM    7  O1  UNL     1      -7.626  21.797 -21.995  1.00  0.00    -0.247 OA
HETATM    8  N2  UNL     1      -9.454  20.625 -21.238  1.00  0.00    -0.338 N 
ATOM      9  H2  UNL     1      -9.990  19.759 -21.274  1.00  0.00     0.164 HD
ATOM     10  H1  UNL     1      -8.498  18.804 -22.831  1.00  0.00     0.166 HD
BRANCH   8  11
HETATM   11  C6  UNL     1      -9.921  21.691 -20.371  1.00  0.00     0.086 C 
HETATM   12  C7  UNL     1     -11.426  21.771 -20.547  1.00  0.00     0.025 C 
HETATM   13  C8  UNL     1     -12.086  22.276 -19.279  1.00  0.00     0.002 C 
HETATM   14  C9  UNL     1     -11.994  21.232 -18.174  1.00  0.00     0.000 C 
HETATM   15  C10 UNL     1     -10.764  20.407 -18.397  1.00  0.00     0.002 C 
HETATM   16  C11 UNL     1      -9.636  21.287 -18.931  1.00  0.00     0.025 C 
ENDBRANCH   8  11
ENDBRANCH   1   5
BRANCH   1  17
HETATM   17  N3  UNL     1      -7.169  19.774 -25.037  1.00  0.00    -0.389 N 
ATOM     18  H3  UNL     1      -8.122  20.083 -25.231  1.00  0.00     0.156 HD
BRANCH  17  19
HETATM   19  C12 UNL     1      -6.304  19.453 -26.096  1.00  0.00     0.163 C 
BRANCH  19  20
HETATM   20  C13 UNL     1      -7.035  19.160 -27.349  1.00  0.00     0.258 C 
HETATM   21  O2  UNL     1      -7.907  19.893 -27.752  1.00  0.00    -0.305 OA
ENDBRANCH  19  20
BRANCH  19  22
HETATM   22  C14 UNL     1      -5.434  20.697 -26.357  1.00  0.00     0.196 C 
BRANCH  22  23
HETATM   23  O3  UNL     1      -5.301  20.953 -27.698  1.00  0.00    -0.398 OA
ATOM     24  H3  UNL     1      -5.139  20.159 -28.194  1.00  0.00     0.209 HD
ENDBRANCH  22  23
ENDBRANCH  19  22
ENDBRANCH  17  19
ENDBRANCH   1  17
TORSDOF 9
ENDMDL
