MODEL 1
REMARK VINA RESULT: -5.371734462      0.000      0.000
REMARK  0 active torsions:
REMARK  status: ('A' for Active; 'I' for Inactive)
ROOT
HETATM    1  C1  UNL     1      20.821   9.894 -33.057  1.00  0.00     0.002 C 
HETATM    2  C2  UNL     1      20.596   8.830 -34.119  1.00  0.00     0.030 C 
HETATM    3  C3  UNL     1      20.833   7.480 -33.525  1.00  0.00     0.273 C 
HETATM    4  N1  UNL     1      22.197   7.099 -33.404  1.00  0.00     0.098 N 
HETATM    5  C4  UNL     1      22.376   6.220 -32.297  1.00  0.00     0.299 C 
HETATM    6  C5  UNL     1      22.866   6.870 -31.045  1.00  0.00     0.199 C 
HETATM    7  O1  UNL     1      22.729   8.237 -31.123  1.00  0.00    -0.376 OA
HETATM    8  C6  UNL     1      23.343   8.821 -32.192  1.00  0.00     0.094 A 
HETATM    9  C7  UNL     1      23.196  10.295 -32.341  1.00  0.00     0.040 C 
HETATM   10  C8  UNL     1      22.070  10.683 -33.283  1.00  0.00     0.003 C 
HETATM   11  C9  UNL     1      24.461   8.115 -32.845  1.00  0.00     0.079 A 
HETATM   12  C10 UNL     1      23.143   8.162 -33.502  1.00  0.00     0.260 A 
ENDROOT
TORSDOF 0
ENDMDL
MODEL 2
REMARK VINA RESULT: -5.288326530      1.754      3.689
REMARK  0 active torsions:
REMARK  status: ('A' for Active; 'I' for Inactive)
ROOT
HETATM    1  C1  UNL     1      21.718   5.024 -32.338  1.00  0.00     0.002 C 
HETATM    2  C2  UNL     1      20.741   6.091 -31.873  1.00  0.00     0.030 C 
HETATM    3  C3  UNL     1      21.232   7.434 -32.305  1.00  0.00     0.273 C 
HETATM    4  N1  UNL     1      22.260   7.995 -31.499  1.00  0.00     0.098 N 
HETATM    5  C4  UNL     1      23.101   8.842 -32.276  1.00  0.00     0.299 C 
HETATM    6  C5  UNL     1      24.371   8.213 -32.747  1.00  0.00     0.199 C 
HETATM    7  O1  UNL     1      24.314   6.844 -32.611  1.00  0.00    -0.376 OA
HETATM    8  C6  UNL     1      24.041   6.398 -31.352  1.00  0.00     0.094 A 
HETATM    9  C7  UNL     1      23.935   4.926 -31.158  1.00  0.00     0.040 C 
HETATM   10  C8  UNL     1      22.501   4.426 -31.215  1.00  0.00     0.003 C 
HETATM   11  C9  UNL     1      24.330   7.280 -30.204  1.00  0.00     0.079 A 
HETATM   12  C10 UNL     1      22.936   7.079 -30.641  1.00  0.00     0.260 A 
ENDROOT
TORSDOF 0
ENDMDL
MODEL 3
REMARK VINA RESULT: -5.260006504      1.518      2.855
REMARK  0 active torsions:
REMARK  status: ('A' for Active; 'I' for Inactive)
ROOT
HETATM    1  C1  UNL     1      22.057  10.976 -33.341  1.00  0.00     0.002 C 
HETATM    2  C2  UNL     1      22.951  10.868 -32.117  1.00  0.00     0.030 C 
HETATM    3  C3  UNL     1      23.960   9.789 -32.335  1.00  0.00     0.273 C 
HETATM    4  N1  UNL     1      23.488   8.463 -32.132  1.00  0.00     0.098 N 
HETATM    5  C4  UNL     1      24.196   7.545 -32.960  1.00  0.00     0.299 C 
HETATM    6  C5  UNL     1      23.501   7.167 -34.226  1.00  0.00     0.199 C 
HETATM    7  O1  UNL     1      22.466   8.037 -34.489  1.00  0.00    -0.376 OA
HETATM    8  C6  UNL     1      21.540   8.154 -33.495  1.00  0.00     0.094 A 
HETATM    9  C7  UNL     1      20.419   9.107 -33.716  1.00  0.00     0.040 C 
HETATM   10  C8  UNL     1      20.673  10.470 -33.094  1.00  0.00     0.003 C 
HETATM   11  C9  UNL     1      21.402   7.058 -32.516  1.00  0.00     0.079 A 
HETATM   12  C10 UNL     1      22.070   8.311 -32.122  1.00  0.00     0.260 A 
ENDROOT
TORSDOF 0
ENDMDL
MODEL 4
REMARK VINA RESULT: -5.257898428      1.464      3.067
REMARK  0 active torsions:
REMARK  status: ('A' for Active; 'I' for Inactive)
ROOT
HETATM    1  C1  UNL     1      22.721   6.219 -31.276  1.00  0.00     0.002 C 
HETATM    2  C2  UNL     1      21.265   5.854 -31.513  1.00  0.00     0.030 C 
HETATM    3  C3  UNL     1      20.998   5.811 -32.982  1.00  0.00     0.273 C 
HETATM    4  N1  UNL     1      20.803   7.075 -33.603  1.00  0.00     0.098 N 
HETATM    5  C4  UNL     1      21.225   7.037 -34.963  1.00  0.00     0.299 C 
HETATM    6  C5  UNL     1      22.595   7.576 -35.216  1.00  0.00     0.199 C 
HETATM    7  O1  UNL     1      23.294   7.697 -34.036  1.00  0.00    -0.376 OA
HETATM    8  C6  UNL     1      22.690   8.457 -33.079  1.00  0.00     0.094 A 
HETATM    9  C7  UNL     1      23.389   8.591 -31.772  1.00  0.00     0.040 C 
HETATM   10  C8  UNL     1      22.891   7.601 -30.733  1.00  0.00     0.003 C 
HETATM   11  C9  UNL     1      21.687   9.458 -33.491  1.00  0.00     0.079 A 
HETATM   12  C10 UNL     1      21.249   8.203 -32.854  1.00  0.00     0.260 A 
ENDROOT
TORSDOF 0
ENDMDL
MODEL 5
REMARK VINA RESULT: -5.246291641      2.019      3.433
REMARK  0 active torsions:
REMARK  status: ('A' for Active; 'I' for Inactive)
ROOT
HETATM    1  C1  UNL     1      22.359   8.277 -32.987  1.00  0.00     0.002 C 
HETATM    2  C2  UNL     1      22.598   9.714 -32.556  1.00  0.00     0.030 C 
HETATM    3  C3  UNL     1      24.047   9.903 -32.245  1.00  0.00     0.273 C 
HETATM    4  N1  UNL     1      24.464   9.429 -30.970  1.00  0.00     0.098 N 
HETATM    5  C4  UNL     1      25.827   9.019 -31.009  1.00  0.00     0.299 C 
HETATM    6  C5  UNL     1      26.042   7.551 -31.176  1.00  0.00     0.199 C 
HETATM    7  O1  UNL     1      24.882   6.935 -31.588  1.00  0.00    -0.376 OA
HETATM    8  C6  UNL     1      23.801   7.133 -30.781  1.00  0.00     0.094 A 
HETATM    9  C7  UNL     1      22.514   6.516 -31.201  1.00  0.00     0.040 C 
HETATM   10  C8  UNL     1      21.620   7.479 -31.962  1.00  0.00     0.003 C 
HETATM   11  C9  UNL     1      24.024   7.502 -29.369  1.00  0.00     0.079 A 
HETATM   12  C10 UNL     1      23.569   8.524 -30.329  1.00  0.00     0.260 A 
ENDROOT
TORSDOF 0
ENDMDL
