MODEL 1
REMARK VINA RESULT: -5.909326899      0.000      0.000
REMARK  0 active torsions:
REMARK  status: ('A' for Active; 'I' for Inactive)
ROOT
HETATM    1  N1  UNL     1      25.240   9.898 -31.753  1.00  0.00    -0.196 NA
HETATM    2  C1  UNL     1      24.294   9.356 -32.131  1.00  0.00     0.071 C 
HETATM    3  C2  UNL     1      23.109   8.696 -32.618  1.00  0.00     0.076 C 
HETATM    4  C3  UNL     1      21.966   9.620 -32.910  1.00  0.00     0.031 C 
HETATM    5  C4  UNL     1      20.792   8.641 -32.984  1.00  0.00    -0.005 C 
HETATM    6  C5  UNL     1      20.519   8.362 -34.406  1.00  0.00     0.035 C 
HETATM    7  C6  UNL     1      21.440   7.385 -35.062  1.00  0.00     0.273 C 
HETATM    8  N2  UNL     1      22.389   6.864 -34.101  1.00  0.00     0.090 N 
HETATM    9  C7  UNL     1      21.617   6.295 -33.031  1.00  0.00     0.277 C 
HETATM   10  C8  UNL     1      21.194   7.476 -32.148  1.00  0.00     0.020 C 
HETATM   11  C9  UNL     1      22.515   7.871 -31.470  1.00  0.00     0.033 C 
HETATM   12  C10 UNL     1      23.415   7.747 -33.729  1.00  0.00     0.296 C 
ENDROOT
TORSDOF 0
ENDMDL
MODEL 2
REMARK VINA RESULT: -5.737214257      1.123      1.342
REMARK  0 active torsions:
REMARK  status: ('A' for Active; 'I' for Inactive)
ROOT
HETATM    1  N1  UNL     1      24.309  10.933 -32.054  1.00  0.00    -0.196 NA
HETATM    2  C1  UNL     1      23.782   9.915 -32.167  1.00  0.00     0.071 C 
HETATM    3  C2  UNL     1      23.110   8.649 -32.328  1.00  0.00     0.076 C 
HETATM    4  C3  UNL     1      21.655   8.763 -32.666  1.00  0.00     0.031 C 
HETATM    5  C4  UNL     1      21.157   7.349 -32.357  1.00  0.00    -0.005 C 
HETATM    6  C5  UNL     1      21.072   6.606 -33.628  1.00  0.00     0.035 C 
HETATM    7  C6  UNL     1      22.369   6.087 -34.162  1.00  0.00     0.273 C 
HETATM    8  N2  UNL     1      23.447   6.385 -33.243  1.00  0.00     0.090 N 
HETATM    9  C7  UNL     1      23.077   5.814 -31.978  1.00  0.00     0.277 C 
HETATM   10  C8  UNL     1      22.101   6.810 -31.339  1.00  0.00     0.020 C 
HETATM   11  C9  UNL     1      23.025   7.976 -30.952  1.00  0.00     0.033 C 
HETATM   12  C10 UNL     1      23.866   7.725 -33.224  1.00  0.00     0.296 C 
ENDROOT
TORSDOF 0
ENDMDL
MODEL 3
REMARK VINA RESULT: -5.561750724      1.345      3.791
REMARK  0 active torsions:
REMARK  status: ('A' for Active; 'I' for Inactive)
ROOT
HETATM    1  N1  UNL     1      20.195   5.941 -36.305  1.00  0.00    -0.196 NA
HETATM    2  C1  UNL     1      20.662   6.433 -35.373  1.00  0.00     0.071 C 
HETATM    3  C2  UNL     1      21.251   7.026 -34.198  1.00  0.00     0.076 C 
HETATM    4  C3  UNL     1      20.921   6.317 -32.920  1.00  0.00     0.031 C 
HETATM    5  C4  UNL     1      21.304   7.372 -31.878  1.00  0.00    -0.005 C 
HETATM    6  C5  UNL     1      22.640   7.032 -31.354  1.00  0.00     0.035 C 
HETATM    7  C6  UNL     1      23.793   7.406 -32.230  1.00  0.00     0.273 C 
HETATM    8  N2  UNL     1      23.324   8.102 -33.409  1.00  0.00     0.090 N 
HETATM    9  C7  UNL     1      22.566   9.230 -32.945  1.00  0.00     0.277 C 
HETATM   10  C8  UNL     1      21.182   8.682 -32.576  1.00  0.00     0.020 C 
HETATM   11  C9  UNL     1      20.570   8.378 -33.953  1.00  0.00     0.033 C 
HETATM   12  C10 UNL     1      22.709   7.294 -34.379  1.00  0.00     0.296 C 
ENDROOT
TORSDOF 0
ENDMDL
MODEL 4
REMARK VINA RESULT: -5.549155102      1.379      2.469
REMARK  0 active torsions:
REMARK  status: ('A' for Active; 'I' for Inactive)
ROOT
HETATM    1  N1  UNL     1      24.297  10.957 -31.988  1.00  0.00    -0.196 NA
HETATM    2  C1  UNL     1      23.769   9.943 -32.141  1.00  0.00     0.071 C 
HETATM    3  C2  UNL     1      23.129   8.667 -32.336  1.00  0.00     0.076 C 
HETATM    4  C3  UNL     1      23.690   7.864 -33.470  1.00  0.00     0.031 C 
HETATM    5  C4  UNL     1      22.586   6.826 -33.686  1.00  0.00    -0.005 C 
HETATM    6  C5  UNL     1      22.994   5.578 -33.015  1.00  0.00     0.035 C 
HETATM    7  C6  UNL     1      22.801   5.548 -31.533  1.00  0.00     0.273 C 
HETATM    8  N2  UNL     1      22.173   6.772 -31.082  1.00  0.00     0.090 N 
HETATM    9  C7  UNL     1      20.946   6.898 -31.818  1.00  0.00     0.277 C 
HETATM   10  C8  UNL     1      21.336   7.466 -33.188  1.00  0.00     0.020 C 
HETATM   11  C9  UNL     1      21.706   8.919 -32.849  1.00  0.00     0.033 C 
HETATM   12  C10 UNL     1      23.006   7.902 -31.060  1.00  0.00     0.296 C 
ENDROOT
TORSDOF 0
ENDMDL
MODEL 5
REMARK VINA RESULT: -5.464747703      1.906      3.011
REMARK  0 active torsions:
REMARK  status: ('A' for Active; 'I' for Inactive)
ROOT
HETATM    1  N1  UNL     1      23.548   3.856 -30.427  1.00  0.00    -0.196 NA
HETATM    2  C1  UNL     1      23.149   4.755 -31.029  1.00  0.00     0.071 C 
HETATM    3  C2  UNL     1      22.671   5.890 -31.778  1.00  0.00     0.076 C 
HETATM    4  C3  UNL     1      23.070   7.217 -31.207  1.00  0.00     0.031 C 
HETATM    5  C4  UNL     1      22.106   8.162 -31.928  1.00  0.00    -0.005 C 
HETATM    6  C5  UNL     1      22.829   8.783 -33.053  1.00  0.00     0.035 C 
HETATM    7  C6  UNL     1      22.984   7.931 -34.271  1.00  0.00     0.273 C 
HETATM    8  N2  UNL     1      22.305   6.665 -34.089  1.00  0.00     0.090 N 
HETATM    9  C7  UNL     1      20.938   6.974 -33.774  1.00  0.00     0.277 C 
HETATM   10  C8  UNL     1      20.923   7.329 -32.282  1.00  0.00     0.020 C 
HETATM   11  C9  UNL     1      21.148   5.962 -31.615  1.00  0.00     0.033 C 
HETATM   12  C10 UNL     1      22.951   5.754 -33.238  1.00  0.00     0.296 C 
ENDROOT
TORSDOF 0
ENDMDL
