MODEL 1
REMARK VINA RESULT: -5.977624469      0.000      0.000
REMARK  0 active torsions:
REMARK  status: ('A' for Active; 'I' for Inactive)
ROOT
HETATM    1  N1  UNL     1      20.032   5.981 -36.266  1.00  0.00    -0.197 NA
HETATM    2  C1  UNL     1      20.688   6.407 -35.394  1.00  0.00     0.067 C 
HETATM    3  C2  UNL     1      21.499   6.946 -34.303  1.00  0.00     0.126 C 
HETATM    4  C3  UNL     1      21.849   5.878 -33.289  1.00  0.00     0.139 C 
HETATM    5  C4  UNL     1      20.998   6.242 -32.065  1.00  0.00     0.038 C 
HETATM    6  C5  UNL     1      21.128   7.749 -32.121  1.00  0.00    -0.001 C 
HETATM    7  C6  UNL     1      22.535   8.220 -32.072  1.00  0.00     0.014 C 
HETATM    8  C7  UNL     1      22.449   9.550 -32.833  1.00  0.00     0.007 C 
HETATM    9  C8  UNL     1      21.293   9.390 -33.791  1.00  0.00     0.007 C 
HETATM   10  C9  UNL     1      20.731   8.014 -33.579  1.00  0.00     0.010 C 
HETATM   11  C10 UNL     1      23.549   7.308 -32.631  1.00  0.00     0.173 C 
HETATM   12  O1  UNL     1      23.155   6.040 -32.923  1.00  0.00    -0.384 OA
ENDROOT
TORSDOF 0
ENDMDL
MODEL 2
REMARK VINA RESULT: -5.919871317      2.784      3.970
REMARK  0 active torsions:
REMARK  status: ('A' for Active; 'I' for Inactive)
ROOT
HETATM    1  N1  UNL     1      24.298  10.981 -31.928  1.00  0.00    -0.197 NA
HETATM    2  C1  UNL     1      23.991   9.855 -32.028  1.00  0.00     0.067 C 
HETATM    3  C2  UNL     1      23.604   8.449 -32.145  1.00  0.00     0.126 C 
HETATM    4  C3  UNL     1      22.497   8.259 -33.159  1.00  0.00     0.139 C 
HETATM    5  C4  UNL     1      21.268   7.927 -32.303  1.00  0.00     0.038 C 
HETATM    6  C5  UNL     1      21.930   7.050 -31.262  1.00  0.00    -0.001 C 
HETATM    7  C6  UNL     1      22.628   5.875 -31.841  1.00  0.00     0.014 C 
HETATM    8  C7  UNL     1      23.727   5.617 -30.803  1.00  0.00     0.007 C 
HETATM    9  C8  UNL     1      24.006   6.959 -30.171  1.00  0.00     0.007 C 
HETATM   10  C9  UNL     1      23.090   7.953 -30.825  1.00  0.00     0.010 C 
HETATM   11  C10 UNL     1      23.162   6.039 -33.206  1.00  0.00     0.173 C 
HETATM   12  O1  UNL     1      22.774   7.143 -33.898  1.00  0.00    -0.384 OA
ENDROOT
TORSDOF 0
ENDMDL
MODEL 3
REMARK VINA RESULT: -5.839683367      2.966      3.926
REMARK  0 active torsions:
REMARK  status: ('A' for Active; 'I' for Inactive)
ROOT
HETATM    1  N1  UNL     1      23.929   7.296 -28.669  1.00  0.00    -0.197 NA
HETATM    2  C1  UNL     1      23.415   7.606 -29.675  1.00  0.00     0.067 C 
HETATM    3  C2  UNL     1      22.780   7.997 -30.934  1.00  0.00     0.126 C 
HETATM    4  C3  UNL     1      22.231   6.798 -31.676  1.00  0.00     0.139 C 
HETATM    5  C4  UNL     1      23.180   6.640 -32.872  1.00  0.00     0.038 C 
HETATM    6  C5  UNL     1      23.392   8.101 -33.205  1.00  0.00    -0.001 C 
HETATM    7  C6  UNL     1      22.130   8.827 -33.496  1.00  0.00     0.014 C 
HETATM    8  C7  UNL     1      22.489  10.262 -33.085  1.00  0.00     0.007 C 
HETATM    9  C8  UNL     1      23.549  10.121 -32.019  1.00  0.00     0.007 C 
HETATM   10  C9  UNL     1      23.792   8.651 -31.830  1.00  0.00     0.010 C 
HETATM   11  C10 UNL     1      20.919   8.328 -32.819  1.00  0.00     0.173 C 
HETATM   12  O1  UNL     1      21.007   7.128 -32.186  1.00  0.00    -0.384 OA
ENDROOT
TORSDOF 0
ENDMDL
MODEL 4
REMARK VINA RESULT: -5.753183012      2.690      3.930
REMARK  0 active torsions:
REMARK  status: ('A' for Active; 'I' for Inactive)
ROOT
HETATM    1  N1  UNL     1      23.548   7.606 -28.913  1.00  0.00    -0.197 NA
HETATM    2  C1  UNL     1      23.315   7.521 -30.058  1.00  0.00     0.067 C 
HETATM    3  C2  UNL     1      23.014   7.415 -31.486  1.00  0.00     0.126 C 
HETATM    4  C3  UNL     1      23.649   8.540 -32.273  1.00  0.00     0.139 C 
HETATM    5  C4  UNL     1      22.459   9.421 -32.677  1.00  0.00     0.038 C 
HETATM    6  C5  UNL     1      21.450   8.336 -32.984  1.00  0.00    -0.001 C 
HETATM    7  C6  UNL     1      21.909   7.383 -34.025  1.00  0.00     0.014 C 
HETATM    8  C7  UNL     1      21.149   6.106 -33.642  1.00  0.00     0.007 C 
HETATM    9  C8  UNL     1      20.923   6.205 -32.152  1.00  0.00     0.007 C 
HETATM   10  C9  UNL     1      21.531   7.502 -31.699  1.00  0.00     0.010 C 
HETATM   11  C10 UNL     1      23.365   7.171 -34.121  1.00  0.00     0.173 C 
HETATM   12  O1  UNL     1      24.166   8.023 -33.427  1.00  0.00    -0.384 OA
ENDROOT
TORSDOF 0
ENDMDL
MODEL 5
REMARK VINA RESULT: -5.695950627      1.824      2.591
REMARK  0 active torsions:
REMARK  status: ('A' for Active; 'I' for Inactive)
ROOT
HETATM    1  N1  UNL     1      24.278   7.072 -36.407  1.00  0.00    -0.197 NA
HETATM    2  C1  UNL     1      23.563   6.978 -35.484  1.00  0.00     0.067 C 
HETATM    3  C2  UNL     1      22.672   6.870 -34.328  1.00  0.00     0.126 C 
HETATM    4  C3  UNL     1      21.245   6.599 -34.750  1.00  0.00     0.139 C 
HETATM    5  C4  UNL     1      20.519   7.918 -34.458  1.00  0.00     0.038 C 
HETATM    6  C5  UNL     1      21.200   8.285 -33.157  1.00  0.00    -0.001 C 
HETATM    7  C6  UNL     1      21.060   7.245 -32.107  1.00  0.00     0.014 C 
HETATM    8  C7  UNL     1      22.326   7.471 -31.269  1.00  0.00     0.007 C 
HETATM    9  C8  UNL     1      23.341   8.054 -32.223  1.00  0.00     0.007 C 
HETATM   10  C9  UNL     1      22.674   8.162 -33.565  1.00  0.00     0.010 C 
HETATM   11  C10 UNL     1      20.931   5.854 -32.578  1.00  0.00     0.173 C 
HETATM   12  O1  UNL     1      20.715   5.663 -33.907  1.00  0.00    -0.384 OA
ENDROOT
TORSDOF 0
ENDMDL
