MODEL 1
REMARK VINA RESULT: -6.834986039      0.000      0.000
REMARK  11 active torsions:
REMARK  status: ('A' for Active; 'I' for Inactive)
REMARK    1  A    between atoms: C2_2  and  N1_3 
REMARK    2  A    between atoms: C4_5  and  C5_6 
REMARK    3  A    between atoms: C5_6  and  O1_7 
REMARK    4  A    between atoms: C6_9  and  O2_10 
REMARK    5  A    between atoms: C6_9  and  O3_12 
REMARK    6  A    between atoms: O3_12  and  C7_13 
REMARK    7  A    between atoms: C7_13  and  C8_14 
REMARK    8  A    between atoms: C8_14  and  C9_15 
REMARK    9  A    between atoms: C9_15  and  C10_16 
REMARK   10  A    between atoms: C10_16  and  C11_17 
REMARK   11  A    between atoms: N3_22  and  N4_24 
REMARK       I    between atoms: N4_24  and  C13_26 
ROOT
HETATM    1  N1  UNL     1     -27.593  28.151 -16.625  1.00  0.00    -0.341 N 
HETATM    2  C3  UNL     1     -27.187  28.408 -17.962  1.00  0.00     0.103 A 
HETATM    3  C4  UNL     1     -26.730  27.324 -18.549  1.00  0.00     0.028 A 
HETATM    4  C6  UNL     1     -26.810  26.216 -17.611  1.00  0.00     0.253 A 
HETATM    5  C12 UNL     1     -27.354  26.774 -16.385  1.00  0.00     0.167 A 
HETATM    6  N3  UNL     1     -27.610  26.220 -15.244  1.00  0.00    -0.282 N 
ATOM      7  H3  UNL     1     -27.997  26.803 -14.502  1.00  0.00     0.188 HD
ENDROOT
BRANCH   4   8
HETATM    8  O2  UNL     1     -27.805  25.341 -18.127  1.00  0.00    -0.356 OA
ATOM      9  H2  UNL     1     -28.640  25.747 -17.924  1.00  0.00     0.214 HD
ENDBRANCH   4   8
BRANCH   4  10
HETATM   10  O3  UNL     1     -25.685  25.454 -17.489  1.00  0.00    -0.345 OA
BRANCH  10  11
HETATM   11  C7  UNL     1     -25.705  24.187 -17.980  1.00  0.00     0.172 C 
BRANCH  11  12
HETATM   12  C8  UNL     1     -24.318  23.932 -18.592  1.00  0.00     0.027 C 
BRANCH  12  13
HETATM   13  C9  UNL     1     -24.507  23.520 -20.026  1.00  0.00     0.007 C 
BRANCH  13  14
HETATM   14  C10 UNL     1     -23.705  22.292 -20.368  1.00  0.00     0.044 C 
BRANCH  14  15
HETATM   15  C11 UNL     1     -24.344  21.138 -19.638  1.00  0.00     0.052 C 
HETATM   16  N2  UNL     1     -23.939  19.940 -19.793  1.00  0.00    -0.411 N 
ATOM     17  H22 UNL     1     -23.161  19.774 -20.432  1.00  0.00     0.155 HD
ATOM     18  H21 UNL     1     -24.371  19.159 -19.299  1.00  0.00     0.155 HD
ENDBRANCH  14  15
ENDBRANCH  13  14
ENDBRANCH  12  13
ENDBRANCH  11  12
ENDBRANCH  10  11
ENDBRANCH   4  10
BRANCH   3  19
HETATM   19  C5  UNL     1     -26.232  27.311 -19.962  1.00  0.00     0.206 C 
BRANCH  19  20
HETATM   20  O1  UNL     1     -26.967  26.479 -20.760  1.00  0.00    -0.396 OA
ATOM     21  H1  UNL     1     -27.660  26.940 -21.217  1.00  0.00     0.209 HD
ENDBRANCH  19  20
ENDBRANCH   3  19
BRANCH   1  22
HETATM   22  C2  UNL     1     -28.155  29.162 -15.709  1.00  0.00     0.125 C 
HETATM   23  C1  UNL     1     -28.427  30.407 -16.483  1.00  0.00     0.027 C 
ENDBRANCH   1  22
BRANCH   6  24
HETATM   24  N4  UNL     1     -27.390  24.887 -14.974  1.00  0.00    -0.272 N 
HETATM   25  C13 UNL     1     -28.408  23.906 -15.062  1.00  0.00     0.200 C 
HETATM   26  N5  UNL     1     -28.489  22.982 -14.175  1.00  0.00    -0.372 N 
HETATM   27  N6  UNL     1     -29.359  23.915 -16.120  1.00  0.00    -0.062 NA
ATOM     28  H52 UNL     1     -27.807  22.974 -13.416  1.00  0.00     0.158 HD
ATOM     29  H51 UNL     1     -29.221  22.275 -14.238  1.00  0.00     0.158 HD
ATOM     30  H4  UNL     1     -26.453  24.594 -14.698  1.00  0.00     0.189 HD
ENDBRANCH   6  24
TORSDOF 11
ENDMDL
MODEL 2
REMARK VINA RESULT: -6.776371180      1.327      1.430
REMARK  11 active torsions:
REMARK  status: ('A' for Active; 'I' for Inactive)
REMARK    1  A    between atoms: C2_2  and  N1_3 
REMARK    2  A    between atoms: C4_5  and  C5_6 
REMARK    3  A    between atoms: C5_6  and  O1_7 
REMARK    4  A    between atoms: C6_9  and  O2_10 
REMARK    5  A    between atoms: C6_9  and  O3_12 
REMARK    6  A    between atoms: O3_12  and  C7_13 
REMARK    7  A    between atoms: C7_13  and  C8_14 
REMARK    8  A    between atoms: C8_14  and  C9_15 
REMARK    9  A    between atoms: C9_15  and  C10_16 
REMARK   10  A    between atoms: C10_16  and  C11_17 
REMARK   11  A    between atoms: N3_22  and  N4_24 
REMARK       I    between atoms: N4_24  and  C13_26 
ROOT
HETATM    1  N1  UNL     1     -27.550  28.142 -16.640  1.00  0.00    -0.341 N 
HETATM    2  C3  UNL     1     -27.152  28.400 -17.979  1.00  0.00     0.103 A 
HETATM    3  C4  UNL     1     -26.711  27.313 -18.573  1.00  0.00     0.028 A 
HETATM    4  C6  UNL     1     -26.797  26.202 -17.639  1.00  0.00     0.253 A 
HETATM    5  C12 UNL     1     -27.324  26.761 -16.406  1.00  0.00     0.167 A 
HETATM    6  N3  UNL     1     -27.577  26.206 -15.265  1.00  0.00    -0.282 N 
ATOM      7  H3  UNL     1     -27.951  26.790 -14.518  1.00  0.00     0.188 HD
ENDROOT
BRANCH   4   8
HETATM    8  O2  UNL     1     -27.805  25.340 -18.150  1.00  0.00    -0.356 OA
ATOM      9  H2  UNL     1     -27.378  24.794 -18.798  1.00  0.00     0.214 HD
ENDBRANCH   4   8
BRANCH   4  10
HETATM   10  O3  UNL     1     -25.679  25.427 -17.530  1.00  0.00    -0.345 OA
BRANCH  10  11
HETATM   11  C7  UNL     1     -25.740  24.139 -17.958  1.00  0.00     0.172 C 
BRANCH  11  12
HETATM   12  C8  UNL     1     -24.673  23.989 -19.053  1.00  0.00     0.027 C 
BRANCH  12  13
HETATM   13  C9  UNL     1     -24.262  22.544 -19.114  1.00  0.00     0.007 C 
BRANCH  13  14
HETATM   14  C10 UNL     1     -23.051  22.267 -18.263  1.00  0.00     0.044 C 
BRANCH  14  15
HETATM   15  C11 UNL     1     -22.054  23.357 -18.558  1.00  0.00     0.052 C 
HETATM   16  N2  UNL     1     -21.257  23.798 -17.666  1.00  0.00    -0.411 N 
ATOM     17  H22 UNL     1     -21.309  23.391 -16.732  1.00  0.00     0.155 HD
ATOM     18  H21 UNL     1     -20.582  24.536 -17.865  1.00  0.00     0.155 HD
ENDBRANCH  14  15
ENDBRANCH  13  14
ENDBRANCH  12  13
ENDBRANCH  11  12
ENDBRANCH  10  11
ENDBRANCH   4  10
BRANCH   3  19
HETATM   19  C5  UNL     1     -26.226  27.300 -19.991  1.00  0.00     0.206 C 
BRANCH  19  20
HETATM   20  O1  UNL     1     -26.957  26.455 -20.779  1.00  0.00    -0.396 OA
ATOM     21  H1  UNL     1     -27.430  26.919 -21.460  1.00  0.00     0.209 HD
ENDBRANCH  19  20
ENDBRANCH   3  19
BRANCH   1  22
HETATM   22  C2  UNL     1     -28.092  29.156 -15.715  1.00  0.00     0.125 C 
HETATM   23  C1  UNL     1     -28.440  30.376 -16.498  1.00  0.00     0.027 C 
ENDBRANCH   1  22
BRANCH   6  24
HETATM   24  N4  UNL     1     -27.369  24.870 -15.002  1.00  0.00    -0.272 N 
HETATM   25  C13 UNL     1     -28.405  23.904 -15.060  1.00  0.00     0.200 C 
HETATM   26  N5  UNL     1     -28.473  22.981 -14.171  1.00  0.00    -0.372 N 
HETATM   27  N6  UNL     1     -29.386  23.929 -16.090  1.00  0.00    -0.062 NA
ATOM     28  H52 UNL     1     -27.769  22.962 -13.433  1.00  0.00     0.158 HD
ATOM     29  H51 UNL     1     -29.218  22.285 -14.213  1.00  0.00     0.158 HD
ATOM     30  H4  UNL     1     -26.429  24.562 -14.755  1.00  0.00     0.189 HD
ENDBRANCH   6  24
TORSDOF 11
ENDMDL
MODEL 3
REMARK VINA RESULT: -6.601809091      3.216      5.359
REMARK  11 active torsions:
REMARK  status: ('A' for Active; 'I' for Inactive)
REMARK    1  A    between atoms: C2_2  and  N1_3 
REMARK    2  A    between atoms: C4_5  and  C5_6 
REMARK    3  A    between atoms: C5_6  and  O1_7 
REMARK    4  A    between atoms: C6_9  and  O2_10 
REMARK    5  A    between atoms: C6_9  and  O3_12 
REMARK    6  A    between atoms: O3_12  and  C7_13 
REMARK    7  A    between atoms: C7_13  and  C8_14 
REMARK    8  A    between atoms: C8_14  and  C9_15 
REMARK    9  A    between atoms: C9_15  and  C10_16 
REMARK   10  A    between atoms: C10_16  and  C11_17 
REMARK   11  A    between atoms: N3_22  and  N4_24 
REMARK       I    between atoms: N4_24  and  C13_26 
ROOT
HETATM    1  N1  UNL     1     -27.361  30.465 -17.389  1.00  0.00    -0.341 N 
HETATM    2  C3  UNL     1     -27.932  29.906 -16.214  1.00  0.00     0.103 A 
HETATM    3  C4  UNL     1     -27.818  28.597 -16.194  1.00  0.00     0.028 A 
HETATM    4  C6  UNL     1     -27.124  28.169 -17.398  1.00  0.00     0.253 A 
HETATM    5  C12 UNL     1     -26.855  29.381 -18.151  1.00  0.00     0.167 A 
HETATM    6  N3  UNL     1     -26.277  29.556 -19.296  1.00  0.00    -0.282 N 
ATOM      7  H3  UNL     1     -26.188  30.508 -19.650  1.00  0.00     0.188 HD
ENDROOT
BRANCH   4   8
HETATM    8  O2  UNL     1     -25.862  27.678 -16.967  1.00  0.00    -0.356 OA
ATOM      9  H2  UNL     1     -25.223  28.323 -17.245  1.00  0.00     0.214 HD
ENDBRANCH   4   8
BRANCH   4  10
HETATM   10  O3  UNL     1     -27.699  27.139 -18.083  1.00  0.00    -0.345 OA
BRANCH  10  11
HETATM   11  C7  UNL     1     -27.146  25.902 -17.977  1.00  0.00     0.172 C 
BRANCH  11  12
HETATM   12  C8  UNL     1     -28.300  24.928 -17.694  1.00  0.00     0.027 C 
BRANCH  12  13
HETATM   13  C9  UNL     1     -27.924  24.087 -16.506  1.00  0.00     0.007 C 
BRANCH  13  14
HETATM   14  C10 UNL     1     -29.010  24.066 -15.464  1.00  0.00     0.044 C 
BRANCH  14  15
HETATM   15  C11 UNL     1     -29.263  22.620 -15.126  1.00  0.00     0.052 C 
HETATM   16  N2  UNL     1     -29.227  22.195 -13.925  1.00  0.00    -0.411 N 
ATOM     17  H22 UNL     1     -29.020  22.865 -13.185  1.00  0.00     0.155 HD
ATOM     18  H21 UNL     1     -29.398  21.216 -13.696  1.00  0.00     0.155 HD
ENDBRANCH  14  15
ENDBRANCH  13  14
ENDBRANCH  12  13
ENDBRANCH  11  12
ENDBRANCH  10  11
ENDBRANCH   4  10
BRANCH   3  19
HETATM   19  C5  UNL     1     -28.336  27.752 -15.070  1.00  0.00     0.206 C 
BRANCH  19  20
HETATM   20  O1  UNL     1     -27.373  26.926 -14.559  1.00  0.00    -0.396 OA
ATOM     21  H1  UNL     1     -27.473  26.794 -13.624  1.00  0.00     0.209 HD
ENDBRANCH  19  20
ENDBRANCH   3  19
BRANCH   1  22
HETATM   22  C2  UNL     1     -27.326  31.907 -17.702  1.00  0.00     0.125 C 
HETATM   23  C1  UNL     1     -26.647  32.620 -16.583  1.00  0.00     0.027 C 
ENDBRANCH   1  22
BRANCH   6  24
HETATM   24  N4  UNL     1     -25.774  28.528 -20.063  1.00  0.00    -0.272 N 
HETATM   25  C13 UNL     1     -26.368  28.116 -21.282  1.00  0.00     0.200 C 
HETATM   26  N5  UNL     1     -26.460  26.867 -21.562  1.00  0.00    -0.372 N 
HETATM   27  N6  UNL     1     -26.876  29.061 -22.217  1.00  0.00    -0.062 NA
ATOM     28  H52 UNL     1     -26.096  26.190 -20.892  1.00  0.00     0.158 HD
ATOM     29  H51 UNL     1     -26.887  26.570 -22.440  1.00  0.00     0.158 HD
ATOM     30  H4  UNL     1     -24.938  28.042 -19.740  1.00  0.00     0.189 HD
ENDBRANCH   6  24
TORSDOF 11
ENDMDL
MODEL 4
REMARK VINA RESULT: -6.600034073      1.496      1.704
REMARK  11 active torsions:
REMARK  status: ('A' for Active; 'I' for Inactive)
REMARK    1  A    between atoms: C2_2  and  N1_3 
REMARK    2  A    between atoms: C4_5  and  C5_6 
REMARK    3  A    between atoms: C5_6  and  O1_7 
REMARK    4  A    between atoms: C6_9  and  O2_10 
REMARK    5  A    between atoms: C6_9  and  O3_12 
REMARK    6  A    between atoms: O3_12  and  C7_13 
REMARK    7  A    between atoms: C7_13  and  C8_14 
REMARK    8  A    between atoms: C8_14  and  C9_15 
REMARK    9  A    between atoms: C9_15  and  C10_16 
REMARK   10  A    between atoms: C10_16  and  C11_17 
REMARK   11  A    between atoms: N3_22  and  N4_24 
REMARK       I    between atoms: N4_24  and  C13_26 
ROOT
HETATM    1  N1  UNL     1     -27.571  28.155 -16.631  1.00  0.00    -0.341 N 
HETATM    2  C3  UNL     1     -27.167  28.418 -17.968  1.00  0.00     0.103 A 
HETATM    3  C4  UNL     1     -26.708  27.336 -18.558  1.00  0.00     0.028 A 
HETATM    4  C6  UNL     1     -26.786  26.225 -17.624  1.00  0.00     0.253 A 
HETATM    5  C12 UNL     1     -27.329  26.778 -16.396  1.00  0.00     0.167 A 
HETATM    6  N3  UNL     1     -27.583  26.220 -15.256  1.00  0.00    -0.282 N 
ATOM      7  H3  UNL     1     -27.970  26.800 -14.512  1.00  0.00     0.188 HD
ENDROOT
BRANCH   4   8
HETATM    8  O2  UNL     1     -27.780  25.350 -18.142  1.00  0.00    -0.356 OA
ATOM      9  H2  UNL     1     -27.523  25.164 -19.037  1.00  0.00     0.214 HD
ENDBRANCH   4   8
BRANCH   4  10
HETATM   10  O3  UNL     1     -25.659  25.465 -17.506  1.00  0.00    -0.345 OA
BRANCH  10  11
HETATM   11  C7  UNL     1     -25.671  24.206 -18.020  1.00  0.00     0.172 C 
BRANCH  11  12
HETATM   12  C8  UNL     1     -24.350  24.033 -18.786  1.00  0.00     0.027 C 
BRANCH  12  13
HETATM   13  C9  UNL     1     -24.677  23.741 -20.225  1.00  0.00     0.007 C 
BRANCH  13  14
HETATM   14  C10 UNL     1     -23.855  24.577 -21.170  1.00  0.00     0.044 C 
BRANCH  14  15
HETATM   15  C11 UNL     1     -24.449  24.393 -22.543  1.00  0.00     0.052 C 
HETATM   16  N2  UNL     1     -25.432  25.095 -22.948  1.00  0.00    -0.411 N 
ATOM     17  H22 UNL     1     -25.816  25.795 -22.314  1.00  0.00     0.155 HD
ATOM     18  H21 UNL     1     -25.834  24.970 -23.877  1.00  0.00     0.155 HD
ENDBRANCH  14  15
ENDBRANCH  13  14
ENDBRANCH  12  13
ENDBRANCH  11  12
ENDBRANCH  10  11
ENDBRANCH   4  10
BRANCH   3  19
HETATM   19  C5  UNL     1     -26.212  27.329 -19.972  1.00  0.00     0.206 C 
BRANCH  19  20
HETATM   20  O1  UNL     1     -26.967  26.524 -20.779  1.00  0.00    -0.396 OA
ATOM     21  H1  UNL     1     -27.391  25.827 -20.294  1.00  0.00     0.209 HD
ENDBRANCH  19  20
ENDBRANCH   3  19
BRANCH   1  22
HETATM   22  C2  UNL     1     -28.133  29.162 -15.711  1.00  0.00     0.125 C 
HETATM   23  C1  UNL     1     -28.458  30.391 -16.491  1.00  0.00     0.027 C 
ENDBRANCH   1  22
BRANCH   6  24
HETATM   24  N4  UNL     1     -27.360  24.886 -14.991  1.00  0.00    -0.272 N 
HETATM   25  C13 UNL     1     -28.378  23.903 -15.079  1.00  0.00     0.200 C 
HETATM   26  N5  UNL     1     -28.454  22.977 -14.194  1.00  0.00    -0.372 N 
HETATM   27  N6  UNL     1     -29.332  23.915 -16.133  1.00  0.00    -0.062 NA
ATOM     28  H52 UNL     1     -27.770  22.968 -13.437  1.00  0.00     0.158 HD
ATOM     29  H51 UNL     1     -29.186  22.269 -14.257  1.00  0.00     0.158 HD
ATOM     30  H4  UNL     1     -26.422  24.593 -14.719  1.00  0.00     0.189 HD
ENDBRANCH   6  24
TORSDOF 11
ENDMDL
MODEL 5
REMARK VINA RESULT: -6.568955267      2.992      5.717
REMARK  11 active torsions:
REMARK  status: ('A' for Active; 'I' for Inactive)
REMARK    1  A    between atoms: C2_2  and  N1_3 
REMARK    2  A    between atoms: C4_5  and  C5_6 
REMARK    3  A    between atoms: C5_6  and  O1_7 
REMARK    4  A    between atoms: C6_9  and  O2_10 
REMARK    5  A    between atoms: C6_9  and  O3_12 
REMARK    6  A    between atoms: O3_12  and  C7_13 
REMARK    7  A    between atoms: C7_13  and  C8_14 
REMARK    8  A    between atoms: C8_14  and  C9_15 
REMARK    9  A    between atoms: C9_15  and  C10_16 
REMARK   10  A    between atoms: C10_16  and  C11_17 
REMARK   11  A    between atoms: N3_22  and  N4_24 
REMARK       I    between atoms: N4_24  and  C13_26 
ROOT
HETATM    1  N1  UNL     1     -24.460  28.362 -18.171  1.00  0.00    -0.341 N 
HETATM    2  C3  UNL     1     -24.746  26.999 -18.453  1.00  0.00     0.103 A 
HETATM    3  C4  UNL     1     -25.882  26.618 -17.912  1.00  0.00     0.028 A 
HETATM    4  C6  UNL     1     -26.467  27.747 -17.209  1.00  0.00     0.253 A 
HETATM    5  C12 UNL     1     -25.532  28.847 -17.378  1.00  0.00     0.167 A 
HETATM    6  N3  UNL     1     -25.568  30.064 -16.940  1.00  0.00    -0.282 N 
ATOM      7  H3  UNL     1     -24.796  30.685 -17.180  1.00  0.00     0.188 HD
ENDROOT
BRANCH   4   8
HETATM    8  O2  UNL     1     -27.634  28.099 -17.940  1.00  0.00    -0.356 OA
ATOM      9  H2  UNL     1     -27.349  28.714 -18.606  1.00  0.00     0.214 HD
ENDBRANCH   4   8
BRANCH   4  10
HETATM   10  O3  UNL     1     -26.896  27.501 -15.937  1.00  0.00    -0.345 OA
BRANCH  10  11
HETATM   11  C7  UNL     1     -28.233  27.489 -15.696  1.00  0.00     0.172 C 
BRANCH  11  12
HETATM   12  C8  UNL     1     -28.442  26.655 -14.423  1.00  0.00     0.027 C 
BRANCH  12  13
HETATM   13  C9  UNL     1     -28.075  25.229 -14.730  1.00  0.00     0.007 C 
BRANCH  13  14
HETATM   14  C10 UNL     1     -29.116  24.551 -15.581  1.00  0.00     0.044 C 
BRANCH  14  15
HETATM   15  C11 UNL     1     -28.939  23.067 -15.386  1.00  0.00     0.052 C 
HETATM   16  N2  UNL     1     -29.052  22.523 -14.239  1.00  0.00    -0.411 N 
ATOM     17  H22 UNL     1     -29.268  23.122 -13.442  1.00  0.00     0.155 HD
ATOM     18  H21 UNL     1     -28.933  21.519 -14.106  1.00  0.00     0.155 HD
ENDBRANCH  14  15
ENDBRANCH  13  14
ENDBRANCH  12  13
ENDBRANCH  11  12
ENDBRANCH  10  11
ENDBRANCH   4  10
BRANCH   3  19
HETATM   19  C5  UNL     1     -26.423  25.228 -18.052  1.00  0.00     0.206 C 
BRANCH  19  20
HETATM   20  O1  UNL     1     -27.655  25.212 -18.645  1.00  0.00    -0.396 OA
ATOM     21  H1  UNL     1     -28.334  24.908 -18.054  1.00  0.00     0.209 HD
ENDBRANCH  19  20
ENDBRANCH   3  19
BRANCH   1  22
HETATM   22  C2  UNL     1     -23.263  29.085 -18.641  1.00  0.00     0.125 C 
HETATM   23  C1  UNL     1     -22.233  28.086 -19.047  1.00  0.00     0.027 C 
ENDBRANCH   1  22
BRANCH   6  24
HETATM   24  N4  UNL     1     -26.592  30.569 -16.168  1.00  0.00    -0.272 N 
HETATM   25  C13 UNL     1     -26.988  31.929 -16.209  1.00  0.00     0.200 C 
HETATM   26  N5  UNL     1     -27.285  32.544 -15.122  1.00  0.00    -0.372 N 
HETATM   27  N6  UNL     1     -27.066  32.643 -17.437  1.00  0.00    -0.062 NA
ATOM     28  H52 UNL     1     -27.230  32.032 -14.242  1.00  0.00     0.158 HD
ATOM     29  H51 UNL     1     -27.571  33.523 -15.151  1.00  0.00     0.158 HD
ATOM     30  H4  UNL     1     -27.087  29.935 -15.540  1.00  0.00     0.189 HD
ENDBRANCH   6  24
TORSDOF 11
ENDMDL
