MODEL 1
REMARK VINA RESULT: -6.515018284      0.000      0.000
REMARK  3 active torsions:
REMARK  status: ('A' for Active; 'I' for Inactive)
REMARK       I    between atoms: C1_2  and  N1_3 
REMARK    1  A    between atoms: C1_2  and  C7_10 
REMARK    2  A    between atoms: N1_3  and  C2_5 
REMARK    3  A    between atoms: C7_10  and  C8_11 
ROOT
HETATM    1  C7  UNL     1      92.799  22.002  63.816  1.00  0.00     0.068 A 
HETATM    2  C14 UNL     1      91.608  22.240  64.693  1.00  0.00     0.026 A 
HETATM    3  C15 UNL     1      92.787  21.504  65.266  1.00  0.00     0.026 A 
ENDROOT
BRANCH   1   4
HETATM    4  C1  UNL     1      93.742  23.123  63.586  1.00  0.00     0.231 C 
HETATM    5  O1  UNL     1      93.256  24.286  63.811  1.00  0.00    -0.272 OA
HETATM    6  N1  UNL     1      95.067  22.998  63.163  1.00  0.00    -0.355 N 
ATOM      7  H1  UNL     1      95.457  22.072  62.989  1.00  0.00     0.162 HD
BRANCH   6   8
HETATM    8  C2  UNL     1      95.892  24.174  62.970  1.00  0.00     0.084 C 
HETATM    9  C3  UNL     1      97.331  23.790  63.212  1.00  0.00     0.025 C 
HETATM   10  C4  UNL     1      97.964  23.555  61.881  1.00  0.00     0.002 C 
HETATM   11  C5  UNL     1      96.811  23.574  60.902  1.00  0.00     0.002 C 
HETATM   12  C6  UNL     1      95.900  24.611  61.524  1.00  0.00     0.025 C 
ENDBRANCH   6   8
ENDBRANCH   1   4
BRANCH   1  13
HETATM   13  C8  UNL     1      92.616  21.001  62.733  1.00  0.00    -0.037 A 
HETATM   14  C9  UNL     1      93.465  19.943  62.496  1.00  0.00     0.034 A 
HETATM   15  C10 UNL     1      93.244  18.999  61.494  1.00  0.00     0.058 A 
HETATM   16 CL1  UNL     1      94.355  17.676  61.235  1.00  0.00    -0.082 Cl
HETATM   17  C11 UNL     1      92.141  19.090  60.685  1.00  0.00     0.077 A 
HETATM   18 CL2  UNL     1      91.807  17.934  59.407  1.00  0.00    -0.081 Cl
HETATM   19  C12 UNL     1      91.280  20.141  60.906  1.00  0.00     0.058 A 
HETATM   20 CL3  UNL     1      89.857  20.255  59.857  1.00  0.00    -0.082 Cl
HETATM   21  C13 UNL     1      91.501  21.069  61.893  1.00  0.00     0.034 A 
ENDBRANCH   1  13
TORSDOF 3
ENDMDL
MODEL 2
REMARK VINA RESULT: -6.505772709      1.739      2.269
REMARK  3 active torsions:
REMARK  status: ('A' for Active; 'I' for Inactive)
REMARK       I    between atoms: C1_2  and  N1_3 
REMARK    1  A    between atoms: C1_2  and  C7_10 
REMARK    2  A    between atoms: N1_3  and  C2_5 
REMARK    3  A    between atoms: C7_10  and  C8_11 
ROOT
HETATM    1  C7  UNL     1      92.227  22.541  63.488  1.00  0.00     0.068 A 
HETATM    2  C14 UNL     1      90.898  22.887  64.087  1.00  0.00     0.026 A 
HETATM    3  C15 UNL     1      91.928  22.225  64.958  1.00  0.00     0.026 A 
ENDROOT
BRANCH   1   4
HETATM    4  C1  UNL     1      93.225  23.624  63.310  1.00  0.00     0.231 C 
HETATM    5  O1  UNL     1      94.356  23.406  63.871  1.00  0.00    -0.272 OA
HETATM    6  N1  UNL     1      93.023  24.808  62.599  1.00  0.00    -0.355 N 
ATOM      7  H1  UNL     1      92.126  24.980  62.147  1.00  0.00     0.162 HD
BRANCH   6   8
HETATM    8  C2  UNL     1      94.079  25.796  62.498  1.00  0.00     0.084 C 
HETATM    9  C3  UNL     1      94.765  25.625  61.165  1.00  0.00     0.025 C 
HETATM   10  C4  UNL     1      94.200  26.644  60.234  1.00  0.00     0.002 C 
HETATM   11  C5  UNL     1      93.021  27.230  60.981  1.00  0.00     0.002 C 
HETATM   12  C6  UNL     1      93.519  27.196  62.410  1.00  0.00     0.025 C 
ENDBRANCH   6   8
ENDBRANCH   1   4
BRANCH   1  13
HETATM   13  C8  UNL     1      92.228  21.416  62.518  1.00  0.00    -0.037 A 
HETATM   14  C9  UNL     1      93.182  20.423  62.474  1.00  0.00     0.034 A 
HETATM   15  C10 UNL     1      93.132  19.359  61.574  1.00  0.00     0.058 A 
HETATM   16 CL1  UNL     1      94.370  18.127  61.560  1.00  0.00    -0.082 Cl
HETATM   17  C11 UNL     1      92.102  19.257  60.676  1.00  0.00     0.077 A 
HETATM   18 CL2  UNL     1      91.983  17.942  59.519  1.00  0.00    -0.081 Cl
HETATM   19  C12 UNL     1      91.138  20.239  60.705  1.00  0.00     0.058 A 
HETATM   20 CL3  UNL     1      89.810  20.102  59.541  1.00  0.00    -0.082 Cl
HETATM   21  C13 UNL     1      91.190  21.286  61.591  1.00  0.00     0.034 A 
ENDBRANCH   1  13
TORSDOF 3
ENDMDL
MODEL 3
REMARK VINA RESULT: -6.498144879      3.921      6.495
REMARK  3 active torsions:
REMARK  status: ('A' for Active; 'I' for Inactive)
REMARK       I    between atoms: C1_2  and  N1_3 
REMARK    1  A    between atoms: C1_2  and  C7_10 
REMARK    2  A    between atoms: N1_3  and  C2_5 
REMARK    3  A    between atoms: C7_10  and  C8_11 
ROOT
HETATM    1  C7  UNL     1      93.713  24.295  63.045  1.00  0.00     0.068 A 
HETATM    2  C14 UNL     1      95.060  24.038  63.647  1.00  0.00     0.026 A 
HETATM    3  C15 UNL     1      94.047  24.801  64.453  1.00  0.00     0.026 A 
ENDROOT
BRANCH   1   4
HETATM    4  C1  UNL     1      92.721  23.193  63.034  1.00  0.00     0.231 C 
HETATM    5  O1  UNL     1      91.634  23.446  63.662  1.00  0.00    -0.272 OA
HETATM    6  N1  UNL     1      92.886  21.955  62.410  1.00  0.00    -0.355 N 
ATOM      7  H1  UNL     1      93.749  21.754  61.905  1.00  0.00     0.162 HD
BRANCH   6   8
HETATM    8  C2  UNL     1      91.841  20.953  62.473  1.00  0.00     0.084 C 
HETATM    9  C3  UNL     1      91.337  20.701  61.074  1.00  0.00     0.025 C 
HETATM   10  C4  UNL     1      92.007  19.468  60.568  1.00  0.00     0.002 C 
HETATM   11  C5  UNL     1      93.071  19.163  61.601  1.00  0.00     0.002 C 
HETATM   12  C6  UNL     1      92.392  19.606  62.878  1.00  0.00     0.025 C 
ENDBRANCH   6   8
ENDBRANCH   1   4
BRANCH   1  13
HETATM   13  C8  UNL     1      93.677  25.286  61.938  1.00  0.00    -0.037 A 
HETATM   14  C9  UNL     1      92.583  26.059  61.617  1.00  0.00     0.034 A 
HETATM   15  C10 UNL     1      92.595  27.008  60.596  1.00  0.00     0.058 A 
HETATM   16 CL1  UNL     1      91.178  27.962  60.230  1.00  0.00    -0.082 Cl
HETATM   17  C11 UNL     1      93.727  27.213  59.851  1.00  0.00     0.077 A 
HETATM   18 CL2  UNL     1      93.804  28.392  58.552  1.00  0.00    -0.081 Cl
HETATM   19  C12 UNL     1      94.831  26.450  60.156  1.00  0.00     0.058 A 
HETATM   20 CL3  UNL     1      96.291  26.718  59.190  1.00  0.00    -0.082 Cl
HETATM   21  C13 UNL     1      94.817  25.516  61.162  1.00  0.00     0.034 A 
ENDBRANCH   1  13
TORSDOF 3
ENDMDL
MODEL 4
REMARK VINA RESULT: -6.479672664      1.912      2.533
REMARK  3 active torsions:
REMARK  status: ('A' for Active; 'I' for Inactive)
REMARK       I    between atoms: C1_2  and  N1_3 
REMARK    1  A    between atoms: C1_2  and  C7_10 
REMARK    2  A    between atoms: N1_3  and  C2_5 
REMARK    3  A    between atoms: C7_10  and  C8_11 
ROOT
HETATM    1  C7  UNL     1      92.427  22.164  63.768  1.00  0.00     0.068 A 
HETATM    2  C14 UNL     1      91.190  22.986  63.959  1.00  0.00     0.026 A 
HETATM    3  C15 UNL     1      91.550  21.974  65.011  1.00  0.00     0.026 A 
ENDROOT
BRANCH   1   4
HETATM    4  C1  UNL     1      93.741  22.787  64.063  1.00  0.00     0.231 C 
HETATM    5  O1  UNL     1      94.013  23.821  63.359  1.00  0.00    -0.272 OA
HETATM    6  N1  UNL     1      94.656  22.341  65.019  1.00  0.00    -0.355 N 
ATOM      7  H1  UNL     1      94.437  21.521  65.584  1.00  0.00     0.162 HD
BRANCH   6   8
HETATM    8  C2  UNL     1      95.914  23.034  65.214  1.00  0.00     0.084 C 
HETATM    9  C3  UNL     1      95.789  23.912  66.435  1.00  0.00     0.025 C 
HETATM   10  C4  UNL     1      96.413  23.184  67.578  1.00  0.00     0.002 C 
HETATM   11  C5  UNL     1      96.674  21.792  67.046  1.00  0.00     0.002 C 
HETATM   12  C6  UNL     1      97.017  22.078  65.600  1.00  0.00     0.025 C 
ENDBRANCH   6   8
ENDBRANCH   1   4
BRANCH   1  13
HETATM   13  C8  UNL     1      92.361  21.132  62.702  1.00  0.00    -0.037 A 
HETATM   14  C9  UNL     1      93.276  20.114  62.542  1.00  0.00     0.034 A 
HETATM   15  C10 UNL     1      93.164  19.138  61.553  1.00  0.00     0.058 A 
HETATM   16 CL1  UNL     1      94.354  17.869  61.395  1.00  0.00    -0.082 Cl
HETATM   17  C11 UNL     1      92.108  19.153  60.679  1.00  0.00     0.077 A 
HETATM   18 CL2  UNL     1      91.910  17.952  59.414  1.00  0.00    -0.081 Cl
HETATM   19  C12 UNL     1      91.182  20.162  60.822  1.00  0.00     0.058 A 
HETATM   20 CL3  UNL     1      89.821  20.177  59.689  1.00  0.00    -0.082 Cl
HETATM   21  C13 UNL     1      91.296  21.122  61.796  1.00  0.00     0.034 A 
ENDBRANCH   1  13
TORSDOF 3
ENDMDL
MODEL 5
REMARK VINA RESULT: -6.461722048      3.917      6.225
REMARK  3 active torsions:
REMARK  status: ('A' for Active; 'I' for Inactive)
REMARK       I    between atoms: C1_2  and  N1_3 
REMARK    1  A    between atoms: C1_2  and  C7_10 
REMARK    2  A    between atoms: N1_3  and  C2_5 
REMARK    3  A    between atoms: C7_10  and  C8_11 
ROOT
HETATM    1  C7  UNL     1      93.651  24.146  63.042  1.00  0.00     0.068 A 
HETATM    2  C14 UNL     1      94.941  23.776  63.706  1.00  0.00     0.026 A 
HETATM    3  C15 UNL     1      93.933  24.571  64.488  1.00  0.00     0.026 A 
ENDROOT
BRANCH   1   4
HETATM    4  C1  UNL     1      92.593  23.113  62.928  1.00  0.00     0.231 C 
HETATM    5  O1  UNL     1      91.518  23.375  63.574  1.00  0.00    -0.272 OA
HETATM    6  N1  UNL     1      92.685  21.930  62.193  1.00  0.00    -0.355 N 
ATOM      7  H1  UNL     1      93.538  21.723  61.673  1.00  0.00     0.162 HD
BRANCH   6   8
HETATM    8  C2  UNL     1      91.580  20.993  62.161  1.00  0.00     0.084 C 
HETATM    9  C3  UNL     1      91.318  20.614  60.725  1.00  0.00     0.025 C 
HETATM   10  C4  UNL     1      91.982  19.301  60.477  1.00  0.00     0.002 C 
HETATM   11  C5  UNL     1      92.821  19.061  61.713  1.00  0.00     0.002 C 
HETATM   12  C6  UNL     1      91.956  19.674  62.793  1.00  0.00     0.025 C 
ENDBRANCH   6   8
ENDBRANCH   1   4
BRANCH   1  13
HETATM   13  C8  UNL     1      93.743  25.180  61.980  1.00  0.00    -0.037 A 
HETATM   14  C9  UNL     1      94.873  25.436  61.234  1.00  0.00     0.034 A 
HETATM   15  C10 UNL     1      94.914  26.389  60.217  1.00  0.00     0.058 A 
HETATM   16 CL1  UNL     1      96.374  26.674  59.302  1.00  0.00    -0.082 Cl
HETATM   17  C11 UNL     1      93.800  27.127  59.911  1.00  0.00     0.077 A 
HETATM   18 CL2  UNL     1      93.789  28.341  58.642  1.00  0.00    -0.081 Cl
HETATM   19  C12 UNL     1      92.661  26.886  60.645  1.00  0.00     0.058 A 
HETATM   20 CL3  UNL     1      91.225  27.844  60.246  1.00  0.00    -0.082 Cl
HETATM   21  C13 UNL     1      92.623  25.948  61.646  1.00  0.00     0.034 A 
ENDBRANCH   1  13
TORSDOF 3
ENDMDL
