MODEL 1
REMARK VINA RESULT: -8.246166909      0.000      0.000
REMARK  8 active torsions:
REMARK  status: ('A' for Active; 'I' for Inactive)
REMARK    1  A    between atoms: N1_1  and  C1_4 
REMARK    2  A    between atoms: C2_9  and  N4_10 
REMARK    3  A    between atoms: N4_10  and  N5_12 
REMARK    4  A    between atoms: N5_12  and  C3_14 
REMARK    5  A    between atoms: C4_15  and  O1_16 
REMARK    6  A    between atoms: N7_20  and  C5_21 
REMARK    7  A    between atoms: C5_21  and  C6_22 
REMARK    8  A    between atoms: C7_23  and  C8_24 
ROOT
HETATM    1  C3  UNL     1      15.607  15.459   4.950  1.00  0.00     0.170 A 
HETATM    2  C4  UNL     1      16.292  15.410   3.748  1.00  0.00     0.189 A 
HETATM    3  N6  UNL     1      16.530  14.104   3.482  1.00  0.00    -0.273 N 
ATOM      4  H6  UNL     1      17.020  13.752   2.660  1.00  0.00     0.189 HD
HETATM    5  N7  UNL     1      16.029  13.354   4.452  1.00  0.00    -0.250 N 
HETATM    6  C14 UNL     1      15.461  14.149   5.361  1.00  0.00     0.294 A 
HETATM    7  O2  UNL     1      14.873  13.845   6.434  1.00  0.00    -0.264 OA
ENDROOT
BRANCH   1   8
HETATM    8  N5  UNL     1      15.183  16.661   5.558  1.00  0.00    -0.290 N 
ATOM      9  H5  UNL     1      14.210  16.955   5.470  1.00  0.00     0.187 HD
BRANCH   8  10
HETATM   10  N4  UNL     1      15.994  17.376   6.209  1.00  0.00    -0.278 N 
ATOM     11  H4  UNL     1      16.376  17.063   7.100  1.00  0.00     0.189 HD
BRANCH  10  12
HETATM   12  C2  UNL     1      16.360  18.656   5.643  1.00  0.00     0.181 A 
HETATM   13  N3  UNL     1      17.141  18.904   4.605  1.00  0.00    -0.277 N 
HETATM   14  N2  UNL     1      17.360  20.101   4.238  1.00  0.00    -0.278 N 
ATOM     15  H3  UNL     1      17.570  18.131   4.096  1.00  0.00     0.189 HD
HETATM   16  C1  UNL     1      16.785  21.095   4.924  1.00  0.00     0.160 A 
ATOM     17  H2  UNL     1      17.961  20.299   3.439  1.00  0.00     0.189 HD
HETATM   18  S1  UNL     1      15.917  20.236   6.118  1.00  0.00    -0.014 SA
BRANCH  16  19
HETATM   19  N1  UNL     1      16.889  22.386   4.703  1.00  0.00    -0.378 N 
ATOM     20  H12 UNL     1      17.382  22.898   3.971  1.00  0.00     0.158 HD
ATOM     21  H11 UNL     1      16.478  23.146   5.246  1.00  0.00     0.158 HD
ENDBRANCH  16  19
ENDBRANCH  10  12
ENDBRANCH   8  10
ENDBRANCH   1   8
BRANCH   2  22
HETATM   22  O1  UNL     1      16.654  16.513   2.981  1.00  0.00    -0.343 OA
ATOM     23  H1  UNL     1      16.226  16.791   2.180  1.00  0.00     0.219 HD
ENDBRANCH   2  22
BRANCH   5  24
HETATM   24  C5  UNL     1      16.100  11.916   4.495  1.00  0.00     0.179 C 
BRANCH  24  25
HETATM   25  C6  UNL     1      14.721  11.329   4.388  1.00  0.00    -0.009 C 
HETATM   26  C7  UNL     1      13.952  11.681   3.388  1.00  0.00    -0.024 C 
BRANCH  26  27
HETATM   27  C8  UNL     1      12.565  11.188   3.144  1.00  0.00     0.008 C 
HETATM   28  C9  UNL     1      11.926  12.019   2.064  1.00  0.00     0.008 C 
HETATM   29  C10 UNL     1      10.996  11.166   1.268  1.00  0.00     0.001 C 
HETATM   30  C11 UNL     1      11.848  10.195   0.468  1.00  0.00     0.000 C 
HETATM   31  C12 UNL     1      12.745   9.394   1.388  1.00  0.00     0.001 C 
HETATM   32  C13 UNL     1      12.483   9.736   2.836  1.00  0.00     0.008 C 
ENDBRANCH  26  27
ENDBRANCH  24  25
ENDBRANCH   5  24
TORSDOF 8
ENDMDL
MODEL 2
REMARK VINA RESULT: -8.238275623      1.633      2.514
REMARK  8 active torsions:
REMARK  status: ('A' for Active; 'I' for Inactive)
REMARK    1  A    between atoms: N1_1  and  C1_4 
REMARK    2  A    between atoms: C2_9  and  N4_10 
REMARK    3  A    between atoms: N4_10  and  N5_12 
REMARK    4  A    between atoms: N5_12  and  C3_14 
REMARK    5  A    between atoms: C4_15  and  O1_16 
REMARK    6  A    between atoms: N7_20  and  C5_21 
REMARK    7  A    between atoms: C5_21  and  C6_22 
REMARK    8  A    between atoms: C7_23  and  C8_24 
ROOT
HETATM    1  C3  UNL     1      16.175  16.940   6.152  1.00  0.00     0.170 A 
HETATM    2  C4  UNL     1      14.827  16.666   6.311  1.00  0.00     0.189 A 
HETATM    3  N6  UNL     1      14.475  15.825   5.309  1.00  0.00    -0.273 N 
ATOM      4  H6  UNL     1      13.540  15.445   5.162  1.00  0.00     0.189 HD
HETATM    5  N7  UNL     1      15.531  15.572   4.550  1.00  0.00    -0.250 N 
HETATM    6  C14 UNL     1      16.581  16.236   5.037  1.00  0.00     0.294 A 
HETATM    7  O2  UNL     1      17.769  16.271   4.618  1.00  0.00    -0.264 OA
ENDROOT
BRANCH   1   8
HETATM    8  N5  UNL     1      16.905  17.789   7.015  1.00  0.00    -0.290 N 
ATOM      9  H5  UNL     1      16.812  17.681   8.025  1.00  0.00     0.187 HD
BRANCH   8  10
HETATM   10  N4  UNL     1      17.670  18.677   6.550  1.00  0.00    -0.278 N 
ATOM     11  H4  UNL     1      18.662  18.697   6.787  1.00  0.00     0.189 HD
BRANCH  10  12
HETATM   12  C2  UNL     1      17.090  19.666   5.668  1.00  0.00     0.181 A 
HETATM   13  N3  UNL     1      17.522  20.070   4.485  1.00  0.00    -0.277 N 
HETATM   14  N2  UNL     1      16.884  20.957   3.837  1.00  0.00    -0.278 N 
ATOM     15  H3  UNL     1      18.372  19.667   4.091  1.00  0.00     0.189 HD
HETATM   16  C1  UNL     1      15.772  21.468   4.379  1.00  0.00     0.160 A 
ATOM     17  H2  UNL     1      17.211  21.273   2.925  1.00  0.00     0.189 HD
HETATM   18  S1  UNL     1      15.684  20.619   5.858  1.00  0.00    -0.014 SA
BRANCH  16  19
HETATM   19  N1  UNL     1      14.982  22.387   3.870  1.00  0.00    -0.378 N 
ATOM     20  H12 UNL     1      14.585  22.478   2.935  1.00  0.00     0.158 HD
ATOM     21  H11 UNL     1      14.605  23.211   4.337  1.00  0.00     0.158 HD
ENDBRANCH  16  19
ENDBRANCH  10  12
ENDBRANCH   8  10
ENDBRANCH   1   8
BRANCH   2  22
HETATM   22  O1  UNL     1      14.014  17.173   7.318  1.00  0.00    -0.343 OA
ATOM     23  H1  UNL     1      13.667  16.676   8.050  1.00  0.00     0.219 HD
ENDBRANCH   2  22
BRANCH   5  24
HETATM   24  C5  UNL     1      15.520  14.715   3.392  1.00  0.00     0.179 C 
BRANCH  24  25
HETATM   25  C6  UNL     1      14.516  13.613   3.576  1.00  0.00    -0.009 C 
HETATM   26  C7  UNL     1      14.929  12.422   3.932  1.00  0.00    -0.024 C 
BRANCH  26  27
HETATM   27  C8  UNL     1      14.061  11.230   4.154  1.00  0.00     0.008 C 
HETATM   28  C9  UNL     1      12.947  11.232   3.142  1.00  0.00     0.008 C 
HETATM   29  C10 UNL     1      12.594   9.825   2.791  1.00  0.00     0.001 C 
HETATM   30  C11 UNL     1      13.755   9.256   1.993  1.00  0.00     0.000 C 
HETATM   31  C12 UNL     1      15.044   9.365   2.781  1.00  0.00     0.001 C 
HETATM   32  C13 UNL     1      14.794   9.937   4.156  1.00  0.00     0.008 C 
ENDBRANCH  26  27
ENDBRANCH  24  25
ENDBRANCH   5  24
TORSDOF 8
ENDMDL
MODEL 3
REMARK VINA RESULT: -8.150392598      1.597      2.194
REMARK  8 active torsions:
REMARK  status: ('A' for Active; 'I' for Inactive)
REMARK    1  A    between atoms: N1_1  and  C1_4 
REMARK    2  A    between atoms: C2_9  and  N4_10 
REMARK    3  A    between atoms: N4_10  and  N5_12 
REMARK    4  A    between atoms: N5_12  and  C3_14 
REMARK    5  A    between atoms: C4_15  and  O1_16 
REMARK    6  A    between atoms: N7_20  and  C5_21 
REMARK    7  A    between atoms: C5_21  and  C6_22 
REMARK    8  A    between atoms: C7_23  and  C8_24 
ROOT
HETATM    1  C3  UNL     1      16.029  16.731   6.212  1.00  0.00     0.170 A 
HETATM    2  C4  UNL     1      14.656  16.627   6.361  1.00  0.00     0.189 A 
HETATM    3  N6  UNL     1      14.209  15.835   5.358  1.00  0.00    -0.273 N 
ATOM      4  H6  UNL     1      13.235  15.574   5.205  1.00  0.00     0.189 HD
HETATM    5  N7  UNL     1      15.230  15.449   4.608  1.00  0.00    -0.250 N 
HETATM    6  C14 UNL     1      16.351  15.978   5.101  1.00  0.00     0.294 A 
HETATM    7  O2  UNL     1      17.538  15.864   4.691  1.00  0.00    -0.264 OA
ENDROOT
BRANCH   1   8
HETATM    8  N5  UNL     1      16.853  17.483   7.079  1.00  0.00    -0.290 N 
ATOM      9  H5  UNL     1      16.824  17.305   8.083  1.00  0.00     0.187 HD
BRANCH   8  10
HETATM   10  N4  UNL     1      17.624  18.373   6.625  1.00  0.00    -0.278 N 
ATOM     11  H4  UNL     1      18.613  18.390   6.871  1.00  0.00     0.189 HD
BRANCH  10  12
HETATM   12  C2  UNL     1      17.052  19.366   5.743  1.00  0.00     0.181 A 
HETATM   13  N3  UNL     1      17.376  19.639   4.490  1.00  0.00    -0.277 N 
HETATM   14  N2  UNL     1      16.766  20.555   3.854  1.00  0.00    -0.278 N 
ATOM     15  H3  UNL     1      18.120  19.113   4.031  1.00  0.00     0.189 HD
HETATM   16  C1  UNL     1      15.796  21.230   4.480  1.00  0.00     0.160 A 
ATOM     17  H2  UNL     1      17.011  20.770   2.888  1.00  0.00     0.189 HD
HETATM   18  S1  UNL     1      15.798  20.493   6.020  1.00  0.00    -0.014 SA
BRANCH  16  19
HETATM   19  N1  UNL     1      15.057  22.203   3.997  1.00  0.00    -0.378 N 
ATOM     20  H12 UNL     1      15.322  23.081   3.550  1.00  0.00     0.158 HD
ATOM     21  H11 UNL     1      14.038  22.260   3.977  1.00  0.00     0.158 HD
ENDBRANCH  16  19
ENDBRANCH  10  12
ENDBRANCH   8  10
ENDBRANCH   1   8
BRANCH   2  22
HETATM   22  O1  UNL     1      13.906  17.235   7.362  1.00  0.00    -0.343 OA
ATOM     23  H1  UNL     1      13.001  17.034   7.571  1.00  0.00     0.219 HD
ENDBRANCH   2  22
BRANCH   5  24
HETATM   24  C5  UNL     1      15.121  14.598   3.451  1.00  0.00     0.179 C 
BRANCH  24  25
HETATM   25  C6  UNL     1      13.755  13.973   3.399  1.00  0.00    -0.009 C 
HETATM   26  C7  UNL     1      13.639  12.714   3.057  1.00  0.00    -0.024 C 
BRANCH  26  27
HETATM   27  C8  UNL     1      12.360  11.953   2.960  1.00  0.00     0.008 C 
HETATM   28  C9  UNL     1      11.662  12.318   1.677  1.00  0.00     0.008 C 
HETATM   29  C10 UNL     1      10.918  11.130   1.164  1.00  0.00     0.001 C 
HETATM   30  C11 UNL     1      11.951  10.120   0.695  1.00  0.00     0.000 C 
HETATM   31  C12 UNL     1      12.908   9.779   1.818  1.00  0.00     0.001 C 
HETATM   32  C13 UNL     1      12.518  10.482   3.097  1.00  0.00     0.008 C 
ENDBRANCH  26  27
ENDBRANCH  24  25
ENDBRANCH   5  24
TORSDOF 8
ENDMDL
MODEL 4
REMARK VINA RESULT: -8.129098684      1.653      1.922
REMARK  8 active torsions:
REMARK  status: ('A' for Active; 'I' for Inactive)
REMARK    1  A    between atoms: N1_1  and  C1_4 
REMARK    2  A    between atoms: C2_9  and  N4_10 
REMARK    3  A    between atoms: N4_10  and  N5_12 
REMARK    4  A    between atoms: N5_12  and  C3_14 
REMARK    5  A    between atoms: C4_15  and  O1_16 
REMARK    6  A    between atoms: N7_20  and  C5_21 
REMARK    7  A    between atoms: C5_21  and  C6_22 
REMARK    8  A    between atoms: C7_23  and  C8_24 
ROOT
HETATM    1  C3  UNL     1      16.763  15.667   5.459  1.00  0.00     0.170 A 
HETATM    2  C4  UNL     1      17.532  15.156   4.428  1.00  0.00     0.189 A 
HETATM    3  N6  UNL     1      16.678  14.790   3.442  1.00  0.00    -0.273 N 
ATOM      4  H6  UNL     1      16.952  14.378   2.551  1.00  0.00     0.189 HD
HETATM    5  N7  UNL     1      15.434  15.048   3.814  1.00  0.00    -0.250 N 
HETATM    6  C14 UNL     1      15.451  15.582   5.037  1.00  0.00     0.294 A 
HETATM    7  O2  UNL     1      14.490  15.970   5.754  1.00  0.00    -0.264 OA
ENDROOT
BRANCH   1   8
HETATM    8  N5  UNL     1      17.305  16.156   6.669  1.00  0.00    -0.290 N 
ATOM      9  H5  UNL     1      18.049  15.635   7.134  1.00  0.00     0.187 HD
BRANCH   8  10
HETATM   10  N4  UNL     1      16.880  17.228   7.179  1.00  0.00    -0.278 N 
ATOM     11  H4  UNL     1      16.659  17.289   8.173  1.00  0.00     0.189 HD
BRANCH  10  12
HETATM   12  C2  UNL     1      16.719  18.368   6.304  1.00  0.00     0.181 A 
HETATM   13  N3  UNL     1      15.623  19.065   6.052  1.00  0.00    -0.277 N 
HETATM   14  N2  UNL     1      15.658  20.047   5.248  1.00  0.00    -0.278 N 
ATOM     15  H3  UNL     1      14.745  18.812   6.506  1.00  0.00     0.189 HD
HETATM   16  C1  UNL     1      16.823  20.356   4.666  1.00  0.00     0.160 A 
ATOM     17  H2  UNL     1      14.817  20.589   5.049  1.00  0.00     0.189 HD
HETATM   18  S1  UNL     1      17.864  19.174   5.325  1.00  0.00    -0.014 SA
BRANCH  16  19
HETATM   19  N1  UNL     1      17.059  21.327   3.812  1.00  0.00    -0.378 N 
ATOM     20  H12 UNL     1      17.664  22.145   3.886  1.00  0.00     0.158 HD
ATOM     21  H11 UNL     1      16.665  21.444   2.878  1.00  0.00     0.158 HD
ENDBRANCH  16  19
ENDBRANCH  10  12
ENDBRANCH   8  10
ENDBRANCH   1   8
BRANCH   2  22
HETATM   22  O1  UNL     1      18.919  15.051   4.432  1.00  0.00    -0.343 OA
ATOM     23  H1  UNL     1      19.433  14.525   3.830  1.00  0.00     0.219 HD
ENDBRANCH   2  22
BRANCH   5  24
HETATM   24  C5  UNL     1      14.267  14.785   3.011  1.00  0.00     0.179 C 
BRANCH  24  25
HETATM   25  C6  UNL     1      13.755  13.399   3.286  1.00  0.00    -0.009 C 
HETATM   26  C7  UNL     1      12.749  12.938   2.585  1.00  0.00    -0.024 C 
BRANCH  26  27
HETATM   27  C8  UNL     1      12.129  11.590   2.737  1.00  0.00     0.008 C 
HETATM   28  C9  UNL     1      11.808  11.034   1.376  1.00  0.00     0.008 C 
HETATM   29  C10 UNL     1      11.967   9.550   1.397  1.00  0.00     0.001 C 
HETATM   30  C11 UNL     1      13.453   9.259   1.524  1.00  0.00     0.000 C 
HETATM   31  C12 UNL     1      14.023   9.933   2.754  1.00  0.00     0.001 C 
HETATM   32  C13 UNL     1      12.941  10.637   3.539  1.00  0.00     0.008 C 
ENDBRANCH  26  27
ENDBRANCH  24  25
ENDBRANCH   5  24
TORSDOF 8
ENDMDL
MODEL 5
REMARK VINA RESULT: -8.115318705      3.582      4.572
REMARK  8 active torsions:
REMARK  status: ('A' for Active; 'I' for Inactive)
REMARK    1  A    between atoms: N1_1  and  C1_4 
REMARK    2  A    between atoms: C2_9  and  N4_10 
REMARK    3  A    between atoms: N4_10  and  N5_12 
REMARK    4  A    between atoms: N5_12  and  C3_14 
REMARK    5  A    between atoms: C4_15  and  O1_16 
REMARK    6  A    between atoms: N7_20  and  C5_21 
REMARK    7  A    between atoms: C5_21  and  C6_22 
REMARK    8  A    between atoms: C7_23  and  C8_24 
ROOT
HETATM    1  C3  UNL     1      16.835  15.535   5.313  1.00  0.00     0.170 A 
HETATM    2  C4  UNL     1      15.830  16.210   5.986  1.00  0.00     0.189 A 
HETATM    3  N6  UNL     1      14.693  16.040   5.270  1.00  0.00    -0.273 N 
ATOM      4  H6  UNL     1      13.781  16.423   5.517  1.00  0.00     0.189 HD
HETATM    5  N7  UNL     1      14.947  15.302   4.201  1.00  0.00    -0.250 N 
HETATM    6  C14 UNL     1      16.242  14.978   4.198  1.00  0.00     0.294 A 
HETATM    7  O2  UNL     1      16.893  14.291   3.365  1.00  0.00    -0.264 OA
ENDROOT
BRANCH   1   8
HETATM    8  N5  UNL     1      18.174  15.484   5.759  1.00  0.00    -0.290 N 
ATOM      9  H5  UNL     1      18.375  15.223   6.725  1.00  0.00     0.187 HD
BRANCH   8  10
HETATM   10  N4  UNL     1      19.126  15.758   4.977  1.00  0.00    -0.278 N 
ATOM     11  H4  UNL     1      18.975  16.318   4.138  1.00  0.00     0.189 HD
BRANCH  10  12
HETATM   12  C2  UNL     1      20.437  15.249   5.314  1.00  0.00     0.181 A 
HETATM   13  N3  UNL     1      21.242  14.496   4.582  1.00  0.00    -0.277 N 
HETATM   14  N2  UNL     1      22.371  14.135   5.036  1.00  0.00    -0.278 N 
ATOM     15  H3  UNL     1      20.954  14.205   3.648  1.00  0.00     0.189 HD
HETATM   16  C1  UNL     1      22.723  14.532   6.265  1.00  0.00     0.160 A 
ATOM     17  H2  UNL     1      22.996  13.555   4.478  1.00  0.00     0.189 HD
HETATM   18  S1  UNL     1      21.361  15.446   6.737  1.00  0.00    -0.014 SA
BRANCH  16  19
HETATM   19  N1  UNL     1      23.839  14.263   6.905  1.00  0.00    -0.378 N 
ATOM     20  H12 UNL     1      24.731  13.904   6.564  1.00  0.00     0.158 HD
ATOM     21  H11 UNL     1      24.025  14.370   7.902  1.00  0.00     0.158 HD
ENDBRANCH  16  19
ENDBRANCH  10  12
ENDBRANCH   8  10
ENDBRANCH   1   8
BRANCH   2  22
HETATM   22  O1  UNL     1      15.990  16.919   7.171  1.00  0.00    -0.343 OA
ATOM     23  H1  UNL     1      15.790  16.592   8.041  1.00  0.00     0.219 HD
ENDBRANCH   2  22
BRANCH   5  24
HETATM   24  C5  UNL     1      13.967  14.923   3.215  1.00  0.00     0.179 C 
BRANCH  24  25
HETATM   25  C6  UNL     1      13.466  13.534   3.494  1.00  0.00    -0.009 C 
HETATM   26  C7  UNL     1      12.670  12.955   2.630  1.00  0.00    -0.024 C 
BRANCH  26  27
HETATM   27  C8  UNL     1      12.092  11.587   2.762  1.00  0.00     0.008 C 
HETATM   28  C9  UNL     1      11.795  11.038   1.393  1.00  0.00     0.008 C 
HETATM   29  C10 UNL     1      12.000   9.560   1.395  1.00  0.00     0.001 C 
HETATM   30  C11 UNL     1      13.493   9.313   1.526  1.00  0.00     0.000 C 
HETATM   31  C12 UNL     1      14.036   9.989   2.767  1.00  0.00     0.001 C 
HETATM   32  C13 UNL     1      12.930  10.649   3.556  1.00  0.00     0.008 C 
ENDBRANCH  26  27
ENDBRANCH  24  25
ENDBRANCH   5  24
TORSDOF 8
ENDMDL
