MODEL 1
REMARK VINA RESULT: -5.133458013      0.000      0.000
REMARK  1 active torsions:
REMARK  status: ('A' for Active; 'I' for Inactive)
REMARK    1  A    between atoms: C8_11  and  N2_12 
ROOT
HETATM    1  C1  UNL     1      -3.000   5.512  84.751  1.00  0.00     0.001 C 
HETATM    2  C2  UNL     1      -1.631   5.636  85.411  1.00  0.00     0.001 C 
HETATM    3  C3  UNL     1      -0.896   4.475  84.744  1.00  0.00     0.013 C 
HETATM    4  C4  UNL     1      -1.900   3.355  84.919  1.00  0.00     0.016 C 
HETATM    5  C5  UNL     1      -3.194   4.026  84.639  1.00  0.00     0.013 C 
HETATM    6  C6  UNL     1      -1.593   2.176  84.060  1.00  0.00     0.244 C 
HETATM    7  N1  UNL     1      -0.901   1.210  84.865  1.00  0.00    -0.072 N 
ATOM      8  H11 UNL     1      -0.052   0.857  84.422  1.00  0.00     0.277 HD
ATOM      9  H12 UNL     1      -1.396   0.321  84.932  1.00  0.00     0.277 HD
HETATM   10  C7  UNL     1      -0.656   1.813  86.144  1.00  0.00     0.268 C 
HETATM   11  C8  UNL     1      -1.821   2.757  86.318  1.00  0.00     0.258 C 
ENDROOT
BRANCH  11  12
HETATM   12  N2  UNL     1      -3.035   2.128  86.713  1.00  0.00     0.099 N 
HETATM   13  C9  UNL     1      -3.357   2.220  88.121  1.00  0.00     0.303 A 
HETATM   14  C10 UNL     1      -3.024   0.922  87.511  1.00  0.00     0.303 A 
ENDBRANCH  11  12
TORSDOF 1
ENDMDL
MODEL 2
REMARK VINA RESULT: -4.960810913      1.623      3.384
REMARK  1 active torsions:
REMARK  status: ('A' for Active; 'I' for Inactive)
REMARK    1  A    between atoms: C8_11  and  N2_12 
ROOT
HETATM    1  C1  UNL     1      -2.044   5.721  84.687  1.00  0.00     0.001 C 
HETATM    2  C2  UNL     1      -3.250   4.791  84.749  1.00  0.00     0.001 C 
HETATM    3  C3  UNL     1      -2.744   3.748  85.744  1.00  0.00     0.013 C 
HETATM    4  C4  UNL     1      -1.376   3.438  85.172  1.00  0.00     0.016 C 
HETATM    5  C5  UNL     1      -0.877   4.777  84.770  1.00  0.00     0.013 C 
HETATM    6  C6  UNL     1      -0.512   2.696  86.134  1.00  0.00     0.244 C 
HETATM    7  N1  UNL     1      -0.580   1.301  85.804  1.00  0.00    -0.072 N 
ATOM      8  H11 UNL     1      -0.766   0.709  86.613  1.00  0.00     0.277 HD
ATOM      9  H12 UNL     1       0.327   0.907  85.556  1.00  0.00     0.277 HD
HETATM   10  C7  UNL     1      -1.558   1.152  84.765  1.00  0.00     0.268 C 
HETATM   11  C8  UNL     1      -1.474   2.457  84.011  1.00  0.00     0.258 C 
ENDROOT
BRANCH  11  12
HETATM   12  N2  UNL     1      -0.367   2.553  83.121  1.00  0.00     0.099 N 
HETATM   13  C9  UNL     1      -0.701   2.776  81.730  1.00  0.00     0.303 A 
HETATM   14  C10 UNL     1      -0.091   1.507  82.160  1.00  0.00     0.303 A 
ENDBRANCH  11  12
TORSDOF 1
ENDMDL
MODEL 3
REMARK VINA RESULT: -4.874198981      1.794      3.228
REMARK  1 active torsions:
REMARK  status: ('A' for Active; 'I' for Inactive)
REMARK    1  A    between atoms: C8_11  and  N2_12 
ROOT
HETATM    1  C1  UNL     1      -1.960   6.251  83.359  1.00  0.00     0.001 C 
HETATM    2  C2  UNL     1      -3.104   5.684  84.191  1.00  0.00     0.001 C 
HETATM    3  C3  UNL     1      -2.320   5.014  85.318  1.00  0.00     0.013 C 
HETATM    4  C4  UNL     1      -1.285   4.237  84.532  1.00  0.00     0.016 C 
HETATM    5  C5  UNL     1      -0.900   5.191  83.462  1.00  0.00     0.013 C 
HETATM    6  C6  UNL     1      -0.165   3.753  85.389  1.00  0.00     0.244 C 
HETATM    7  N1  UNL     1      -0.427   2.382  85.726  1.00  0.00    -0.072 N 
ATOM      8  H11 UNL     1      -0.328   2.192  86.724  1.00  0.00     0.277 HD
ATOM      9  H12 UNL     1       0.299   1.746  85.397  1.00  0.00     0.277 HD
HETATM   10  C7  UNL     1      -1.729   2.056  85.220  1.00  0.00     0.268 C 
HETATM   11  C8  UNL     1      -1.863   2.932  83.998  1.00  0.00     0.258 C 
ENDROOT
BRANCH  11  12
HETATM   12  N2  UNL     1      -1.166   2.455  82.852  1.00  0.00     0.099 N 
HETATM   13  C9  UNL     1      -1.998   2.061  81.734  1.00  0.00     0.303 A 
HETATM   14  C10 UNL     1      -1.217   1.058  82.478  1.00  0.00     0.303 A 
ENDBRANCH  11  12
TORSDOF 1
ENDMDL
MODEL 4
REMARK VINA RESULT: -4.754160933      2.157      4.033
REMARK  1 active torsions:
REMARK  status: ('A' for Active; 'I' for Inactive)
REMARK    1  A    between atoms: C8_11  and  N2_12 
ROOT
HETATM    1  C1  UNL     1      -2.289   2.309  86.254  1.00  0.00     0.001 C 
HETATM    2  C2  UNL     1      -0.779   2.102  86.232  1.00  0.00     0.001 C 
HETATM    3  C3  UNL     1      -0.326   3.436  85.641  1.00  0.00     0.013 C 
HETATM    4  C4  UNL     1      -1.252   3.558  84.449  1.00  0.00     0.016 C 
HETATM    5  C5  UNL     1      -2.550   3.081  84.991  1.00  0.00     0.013 C 
HETATM    6  C6  UNL     1      -1.266   4.934  83.877  1.00  0.00     0.244 C 
HETATM    7  N1  UNL     1      -0.380   4.952  82.747  1.00  0.00    -0.072 N 
ATOM      8  H11 UNL     1       0.274   5.734  82.767  1.00  0.00     0.277 HD
ATOM      9  H12 UNL     1      -0.852   5.194  81.876  1.00  0.00     0.277 HD
HETATM   10  C7  UNL     1       0.274   3.676  82.694  1.00  0.00     0.268 C 
HETATM   11  C8  UNL     1      -0.749   2.730  83.273  1.00  0.00     0.258 C 
ENDROOT
BRANCH  11  12
HETATM   12  N2  UNL     1      -1.791   2.367  82.375  1.00  0.00     0.099 N 
HETATM   13  C9  UNL     1      -1.713   1.025  81.836  1.00  0.00     0.303 A 
HETATM   14  C10 UNL     1      -1.532   2.196  80.962  1.00  0.00     0.303 A 
ENDBRANCH  11  12
TORSDOF 1
ENDMDL
MODEL 5
REMARK VINA RESULT: -4.715864301      2.262      4.050
REMARK  1 active torsions:
REMARK  status: ('A' for Active; 'I' for Inactive)
REMARK    1  A    between atoms: C8_11  and  N2_12 
ROOT
HETATM    1  C1  UNL     1      -0.417   0.458  81.213  1.00  0.00     0.001 C 
HETATM    2  C2  UNL     1      -1.881   0.873  81.130  1.00  0.00     0.001 C 
HETATM    3  C3  UNL     1      -1.751   2.385  81.297  1.00  0.00     0.013 C 
HETATM    4  C4  UNL     1      -0.842   2.469  82.505  1.00  0.00     0.016 C 
HETATM    5  C5  UNL     1       0.147   1.392  82.248  1.00  0.00     0.013 C 
HETATM    6  C6  UNL     1      -0.267   3.832  82.691  1.00  0.00     0.244 C 
HETATM    7  N1  UNL     1      -1.057   4.514  83.677  1.00  0.00    -0.072 N 
ATOM      8  H11 UNL     1      -1.340   5.449  83.383  1.00  0.00     0.277 HD
ATOM      9  H12 UNL     1      -0.518   4.790  84.497  1.00  0.00     0.277 HD
HETATM   10  C7  UNL     1      -2.170   3.667  83.996  1.00  0.00     0.268 C 
HETATM   11  C8  UNL     1      -1.623   2.275  83.798  1.00  0.00     0.258 C 
ENDROOT
BRANCH  11  12
HETATM   12  N2  UNL     1      -0.806   1.806  84.865  1.00  0.00     0.099 N 
HETATM   13  C9  UNL     1      -1.417   0.822  85.735  1.00  0.00     0.303 A 
HETATM   14  C10 UNL     1      -1.090   2.168  86.236  1.00  0.00     0.303 A 
ENDBRANCH  11  12
TORSDOF 1
ENDMDL
