MODEL 1
REMARK VINA RESULT: -7.159172807      0.000      0.000
REMARK  6 active torsions:
REMARK  status: ('A' for Active; 'I' for Inactive)
REMARK    1  A    between atoms: C2_4  and  N2_5 
REMARK    2  A    between atoms: N2_5  and  C3_7 
REMARK    3  A    between atoms: C3_7  and  C4_8 
REMARK    4  A    between atoms: C4_8  and  C5_9 
REMARK    5  A    between atoms: C5_9  and  N3_10 
REMARK    6  A    between atoms: C11_17  and  C12_18 
ROOT
HETATM    1  C1  UNL     1     -16.789 -36.563 -13.652  1.00  0.00     0.182 A 
HETATM    2  N1  UNL     1     -15.590 -37.004 -13.282  1.00  0.00    -0.338 N 
ATOM      3  H1  UNL     1     -14.820 -36.334 -13.306  1.00  0.00     0.168 HD
HETATM    4  C2  UNL     1     -15.305 -38.246 -12.882  1.00  0.00     0.119 A 
HETATM    5  C10 UNL     1     -16.348 -39.206 -12.834  1.00  0.00     0.049 A 
HETATM    6  C11 UNL     1     -16.293 -40.522 -12.413  1.00  0.00    -0.031 A 
HETATM    7  C18 UNL     1     -17.477 -41.212 -12.434  1.00  0.00     0.060 A 
HETATM    8  S1  UNL     1     -18.620 -40.057 -13.017  1.00  0.00    -0.083 SA
HETATM    9  C19 UNL     1     -17.568 -38.742 -13.214  1.00  0.00     0.089 A 
HETATM   10  N4  UNL     1     -17.791 -37.431 -13.621  1.00  0.00    -0.346 N 
ATOM     11  H4  UNL     1     -18.728 -37.137 -13.896  1.00  0.00     0.167 HD
ENDROOT
BRANCH   4  12
HETATM   12  N2  UNL     1     -14.145 -38.526 -12.591  1.00  0.00    -0.355 N 
ATOM     13  H2  UNL     1     -14.110 -39.030 -11.704  1.00  0.00     0.166 HD
BRANCH  12  14
HETATM   14  C3  UNL     1     -12.865 -38.362 -13.110  1.00  0.00     0.064 C 
BRANCH  14  15
HETATM   15  C4  UNL     1     -11.780 -38.282 -12.050  1.00  0.00     0.064 C 
BRANCH  15  16
HETATM   16  C5  UNL     1     -12.308 -37.534 -10.862  1.00  0.00     0.122 C 
BRANCH  16  17
HETATM   17  N3  UNL     1     -11.984 -36.141 -10.888  1.00  0.00    -0.408 N 
HETATM   18  C6  UNL     1     -11.044 -35.782  -9.847  1.00  0.00     0.143 C 
HETATM   19  C7  UNL     1     -11.370 -34.537  -9.097  1.00  0.00     0.187 C 
HETATM   20  O1  UNL     1     -12.751 -34.613  -8.789  1.00  0.00    -0.388 OA
HETATM   21  C8  UNL     1     -13.387 -34.307  -9.968  1.00  0.00     0.187 C 
HETATM   22  C9  UNL     1     -13.041 -35.229 -11.118  1.00  0.00     0.143 C 
ENDBRANCH  16  17
ENDBRANCH  15  16
ENDBRANCH  14  15
ENDBRANCH  12  14
ENDBRANCH   4  12
BRANCH   6  23
HETATM   23  C12 UNL     1     -14.984 -41.224 -12.049  1.00  0.00     0.020 C 
HETATM   24  C13 UNL     1     -14.783 -41.289 -10.573  1.00  0.00     0.009 C 
HETATM   25  C14 UNL     1     -15.784 -42.015  -9.765  1.00  0.00     0.001 C 
HETATM   26  C15 UNL     1     -15.582 -43.489 -10.075  1.00  0.00     0.000 C 
HETATM   27  C16 UNL     1     -15.564 -43.693 -11.535  1.00  0.00     0.001 C 
HETATM   28  C17 UNL     1     -15.079 -42.700 -12.486  1.00  0.00     0.009 C 
ENDBRANCH   6  23
TORSDOF 6
ENDMDL
MODEL 2
REMARK VINA RESULT: -6.935295941      1.743      2.361
REMARK  6 active torsions:
REMARK  status: ('A' for Active; 'I' for Inactive)
REMARK    1  A    between atoms: C2_4  and  N2_5 
REMARK    2  A    between atoms: N2_5  and  C3_7 
REMARK    3  A    between atoms: C3_7  and  C4_8 
REMARK    4  A    between atoms: C4_8  and  C5_9 
REMARK    5  A    between atoms: C5_9  and  N3_10 
REMARK    6  A    between atoms: C11_17  and  C12_18 
ROOT
HETATM    1  C1  UNL     1     -14.801 -34.255 -13.473  1.00  0.00     0.182 A 
HETATM    2  N1  UNL     1     -13.706 -34.940 -13.153  1.00  0.00    -0.338 N 
ATOM      3  H1  UNL     1     -12.848 -34.406 -13.012  1.00  0.00     0.168 HD
HETATM    4  C2  UNL     1     -13.632 -36.265 -12.999  1.00  0.00     0.119 A 
HETATM    5  C10 UNL     1     -14.804 -37.042 -13.186  1.00  0.00     0.049 A 
HETATM    6  C11 UNL     1     -14.969 -38.407 -13.036  1.00  0.00    -0.031 A 
HETATM    7  C18 UNL     1     -16.236 -38.887 -13.241  1.00  0.00     0.060 A 
HETATM    8  S1  UNL     1     -17.157 -37.478 -13.625  1.00  0.00    -0.083 SA
HETATM    9  C19 UNL     1     -15.914 -36.330 -13.513  1.00  0.00     0.089 A 
HETATM   10  N4  UNL     1     -15.917 -34.947 -13.656  1.00  0.00    -0.346 N 
ATOM     11  H4  UNL     1     -16.781 -34.463 -13.904  1.00  0.00     0.167 HD
ENDROOT
BRANCH   4  12
HETATM   12  N2  UNL     1     -12.548 -36.773 -12.725  1.00  0.00    -0.355 N 
ATOM     13  H2  UNL     1     -12.621 -37.790 -12.719  1.00  0.00     0.166 HD
BRANCH  12  14
HETATM   14  C3  UNL     1     -11.250 -36.373 -12.420  1.00  0.00     0.064 C 
BRANCH  14  15
HETATM   15  C4  UNL     1     -10.806 -36.755 -11.019  1.00  0.00     0.064 C 
BRANCH  15  16
HETATM   16  C5  UNL     1     -11.854 -36.324 -10.036  1.00  0.00     0.122 C 
BRANCH  16  17
HETATM   17  N3  UNL     1     -11.781 -34.932  -9.714  1.00  0.00    -0.408 N 
HETATM   18  C6  UNL     1     -10.921 -34.683  -8.576  1.00  0.00     0.143 C 
HETATM   19  C7  UNL     1     -11.464 -33.732  -7.565  1.00  0.00     0.187 C 
HETATM   20  O1  UNL     1     -12.810 -34.115  -7.347  1.00  0.00    -0.388 OA
HETATM   21  C8  UNL     1     -13.488 -33.644  -8.446  1.00  0.00     0.187 C 
HETATM   22  C9  UNL     1     -12.981 -34.185  -9.766  1.00  0.00     0.143 C 
ENDBRANCH  16  17
ENDBRANCH  15  16
ENDBRANCH  14  15
ENDBRANCH  12  14
ENDBRANCH   4  12
BRANCH   6  23
HETATM   23  C12 UNL     1     -13.803 -39.360 -12.769  1.00  0.00     0.020 C 
HETATM   24  C13 UNL     1     -13.703 -39.722 -11.326  1.00  0.00     0.009 C 
HETATM   25  C14 UNL     1     -14.848 -40.416 -10.701  1.00  0.00     0.001 C 
HETATM   26  C15 UNL     1     -14.850 -41.821 -11.276  1.00  0.00     0.000 C 
HETATM   27  C16 UNL     1     -14.774 -41.759 -12.747  1.00  0.00     0.001 C 
HETATM   28  C17 UNL     1     -14.091 -40.699 -13.478  1.00  0.00     0.009 C 
ENDBRANCH   6  23
TORSDOF 6
ENDMDL
MODEL 3
REMARK VINA RESULT: -6.872663953      2.196      2.766
REMARK  6 active torsions:
REMARK  status: ('A' for Active; 'I' for Inactive)
REMARK    1  A    between atoms: C2_4  and  N2_5 
REMARK    2  A    between atoms: N2_5  and  C3_7 
REMARK    3  A    between atoms: C3_7  and  C4_8 
REMARK    4  A    between atoms: C4_8  and  C5_9 
REMARK    5  A    between atoms: C5_9  and  N3_10 
REMARK    6  A    between atoms: C11_17  and  C12_18 
ROOT
HETATM    1  C1  UNL     1     -16.403 -36.752 -13.342  1.00  0.00     0.182 A 
HETATM    2  N1  UNL     1     -15.238 -37.229 -12.912  1.00  0.00    -0.338 N 
ATOM      3  H1  UNL     1     -14.460 -36.572 -12.853  1.00  0.00     0.168 HD
HETATM    4  C2  UNL     1     -14.999 -38.493 -12.551  1.00  0.00     0.119 A 
HETATM    5  C10 UNL     1     -16.057 -39.436 -12.619  1.00  0.00     0.049 A 
HETATM    6  C11 UNL     1     -16.050 -40.770 -12.256  1.00  0.00    -0.031 A 
HETATM    7  C18 UNL     1     -17.239 -41.438 -12.390  1.00  0.00     0.060 A 
HETATM    8  S1  UNL     1     -18.323 -40.238 -12.995  1.00  0.00    -0.083 SA
HETATM    9  C19 UNL     1     -17.241 -38.934 -13.060  1.00  0.00     0.089 A 
HETATM   10  N4  UNL     1     -17.417 -37.603 -13.420  1.00  0.00    -0.346 N 
ATOM     11  H4  UNL     1     -18.328 -37.281 -13.745  1.00  0.00     0.167 HD
ENDROOT
BRANCH   4  12
HETATM   12  N2  UNL     1     -13.867 -38.806 -12.194  1.00  0.00    -0.355 N 
ATOM     13  H2  UNL     1     -13.892 -39.650 -11.622  1.00  0.00     0.166 HD
BRANCH  12  14
HETATM   14  C3  UNL     1     -12.559 -38.352 -12.339  1.00  0.00     0.064 C 
BRANCH  14  15
HETATM   15  C4  UNL     1     -11.830 -38.159 -11.021  1.00  0.00     0.064 C 
BRANCH  15  16
HETATM   16  C5  UNL     1     -10.351 -38.230 -11.262  1.00  0.00     0.122 C 
BRANCH  16  17
HETATM   17  N3  UNL     1      -9.949 -37.577 -12.469  1.00  0.00    -0.408 N 
HETATM   18  C6  UNL     1      -9.141 -38.436 -13.309  1.00  0.00     0.143 C 
HETATM   19  C7  UNL     1      -7.927 -37.797 -13.891  1.00  0.00     0.187 C 
HETATM   20  O1  UNL     1      -7.312 -37.083 -12.834  1.00  0.00    -0.388 OA
HETATM   21  C8  UNL     1      -8.080 -35.952 -12.686  1.00  0.00     0.187 C 
HETATM   22  C9  UNL     1      -9.536 -36.227 -12.375  1.00  0.00     0.143 C 
ENDBRANCH  16  17
ENDBRANCH  15  16
ENDBRANCH  14  15
ENDBRANCH  12  14
ENDBRANCH   4  12
BRANCH   6  23
HETATM   23  C12 UNL     1     -14.779 -41.510 -11.836  1.00  0.00     0.020 C 
HETATM   24  C13 UNL     1     -14.680 -41.642 -10.354  1.00  0.00     0.009 C 
HETATM   25  C14 UNL     1     -15.744 -42.385  -9.648  1.00  0.00     0.001 C 
HETATM   26  C15 UNL     1     -15.543 -43.847 -10.009  1.00  0.00     0.000 C 
HETATM   27  C16 UNL     1     -15.429 -43.989 -11.472  1.00  0.00     0.001 C 
HETATM   28  C17 UNL     1     -14.866 -42.964 -12.343  1.00  0.00     0.009 C 
ENDBRANCH   6  23
TORSDOF 6
ENDMDL
MODEL 4
REMARK VINA RESULT: -6.571877779      4.320      7.060
REMARK  6 active torsions:
REMARK  status: ('A' for Active; 'I' for Inactive)
REMARK    1  A    between atoms: C2_4  and  N2_5 
REMARK    2  A    between atoms: N2_5  and  C3_7 
REMARK    3  A    between atoms: C3_7  and  C4_8 
REMARK    4  A    between atoms: C4_8  and  C5_9 
REMARK    5  A    between atoms: C5_9  and  N3_10 
REMARK    6  A    between atoms: C11_17  and  C12_18 
ROOT
HETATM    1  C1  UNL     1     -14.673 -33.084  -8.091  1.00  0.00     0.182 A 
HETATM    2  N1  UNL     1     -14.916 -33.572  -9.304  1.00  0.00    -0.338 N 
ATOM      3  H1  UNL     1     -15.844 -33.406  -9.695  1.00  0.00     0.168 HD
HETATM    4  C2  UNL     1     -14.051 -34.259 -10.056  1.00  0.00     0.119 A 
HETATM    5  C10 UNL     1     -12.751 -34.509  -9.547  1.00  0.00     0.049 A 
HETATM    6  C11 UNL     1     -11.692 -35.152 -10.161  1.00  0.00    -0.031 A 
HETATM    7  C18 UNL     1     -10.525 -35.213  -9.444  1.00  0.00     0.060 A 
HETATM    8  S1  UNL     1     -10.901 -34.397  -7.970  1.00  0.00    -0.083 SA
HETATM    9  C19 UNL     1     -12.517 -34.005  -8.307  1.00  0.00     0.089 A 
HETATM   10  N4  UNL     1     -13.468 -33.297  -7.581  1.00  0.00    -0.346 N 
ATOM     11  H4  UNL     1     -13.237 -32.941  -6.653  1.00  0.00     0.167 HD
ENDROOT
BRANCH   4  12
HETATM   12  N2  UNL     1     -14.415 -34.675 -11.152  1.00  0.00    -0.355 N 
ATOM     13  H2  UNL     1     -14.647 -35.667 -11.100  1.00  0.00     0.166 HD
BRANCH  12  14
HETATM   14  C3  UNL     1     -14.606 -34.195 -12.445  1.00  0.00     0.064 C 
BRANCH  14  15
HETATM   15  C4  UNL     1     -14.527 -35.271 -13.514  1.00  0.00     0.064 C 
BRANCH  15  16
HETATM   16  C5  UNL     1     -15.400 -36.424 -13.117  1.00  0.00     0.122 C 
BRANCH  16  17
HETATM   17  N3  UNL     1     -16.368 -36.762 -14.113  1.00  0.00    -0.408 N 
HETATM   18  C6  UNL     1     -16.235 -35.944 -15.301  1.00  0.00     0.143 C 
HETATM   19  C7  UNL     1     -17.512 -35.413 -15.854  1.00  0.00     0.187 C 
HETATM   20  O1  UNL     1     -18.244 -34.916 -14.748  1.00  0.00    -0.388 OA
HETATM   21  C8  UNL     1     -18.746 -36.037 -14.131  1.00  0.00     0.187 C 
HETATM   22  C9  UNL     1     -17.689 -37.022 -13.679  1.00  0.00     0.143 C 
ENDBRANCH  16  17
ENDBRANCH  15  16
ENDBRANCH  14  15
ENDBRANCH  12  14
ENDBRANCH   4  12
BRANCH   6  23
HETATM   23  C12 UNL     1     -11.819 -35.860 -11.511  1.00  0.00     0.020 C 
HETATM   24  C13 UNL     1     -10.490 -36.067 -12.155  1.00  0.00     0.009 C 
HETATM   25  C14 UNL     1      -9.492 -36.890 -11.443  1.00  0.00     0.001 C 
HETATM   26  C15 UNL     1      -9.995 -38.321 -11.522  1.00  0.00     0.000 C 
HETATM   27  C16 UNL     1     -11.403 -38.379 -11.089  1.00  0.00     0.001 C 
HETATM   28  C17 UNL     1     -12.352 -37.287 -11.269  1.00  0.00     0.009 C 
ENDBRANCH   6  23
TORSDOF 6
ENDMDL
MODEL 5
REMARK VINA RESULT: -6.535423383      2.819      3.529
REMARK  6 active torsions:
REMARK  status: ('A' for Active; 'I' for Inactive)
REMARK    1  A    between atoms: C2_4  and  N2_5 
REMARK    2  A    between atoms: N2_5  and  C3_7 
REMARK    3  A    between atoms: C3_7  and  C4_8 
REMARK    4  A    between atoms: C4_8  and  C5_9 
REMARK    5  A    between atoms: C5_9  and  N3_10 
REMARK    6  A    between atoms: C11_17  and  C12_18 
ROOT
HETATM    1  C1  UNL     1     -14.225 -35.248 -13.169  1.00  0.00     0.182 A 
HETATM    2  N1  UNL     1     -13.310 -36.102 -12.716  1.00  0.00    -0.338 N 
ATOM      3  H1  UNL     1     -12.383 -35.726 -12.515  1.00  0.00     0.168 HD
HETATM    4  C2  UNL     1     -13.500 -37.407 -12.502  1.00  0.00     0.119 A 
HETATM    5  C10 UNL     1     -14.776 -37.966 -12.769  1.00  0.00     0.049 A 
HETATM    6  C11 UNL     1     -15.207 -39.266 -12.581  1.00  0.00    -0.031 A 
HETATM    7  C18 UNL     1     -16.519 -39.518 -12.888  1.00  0.00     0.060 A 
HETATM    8  S1  UNL     1     -17.122 -37.989 -13.416  1.00  0.00    -0.083 SA
HETATM    9  C19 UNL     1     -15.700 -37.083 -13.231  1.00  0.00     0.089 A 
HETATM   10  N4  UNL     1     -15.431 -35.733 -13.431  1.00  0.00    -0.346 N 
ATOM     11  H4  UNL     1     -16.164 -35.115 -13.780  1.00  0.00     0.167 HD
ENDROOT
BRANCH   4  12
HETATM   12  N2  UNL     1     -12.559 -38.088 -12.104  1.00  0.00    -0.355 N 
ATOM     13  H2  UNL     1     -12.285 -38.768 -12.813  1.00  0.00     0.166 HD
BRANCH  12  14
HETATM   14  C3  UNL     1     -11.755 -38.207 -10.974  1.00  0.00     0.064 C 
BRANCH  14  15
HETATM   15  C4  UNL     1     -10.302 -37.838 -11.216  1.00  0.00     0.064 C 
BRANCH  15  16
HETATM   16  C5  UNL     1      -9.832 -38.495 -12.479  1.00  0.00     0.122 C 
BRANCH  16  17
HETATM   17  N3  UNL     1      -9.158 -37.595 -13.363  1.00  0.00    -0.408 N 
HETATM   18  C6  UNL     1      -8.088 -38.245 -14.090  1.00  0.00     0.143 C 
HETATM   19  C7  UNL     1      -6.810 -37.481 -14.159  1.00  0.00     0.187 C 
HETATM   20  O1  UNL     1      -6.568 -37.001 -12.848  1.00  0.00    -0.388 OA
HETATM   21  C8  UNL     1      -7.426 -35.938 -12.703  1.00  0.00     0.187 C 
HETATM   22  C9  UNL     1      -8.887 -36.291 -12.885  1.00  0.00     0.143 C 
ENDBRANCH  16  17
ENDBRANCH  15  16
ENDBRANCH  14  15
ENDBRANCH  12  14
ENDBRANCH   4  12
BRANCH   6  23
HETATM   23  C12 UNL     1     -14.269 -40.400 -12.164  1.00  0.00     0.020 C 
HETATM   24  C13 UNL     1     -14.395 -40.717 -10.712  1.00  0.00     0.009 C 
HETATM   25  C14 UNL     1     -15.708 -41.173 -10.211  1.00  0.00     0.001 C 
HETATM   26  C15 UNL     1     -15.900 -42.577 -10.756  1.00  0.00     0.000 C 
HETATM   27  C16 UNL     1     -15.653 -42.586 -12.209  1.00  0.00     0.001 C 
HETATM   28  C17 UNL     1     -14.713 -41.693 -12.876  1.00  0.00     0.009 C 
ENDBRANCH   6  23
TORSDOF 6
ENDMDL
