MODEL 1
REMARK VINA RESULT: -6.641283669      0.000      0.000
REMARK  5 active torsions:
REMARK  status: ('A' for Active; 'I' for Inactive)
REMARK    1  A    between atoms: C2_2  and  N1_3 
REMARK    2  A    between atoms: N1_3  and  C3_5 
REMARK    3  A    between atoms: C3_5  and  N2_7 
REMARK    4  A    between atoms: C6_10  and  N3_11 
REMARK    5  A    between atoms: N4_14  and  C9_15 
ROOT
HETATM    1  N3  UNL     1      18.099   5.019  12.672  1.00  0.00    -0.387 N 
HETATM    2  C7  UNL     1      17.217   5.948  13.232  1.00  0.00     0.138 C 
HETATM    3  C8  UNL     1      16.940   5.507  14.672  1.00  0.00     0.141 C 
HETATM    4  N4  UNL     1      16.615   4.148  14.795  1.00  0.00    -0.384 N 
HETATM    5  C14 UNL     1      17.272   3.216  13.977  1.00  0.00     0.098 C 
HETATM    6  C15 UNL     1      17.620   3.683  12.581  1.00  0.00     0.226 C 
HETATM    7  C16 UNL     1      16.403   3.562  11.773  1.00  0.00     0.089 C 
HETATM    8  N5  UNL     1      15.455   3.449  11.144  1.00  0.00    -0.195 NA
ENDROOT
BRANCH   1   9
HETATM    9  C6  UNL     1      19.176   5.394  11.879  1.00  0.00     0.084 C 
HETATM   10  C5  UNL     1      20.233   6.263  12.454  1.00  0.00     0.045 C 
HETATM   11  C4  UNL     1      21.042   6.828  11.255  1.00  0.00     0.127 C 
HETATM   12  N2  UNL     1      21.517   5.798  10.404  1.00  0.00    -0.358 N 
HETATM   13  C18 UNL     1      20.882   4.476  10.313  1.00  0.00     0.127 C 
HETATM   14  C17 UNL     1      19.916   4.146  11.376  1.00  0.00     0.045 C 
BRANCH  12  15
HETATM   15  C3  UNL     1      22.624   5.946   9.539  1.00  0.00     0.169 C 
HETATM   16  S1  UNL     1      22.283   5.830   7.864  1.00  0.00    -0.041 SA
BRANCH  15  17
HETATM   17  N1  UNL     1      23.954   6.171   9.800  1.00  0.00    -0.367 N 
ATOM     18  H1  UNL     1      24.569   5.505   9.331  1.00  0.00     0.161 HD
BRANCH  17  19
HETATM   19  C2  UNL     1      24.662   7.126  10.578  1.00  0.00     0.117 C 
HETATM   20  C1  UNL     1      24.708   6.852  12.051  1.00  0.00     0.026 C 
ENDBRANCH  17  19
ENDBRANCH  15  17
ENDBRANCH  12  15
ENDBRANCH   1   9
BRANCH   4  21
HETATM   21  C9  UNL     1      15.370   3.797  15.342  1.00  0.00     0.083 C 
HETATM   22  C10 UNL     1      15.529   2.739  16.411  1.00  0.00     0.025 C 
HETATM   23  C11 UNL     1      14.207   2.875  17.171  1.00  0.00     0.002 C 
HETATM   24  C12 UNL     1      14.133   4.390  17.346  1.00  0.00     0.002 C 
HETATM   25  C13 UNL     1      14.609   4.914  16.004  1.00  0.00     0.025 C 
ENDBRANCH   4  21
TORSDOF 5
ENDMDL
MODEL 2
REMARK VINA RESULT: -6.627682108      0.913      1.081
REMARK  5 active torsions:
REMARK  status: ('A' for Active; 'I' for Inactive)
REMARK    1  A    between atoms: C2_2  and  N1_3 
REMARK    2  A    between atoms: N1_3  and  C3_5 
REMARK    3  A    between atoms: C3_5  and  N2_7 
REMARK    4  A    between atoms: C6_10  and  N3_11 
REMARK    5  A    between atoms: N4_14  and  C9_15 
ROOT
HETATM    1  N3  UNL     1      18.105   4.865  12.544  1.00  0.00    -0.387 N 
HETATM    2  C7  UNL     1      17.276   5.831  13.122  1.00  0.00     0.138 C 
HETATM    3  C8  UNL     1      17.026   5.412  14.573  1.00  0.00     0.141 C 
HETATM    4  N4  UNL     1      16.653   4.067  14.716  1.00  0.00    -0.384 N 
HETATM    5  C14 UNL     1      17.250   3.105  13.888  1.00  0.00     0.098 C 
HETATM    6  C15 UNL     1      17.574   3.548  12.477  1.00  0.00     0.226 C 
HETATM    7  C16 UNL     1      16.330   3.468  11.707  1.00  0.00     0.089 C 
HETATM    8  N5  UNL     1      15.360   3.387  11.108  1.00  0.00    -0.195 NA
ENDROOT
BRANCH   1   9
HETATM    9  C6  UNL     1      19.172   5.194  11.715  1.00  0.00     0.084 C 
HETATM   10  C5  UNL     1      20.321   5.946  12.277  1.00  0.00     0.045 C 
HETATM   11  C4  UNL     1      21.118   6.505  11.067  1.00  0.00     0.127 C 
HETATM   12  N2  UNL     1      21.467   5.484  10.146  1.00  0.00    -0.358 N 
HETATM   13  C18 UNL     1      20.723   4.223  10.025  1.00  0.00     0.127 C 
HETATM   14  C17 UNL     1      19.783   3.918  11.118  1.00  0.00     0.045 C 
BRANCH  12  15
HETATM   15  C3  UNL     1      22.541   5.588   9.234  1.00  0.00     0.169 C 
HETATM   16  S1  UNL     1      22.108   5.687   7.580  1.00  0.00    -0.041 SA
BRANCH  15  17
HETATM   17  N1  UNL     1      23.900   5.624   9.435  1.00  0.00    -0.367 N 
ATOM     18  H1  UNL     1      24.170   5.359  10.383  1.00  0.00     0.161 HD
BRANCH  17  19
HETATM   19  C2  UNL     1      25.013   5.949   8.612  1.00  0.00     0.117 C 
HETATM   20  C1  UNL     1      25.830   4.783   8.142  1.00  0.00     0.026 C 
ENDBRANCH  17  19
ENDBRANCH  15  17
ENDBRANCH  12  15
ENDBRANCH   1   9
BRANCH   4  21
HETATM   21  C9  UNL     1      15.413   3.768  15.304  1.00  0.00     0.083 C 
HETATM   22  C10 UNL     1      15.570   2.742  16.403  1.00  0.00     0.025 C 
HETATM   23  C11 UNL     1      14.270   2.937  17.188  1.00  0.00     0.002 C 
HETATM   24  C12 UNL     1      14.240   4.458  17.314  1.00  0.00     0.002 C 
HETATM   25  C13 UNL     1      14.697   4.925  15.944  1.00  0.00     0.025 C 
ENDBRANCH   4  21
TORSDOF 5
ENDMDL
MODEL 3
REMARK VINA RESULT: -6.552533386      1.108      1.725
REMARK  5 active torsions:
REMARK  status: ('A' for Active; 'I' for Inactive)
REMARK    1  A    between atoms: C2_2  and  N1_3 
REMARK    2  A    between atoms: N1_3  and  C3_5 
REMARK    3  A    between atoms: C3_5  and  N2_7 
REMARK    4  A    between atoms: C6_10  and  N3_11 
REMARK    5  A    between atoms: N4_14  and  C9_15 
ROOT
HETATM    1  N3  UNL     1      18.112   5.082  12.681  1.00  0.00    -0.387 N 
HETATM    2  C7  UNL     1      17.216   5.977  13.272  1.00  0.00     0.138 C 
HETATM    3  C8  UNL     1      16.967   5.498  14.704  1.00  0.00     0.141 C 
HETATM    4  N4  UNL     1      16.674   4.129  14.800  1.00  0.00    -0.384 N 
HETATM    5  C14 UNL     1      17.342   3.231  13.953  1.00  0.00     0.098 C 
HETATM    6  C15 UNL     1      17.663   3.738  12.564  1.00  0.00     0.226 C 
HETATM    7  C16 UNL     1      16.439   3.608  11.767  1.00  0.00     0.089 C 
HETATM    8  N5  UNL     1      15.487   3.488  11.147  1.00  0.00    -0.195 NA
ENDROOT
BRANCH   1   9
HETATM    9  C6  UNL     1      19.172   5.500  11.884  1.00  0.00     0.084 C 
HETATM   10  C5  UNL     1      20.234   6.350  12.477  1.00  0.00     0.045 C 
HETATM   11  C4  UNL     1      21.016   6.973  11.289  1.00  0.00     0.127 C 
HETATM   12  N2  UNL     1      21.481   5.985  10.385  1.00  0.00    -0.358 N 
HETATM   13  C18 UNL     1      20.853   4.663  10.247  1.00  0.00     0.127 C 
HETATM   14  C17 UNL     1      19.909   4.280  11.313  1.00  0.00     0.045 C 
BRANCH  12  15
HETATM   15  C3  UNL     1      22.569   6.179   9.506  1.00  0.00     0.169 C 
HETATM   16  S1  UNL     1      23.457   7.628   9.726  1.00  0.00    -0.041 SA
BRANCH  15  17
HETATM   17  N1  UNL     1      23.058   5.403   8.482  1.00  0.00    -0.367 N 
ATOM     18  H1  UNL     1      23.706   4.684   8.802  1.00  0.00     0.161 HD
BRANCH  17  19
HETATM   19  C2  UNL     1      22.858   5.382   7.075  1.00  0.00     0.117 C 
HETATM   20  C1  UNL     1      21.470   5.714   6.615  1.00  0.00     0.026 C 
ENDBRANCH  17  19
ENDBRANCH  15  17
ENDBRANCH  12  15
ENDBRANCH   1   9
BRANCH   4  21
HETATM   21  C9  UNL     1      15.444   3.738  15.353  1.00  0.00     0.083 C 
HETATM   22  C10 UNL     1      15.638   2.653  16.389  1.00  0.00     0.025 C 
HETATM   23  C11 UNL     1      14.324   2.741  17.169  1.00  0.00     0.002 C 
HETATM   24  C12 UNL     1      14.222   4.248  17.388  1.00  0.00     0.002 C 
HETATM   25  C13 UNL     1      14.669   4.819  16.056  1.00  0.00     0.025 C 
ENDBRANCH   4  21
TORSDOF 5
ENDMDL
MODEL 4
REMARK VINA RESULT: -6.486858138      1.142      1.926
REMARK  5 active torsions:
REMARK  status: ('A' for Active; 'I' for Inactive)
REMARK    1  A    between atoms: C2_2  and  N1_3 
REMARK    2  A    between atoms: N1_3  and  C3_5 
REMARK    3  A    between atoms: C3_5  and  N2_7 
REMARK    4  A    between atoms: C6_10  and  N3_11 
REMARK    5  A    between atoms: N4_14  and  C9_15 
ROOT
HETATM    1  N3  UNL     1      18.208   4.656  12.559  1.00  0.00    -0.387 N 
HETATM    2  C7  UNL     1      17.452   5.696  13.109  1.00  0.00     0.138 C 
HETATM    3  C8  UNL     1      17.135   5.316  14.558  1.00  0.00     0.141 C 
HETATM    4  N4  UNL     1      16.646   4.009  14.705  1.00  0.00    -0.384 N 
HETATM    5  C14 UNL     1      17.176   2.990  13.900  1.00  0.00     0.098 C 
HETATM    6  C15 UNL     1      17.568   3.389  12.493  1.00  0.00     0.226 C 
HETATM    7  C16 UNL     1      16.339   3.406  11.695  1.00  0.00     0.089 C 
HETATM    8  N5  UNL     1      15.379   3.401  11.075  1.00  0.00    -0.195 NA
ENDROOT
BRANCH   1   9
HETATM    9  C6  UNL     1      19.317   4.883  11.753  1.00  0.00     0.084 C 
HETATM   10  C5  UNL     1      19.139   4.973  10.282  1.00  0.00     0.045 C 
HETATM   11  C4  UNL     1      20.550   4.815   9.655  1.00  0.00     0.127 C 
HETATM   12  N2  UNL     1      21.478   5.740  10.199  1.00  0.00    -0.358 N 
HETATM   13  C18 UNL     1      21.321   6.346  11.528  1.00  0.00     0.127 C 
HETATM   14  C17 UNL     1      19.994   6.202  12.154  1.00  0.00     0.045 C 
BRANCH  12  15
HETATM   15  C3  UNL     1      22.657   6.145   9.536  1.00  0.00     0.169 C 
HETATM   16  S1  UNL     1      23.134   7.771   9.789  1.00  0.00    -0.041 SA
BRANCH  15  17
HETATM   17  N1  UNL     1      23.512   5.460   8.706  1.00  0.00    -0.367 N 
ATOM     18  H1  UNL     1      24.165   4.862   9.213  1.00  0.00     0.161 HD
BRANCH  17  19
HETATM   19  C2  UNL     1      23.687   5.402   7.297  1.00  0.00     0.117 C 
HETATM   20  C1  UNL     1      22.424   5.318   6.493  1.00  0.00     0.026 C 
ENDBRANCH  17  19
ENDBRANCH  15  17
ENDBRANCH  12  15
ENDBRANCH   1   9
BRANCH   4  21
HETATM   21  C9  UNL     1      15.372   3.824  15.267  1.00  0.00     0.083 C 
HETATM   22  C10 UNL     1      15.431   2.869  16.437  1.00  0.00     0.025 C 
HETATM   23  C11 UNL     1      14.121   3.193  17.160  1.00  0.00     0.002 C 
HETATM   24  C12 UNL     1      14.179   4.718  17.183  1.00  0.00     0.002 C 
HETATM   25  C13 UNL     1      14.707   5.063  15.803  1.00  0.00     0.025 C 
ENDBRANCH   4  21
TORSDOF 5
ENDMDL
MODEL 5
REMARK VINA RESULT: -6.477051897      0.514      1.064
REMARK  5 active torsions:
REMARK  status: ('A' for Active; 'I' for Inactive)
REMARK    1  A    between atoms: C2_2  and  N1_3 
REMARK    2  A    between atoms: N1_3  and  C3_5 
REMARK    3  A    between atoms: C3_5  and  N2_7 
REMARK    4  A    between atoms: C6_10  and  N3_11 
REMARK    5  A    between atoms: N4_14  and  C9_15 
ROOT
HETATM    1  N3  UNL     1      18.222   4.732  12.635  1.00  0.00    -0.387 N 
HETATM    2  C7  UNL     1      17.440   5.750  13.189  1.00  0.00     0.138 C 
HETATM    3  C8  UNL     1      17.112   5.344  14.628  1.00  0.00     0.141 C 
HETATM    4  N4  UNL     1      16.644   4.027  14.752  1.00  0.00    -0.384 N 
HETATM    5  C14 UNL     1      17.203   3.029  13.939  1.00  0.00     0.098 C 
HETATM    6  C15 UNL     1      17.605   3.454  12.544  1.00  0.00     0.226 C 
HETATM    7  C16 UNL     1      16.386   3.460  11.730  1.00  0.00     0.089 C 
HETATM    8  N5  UNL     1      15.435   3.446  11.097  1.00  0.00    -0.195 NA
ENDROOT
BRANCH   1   9
HETATM    9  C6  UNL     1      19.337   4.990  11.846  1.00  0.00     0.084 C 
HETATM   10  C5  UNL     1      19.176   5.094  10.375  1.00  0.00     0.045 C 
HETATM   11  C4  UNL     1      20.598   4.971   9.765  1.00  0.00     0.127 C 
HETATM   12  N2  UNL     1      21.501   5.906  10.332  1.00  0.00    -0.358 N 
HETATM   13  C18 UNL     1      21.315   6.493  11.666  1.00  0.00     0.127 C 
HETATM   14  C17 UNL     1      19.983   6.316  12.273  1.00  0.00     0.045 C 
BRANCH  12  15
HETATM   15  C3  UNL     1      22.681   6.342   9.690  1.00  0.00     0.169 C 
HETATM   16  S1  UNL     1      22.940   5.733   8.110  1.00  0.00    -0.041 SA
BRANCH  15  17
HETATM   17  N1  UNL     1      23.683   7.184  10.110  1.00  0.00    -0.367 N 
ATOM     18  H1  UNL     1      23.481   8.167   9.925  1.00  0.00     0.161 HD
BRANCH  17  19
HETATM   19  C2  UNL     1      24.939   6.986  10.745  1.00  0.00     0.117 C 
HETATM   20  C1  UNL     1      24.911   6.979  12.244  1.00  0.00     0.026 C 
ENDBRANCH  17  19
ENDBRANCH  15  17
ENDBRANCH  12  15
ENDBRANCH   1   9
BRANCH   4  21
HETATM   21  C9  UNL     1      15.367   3.811  15.294  1.00  0.00     0.083 C 
HETATM   22  C10 UNL     1      15.427   2.835  16.447  1.00  0.00     0.025 C 
HETATM   23  C11 UNL     1      14.104   3.125  17.160  1.00  0.00     0.002 C 
HETATM   24  C12 UNL     1      14.137   4.650  17.212  1.00  0.00     0.002 C 
HETATM   25  C13 UNL     1      14.676   5.029  15.845  1.00  0.00     0.025 C 
ENDBRANCH   4  21
TORSDOF 5
ENDMDL
