MODEL 1
REMARK VINA RESULT: -7.399324654      0.000      0.000
REMARK  5 active torsions:
REMARK  status: ('A' for Active; 'I' for Inactive)
REMARK    1  A    between atoms: C3_3  and  C4_4 
REMARK       I    between atoms: C4_4  and  N1_6 
REMARK    2  A    between atoms: C5_8  and  C6_9 
REMARK    3  A    between atoms: C11_15  and  O3_17 
REMARK    4  A    between atoms: C18_24  and  O4_25 
REMARK    5  A    between atoms: C19_27  and  O5_28 
ROOT
HETATM    1  C6  UNL     1      16.947   4.100  12.088  1.00  0.00     0.080 C 
HETATM    2  C7  UNL     1      15.893   5.059  11.742  1.00  0.00     0.181 C 
HETATM    3  O2  UNL     1      16.213   6.208  11.079  1.00  0.00    -0.376 OA
HETATM    4  C8  UNL     1      17.409   6.757  11.330  1.00  0.00     0.099 C 
HETATM    5  C9  UNL     1      18.211   7.386  10.174  1.00  0.00     0.052 C 
HETATM    6  C10 UNL     1      19.404   6.637  10.812  1.00  0.00     0.063 C 
HETATM    7  C11 UNL     1      19.997   7.346  11.956  1.00  0.00     0.065 C 
HETATM    8  C12 UNL     1      21.141   8.222  11.450  1.00  0.00     0.047 C 
HETATM    9  C13 UNL     1      18.975   8.121  12.709  1.00  0.00     0.027 C 
HETATM   10  C14 UNL     1      19.153   8.003  14.231  1.00  0.00     0.008 C 
HETATM   11  C15 UNL     1      17.718   8.315  14.680  1.00  0.00     0.001 C 
HETATM   12  C16 UNL     1      16.871   7.481  13.703  1.00  0.00     0.008 C 
HETATM   13  C17 UNL     1      17.556   7.725  12.422  1.00  0.00     0.030 C 
HETATM   14  C18 UNL     1      18.407   5.644  11.112  1.00  0.00     0.122 C 
HETATM   15  C19 UNL     1      18.350   4.721  12.222  1.00  0.00     0.167 C 
ENDROOT
BRANCH   1  16
HETATM   16  C5  UNL     1      16.697   3.338  13.317  1.00  0.00     0.073 C 
HETATM   17  N1  UNL     1      17.174   3.785  14.427  1.00  0.00    -0.337 N 
HETATM   18  C4  UNL     1      17.003   3.148  15.671  1.00  0.00     0.244 C 
ATOM     19  H1  UNL     1      17.707   4.654  14.404  1.00  0.00     0.168 HD
HETATM   20  O1  UNL     1      17.862   3.195  16.595  1.00  0.00    -0.268 OA
BRANCH  18  21
HETATM   21  C3  UNL     1      15.789   2.392  15.928  1.00  0.00     0.070 C 
HETATM   22  C2  UNL     1      14.708   2.903  16.477  1.00  0.00    -0.026 C 
HETATM   23  C1  UNL     1      14.584   4.300  16.902  1.00  0.00     0.036 C 
ENDBRANCH  18  21
ENDBRANCH   1  16
BRANCH  15  24
HETATM   24  O5  UNL     1      19.288   3.681  12.007  1.00  0.00    -0.392 OA
ATOM     25  H5  UNL     1      20.033   3.856  12.570  1.00  0.00     0.210 HD
ENDBRANCH  15  24
BRANCH  14  26
HETATM   26  O4  UNL     1      18.032   4.969   9.914  1.00  0.00    -0.384 OA
ATOM     27  H4  UNL     1      17.369   4.329  10.146  1.00  0.00     0.210 HD
ENDBRANCH  14  26
BRANCH   7  28
HETATM   28  O3  UNL     1      20.598   6.422  12.842  1.00  0.00    -0.389 OA
ATOM     29  H3  UNL     1      21.540   6.547  12.855  1.00  0.00     0.210 HD
ENDBRANCH   7  28
TORSDOF 5
ENDMDL
MODEL 2
REMARK VINA RESULT: -7.220605713      0.984      1.032
REMARK  5 active torsions:
REMARK  status: ('A' for Active; 'I' for Inactive)
REMARK    1  A    between atoms: C3_3  and  C4_4 
REMARK       I    between atoms: C4_4  and  N1_6 
REMARK    2  A    between atoms: C5_8  and  C6_9 
REMARK    3  A    between atoms: C11_15  and  O3_17 
REMARK    4  A    between atoms: C18_24  and  O4_25 
REMARK    5  A    between atoms: C19_27  and  O5_28 
ROOT
HETATM    1  C6  UNL     1      16.577   4.649  12.368  1.00  0.00     0.080 C 
HETATM    2  C7  UNL     1      15.753   5.806  12.006  1.00  0.00     0.181 C 
HETATM    3  O2  UNL     1      16.240   6.742  11.142  1.00  0.00    -0.376 OA
HETATM    4  C8  UNL     1      17.560   6.979  11.162  1.00  0.00     0.099 C 
HETATM    5  C9  UNL     1      18.304   7.232   9.837  1.00  0.00     0.052 C 
HETATM    6  C10 UNL     1      19.358   6.272  10.436  1.00  0.00     0.063 C 
HETATM    7  C11 UNL     1      20.277   6.927  11.380  1.00  0.00     0.065 C 
HETATM    8  C12 UNL     1      21.510   7.401  10.614  1.00  0.00     0.047 C 
HETATM    9  C13 UNL     1      19.607   8.029  12.121  1.00  0.00     0.027 C 
HETATM   10  C14 UNL     1      19.982   8.047  13.611  1.00  0.00     0.008 C 
HETATM   11  C15 UNL     1      18.756   8.780  14.174  1.00  0.00     0.001 C 
HETATM   12  C16 UNL     1      17.589   8.093  13.443  1.00  0.00     0.008 C 
HETATM   13  C17 UNL     1      18.107   7.994  12.068  1.00  0.00     0.030 C 
HETATM   14  C18 UNL     1      18.206   5.623  11.001  1.00  0.00     0.122 C 
HETATM   15  C19 UNL     1      18.094   4.885  12.238  1.00  0.00     0.167 C 
ENDROOT
BRANCH   1  16
HETATM   16  C5  UNL     1      16.339   4.131  13.719  1.00  0.00     0.073 C 
HETATM   17  N1  UNL     1      16.732   2.937  14.001  1.00  0.00    -0.337 N 
HETATM   18  C4  UNL     1      16.563   2.327  15.259  1.00  0.00     0.244 C 
ATOM     19  H1  UNL     1      17.195   2.400  13.267  1.00  0.00     0.168 HD
HETATM   20  O1  UNL     1      16.391   1.086  15.407  1.00  0.00    -0.268 OA
BRANCH  18  21
HETATM   21  C3  UNL     1      16.583   3.146  16.459  1.00  0.00     0.070 C 
HETATM   22  C2  UNL     1      15.533   3.351  17.226  1.00  0.00    -0.026 C 
HETATM   23  C1  UNL     1      14.207   2.782  16.973  1.00  0.00     0.036 C 
ENDBRANCH  18  21
ENDBRANCH   1  16
BRANCH  15  24
HETATM   24  O5  UNL     1      18.700   3.615  12.076  1.00  0.00    -0.392 OA
ATOM     25  H5  UNL     1      18.944   3.310  12.942  1.00  0.00     0.210 HD
ENDBRANCH  15  24
BRANCH  14  26
HETATM   26  O4  UNL     1      17.495   4.936   9.973  1.00  0.00    -0.384 OA
ATOM     27  H4  UNL     1      16.895   4.335  10.399  1.00  0.00     0.210 HD
ENDBRANCH  14  26
BRANCH   7  28
HETATM   28  O3  UNL     1      20.760   5.987  12.320  1.00  0.00    -0.389 OA
ATOM     29  H3  UNL     1      20.655   6.324  13.203  1.00  0.00     0.210 HD
ENDBRANCH   7  28
TORSDOF 5
ENDMDL
MODEL 3
REMARK VINA RESULT: -7.044152973      1.629      3.375
REMARK  5 active torsions:
REMARK  status: ('A' for Active; 'I' for Inactive)
REMARK    1  A    between atoms: C3_3  and  C4_4 
REMARK       I    between atoms: C4_4  and  N1_6 
REMARK    2  A    between atoms: C5_8  and  C6_9 
REMARK    3  A    between atoms: C11_15  and  O3_17 
REMARK    4  A    between atoms: C18_24  and  O4_25 
REMARK    5  A    between atoms: C19_27  and  O5_28 
ROOT
HETATM    1  C6  UNL     1      17.362   6.427  14.123  1.00  0.00     0.080 C 
HETATM    2  C7  UNL     1      18.772   6.570  14.498  1.00  0.00     0.181 C 
HETATM    3  O2  UNL     1      19.605   7.330  13.731  1.00  0.00    -0.376 OA
HETATM    4  C8  UNL     1      19.371   7.370  12.411  1.00  0.00     0.099 C 
HETATM    5  C9  UNL     1      19.551   8.696  11.649  1.00  0.00     0.052 C 
HETATM    6  C10 UNL     1      18.211   8.308  10.985  1.00  0.00     0.063 C 
HETATM    7  C11 UNL     1      18.361   7.349   9.879  1.00  0.00     0.065 C 
HETATM    8  C12 UNL     1      18.495   8.128   8.571  1.00  0.00     0.047 C 
HETATM    9  C13 UNL     1      19.499   6.421  10.110  1.00  0.00     0.027 C 
HETATM   10  C14 UNL     1      19.162   4.972   9.725  1.00  0.00     0.008 C 
HETATM   11  C15 UNL     1      20.175   4.231  10.609  1.00  0.00     0.001 C 
HETATM   12  C16 UNL     1      20.048   4.966  11.956  1.00  0.00     0.008 C 
HETATM   13  C17 UNL     1      19.988   6.374  11.528  1.00  0.00     0.030 C 
HETATM   14  C18 UNL     1      17.916   7.758  12.281  1.00  0.00     0.122 C 
HETATM   15  C19 UNL     1      17.083   6.629  12.621  1.00  0.00     0.167 C 
ENDROOT
BRANCH   1  16
HETATM   16  C5  UNL     1      16.758   5.145  14.502  1.00  0.00     0.073 C 
HETATM   17  N1  UNL     1      17.274   4.486  15.480  1.00  0.00    -0.337 N 
HETATM   18  C4  UNL     1      16.786   3.246  15.940  1.00  0.00     0.244 C 
ATOM     19  H1  UNL     1      18.085   4.885  15.952  1.00  0.00     0.168 HD
HETATM   20  O1  UNL     1      17.528   2.353  16.435  1.00  0.00    -0.268 OA
BRANCH  18  21
HETATM   21  C3  UNL     1      15.365   2.959  15.850  1.00  0.00     0.070 C 
HETATM   22  C2  UNL     1      14.515   3.138  16.838  1.00  0.00    -0.026 C 
HETATM   23  C1  UNL     1      14.887   3.651  18.159  1.00  0.00     0.036 C 
ENDBRANCH  18  21
ENDBRANCH   1  16
BRANCH  15  24
HETATM   24  O5  UNL     1      15.722   7.004  12.498  1.00  0.00    -0.392 OA
ATOM     25  H5  UNL     1      15.371   6.537  11.749  1.00  0.00     0.210 HD
ENDBRANCH  15  24
BRANCH  14  26
HETATM   26  O4  UNL     1      17.678   8.818  13.205  1.00  0.00    -0.384 OA
ATOM     27  H4  UNL     1      18.483   8.954  13.691  1.00  0.00     0.210 HD
ENDBRANCH  14  26
BRANCH   7  28
HETATM   28  O3  UNL     1      17.181   6.582   9.736  1.00  0.00    -0.389 OA
ATOM     29  H3  UNL     1      16.667   6.905   9.005  1.00  0.00     0.210 HD
ENDBRANCH   7  28
TORSDOF 5
ENDMDL
MODEL 4
REMARK VINA RESULT: -6.933158530      1.419      1.721
REMARK  5 active torsions:
REMARK  status: ('A' for Active; 'I' for Inactive)
REMARK    1  A    between atoms: C3_3  and  C4_4 
REMARK       I    between atoms: C4_4  and  N1_6 
REMARK    2  A    between atoms: C5_8  and  C6_9 
REMARK    3  A    between atoms: C11_15  and  O3_17 
REMARK    4  A    between atoms: C18_24  and  O4_25 
REMARK    5  A    between atoms: C19_27  and  O5_28 
ROOT
HETATM    1  C6  UNL     1      17.625   4.694  11.301  1.00  0.00     0.080 C 
HETATM    2  C7  UNL     1      16.895   5.657  10.471  1.00  0.00     0.181 C 
HETATM    3  O2  UNL     1      17.584   6.539   9.690  1.00  0.00    -0.376 OA
HETATM    4  C8  UNL     1      18.769   6.974  10.142  1.00  0.00     0.099 C 
HETATM    5  C9  UNL     1      19.933   7.166   9.152  1.00  0.00     0.052 C 
HETATM    6  C10 UNL     1      20.766   6.462  10.248  1.00  0.00     0.063 C 
HETATM    7  C11 UNL     1      21.193   7.364  11.329  1.00  0.00     0.065 C 
HETATM    8  C12 UNL     1      22.574   7.918  10.988  1.00  0.00     0.047 C 
HETATM    9  C13 UNL     1      20.192   8.436  11.575  1.00  0.00     0.027 C 
HETATM   10  C14 UNL     1      19.971   8.700  13.072  1.00  0.00     0.008 C 
HETATM   11  C15 UNL     1      18.560   9.304  13.018  1.00  0.00     0.001 C 
HETATM   12  C16 UNL     1      17.827   8.360  12.049  1.00  0.00     0.008 C 
HETATM   13  C17 UNL     1      18.835   8.168  10.992  1.00  0.00     0.030 C 
HETATM   14  C18 UNL     1      19.551   5.722  10.464  1.00  0.00     0.122 C 
HETATM   15  C19 UNL     1      19.048   5.139  11.686  1.00  0.00     0.167 C 
ENDROOT
BRANCH   1  16
HETATM   16  C5  UNL     1      16.942   4.322  12.545  1.00  0.00     0.073 C 
HETATM   17  N1  UNL     1      17.474   4.662  13.667  1.00  0.00    -0.337 N 
HETATM   18  C4  UNL     1      16.917   4.366  14.926  1.00  0.00     0.244 C 
ATOM     19  H1  UNL     1      18.353   5.179  13.642  1.00  0.00     0.168 HD
HETATM   20  O1  UNL     1      17.614   4.155  15.957  1.00  0.00    -0.268 OA
BRANCH  18  21
HETATM   21  C3  UNL     1      15.474   4.293  15.071  1.00  0.00     0.070 C 
HETATM   22  C2  UNL     1      14.690   5.347  15.162  1.00  0.00    -0.026 C 
HETATM   23  C1  UNL     1      15.169   6.732  15.129  1.00  0.00     0.036 C 
ENDBRANCH  18  21
ENDBRANCH   1  16
BRANCH  15  24
HETATM   24  O5  UNL     1      19.787   3.966  11.978  1.00  0.00    -0.392 OA
ATOM     25  H5  UNL     1      20.704   4.211  11.994  1.00  0.00     0.210 HD
ENDBRANCH  15  24
BRANCH  14  26
HETATM   26  O4  UNL     1      19.351   4.810   9.386  1.00  0.00    -0.384 OA
ATOM     27  H4  UNL     1      18.432   4.851   9.149  1.00  0.00     0.210 HD
ENDBRANCH  14  26
BRANCH   7  28
HETATM   28  O3  UNL     1      21.369   6.635  12.529  1.00  0.00    -0.389 OA
ATOM     29  H3  UNL     1      21.838   7.162  13.165  1.00  0.00     0.210 HD
ENDBRANCH   7  28
TORSDOF 5
ENDMDL
MODEL 5
REMARK VINA RESULT: -6.919868278      1.578      1.905
REMARK  5 active torsions:
REMARK  status: ('A' for Active; 'I' for Inactive)
REMARK    1  A    between atoms: C3_3  and  C4_4 
REMARK       I    between atoms: C4_4  and  N1_6 
REMARK    2  A    between atoms: C5_8  and  C6_9 
REMARK    3  A    between atoms: C11_15  and  O3_17 
REMARK    4  A    between atoms: C18_24  and  O4_25 
REMARK    5  A    between atoms: C19_27  and  O5_28 
ROOT
HETATM    1  C6  UNL     1      17.369   4.310  12.243  1.00  0.00     0.080 C 
HETATM    2  C7  UNL     1      16.570   4.243  11.015  1.00  0.00     0.181 C 
HETATM    3  O2  UNL     1      16.976   4.923   9.904  1.00  0.00    -0.376 OA
HETATM    4  C8  UNL     1      17.625   6.082  10.087  1.00  0.00     0.099 C 
HETATM    5  C9  UNL     1      18.809   6.440   9.169  1.00  0.00     0.052 C 
HETATM    6  C10 UNL     1      19.493   6.862  10.489  1.00  0.00     0.063 C 
HETATM    7  C11 UNL     1      19.104   8.205  10.948  1.00  0.00     0.065 C 
HETATM    8  C12 UNL     1      20.104   9.219  10.398  1.00  0.00     0.047 C 
HETATM    9  C13 UNL     1      17.701   8.525  10.573  1.00  0.00     0.027 C 
HETATM   10  C14 UNL     1      16.938   9.231  11.705  1.00  0.00     0.008 C 
HETATM   11  C15 UNL     1      15.501   8.862  11.312  1.00  0.00     0.001 C 
HETATM   12  C16 UNL     1      15.620   7.368  10.964  1.00  0.00     0.008 C 
HETATM   13  C17 UNL     1      16.871   7.335  10.188  1.00  0.00     0.030 C 
HETATM   14  C18 UNL     1      18.756   5.753  11.034  1.00  0.00     0.122 C 
HETATM   15  C19 UNL     1      18.233   5.579  12.369  1.00  0.00     0.167 C 
ENDROOT
BRANCH   1  16
HETATM   16  C5  UNL     1      16.591   4.196  13.481  1.00  0.00     0.073 C 
HETATM   17  N1  UNL     1      17.172   3.736  14.535  1.00  0.00    -0.337 N 
HETATM   18  C4  UNL     1      16.536   3.579  15.782  1.00  0.00     0.244 C 
ATOM     19  H1  UNL     1      18.154   3.468  14.461  1.00  0.00     0.168 HD
HETATM   20  O1  UNL     1      16.836   2.666  16.600  1.00  0.00    -0.268 OA
BRANCH  18  21
HETATM   21  C3  UNL     1      15.481   4.500  16.167  1.00  0.00     0.070 C 
HETATM   22  C2  UNL     1      14.337   4.125  16.700  1.00  0.00    -0.026 C 
HETATM   23  C1  UNL     1      13.978   2.732  16.977  1.00  0.00     0.036 C 
ENDBRANCH  18  21
ENDBRANCH   1  16
BRANCH  15  24
HETATM   24  O5  UNL     1      19.300   5.270  13.248  1.00  0.00    -0.392 OA
ATOM     25  H5  UNL     1      19.709   4.477  12.922  1.00  0.00     0.210 HD
ENDBRANCH  15  24
BRANCH  14  26
HETATM   26  O4  UNL     1      19.338   4.530  10.589  1.00  0.00    -0.384 OA
ATOM     27  H4  UNL     1      20.178   4.442  11.025  1.00  0.00     0.210 HD
ENDBRANCH  14  26
BRANCH   7  28
HETATM   28  O3  UNL     1      19.221   8.291  12.355  1.00  0.00    -0.389 OA
ATOM     29  H3  UNL     1      19.216   7.421  12.737  1.00  0.00     0.210 HD
ENDBRANCH   7  28
TORSDOF 5
ENDMDL
