MODEL 1
REMARK VINA RESULT: -9.748898415      0.000      0.000
REMARK  6 active torsions:
REMARK  status: ('A' for Active; 'I' for Inactive)
REMARK    1  A    between atoms: O1_2  and  C2_3 
REMARK    2  A    between atoms: C2_3  and  C3_5 
REMARK    3  A    between atoms: C15_17  and  C16_18 
REMARK       I    between atoms: C16_18  and  N1_20 
REMARK    4  A    between atoms: N1_20  and  S1_22 
REMARK    5  A    between atoms: S1_22  and  C17_25 
REMARK    6  A    between atoms: C22_30  and  O6_31 
ROOT
HETATM    1  C3  UNL     1      -8.370 -13.562  30.299  1.00  0.00     0.049 C 
HETATM    2  C4  UNL     1      -7.257 -13.365  31.347  1.00  0.00     0.026 C 
HETATM    3  C5  UNL     1      -7.650 -13.584  28.982  1.00  0.00     0.020 C 
HETATM    4  C6  UNL     1      -7.294 -12.207  28.516  1.00  0.00     0.002 C 
HETATM    5  C7  UNL     1      -8.504 -11.357  28.365  1.00  0.00     0.010 C 
HETATM    6  C8  UNL     1      -9.706 -11.752  29.134  1.00  0.00    -0.035 C 
HETATM    7  C9  UNL     1     -10.630 -12.573  28.218  1.00  0.00     0.016 C 
HETATM    8  C10 UNL     1     -10.570 -10.563  29.531  1.00  0.00     0.001 C 
HETATM    9  C11 UNL     1     -11.099  -9.826  28.317  1.00  0.00     0.007 C 
HETATM   10  C12 UNL     1     -12.124  -8.819  28.802  1.00  0.00     0.013 C 
HETATM   11  C13 UNL     1     -11.560  -7.860  29.803  1.00  0.00    -0.001 C 
HETATM   12  C14 UNL     1     -10.578  -6.900  29.174  1.00  0.00     0.019 C 
HETATM   13  C15 UNL     1     -12.544  -7.100  30.609  1.00  0.00     0.090 C 
HETATM   14  C20 UNL     1     -13.095  -8.203  31.519  1.00  0.00     0.018 C 
HETATM   15  C21 UNL     1     -11.891  -9.100  31.830  1.00  0.00     0.040 C 
HETATM   16  C22 UNL     1     -10.821  -8.579  30.930  1.00  0.00     0.070 C 
HETATM   17  C23 UNL     1      -9.866  -9.551  30.368  1.00  0.00     0.025 C 
HETATM   18  C24 UNL     1      -8.966 -10.226  31.331  1.00  0.00     0.008 C 
HETATM   19  C25 UNL     1      -9.341 -11.658  31.629  1.00  0.00     0.007 C 
HETATM   20  C26 UNL     1      -9.437 -12.526  30.411  1.00  0.00     0.012 C 
ENDROOT
BRANCH  13  21
HETATM   21  C16 UNL     1     -13.577  -6.346  29.938  1.00  0.00     0.235 C 
HETATM   22  O3  UNL     1     -13.660  -5.098  30.253  1.00  0.00    -0.272 OA
HETATM   23  N1  UNL     1     -14.505  -6.787  28.987  1.00  0.00    -0.254 N 
ATOM     24  H1  UNL     1     -14.492  -7.765  28.696  1.00  0.00     0.181 HD
BRANCH  23  25
HETATM   25  S1  UNL     1     -15.657  -5.733  28.301  1.00  0.00     0.236 S 
HETATM   26  O4  UNL     1     -16.593  -5.151  29.353  1.00  0.00    -0.205 OA
HETATM   27  O5  UNL     1     -15.005  -4.527  27.655  1.00  0.00    -0.205 OA
BRANCH  25  28
HETATM   28  C17 UNL     1     -16.692  -6.490  27.086  1.00  0.00     0.121 C 
HETATM   29  C18 UNL     1     -17.817  -7.271  27.727  1.00  0.00     0.027 C 
HETATM   30  C19 UNL     1     -15.861  -7.535  26.321  1.00  0.00     0.027 C 
ENDBRANCH  25  28
ENDBRANCH  23  25
ENDBRANCH  13  21
BRANCH  16  31
HETATM   31  O6  UNL     1     -10.115  -7.591  31.622  1.00  0.00    -0.389 OA
ATOM     32  H6  UNL     1      -9.778  -8.008  32.406  1.00  0.00     0.210 HD
ENDBRANCH  16  31
BRANCH   1  33
HETATM   33  C2  UNL     1      -8.864 -14.937  30.563  1.00  0.00     0.267 C 
HETATM   34  O2  UNL     1      -8.605 -15.496  31.634  1.00  0.00    -0.264 OA
BRANCH  33  35
HETATM   35  O1  UNL     1      -9.605 -15.548  29.590  1.00  0.00    -0.326 OA
HETATM   36  C1  UNL     1     -10.737 -16.298  29.951  1.00  0.00     0.213 C 
ENDBRANCH  33  35
ENDBRANCH   1  33
TORSDOF 6
ENDMDL
MODEL 2
REMARK VINA RESULT: -9.557478540      0.842      1.054
REMARK  6 active torsions:
REMARK  status: ('A' for Active; 'I' for Inactive)
REMARK    1  A    between atoms: O1_2  and  C2_3 
REMARK    2  A    between atoms: C2_3  and  C3_5 
REMARK    3  A    between atoms: C15_17  and  C16_18 
REMARK       I    between atoms: C16_18  and  N1_20 
REMARK    4  A    between atoms: N1_20  and  S1_22 
REMARK    5  A    between atoms: S1_22  and  C17_25 
REMARK    6  A    between atoms: C22_30  and  O6_31 
ROOT
HETATM    1  C3  UNL     1      -8.353 -13.433  30.244  1.00  0.00     0.049 C 
HETATM    2  C4  UNL     1      -7.220 -13.176  31.256  1.00  0.00     0.026 C 
HETATM    3  C5  UNL     1      -7.667 -13.489  28.911  1.00  0.00     0.020 C 
HETATM    4  C6  UNL     1      -7.350 -12.123  28.386  1.00  0.00     0.002 C 
HETATM    5  C7  UNL     1      -8.581 -11.303  28.236  1.00  0.00     0.010 C 
HETATM    6  C8  UNL     1      -9.755 -11.693  29.050  1.00  0.00    -0.035 C 
HETATM    7  C9  UNL     1     -10.685 -12.565  28.187  1.00  0.00     0.016 C 
HETATM    8  C10 UNL     1     -10.633 -10.508  29.425  1.00  0.00     0.001 C 
HETATM    9  C11 UNL     1     -11.206  -9.826  28.198  1.00  0.00     0.007 C 
HETATM   10  C12 UNL     1     -12.240  -8.822  28.673  1.00  0.00     0.013 C 
HETATM   11  C13 UNL     1     -11.671  -7.816  29.624  1.00  0.00    -0.001 C 
HETATM   12  C14 UNL     1     -10.725  -6.861  28.936  1.00  0.00     0.019 C 
HETATM   13  C15 UNL     1     -12.650  -7.047  30.427  1.00  0.00     0.090 C 
HETATM   14  C20 UNL     1     -13.156  -8.126  31.390  1.00  0.00     0.018 C 
HETATM   15  C21 UNL     1     -11.926  -8.988  31.702  1.00  0.00     0.040 C 
HETATM   16  C22 UNL     1     -10.890  -8.479  30.757  1.00  0.00     0.070 C 
HETATM   17  C23 UNL     1      -9.930  -9.452  30.207  1.00  0.00     0.025 C 
HETATM   18  C24 UNL     1      -8.993 -10.074  31.170  1.00  0.00     0.008 C 
HETATM   19  C25 UNL     1      -9.330 -11.501  31.529  1.00  0.00     0.007 C 
HETATM   20  C26 UNL     1      -9.439 -12.414  30.346  1.00  0.00     0.012 C 
ENDROOT
BRANCH  13  21
HETATM   21  C16 UNL     1     -13.715  -6.338  29.756  1.00  0.00     0.235 C 
HETATM   22  O3  UNL     1     -13.961  -5.148  30.188  1.00  0.00    -0.272 OA
HETATM   23  N1  UNL     1     -14.519  -6.768  28.693  1.00  0.00    -0.254 N 
ATOM     24  H1  UNL     1     -14.374  -7.701  28.307  1.00  0.00     0.181 HD
BRANCH  23  25
HETATM   25  S1  UNL     1     -15.734  -5.775  28.028  1.00  0.00     0.236 S 
HETATM   26  O4  UNL     1     -15.242  -4.351  27.798  1.00  0.00    -0.205 OA
HETATM   27  O5  UNL     1     -16.172  -6.257  26.661  1.00  0.00    -0.205 OA
BRANCH  25  28
HETATM   28  C17 UNL     1     -17.182  -5.638  29.031  1.00  0.00     0.121 C 
HETATM   29  C18 UNL     1     -18.200  -6.701  28.680  1.00  0.00     0.027 C 
HETATM   30  C19 UNL     1     -17.871  -4.301  28.711  1.00  0.00     0.027 C 
ENDBRANCH  25  28
ENDBRANCH  23  25
ENDBRANCH  13  21
BRANCH  16  31
HETATM   31  O6  UNL     1     -10.187  -7.452  31.395  1.00  0.00    -0.389 OA
ATOM     32  H6  UNL     1      -9.431  -7.863  31.798  1.00  0.00     0.210 HD
ENDBRANCH  16  31
BRANCH   1  33
HETATM   33  C2  UNL     1      -8.813 -14.806  30.571  1.00  0.00     0.267 C 
HETATM   34  O2  UNL     1      -8.495 -15.330  31.643  1.00  0.00    -0.264 OA
BRANCH  33  35
HETATM   35  O1  UNL     1      -9.588 -15.457  29.650  1.00  0.00    -0.326 OA
HETATM   36  C1  UNL     1     -10.845 -15.955  30.034  1.00  0.00     0.213 C 
ENDBRANCH  33  35
ENDBRANCH   1  33
TORSDOF 6
ENDMDL
MODEL 3
REMARK VINA RESULT: -9.528879057      0.820      1.128
REMARK  6 active torsions:
REMARK  status: ('A' for Active; 'I' for Inactive)
REMARK    1  A    between atoms: O1_2  and  C2_3 
REMARK    2  A    between atoms: C2_3  and  C3_5 
REMARK    3  A    between atoms: C15_17  and  C16_18 
REMARK       I    between atoms: C16_18  and  N1_20 
REMARK    4  A    between atoms: N1_20  and  S1_22 
REMARK    5  A    between atoms: S1_22  and  C17_25 
REMARK    6  A    between atoms: C22_30  and  O6_31 
ROOT
HETATM    1  C3  UNL     1      -8.666 -13.822  30.236  1.00  0.00     0.049 C 
HETATM    2  C4  UNL     1      -7.563 -13.807  31.313  1.00  0.00     0.026 C 
HETATM    3  C5  UNL     1      -7.924 -13.768  28.933  1.00  0.00     0.020 C 
HETATM    4  C6  UNL     1      -7.463 -12.380  28.608  1.00  0.00     0.002 C 
HETATM    5  C7  UNL     1      -8.609 -11.436  28.526  1.00  0.00     0.010 C 
HETATM    6  C8  UNL     1      -9.850 -11.817  29.238  1.00  0.00    -0.035 C 
HETATM    7  C9  UNL     1     -10.811 -12.478  28.233  1.00  0.00     0.016 C 
HETATM    8  C10 UNL     1     -10.637 -10.614  29.738  1.00  0.00     0.001 C 
HETATM    9  C11 UNL     1     -11.089  -9.727  28.594  1.00  0.00     0.007 C 
HETATM   10  C12 UNL     1     -12.051  -8.702  29.162  1.00  0.00     0.013 C 
HETATM   11  C13 UNL     1     -11.442  -7.887  30.260  1.00  0.00    -0.001 C 
HETATM   12  C14 UNL     1     -10.384  -6.943  29.740  1.00  0.00     0.019 C 
HETATM   13  C15 UNL     1     -12.387  -7.140  31.123  1.00  0.00     0.090 C 
HETATM   14  C20 UNL     1     -13.030  -8.284  31.914  1.00  0.00     0.018 C 
HETATM   15  C21 UNL     1     -11.898  -9.290  32.151  1.00  0.00     0.040 C 
HETATM   16  C22 UNL     1     -10.778  -8.762  31.320  1.00  0.00     0.070 C 
HETATM   17  C23 UNL     1      -9.881  -9.740  30.679  1.00  0.00     0.025 C 
HETATM   18  C24 UNL     1      -9.050 -10.568  31.582  1.00  0.00     0.008 C 
HETATM   19  C25 UNL     1      -9.528 -11.992  31.734  1.00  0.00     0.007 C 
HETATM   20  C26 UNL     1      -9.660 -12.728  30.435  1.00  0.00     0.012 C 
ENDROOT
BRANCH  13  21
HETATM   21  C16 UNL     1     -13.351  -6.253  30.516  1.00  0.00     0.235 C 
HETATM   22  O3  UNL     1     -13.232  -5.003  30.811  1.00  0.00    -0.272 OA
HETATM   23  N1  UNL     1     -14.402  -6.567  29.646  1.00  0.00    -0.254 N 
ATOM     24  H1  UNL     1     -14.550  -7.540  29.375  1.00  0.00     0.181 HD
BRANCH  23  25
HETATM   25  S1  UNL     1     -15.443  -5.367  29.027  1.00  0.00     0.236 S 
HETATM   26  O4  UNL     1     -15.644  -4.223  30.014  1.00  0.00    -0.205 OA
HETATM   27  O5  UNL     1     -14.873  -4.710  27.787  1.00  0.00    -0.205 OA
BRANCH  25  28
HETATM   28  C17 UNL     1     -17.059  -5.955  28.619  1.00  0.00     0.121 C 
HETATM   29  C18 UNL     1     -17.025  -6.882  27.426  1.00  0.00     0.027 C 
HETATM   30  C19 UNL     1     -17.914  -4.756  28.174  1.00  0.00     0.027 C 
ENDBRANCH  25  28
ENDBRANCH  23  25
ENDBRANCH  13  21
BRANCH  16  31
HETATM   31  O6  UNL     1     -10.018  -7.898  32.115  1.00  0.00    -0.389 OA
ATOM     32  H6  UNL     1      -9.144  -8.269  32.145  1.00  0.00     0.210 HD
ENDBRANCH  16  31
BRANCH   1  33
HETATM   33  C2  UNL     1      -9.259 -15.177  30.359  1.00  0.00     0.267 C 
HETATM   34  O2  UNL     1      -9.860 -15.682  29.406  1.00  0.00    -0.264 OA
BRANCH  33  35
HETATM   35  O1  UNL     1      -9.115 -15.832  31.551  1.00  0.00    -0.326 OA
HETATM   36  C1  UNL     1     -10.260 -16.227  32.266  1.00  0.00     0.213 C 
ENDBRANCH  33  35
ENDBRANCH   1  33
TORSDOF 6
ENDMDL
MODEL 4
REMARK VINA RESULT: -9.343918840      1.173      1.246
REMARK  6 active torsions:
REMARK  status: ('A' for Active; 'I' for Inactive)
REMARK    1  A    between atoms: O1_2  and  C2_3 
REMARK    2  A    between atoms: C2_3  and  C3_5 
REMARK    3  A    between atoms: C15_17  and  C16_18 
REMARK       I    between atoms: C16_18  and  N1_20 
REMARK    4  A    between atoms: N1_20  and  S1_22 
REMARK    5  A    between atoms: S1_22  and  C17_25 
REMARK    6  A    between atoms: C22_30  and  O6_31 
ROOT
HETATM    1  C3  UNL     1      -8.796 -13.814  30.132  1.00  0.00     0.049 C 
HETATM    2  C4  UNL     1      -7.671 -13.906  31.182  1.00  0.00     0.026 C 
HETATM    3  C5  UNL     1      -8.081 -13.654  28.823  1.00  0.00     0.020 C 
HETATM    4  C6  UNL     1      -7.610 -12.248  28.611  1.00  0.00     0.002 C 
HETATM    5  C7  UNL     1      -8.745 -11.288  28.636  1.00  0.00     0.010 C 
HETATM    6  C8  UNL     1      -9.976 -11.718  29.339  1.00  0.00    -0.035 C 
HETATM    7  C9  UNL     1     -10.966 -12.278  28.301  1.00  0.00     0.016 C 
HETATM    8  C10 UNL     1     -10.738 -10.556  29.959  1.00  0.00     0.001 C 
HETATM    9  C11 UNL     1     -11.203  -9.567  28.908  1.00  0.00     0.007 C 
HETATM   10  C12 UNL     1     -12.140  -8.586  29.584  1.00  0.00     0.013 C 
HETATM   11  C13 UNL     1     -11.499  -7.876  30.735  1.00  0.00    -0.001 C 
HETATM   12  C14 UNL     1     -10.440  -6.901  30.278  1.00  0.00     0.019 C 
HETATM   13  C15 UNL     1     -12.416  -7.198  31.681  1.00  0.00     0.090 C 
HETATM   14  C20 UNL     1     -13.057  -8.400  32.382  1.00  0.00     0.018 C 
HETATM   15  C21 UNL     1     -11.933  -9.436  32.506  1.00  0.00     0.040 C 
HETATM   16  C22 UNL     1     -10.823  -8.848  31.700  1.00  0.00     0.070 C 
HETATM   17  C23 UNL     1      -9.952  -9.775  30.956  1.00  0.00     0.025 C 
HETATM   18  C24 UNL     1      -9.112 -10.688  31.765  1.00  0.00     0.008 C 
HETATM   19  C25 UNL     1      -9.605 -12.114  31.802  1.00  0.00     0.007 C 
HETATM   20  C26 UNL     1      -9.773 -12.733  30.448  1.00  0.00     0.012 C 
ENDROOT
BRANCH  13  21
HETATM   21  C16 UNL     1     -13.382  -6.252  31.175  1.00  0.00     0.235 C 
HETATM   22  O3  UNL     1     -13.000  -5.020  31.138  1.00  0.00    -0.272 OA
HETATM   23  N1  UNL     1     -14.683  -6.490  30.717  1.00  0.00    -0.254 N 
ATOM     24  H1  UNL     1     -15.045  -7.444  30.722  1.00  0.00     0.181 HD
BRANCH  23  25
HETATM   25  S1  UNL     1     -15.680  -5.228  30.150  1.00  0.00     0.236 S 
HETATM   26  O4  UNL     1     -17.149  -5.476  30.470  1.00  0.00    -0.205 OA
HETATM   27  O5  UNL     1     -15.357  -3.909  30.820  1.00  0.00    -0.205 OA
BRANCH  25  28
HETATM   28  C17 UNL     1     -15.594  -4.971  28.404  1.00  0.00     0.121 C 
HETATM   29  C18 UNL     1     -16.754  -5.628  27.691  1.00  0.00     0.027 C 
HETATM   30  C19 UNL     1     -14.339  -5.681  27.869  1.00  0.00     0.027 C 
ENDBRANCH  25  28
ENDBRANCH  23  25
ENDBRANCH  13  21
BRANCH  16  31
HETATM   31  O6  UNL     1     -10.037  -8.065  32.551  1.00  0.00    -0.389 OA
ATOM     32  H6  UNL     1      -9.536  -8.674  33.081  1.00  0.00     0.210 HD
ENDBRANCH  16  31
BRANCH   1  33
HETATM   33  C2  UNL     1      -9.403 -15.169  30.148  1.00  0.00     0.267 C 
HETATM   34  O2  UNL     1      -9.282 -15.893  31.141  1.00  0.00    -0.264 OA
BRANCH  33  35
HETATM   35  O1  UNL     1     -10.090 -15.575  29.037  1.00  0.00    -0.326 OA
HETATM   36  C1  UNL     1     -11.452 -15.906  29.148  1.00  0.00     0.213 C 
ENDBRANCH  33  35
ENDBRANCH   1  33
TORSDOF 6
ENDMDL
MODEL 5
REMARK VINA RESULT: -9.257844850      1.521      1.723
REMARK  6 active torsions:
REMARK  status: ('A' for Active; 'I' for Inactive)
REMARK    1  A    between atoms: O1_2  and  C2_3 
REMARK    2  A    between atoms: C2_3  and  C3_5 
REMARK    3  A    between atoms: C15_17  and  C16_18 
REMARK       I    between atoms: C16_18  and  N1_20 
REMARK    4  A    between atoms: N1_20  and  S1_22 
REMARK    5  A    between atoms: S1_22  and  C17_25 
REMARK    6  A    between atoms: C22_30  and  O6_31 
ROOT
HETATM    1  C3  UNL     1      -8.896 -13.676  29.865  1.00  0.00     0.049 C 
HETATM    2  C4  UNL     1      -7.715 -13.834  30.843  1.00  0.00     0.026 C 
HETATM    3  C5  UNL     1      -8.253 -13.425  28.533  1.00  0.00     0.020 C 
HETATM    4  C6  UNL     1      -7.796 -12.006  28.390  1.00  0.00     0.002 C 
HETATM    5  C7  UNL     1      -8.928 -11.055  28.543  1.00  0.00     0.010 C 
HETATM    6  C8  UNL     1     -10.119 -11.536  29.281  1.00  0.00    -0.035 C 
HETATM    7  C9  UNL     1     -11.163 -12.029  28.264  1.00  0.00     0.016 C 
HETATM    8  C10 UNL     1     -10.845 -10.421  30.019  1.00  0.00     0.001 C 
HETATM    9  C11 UNL     1     -11.368  -9.366  29.065  1.00  0.00     0.007 C 
HETATM   10  C12 UNL     1     -12.267  -8.436  29.856  1.00  0.00     0.013 C 
HETATM   11  C13 UNL     1     -11.564  -7.804  31.016  1.00  0.00    -0.001 C 
HETATM   12  C14 UNL     1     -10.532  -6.796  30.568  1.00  0.00     0.019 C 
HETATM   13  C15 UNL     1     -12.428  -7.195  32.054  1.00  0.00     0.090 C 
HETATM   14  C20 UNL     1     -13.029  -8.444  32.706  1.00  0.00     0.018 C 
HETATM   15  C21 UNL     1     -11.899  -9.481  32.698  1.00  0.00     0.040 C 
HETATM   16  C22 UNL     1     -10.835  -8.835  31.874  1.00  0.00     0.070 C 
HETATM   17  C23 UNL     1     -10.007  -9.707  31.023  1.00  0.00     0.025 C 
HETATM   18  C24 UNL     1      -9.123 -10.668  31.721  1.00  0.00     0.008 C 
HETATM   19  C25 UNL     1      -9.612 -12.096  31.688  1.00  0.00     0.007 C 
HETATM   20  C26 UNL     1      -9.854 -12.622  30.306  1.00  0.00     0.012 C 
ENDROOT
BRANCH  13  21
HETATM   21  C16 UNL     1     -13.421  -6.220  31.667  1.00  0.00     0.235 C 
HETATM   22  O3  UNL     1     -13.057  -4.985  31.738  1.00  0.00    -0.272 OA
HETATM   23  N1  UNL     1     -14.731  -6.435  31.222  1.00  0.00    -0.254 N 
ATOM     24  H1  UNL     1     -15.079  -7.391  31.145  1.00  0.00     0.181 HD
BRANCH  23  25
HETATM   25  S1  UNL     1     -15.760  -5.141  30.805  1.00  0.00     0.236 S 
HETATM   26  O4  UNL     1     -15.834  -4.094  31.910  1.00  0.00    -0.205 OA
HETATM   27  O5  UNL     1     -15.256  -4.387  29.592  1.00  0.00    -0.205 OA
BRANCH  25  28
HETATM   28  C17 UNL     1     -17.426  -5.625  30.473  1.00  0.00     0.121 C 
HETATM   29  C18 UNL     1     -17.565  -6.218  29.089  1.00  0.00     0.027 C 
HETATM   30  C19 UNL     1     -18.305  -4.362  30.460  1.00  0.00     0.027 C 
ENDBRANCH  25  28
ENDBRANCH  23  25
ENDBRANCH  13  21
BRANCH  16  31
HETATM   31  O6  UNL     1     -10.004  -8.108  32.731  1.00  0.00    -0.389 OA
ATOM     32  H6  UNL     1      -9.730  -7.340  32.243  1.00  0.00     0.210 HD
ENDBRANCH  16  31
BRANCH   1  33
HETATM   33  C2  UNL     1      -9.500 -15.032  29.823  1.00  0.00     0.267 C 
HETATM   34  O2  UNL     1      -9.287 -15.837  30.735  1.00  0.00    -0.264 OA
BRANCH  33  35
HETATM   35  O1  UNL     1     -10.290 -15.346  28.751  1.00  0.00    -0.326 OA
HETATM   36  C1  UNL     1     -11.503 -16.024  28.962  1.00  0.00     0.213 C 
ENDBRANCH  33  35
ENDBRANCH   1  33
TORSDOF 6
ENDMDL
