MODEL 1
REMARK VINA RESULT: -9.269467527      0.000      0.000
REMARK  5 active torsions:
REMARK  status: ('A' for Active; 'I' for Inactive)
REMARK    1  A    between atoms: C4_4  and  O1_5 
REMARK    2  A    between atoms: O1_5  and  S1_6 
REMARK    3  A    between atoms: S1_6  and  N1_9 
REMARK    4  A    between atoms: N1_9  and  C5_11 
REMARK    5  A    between atoms: C24_32  and  C25_33 
ROOT
HETATM    1  C1  UNL     1     -10.803 -10.412  32.919  1.00  0.00     0.017 C 
HETATM    2  C2  UNL     1     -10.670  -9.189  32.433  1.00  0.00    -0.048 C 
HETATM    3  C3  UNL     1      -9.675  -9.134  31.322  1.00  0.00     0.070 C 
HETATM    4  C4  UNL     1     -10.381  -8.979  29.975  1.00  0.00     0.156 C 
HETATM    5  C9  UNL     1     -10.881  -7.606  29.722  1.00  0.00    -0.012 C 
HETATM    6  C10 UNL     1     -11.579  -7.595  28.368  1.00  0.00     0.018 C 
HETATM    7  C11 UNL     1      -9.681  -6.693  29.545  1.00  0.00     0.018 C 
HETATM    8  C12 UNL     1     -11.854  -7.056  30.735  1.00  0.00    -0.018 C 
HETATM    9  C13 UNL     1     -12.214  -5.655  30.233  1.00  0.00     0.017 C 
HETATM   10  C14 UNL     1     -13.138  -7.815  30.747  1.00  0.00     0.011 C 
HETATM   11  C15 UNL     1     -13.821  -7.833  32.097  1.00  0.00     0.009 C 
HETATM   12  C16 UNL     1     -12.924  -8.520  33.121  1.00  0.00     0.033 C 
HETATM   13  C17 UNL     1     -13.517  -8.680  34.453  1.00  0.00    -0.004 C 
HETATM   14  C18 UNL     1     -14.594  -7.674  34.837  1.00  0.00     0.008 C 
HETATM   15  C19 UNL     1     -13.870  -6.587  35.596  1.00  0.00     0.041 C 
HETATM   16  C20 UNL     1     -12.464  -7.103  35.815  1.00  0.00     0.093 C 
HETATM   17  C21 UNL     1     -11.926  -6.717  37.172  1.00  0.00     0.049 C 
HETATM   18  C22 UNL     1     -12.669  -8.584  35.670  1.00  0.00     0.046 C 
HETATM   19  O4  UNL     1     -11.563  -6.757  34.851  1.00  0.00    -0.229 OA
HETATM   20  O5  UNL     1     -10.952  -7.753  34.255  1.00  0.00    -0.223 OA
HETATM   21  C23 UNL     1     -11.492  -8.069  33.011  1.00  0.00     0.137 C 
HETATM   22  C24 UNL     1     -11.253  -6.880  32.112  1.00  0.00     0.138 C 
ENDROOT
BRANCH   4  23
HETATM   23  O1  UNL     1      -9.429  -9.250  29.031  1.00  0.00    -0.253 OA
BRANCH  23  24
HETATM   24  S1  UNL     1      -9.614 -10.476  27.992  1.00  0.00     0.358 S 
HETATM   25  O2  UNL     1      -9.729  -9.954  26.547  1.00  0.00    -0.176 OA
HETATM   26  O3  UNL     1     -11.012 -11.063  28.221  1.00  0.00    -0.176 OA
BRANCH  24  27
HETATM   27  N1  UNL     1      -8.530 -11.761  28.014  1.00  0.00    -0.288 N 
ATOM     28  H1  UNL     1      -8.193 -12.188  27.151  1.00  0.00     0.175 HD
BRANCH  27  29
HETATM   29  C5  UNL     1      -8.100 -12.232  29.299  1.00  0.00     0.031 C 
HETATM   30  C6  UNL     1      -9.259 -12.472  30.244  1.00  0.00     0.038 C 
HETATM   31  C7  UNL     1      -7.359 -13.557  29.081  1.00  0.00     0.038 C 
HETATM   32  C8  UNL     1      -7.120 -11.281  29.914  1.00  0.00     0.038 C 
ENDBRANCH  27  29
ENDBRANCH  24  27
ENDBRANCH  23  24
ENDBRANCH   4  23
BRANCH  22  33
HETATM   33  C25 UNL     1     -11.294  -5.545  32.669  1.00  0.00     0.181 C 
HETATM   34  O6  UNL     1     -10.252  -4.844  32.978  1.00  0.00    -0.648 OA
HETATM   35  O7  UNL     1     -12.439  -4.783  32.970  1.00  0.00    -0.648 OA
ENDBRANCH  22  33
TORSDOF 5
ENDMDL
MODEL 2
REMARK VINA RESULT: -9.241960462      3.262      7.389
REMARK  5 active torsions:
REMARK  status: ('A' for Active; 'I' for Inactive)
REMARK    1  A    between atoms: C4_4  and  O1_5 
REMARK    2  A    between atoms: O1_5  and  S1_6 
REMARK    3  A    between atoms: S1_6  and  N1_9 
REMARK    4  A    between atoms: N1_9  and  C5_11 
REMARK    5  A    between atoms: C24_32  and  C25_33 
ROOT
HETATM    1  C1  UNL     1      -9.628 -11.490  32.932  1.00  0.00     0.017 C 
HETATM    2  C2  UNL     1     -10.027 -12.007  31.781  1.00  0.00    -0.048 C 
HETATM    3  C3  UNL     1     -10.613 -10.974  30.877  1.00  0.00     0.070 C 
HETATM    4  C4  UNL     1      -9.646 -10.643  29.741  1.00  0.00     0.156 C 
HETATM    5  C9  UNL     1      -9.599 -11.679  28.682  1.00  0.00    -0.012 C 
HETATM    6  C10 UNL     1      -8.587 -11.240  27.631  1.00  0.00     0.018 C 
HETATM    7  C11 UNL     1     -10.933 -11.674  27.959  1.00  0.00     0.018 C 
HETATM    8  C12 UNL     1      -9.212 -13.067  29.128  1.00  0.00    -0.018 C 
HETATM    9  C13 UNL     1      -9.227 -13.921  27.856  1.00  0.00     0.017 C 
HETATM   10  C14 UNL     1      -7.807 -13.124  29.626  1.00  0.00     0.011 C 
HETATM   11  C15 UNL     1      -7.582 -14.176  30.689  1.00  0.00     0.009 C 
HETATM   12  C16 UNL     1      -8.443 -13.871  31.910  1.00  0.00     0.033 C 
HETATM   13  C17 UNL     1      -8.244 -14.774  33.048  1.00  0.00    -0.004 C 
HETATM   14  C18 UNL     1      -7.739 -16.173  32.719  1.00  0.00     0.008 C 
HETATM   15  C19 UNL     1      -8.980 -17.029  32.616  1.00  0.00     0.041 C 
HETATM   16  C20 UNL     1     -10.121 -16.161  33.100  1.00  0.00     0.093 C 
HETATM   17  C21 UNL     1     -11.128 -16.949  33.904  1.00  0.00     0.049 C 
HETATM   18  C22 UNL     1      -9.387 -15.143  33.925  1.00  0.00     0.046 C 
HETATM   19  O4  UNL     1     -10.766 -15.455  32.127  1.00  0.00    -0.229 OA
HETATM   20  O5  UNL     1     -10.796 -14.154  32.289  1.00  0.00    -0.223 OA
HETATM   21  C23 UNL     1      -9.846 -13.479  31.529  1.00  0.00     0.137 C 
HETATM   22  C24 UNL     1     -10.208 -13.692  30.079  1.00  0.00     0.138 C 
ENDROOT
BRANCH   4  23
HETATM   23  O1  UNL     1     -10.130  -9.496  29.173  1.00  0.00    -0.253 OA
BRANCH  23  24
HETATM   24  S1  UNL     1      -9.664  -8.042  29.708  1.00  0.00     0.358 S 
HETATM   25  O2  UNL     1      -9.978  -6.951  28.668  1.00  0.00    -0.176 OA
HETATM   26  O3  UNL     1      -8.130  -8.029  29.719  1.00  0.00    -0.176 OA
BRANCH  24  27
HETATM   27  N1  UNL     1     -10.172  -7.507  31.219  1.00  0.00    -0.288 N 
ATOM     28  H1  UNL     1      -9.509  -7.348  31.978  1.00  0.00     0.175 HD
BRANCH  27  29
HETATM   29  C5  UNL     1     -11.578  -7.282  31.395  1.00  0.00     0.031 C 
HETATM   30  C6  UNL     1     -12.408  -7.938  30.312  1.00  0.00     0.038 C 
HETATM   31  C7  UNL     1     -11.975  -7.878  32.751  1.00  0.00     0.038 C 
HETATM   32  C8  UNL     1     -11.878  -5.816  31.461  1.00  0.00     0.038 C 
ENDBRANCH  27  29
ENDBRANCH  24  27
ENDBRANCH  23  24
ENDBRANCH   4  23
BRANCH  22  33
HETATM   33  C25 UNL     1     -10.792 -14.951  29.668  1.00  0.00     0.181 C 
HETATM   34  O6  UNL     1     -12.034 -15.116  29.344  1.00  0.00    -0.648 OA
HETATM   35  O7  UNL     1     -10.139 -16.193  29.548  1.00  0.00    -0.648 OA
ENDBRANCH  22  33
TORSDOF 5
ENDMDL
MODEL 3
REMARK VINA RESULT: -9.169584763      2.795      3.873
REMARK  5 active torsions:
REMARK  status: ('A' for Active; 'I' for Inactive)
REMARK    1  A    between atoms: C4_4  and  O1_5 
REMARK    2  A    between atoms: O1_5  and  S1_6 
REMARK    3  A    between atoms: S1_6  and  N1_9 
REMARK    4  A    between atoms: N1_9  and  C5_11 
REMARK    5  A    between atoms: C24_32  and  C25_33 
ROOT
HETATM    1  C1  UNL     1     -10.935 -10.659  33.392  1.00  0.00     0.017 C 
HETATM    2  C2  UNL     1     -10.337 -10.257  32.283  1.00  0.00    -0.048 C 
HETATM    3  C3  UNL     1      -9.629 -11.375  31.592  1.00  0.00     0.070 C 
HETATM    4  C4  UNL     1     -10.398 -11.809  30.344  1.00  0.00     0.156 C 
HETATM    5  C9  UNL     1     -10.243 -10.880  29.200  1.00  0.00    -0.012 C 
HETATM    6  C10 UNL     1     -11.072 -11.413  28.038  1.00  0.00     0.018 C 
HETATM    7  C11 UNL     1      -8.806 -10.961  28.718  1.00  0.00     0.018 C 
HETATM    8  C12 UNL     1     -10.670  -9.453  29.441  1.00  0.00    -0.018 C 
HETATM    9  C13 UNL     1     -10.422  -8.726  28.116  1.00  0.00     0.017 C 
HETATM   10  C14 UNL     1     -12.137  -9.341  29.686  1.00  0.00     0.011 C 
HETATM   11  C15 UNL     1     -12.515  -8.190  30.592  1.00  0.00     0.009 C 
HETATM   12  C16 UNL     1     -11.879  -8.381  31.964  1.00  0.00     0.033 C 
HETATM   13  C17 UNL     1     -12.248  -7.371  32.962  1.00  0.00    -0.004 C 
HETATM   14  C18 UNL     1     -12.660  -6.008  32.422  1.00  0.00     0.008 C 
HETATM   15  C19 UNL     1     -11.402  -5.172  32.451  1.00  0.00     0.041 C 
HETATM   16  C20 UNL     1     -10.377  -5.995  33.201  1.00  0.00     0.093 C 
HETATM   17  C21 UNL     1      -9.504  -5.139  34.087  1.00  0.00     0.049 C 
HETATM   18  C22 UNL     1     -11.262  -6.926  33.981  1.00  0.00     0.046 C 
HETATM   19  O4  UNL     1      -9.593  -6.796  32.423  1.00  0.00    -0.229 OA
HETATM   20  O5  UNL     1      -9.618  -8.075  32.710  1.00  0.00    -0.223 OA
HETATM   21  C23 UNL     1     -10.441  -8.815  31.865  1.00  0.00     0.137 C 
HETATM   22  C24 UNL     1      -9.835  -8.744  30.485  1.00  0.00     0.138 C 
ENDROOT
BRANCH   4  23
HETATM   23  O1  UNL     1      -9.850 -13.008  29.977  1.00  0.00    -0.253 OA
BRANCH  23  24
HETATM   24  S1  UNL     1     -10.578 -14.404  30.348  1.00  0.00     0.358 S 
HETATM   25  O2  UNL     1     -11.040 -14.405  31.817  1.00  0.00    -0.176 OA
HETATM   26  O3  UNL     1      -9.499 -15.494  30.360  1.00  0.00    -0.176 OA
BRANCH  24  27
HETATM   27  N1  UNL     1     -11.838 -14.969  29.388  1.00  0.00    -0.288 N 
ATOM     28  H1  UNL     1     -12.813 -14.787  29.628  1.00  0.00     0.175 HD
BRANCH  27  29
HETATM   29  C5  UNL     1     -11.484 -15.717  28.216  1.00  0.00     0.031 C 
HETATM   30  C6  UNL     1     -10.971 -17.103  28.550  1.00  0.00     0.038 C 
HETATM   31  C7  UNL     1     -12.745 -15.851  27.355  1.00  0.00     0.038 C 
HETATM   32  C8  UNL     1     -10.474 -14.975  27.396  1.00  0.00     0.038 C 
ENDBRANCH  27  29
ENDBRANCH  24  27
ENDBRANCH  23  24
ENDBRANCH   4  23
BRANCH  22  33
HETATM   33  C25 UNL     1      -9.164  -7.534  30.063  1.00  0.00     0.181 C 
HETATM   34  O6  UNL     1      -7.883  -7.411  29.928  1.00  0.00    -0.648 OA
HETATM   35  O7  UNL     1      -9.759  -6.303  29.729  1.00  0.00    -0.648 OA
ENDBRANCH  22  33
TORSDOF 5
ENDMDL
MODEL 4
REMARK VINA RESULT: -8.903377018      2.437      3.505
REMARK  5 active torsions:
REMARK  status: ('A' for Active; 'I' for Inactive)
REMARK    1  A    between atoms: C4_4  and  O1_5 
REMARK    2  A    between atoms: O1_5  and  S1_6 
REMARK    3  A    between atoms: S1_6  and  N1_9 
REMARK    4  A    between atoms: N1_9  and  C5_11 
REMARK    5  A    between atoms: C24_32  and  C25_33 
ROOT
HETATM    1  C1  UNL     1     -10.572 -10.838  33.223  1.00  0.00     0.017 C 
HETATM    2  C2  UNL     1     -10.027 -10.345  32.123  1.00  0.00    -0.048 C 
HETATM    3  C3  UNL     1      -9.215 -11.364  31.395  1.00  0.00     0.070 C 
HETATM    4  C4  UNL     1      -9.945 -11.838  30.139  1.00  0.00     0.156 C 
HETATM    5  C9  UNL     1      -9.896 -10.864  29.022  1.00  0.00    -0.012 C 
HETATM    6  C10 UNL     1     -10.676 -11.446  27.850  1.00  0.00     0.018 C 
HETATM    7  C11 UNL     1      -8.463 -10.784  28.530  1.00  0.00     0.018 C 
HETATM    8  C12 UNL     1     -10.465  -9.497  29.308  1.00  0.00    -0.018 C 
HETATM    9  C13 UNL     1     -10.304  -8.709  28.005  1.00  0.00     0.017 C 
HETATM   10  C14 UNL     1     -11.934  -9.543  29.564  1.00  0.00     0.011 C 
HETATM   11  C15 UNL     1     -12.420  -8.464  30.506  1.00  0.00     0.009 C 
HETATM   12  C16 UNL     1     -11.757  -8.629  31.869  1.00  0.00     0.033 C 
HETATM   13  C17 UNL     1     -12.218  -7.692  32.899  1.00  0.00    -0.004 C 
HETATM   14  C18 UNL     1     -12.772  -6.363  32.402  1.00  0.00     0.008 C 
HETATM   15  C19 UNL     1     -11.606  -5.404  32.449  1.00  0.00     0.041 C 
HETATM   16  C20 UNL     1     -10.496  -6.139  33.169  1.00  0.00     0.093 C 
HETATM   17  C21 UNL     1      -9.708  -5.224  34.075  1.00  0.00     0.049 C 
HETATM   18  C22 UNL     1     -11.274  -7.177  33.925  1.00  0.00     0.046 C 
HETATM   19  O4  UNL     1      -9.641  -6.831  32.363  1.00  0.00    -0.229 OA
HETATM   20  O5  UNL     1      -9.532  -8.114  32.611  1.00  0.00    -0.223 OA
HETATM   21  C23 UNL     1     -10.282  -8.910  31.749  1.00  0.00     0.137 C 
HETATM   22  C24 UNL     1      -9.698  -8.737  30.368  1.00  0.00     0.138 C 
ENDROOT
BRANCH   4  23
HETATM   23  O1  UNL     1      -9.280 -12.963  29.733  1.00  0.00    -0.253 OA
BRANCH  23  24
HETATM   24  S1  UNL     1     -10.015 -14.404  29.721  1.00  0.00     0.358 S 
HETATM   25  O2  UNL     1     -10.230 -14.895  28.278  1.00  0.00    -0.176 OA
HETATM   26  O3  UNL     1     -11.457 -14.186  30.194  1.00  0.00    -0.176 OA
BRANCH  24  27
HETATM   27  N1  UNL     1      -9.385 -15.670  30.631  1.00  0.00    -0.288 N 
ATOM     28  H1  UNL     1      -9.444 -16.637  30.311  1.00  0.00     0.175 HD
BRANCH  27  29
HETATM   29  C5  UNL     1      -8.759 -15.333  31.878  1.00  0.00     0.031 C 
HETATM   30  C6  UNL     1      -9.665 -14.517  32.776  1.00  0.00     0.038 C 
HETATM   31  C7  UNL     1      -8.411 -16.646  32.589  1.00  0.00     0.038 C 
HETATM   32  C8  UNL     1      -7.470 -14.608  31.647  1.00  0.00     0.038 C 
ENDBRANCH  27  29
ENDBRANCH  24  27
ENDBRANCH  23  24
ENDBRANCH   4  23
BRANCH  22  33
HETATM   33  C25 UNL     1      -9.158  -7.452  29.979  1.00  0.00     0.181 C 
HETATM   34  O6  UNL     1      -7.897  -7.187  29.866  1.00  0.00    -0.648 OA
HETATM   35  O7  UNL     1      -9.880  -6.287  29.659  1.00  0.00    -0.648 OA
ENDBRANCH  22  33
TORSDOF 5
ENDMDL
MODEL 5
REMARK VINA RESULT: -8.884360066      3.370      7.484
REMARK  5 active torsions:
REMARK  status: ('A' for Active; 'I' for Inactive)
REMARK    1  A    between atoms: C4_4  and  O1_5 
REMARK    2  A    between atoms: O1_5  and  S1_6 
REMARK    3  A    between atoms: S1_6  and  N1_9 
REMARK    4  A    between atoms: N1_9  and  C5_11 
REMARK    5  A    between atoms: C24_32  and  C25_33 
ROOT
HETATM    1  C1  UNL     1      -9.696 -11.635  33.218  1.00  0.00     0.017 C 
HETATM    2  C2  UNL     1     -10.047 -12.131  32.043  1.00  0.00    -0.048 C 
HETATM    3  C3  UNL     1     -10.634 -11.091  31.149  1.00  0.00     0.070 C 
HETATM    4  C4  UNL     1      -9.644 -10.705  30.050  1.00  0.00     0.156 C 
HETATM    5  C9  UNL     1      -9.538 -11.711  28.967  1.00  0.00    -0.012 C 
HETATM    6  C10 UNL     1      -8.509 -11.218  27.958  1.00  0.00     0.018 C 
HETATM    7  C11 UNL     1     -10.851 -11.722  28.205  1.00  0.00     0.018 C 
HETATM    8  C12 UNL     1      -9.127 -13.100  29.388  1.00  0.00    -0.018 C 
HETATM    9  C13 UNL     1      -9.083 -13.920  28.095  1.00  0.00     0.017 C 
HETATM   10  C14 UNL     1      -7.737 -13.133  29.926  1.00  0.00     0.011 C 
HETATM   11  C15 UNL     1      -7.514 -14.207  30.968  1.00  0.00     0.009 C 
HETATM   12  C16 UNL     1      -8.418 -13.957  32.170  1.00  0.00     0.033 C 
HETATM   13  C17 UNL     1      -8.228 -14.884  33.290  1.00  0.00    -0.004 C 
HETATM   14  C18 UNL     1      -7.677 -16.260  32.940  1.00  0.00     0.008 C 
HETATM   15  C19 UNL     1      -8.890 -17.145  32.779  1.00  0.00     0.041 C 
HETATM   16  C20 UNL     1     -10.068 -16.320  33.251  1.00  0.00     0.093 C 
HETATM   17  C21 UNL     1     -11.076 -17.155  34.004  1.00  0.00     0.049 C 
HETATM   18  C22 UNL     1      -9.386 -15.306  34.123  1.00  0.00     0.046 C 
HETATM   19  O4  UNL     1     -10.703 -15.606  32.278  1.00  0.00    -0.229 OA
HETATM   20  O5  UNL     1     -10.773 -14.310  32.472  1.00  0.00    -0.223 OA
HETATM   21  C23 UNL     1      -9.819 -13.591  31.758  1.00  0.00     0.137 C 
HETATM   22  C24 UNL     1     -10.134 -13.776  30.293  1.00  0.00     0.138 C 
ENDROOT
BRANCH   4  23
HETATM   23  O1  UNL     1     -10.141  -9.556  29.498  1.00  0.00    -0.253 OA
BRANCH  23  24
HETATM   24  S1  UNL     1      -9.730  -8.106  30.084  1.00  0.00     0.358 S 
HETATM   25  O2  UNL     1      -8.306  -7.722  29.643  1.00  0.00    -0.176 OA
HETATM   26  O3  UNL     1      -9.557  -8.257  31.600  1.00  0.00    -0.176 OA
BRANCH  24  27
HETATM   27  N1  UNL     1     -10.743  -6.786  29.834  1.00  0.00    -0.288 N 
ATOM     28  H1  UNL     1     -10.378  -5.834  29.800  1.00  0.00     0.175 HD
BRANCH  27  29
HETATM   29  C5  UNL     1     -12.143  -7.057  29.671  1.00  0.00     0.031 C 
HETATM   30  C6  UNL     1     -12.659  -8.058  30.683  1.00  0.00     0.038 C 
HETATM   31  C7  UNL     1     -12.894  -5.733  29.857  1.00  0.00     0.038 C 
HETATM   32  C8  UNL     1     -12.434  -7.530  28.280  1.00  0.00     0.038 C 
ENDBRANCH  27  29
ENDBRANCH  24  27
ENDBRANCH  23  24
ENDBRANCH   4  23
BRANCH  22  33
HETATM   33  C25 UNL     1     -10.671 -15.038  29.833  1.00  0.00     0.181 C 
HETATM   34  O6  UNL     1     -11.900 -15.229  29.477  1.00  0.00    -0.648 OA
HETATM   35  O7  UNL     1      -9.980 -16.256  29.690  1.00  0.00    -0.648 OA
ENDBRANCH  22  33
TORSDOF 5
ENDMDL
