MODEL 1
REMARK VINA RESULT: -6.626830070      0.000      0.000
REMARK  4 active torsions:
REMARK  status: ('A' for Active; 'I' for Inactive)
REMARK    1  A    between atoms: C2_2  and  C3_3 
REMARK    2  A    between atoms: C3_3  and  S1_4 
REMARK    3  A    between atoms: S1_4  and  N1_5 
REMARK    4  A    between atoms: C7_13  and  C9_15 
ROOT
HETATM    1  C1  UNL     1     -27.915  -1.160  16.415  1.00  0.00     0.018 C 
HETATM    2  C2  UNL     1     -26.500  -1.773  16.138  1.00  0.00    -0.006 C 
HETATM    3  C4  UNL     1     -25.555  -0.943  16.895  1.00  0.00     0.035 C 
HETATM    4  C5  UNL     1     -24.343  -1.601  17.469  1.00  0.00     0.059 C 
HETATM    5  C6  UNL     1     -23.130  -1.613  16.611  1.00  0.00     0.031 C 
HETATM    6 BR1  UNL     1     -23.800  -0.405  18.944  1.00  0.00    -0.083 Br
HETATM    7  C7  UNL     1     -24.692  -2.945  18.053  1.00  0.00     0.228 C 
HETATM    8  C8  UNL     1     -25.582  -2.685  19.254  1.00  0.00     0.061 C 
HETATM    9  N2  UNL     1     -25.449  -3.786  17.192  1.00  0.00    -0.054 N 
HETATM   10  C10 UNL     1     -25.981  -4.879  18.040  1.00  0.00     0.273 C 
HETATM   11  C11 UNL     1     -24.759  -4.420  16.127  1.00  0.00     0.273 C 
HETATM   12  C12 UNL     1     -26.646  -3.181  16.691  1.00  0.00     0.248 C 
ENDROOT
BRANCH   2  13
HETATM   13  C3  UNL     1     -26.435  -1.770  14.663  1.00  0.00     0.142 C 
BRANCH  13  14
HETATM   14  S1  UNL     1     -26.049  -0.013  14.264  1.00  0.00     0.108 S 
HETATM   15  O1  UNL     1     -25.759  -0.711  12.881  1.00  0.00    -0.236 OA
BRANCH  14  16
HETATM   16  N1  UNL     1     -26.031   1.086  14.785  1.00  0.00    -0.350 N 
ATOM     17  H12 UNL     1     -25.832   1.531  15.680  1.00  0.00     0.166 HD
ATOM     18  H11 UNL     1     -26.206   2.066  14.562  1.00  0.00     0.166 HD
ENDBRANCH  14  16
ENDBRANCH  13  14
ENDBRANCH   2  13
BRANCH   7  19
HETATM   19  C9  UNL     1     -23.461  -3.528  18.579  1.00  0.00     0.212 C 
HETATM   20  O2  UNL     1     -22.418  -3.841  17.969  1.00  0.00    -0.646 OA
HETATM   21  O3  UNL     1     -23.411  -3.784  19.950  1.00  0.00    -0.646 OA
ENDBRANCH   7  19
TORSDOF 4
ENDMDL
MODEL 2
REMARK VINA RESULT: -6.548276921      2.672      4.935
REMARK  4 active torsions:
REMARK  status: ('A' for Active; 'I' for Inactive)
REMARK    1  A    between atoms: C2_2  and  C3_3 
REMARK    2  A    between atoms: C3_3  and  S1_4 
REMARK    3  A    between atoms: S1_4  and  N1_5 
REMARK    4  A    between atoms: C7_13  and  C9_15 
ROOT
HETATM    1  C1  UNL     1     -22.960  -1.200  18.295  1.00  0.00     0.018 C 
HETATM    2  C2  UNL     1     -24.432  -1.670  18.034  1.00  0.00    -0.006 C 
HETATM    3  C4  UNL     1     -25.010  -0.671  17.126  1.00  0.00     0.035 C 
HETATM    4  C5  UNL     1     -26.016  -1.132  16.122  1.00  0.00     0.059 C 
HETATM    5  C6  UNL     1     -27.439  -1.082  16.545  1.00  0.00     0.031 C 
HETATM    6 BR1  UNL     1     -25.952   0.248  14.710  1.00  0.00    -0.083 Br
HETATM    7  C7  UNL     1     -25.603  -2.448  15.517  1.00  0.00     0.228 C 
HETATM    8  C8  UNL     1     -24.352  -2.184  14.700  1.00  0.00     0.061 C 
HETATM    9  N2  UNL     1     -25.237  -3.445  16.463  1.00  0.00    -0.054 N 
HETATM   10  C10 UNL     1     -24.546  -4.510  15.698  1.00  0.00     0.273 C 
HETATM   11  C11 UNL     1     -26.285  -4.090  17.169  1.00  0.00     0.273 C 
HETATM   12  C12 UNL     1     -24.226  -3.029  17.386  1.00  0.00     0.248 C 
ENDROOT
BRANCH   2  13
HETATM   13  C3  UNL     1     -24.974  -1.794  19.402  1.00  0.00     0.142 C 
BRANCH  13  14
HETATM   14  S1  UNL     1     -23.924  -3.111  20.151  1.00  0.00     0.108 S 
HETATM   15  O1  UNL     1     -24.025  -2.084  21.343  1.00  0.00    -0.236 OA
BRANCH  14  16
HETATM   16  N1  UNL     1     -23.428  -4.185  19.875  1.00  0.00    -0.350 N 
ATOM     17  H12 UNL     1     -22.852  -4.627  19.158  1.00  0.00     0.166 HD
ATOM     18  H11 UNL     1     -23.358  -5.137  20.236  1.00  0.00     0.166 HD
ENDBRANCH  14  16
ENDBRANCH  13  14
ENDBRANCH   2  13
BRANCH   7  19
HETATM   19  C9  UNL     1     -26.637  -2.836  14.563  1.00  0.00     0.212 C 
HETATM   20  O2  UNL     1     -27.754  -3.347  14.780  1.00  0.00    -0.646 OA
HETATM   21  O3  UNL     1     -26.370  -2.619  13.209  1.00  0.00    -0.646 OA
ENDBRANCH   7  19
TORSDOF 4
ENDMDL
MODEL 3
REMARK VINA RESULT: -6.546100472      2.677      4.599
REMARK  4 active torsions:
REMARK  status: ('A' for Active; 'I' for Inactive)
REMARK    1  A    between atoms: C2_2  and  C3_3 
REMARK    2  A    between atoms: C3_3  and  S1_4 
REMARK    3  A    between atoms: S1_4  and  N1_5 
REMARK    4  A    between atoms: C7_13  and  C9_15 
ROOT
HETATM    1  C1  UNL     1     -23.037  -1.136  18.258  1.00  0.00     0.018 C 
HETATM    2  C2  UNL     1     -24.520  -1.565  17.992  1.00  0.00    -0.006 C 
HETATM    3  C4  UNL     1     -25.043  -0.599  17.018  1.00  0.00     0.035 C 
HETATM    4  C5  UNL     1     -26.046  -1.078  16.020  1.00  0.00     0.059 C 
HETATM    5  C6  UNL     1     -27.474  -0.952  16.410  1.00  0.00     0.031 C 
HETATM    6 BR1  UNL     1     -25.903   0.217  14.536  1.00  0.00    -0.083 Br
HETATM    7  C7  UNL     1     -25.672  -2.441  15.498  1.00  0.00     0.228 C 
HETATM    8  C8  UNL     1     -24.397  -2.269  14.694  1.00  0.00     0.061 C 
HETATM    9  N2  UNL     1     -25.362  -3.395  16.506  1.00  0.00    -0.054 N 
HETATM   10  C10 UNL     1     -24.698  -4.526  15.816  1.00  0.00     0.273 C 
HETATM   11  C11 UNL     1     -26.448  -3.960  17.225  1.00  0.00     0.273 C 
HETATM   12  C12 UNL     1     -24.354  -2.965  17.426  1.00  0.00     0.248 C 
ENDROOT
BRANCH   2  13
HETATM   13  C3  UNL     1     -25.093  -1.591  19.353  1.00  0.00     0.142 C 
BRANCH  13  14
HETATM   14  S1  UNL     1     -25.118   0.188  19.832  1.00  0.00     0.108 S 
HETATM   15  O1  UNL     1     -24.679  -0.487  21.187  1.00  0.00    -0.236 OA
BRANCH  14  16
HETATM   16  N1  UNL     1     -25.347   1.284  19.358  1.00  0.00    -0.350 N 
ATOM     17  H12 UNL     1     -25.371   2.269  19.624  1.00  0.00     0.166 HD
ATOM     18  H11 UNL     1     -25.619   1.721  18.477  1.00  0.00     0.166 HD
ENDBRANCH  14  16
ENDBRANCH  13  14
ENDBRANCH   2  13
BRANCH   7  19
HETATM   19  C9  UNL     1     -26.702  -2.843  14.545  1.00  0.00     0.212 C 
HETATM   20  O2  UNL     1     -27.814  -3.364  14.765  1.00  0.00    -0.646 OA
HETATM   21  O3  UNL     1     -26.436  -2.630  13.191  1.00  0.00    -0.646 OA
ENDBRANCH   7  19
TORSDOF 4
ENDMDL
MODEL 4
REMARK VINA RESULT: -6.528174562      3.008      4.821
REMARK  4 active torsions:
REMARK  status: ('A' for Active; 'I' for Inactive)
REMARK    1  A    between atoms: C2_2  and  C3_3 
REMARK    2  A    between atoms: C3_3  and  S1_4 
REMARK    3  A    between atoms: S1_4  and  N1_5 
REMARK    4  A    between atoms: C7_13  and  C9_15 
ROOT
HETATM    1  C1  UNL     1     -25.335   0.222  19.570  1.00  0.00     0.018 C 
HETATM    2  C2  UNL     1     -24.760  -0.988  18.759  1.00  0.00    -0.006 C 
HETATM    3  C4  UNL     1     -25.729  -2.078  18.936  1.00  0.00     0.035 C 
HETATM    4  C5  UNL     1     -25.930  -3.032  17.805  1.00  0.00     0.059 C 
HETATM    5  C6  UNL     1     -25.070  -4.244  17.804  1.00  0.00     0.031 C 
HETATM    6 BR1  UNL     1     -27.723  -3.793  18.130  1.00  0.00    -0.083 Br
HETATM    7  C7  UNL     1     -25.957  -2.302  16.487  1.00  0.00     0.228 C 
HETATM    8  C8  UNL     1     -27.211  -1.447  16.484  1.00  0.00     0.061 C 
HETATM    9  N2  UNL     1     -24.878  -1.396  16.291  1.00  0.00    -0.054 N 
HETATM   10  C10 UNL     1     -25.256  -0.542  15.141  1.00  0.00     0.273 C 
HETATM   11  C11 UNL     1     -23.612  -1.950  15.966  1.00  0.00     0.273 C 
HETATM   12  C12 UNL     1     -24.723  -0.438  17.343  1.00  0.00     0.248 C 
ENDROOT
BRANCH   2  13
HETATM   13  C3  UNL     1     -23.404  -1.136  19.323  1.00  0.00     0.142 C 
BRANCH  13  14
HETATM   14  S1  UNL     1     -23.696  -2.096  20.869  1.00  0.00     0.108 S 
HETATM   15  O1  UNL     1     -22.653  -3.018  20.129  1.00  0.00    -0.236 OA
BRANCH  14  16
HETATM   16  N1  UNL     1     -24.341  -2.044  21.898  1.00  0.00    -0.350 N 
ATOM     17  H12 UNL     1     -24.221  -1.874  22.897  1.00  0.00     0.166 HD
ATOM     18  H11 UNL     1     -25.299  -2.147  22.233  1.00  0.00     0.166 HD
ENDBRANCH  14  16
ENDBRANCH  13  14
ENDBRANCH   2  13
BRANCH   7  19
HETATM   19  C9  UNL     1     -26.141  -3.298  15.437  1.00  0.00     0.212 C 
HETATM   20  O2  UNL     1     -25.347  -4.171  15.035  1.00  0.00    -0.646 OA
HETATM   21  O3  UNL     1     -27.367  -3.300  14.768  1.00  0.00    -0.646 OA
ENDBRANCH   7  19
TORSDOF 4
ENDMDL
MODEL 5
REMARK VINA RESULT: -6.371764347      2.675      4.949
REMARK  4 active torsions:
REMARK  status: ('A' for Active; 'I' for Inactive)
REMARK    1  A    between atoms: C2_2  and  C3_3 
REMARK    2  A    between atoms: C3_3  and  S1_4 
REMARK    3  A    between atoms: S1_4  and  N1_5 
REMARK    4  A    between atoms: C7_13  and  C9_15 
ROOT
HETATM    1  C1  UNL     1     -26.155  -4.900  19.067  1.00  0.00     0.018 C 
HETATM    2  C2  UNL     1     -25.533  -3.508  18.709  1.00  0.00    -0.006 C 
HETATM    3  C4  UNL     1     -24.418  -3.796  17.797  1.00  0.00     0.035 C 
HETATM    4  C5  UNL     1     -24.111  -2.802  16.725  1.00  0.00     0.059 C 
HETATM    5  C6  UNL     1     -23.121  -1.748  17.067  1.00  0.00     0.031 C 
HETATM    6 BR1  UNL     1     -23.147  -3.853  15.359  1.00  0.00    -0.083 Br
HETATM    7  C7  UNL     1     -25.379  -2.273  16.108  1.00  0.00     0.228 C 
HETATM    8  C8  UNL     1     -26.026  -3.431  15.372  1.00  0.00     0.061 C 
HETATM    9  N2  UNL     1     -26.351  -1.826  17.045  1.00  0.00    -0.054 N 
HETATM   10  C10 UNL     1     -27.619  -1.681  16.291  1.00  0.00     0.273 C 
HETATM   11  C11 UNL     1     -26.125  -0.573  17.671  1.00  0.00     0.273 C 
HETATM   12  C12 UNL     1     -26.696  -2.799  18.036  1.00  0.00     0.248 C 
ENDROOT
BRANCH   2  13
HETATM   13  C3  UNL     1     -25.242  -2.937  20.039  1.00  0.00     0.142 C 
BRANCH  13  14
HETATM   14  S1  UNL     1     -23.734  -3.855  20.568  1.00  0.00     0.108 S 
HETATM   15  O1  UNL     1     -23.190  -2.376  20.521  1.00  0.00    -0.236 OA
BRANCH  14  16
HETATM   16  N1  UNL     1     -23.362  -4.985  20.818  1.00  0.00    -0.350 N 
ATOM     17  H12 UNL     1     -23.359  -5.922  20.414  1.00  0.00     0.166 HD
ATOM     18  H11 UNL     1     -22.883  -5.513  21.547  1.00  0.00     0.166 HD
ENDBRANCH  14  16
ENDBRANCH  13  14
ENDBRANCH   2  13
BRANCH   7  19
HETATM   19  C9  UNL     1     -24.998  -1.304  15.085  1.00  0.00     0.212 C 
HETATM   20  O2  UNL     1     -24.610  -0.127  15.225  1.00  0.00    -0.646 OA
HETATM   21  O3  UNL     1     -25.067  -1.721  13.754  1.00  0.00    -0.646 OA
ENDBRANCH   7  19
TORSDOF 4
ENDMDL
