MODEL 1
REMARK VINA RESULT: -7.612037746      0.000      0.000
REMARK  8 active torsions:
REMARK  status: ('A' for Active; 'I' for Inactive)
REMARK    1  A    between atoms: C2_2  and  C3_3 
REMARK    2  A    between atoms: C3_3  and  C4_4 
REMARK    3  A    between atoms: C4_4  and  C5_5 
REMARK    4  A    between atoms: C5_5  and  N1_6 
REMARK    5  A    between atoms: N2_9  and  C8_10 
REMARK    6  A    between atoms: C13_17  and  N3_18 
REMARK    7  A    between atoms: C14_19  and  O1_20 
REMARK    8  A    between atoms: C17_24  and  O2_25 
ROOT
HETATM    1  C8  UNL     1     -15.989 -37.252 -14.050  1.00  0.00     0.062 A 
HETATM    2  C9  UNL     1     -17.265 -37.017 -14.568  1.00  0.00     0.051 A 
HETATM    3  C10 UNL     1     -17.589 -35.734 -14.946  1.00  0.00     0.016 A 
HETATM    4 BR1  UNL     1     -19.357 -35.443 -15.655  1.00  0.00    -0.051 Br
HETATM    5  C11 UNL     1     -16.699 -34.687 -14.829  1.00  0.00     0.064 A 
HETATM    6  C12 UNL     1     -15.452 -34.962 -14.315  1.00  0.00     0.147 A 
HETATM    7  F1  UNL     1     -14.514 -33.986 -14.167  1.00  0.00    -0.204 F 
HETATM    8  C13 UNL     1     -15.075 -36.248 -13.917  1.00  0.00     0.108 A 
ENDROOT
BRANCH   8   9
HETATM    9  N3  UNL     1     -13.786 -36.493 -13.402  1.00  0.00    -0.266 N 
HETATM   10  C14 UNL     1     -12.715 -37.016 -14.034  1.00  0.00     0.157 A 
HETATM   11  C15 UNL     1     -11.680 -37.080 -13.135  1.00  0.00     0.012 A 
HETATM   12  C16 UNL     1     -12.144 -36.585 -11.941  1.00  0.00     0.012 A 
HETATM   13  C21 UNL     1     -10.266 -37.457 -12.901  1.00  0.00     0.047 C 
HETATM   14  C17 UNL     1     -13.461 -36.221 -12.116  1.00  0.00     0.157 A 
HETATM   15  C18 UNL     1     -11.003 -36.661 -10.965  1.00  0.00     0.047 C 
HETATM   16  C19 UNL     1     -10.733 -38.096 -10.751  1.00  0.00    -0.021 C 
HETATM   17  C22 UNL     1      -9.853 -36.327 -11.936  1.00  0.00     0.026 C 
HETATM   18  C20 UNL     1     -10.283 -38.585 -11.929  1.00  0.00    -0.021 C 
BRANCH  10  19
HETATM   19  O1  UNL     1     -12.689 -37.419 -15.389  1.00  0.00    -0.345 OA
ATOM     20  H1  UNL     1     -13.458 -37.569 -15.928  1.00  0.00     0.219 HD
ENDBRANCH  10  19
BRANCH  14  21
HETATM   21  O2  UNL     1     -14.272 -35.672 -11.111  1.00  0.00    -0.345 OA
ATOM     22  H2  UNL     1     -14.088 -35.592 -10.182  1.00  0.00     0.219 HD
ENDBRANCH  14  21
ENDBRANCH   8   9
BRANCH   1  23
HETATM   23  N2  UNL     1     -15.709 -38.573 -13.671  1.00  0.00    -0.375 N 
HETATM   24  C7  UNL     1     -15.805 -38.990 -12.300  1.00  0.00     0.153 C 
HETATM   25  C6  UNL     1     -16.585 -40.293 -12.301  1.00  0.00     0.292 C 
HETATM   26  N1  UNL     1     -15.982 -41.318 -13.083  1.00  0.00     0.096 N 
HETATM   27  C24 UNL     1     -14.990 -40.886 -14.023  1.00  0.00     0.236 C 
HETATM   28  C23 UNL     1     -15.323 -39.548 -14.652  1.00  0.00     0.158 C 
HETATM   29  C25 UNL     1     -14.944 -41.877 -15.163  1.00  0.00     0.044 C 
BRANCH  26  30
HETATM   30  C5  UNL     1     -15.477 -42.333 -12.183  1.00  0.00     0.273 C 
BRANCH  30  31
HETATM   31  C4  UNL     1     -16.251 -42.439 -10.911  1.00  0.00     0.030 C 
BRANCH  31  32
HETATM   32  C3  UNL     1     -15.446 -42.759  -9.694  1.00  0.00     0.001 C 
BRANCH  32  33
HETATM   33  C2  UNL     1     -15.413 -44.231  -9.344  1.00  0.00    -0.005 C 
HETATM   34  C1  UNL     1     -15.000 -44.349  -7.894  1.00  0.00     0.005 C 
ENDBRANCH  32  33
ENDBRANCH  31  32
ENDBRANCH  30  31
ENDBRANCH  26  30
ENDBRANCH   1  23
TORSDOF 8
ENDMDL
MODEL 2
REMARK VINA RESULT: -7.609279643      0.960      1.926
REMARK  8 active torsions:
REMARK  status: ('A' for Active; 'I' for Inactive)
REMARK    1  A    between atoms: C2_2  and  C3_3 
REMARK    2  A    between atoms: C3_3  and  C4_4 
REMARK    3  A    between atoms: C4_4  and  C5_5 
REMARK    4  A    between atoms: C5_5  and  N1_6 
REMARK    5  A    between atoms: N2_9  and  C8_10 
REMARK    6  A    between atoms: C13_17  and  N3_18 
REMARK    7  A    between atoms: C14_19  and  O1_20 
REMARK    8  A    between atoms: C17_24  and  O2_25 
ROOT
HETATM    1  C8  UNL     1     -15.911 -37.446 -14.584  1.00  0.00     0.062 A 
HETATM    2  C9  UNL     1     -16.942 -37.339 -15.521  1.00  0.00     0.051 A 
HETATM    3  C10 UNL     1     -16.984 -36.218 -16.319  1.00  0.00     0.016 A 
HETATM    4 BR1  UNL     1     -18.419 -36.101 -17.601  1.00  0.00    -0.051 Br
HETATM    5  C11 UNL     1     -16.047 -35.210 -16.220  1.00  0.00     0.064 A 
HETATM    6  C12 UNL     1     -15.048 -35.356 -15.285  1.00  0.00     0.147 A 
HETATM    7  F1  UNL     1     -14.084 -34.408 -15.124  1.00  0.00    -0.204 F 
HETATM    8  C13 UNL     1     -14.962 -36.475 -14.452  1.00  0.00     0.108 A 
ENDROOT
BRANCH   8   9
HETATM    9  N3  UNL     1     -13.919 -36.592 -13.510  1.00  0.00    -0.266 N 
HETATM   10  C14 UNL     1     -13.912 -36.217 -12.214  1.00  0.00     0.157 A 
HETATM   11  C15 UNL     1     -12.678 -36.516 -11.693  1.00  0.00     0.012 A 
HETATM   12  C16 UNL     1     -11.934 -37.081 -12.698  1.00  0.00     0.012 A 
HETATM   13  C21 UNL     1     -11.801 -36.489 -10.498  1.00  0.00     0.047 C 
HETATM   14  C17 UNL     1     -12.717 -37.125 -13.832  1.00  0.00     0.157 A 
HETATM   15  C18 UNL     1     -10.587 -37.402 -12.115  1.00  0.00     0.047 C 
HETATM   16  C19 UNL     1      -9.952 -36.109 -11.796  1.00  0.00    -0.021 C 
HETATM   17  C22 UNL     1     -11.045 -37.818 -10.703  1.00  0.00     0.026 C 
HETATM   18  C20 UNL     1     -10.689 -35.549 -10.809  1.00  0.00    -0.021 C 
BRANCH  10  19
HETATM   19  O1  UNL     1     -15.000 -35.622 -11.536  1.00  0.00    -0.345 OA
ATOM     20  H1  UNL     1     -14.979 -34.773 -11.110  1.00  0.00     0.219 HD
ENDBRANCH  10  19
BRANCH  14  21
HETATM   21  O2  UNL     1     -12.294 -37.639 -15.067  1.00  0.00    -0.345 OA
ATOM     22  H2  UNL     1     -11.925 -37.170 -15.806  1.00  0.00     0.219 HD
ENDBRANCH  14  21
ENDBRANCH   8   9
BRANCH   1  23
HETATM   23  N2  UNL     1     -15.915 -38.601 -13.789  1.00  0.00    -0.375 N 
HETATM   24  C7  UNL     1     -16.691 -38.669 -12.582  1.00  0.00     0.153 C 
HETATM   25  C6  UNL     1     -17.431 -39.994 -12.621  1.00  0.00     0.292 C 
HETATM   26  N1  UNL     1     -16.572 -41.125 -12.716  1.00  0.00     0.096 N 
HETATM   27  C24 UNL     1     -15.227 -40.855 -13.133  1.00  0.00     0.236 C 
HETATM   28  C23 UNL     1     -15.145 -39.751 -14.168  1.00  0.00     0.158 C 
HETATM   29  C25 UNL     1     -14.676 -42.092 -13.806  1.00  0.00     0.044 C 
BRANCH  26  30
HETATM   30  C5  UNL     1     -16.621 -41.836 -11.455  1.00  0.00     0.273 C 
BRANCH  30  31
HETATM   31  C4  UNL     1     -15.695 -41.281 -10.424  1.00  0.00     0.030 C 
BRANCH  31  32
HETATM   32  C3  UNL     1     -14.822 -42.282  -9.740  1.00  0.00     0.001 C 
BRANCH  32  33
HETATM   33  C2  UNL     1     -15.495 -43.613  -9.477  1.00  0.00    -0.005 C 
HETATM   34  C1  UNL     1     -15.121 -44.047  -8.078  1.00  0.00     0.005 C 
ENDBRANCH  32  33
ENDBRANCH  31  32
ENDBRANCH  30  31
ENDBRANCH  26  30
ENDBRANCH   1  23
TORSDOF 8
ENDMDL
MODEL 3
REMARK VINA RESULT: -7.480478314      1.068      2.018
REMARK  8 active torsions:
REMARK  status: ('A' for Active; 'I' for Inactive)
REMARK    1  A    between atoms: C2_2  and  C3_3 
REMARK    2  A    between atoms: C3_3  and  C4_4 
REMARK    3  A    between atoms: C4_4  and  C5_5 
REMARK    4  A    between atoms: C5_5  and  N1_6 
REMARK    5  A    between atoms: N2_9  and  C8_10 
REMARK    6  A    between atoms: C13_17  and  N3_18 
REMARK    7  A    between atoms: C14_19  and  O1_20 
REMARK    8  A    between atoms: C17_24  and  O2_25 
ROOT
HETATM    1  C8  UNL     1     -15.794 -37.893 -13.251  1.00  0.00     0.062 A 
HETATM    2  C9  UNL     1     -17.146 -37.580 -13.405  1.00  0.00     0.051 A 
HETATM    3  C10 UNL     1     -17.486 -36.275 -13.683  1.00  0.00     0.016 A 
HETATM    4 BR1  UNL     1     -19.361 -35.877 -13.890  1.00  0.00    -0.051 Br
HETATM    5  C11 UNL     1     -16.539 -35.281 -13.812  1.00  0.00     0.064 A 
HETATM    6  C12 UNL     1     -15.218 -35.632 -13.653  1.00  0.00     0.147 A 
HETATM    7  F1  UNL     1     -14.221 -34.711 -13.765  1.00  0.00    -0.204 F 
HETATM    8  C13 UNL     1     -14.822 -36.942 -13.370  1.00  0.00     0.108 A 
ENDROOT
BRANCH   8   9
HETATM    9  N3  UNL     1     -13.458 -37.266 -13.221  1.00  0.00    -0.266 N 
HETATM   10  C14 UNL     1     -12.742 -37.384 -12.084  1.00  0.00     0.157 A 
HETATM   11  C15 UNL     1     -11.451 -37.701 -12.425  1.00  0.00     0.012 A 
HETATM   12  C16 UNL     1     -11.396 -37.774 -13.796  1.00  0.00     0.012 A 
HETATM   13  C21 UNL     1     -10.082 -38.001 -11.943  1.00  0.00     0.047 C 
HETATM   14  C17 UNL     1     -12.654 -37.500 -14.285  1.00  0.00     0.157 A 
HETATM   15  C18 UNL     1      -9.978 -38.120 -14.156  1.00  0.00     0.047 C 
HETATM   16  C19 UNL     1      -9.153 -36.963 -13.761  1.00  0.00    -0.021 C 
HETATM   17  C22 UNL     1      -9.671 -39.067 -12.979  1.00  0.00     0.026 C 
HETATM   18  C20 UNL     1      -9.213 -36.887 -12.411  1.00  0.00    -0.021 C 
BRANCH  10  19
HETATM   19  O1  UNL     1     -13.257 -37.206 -10.780  1.00  0.00    -0.345 OA
ATOM     20  H1  UNL     1     -12.906 -36.607 -10.131  1.00  0.00     0.219 HD
ENDBRANCH  10  19
BRANCH  14  21
HETATM   21  O2  UNL     1     -12.986 -37.481 -15.649  1.00  0.00    -0.345 OA
ATOM     22  H2  UNL     1     -12.877 -36.773 -16.274  1.00  0.00     0.219 HD
ENDBRANCH  14  21
ENDBRANCH   8   9
BRANCH   1  23
HETATM   23  N2  UNL     1     -15.497 -39.232 -12.960  1.00  0.00    -0.375 N 
HETATM   24  C7  UNL     1     -15.611 -39.746 -11.623  1.00  0.00     0.153 C 
HETATM   25  C6  UNL     1     -16.368 -41.058 -11.730  1.00  0.00     0.292 C 
HETATM   26  N1  UNL     1     -15.733 -42.015 -12.570  1.00  0.00     0.096 N 
HETATM   27  C24 UNL     1     -14.732 -41.502 -13.458  1.00  0.00     0.236 C 
HETATM   28  C23 UNL     1     -15.077 -40.129 -13.998  1.00  0.00     0.158 C 
HETATM   29  C25 UNL     1     -14.649 -42.411 -14.664  1.00  0.00     0.044 C 
BRANCH  26  30
HETATM   30  C5  UNL     1     -15.227 -43.084 -11.734  1.00  0.00     0.273 C 
BRANCH  30  31
HETATM   31  C4  UNL     1     -15.921 -43.187 -10.416  1.00  0.00     0.030 C 
BRANCH  31  32
HETATM   32  C3  UNL     1     -15.496 -44.331  -9.554  1.00  0.00     0.001 C 
BRANCH  32  33
HETATM   33  C2  UNL     1     -15.102 -43.932  -8.148  1.00  0.00    -0.005 C 
HETATM   34  C1  UNL     1     -14.694 -45.188  -7.412  1.00  0.00     0.005 C 
ENDBRANCH  32  33
ENDBRANCH  31  32
ENDBRANCH  30  31
ENDBRANCH  26  30
ENDBRANCH   1  23
TORSDOF 8
ENDMDL
MODEL 4
REMARK VINA RESULT: -7.351262216      1.378      2.419
REMARK  8 active torsions:
REMARK  status: ('A' for Active; 'I' for Inactive)
REMARK    1  A    between atoms: C2_2  and  C3_3 
REMARK    2  A    between atoms: C3_3  and  C4_4 
REMARK    3  A    between atoms: C4_4  and  C5_5 
REMARK    4  A    between atoms: C5_5  and  N1_6 
REMARK    5  A    between atoms: N2_9  and  C8_10 
REMARK    6  A    between atoms: C13_17  and  N3_18 
REMARK    7  A    between atoms: C14_19  and  O1_20 
REMARK    8  A    between atoms: C17_24  and  O2_25 
ROOT
HETATM    1  C8  UNL     1     -15.787 -37.512 -15.560  1.00  0.00     0.062 A 
HETATM    2  C9  UNL     1     -16.648 -37.287 -16.636  1.00  0.00     0.051 A 
HETATM    3  C10 UNL     1     -16.592 -36.067 -17.271  1.00  0.00     0.016 A 
HETATM    4 BR1  UNL     1     -17.793 -35.788 -18.752  1.00  0.00    -0.051 Br
HETATM    5  C11 UNL     1     -15.720 -35.074 -16.879  1.00  0.00     0.064 A 
HETATM    6  C12 UNL     1     -14.888 -35.337 -15.814  1.00  0.00     0.147 A 
HETATM    7  F1  UNL     1     -13.997 -34.411 -15.364  1.00  0.00    -0.204 F 
HETATM    8  C13 UNL     1     -14.906 -36.560 -15.136  1.00  0.00     0.108 A 
ENDROOT
BRANCH   8   9
HETATM    9  N3  UNL     1     -14.034 -36.796 -14.055  1.00  0.00    -0.266 N 
HETATM   10  C14 UNL     1     -14.256 -36.600 -12.739  1.00  0.00     0.157 A 
HETATM   11  C15 UNL     1     -13.119 -36.958 -12.058  1.00  0.00     0.012 A 
HETATM   12  C16 UNL     1     -12.199 -37.376 -12.988  1.00  0.00     0.012 A 
HETATM   13  C21 UNL     1     -12.456 -37.087 -10.738  1.00  0.00     0.047 C 
HETATM   14  C17 UNL     1     -12.779 -37.271 -14.234  1.00  0.00     0.157 A 
HETATM   15  C18 UNL     1     -10.960 -37.763 -12.230  1.00  0.00     0.047 C 
HETATM   16  C19 UNL     1     -10.428 -36.521 -11.639  1.00  0.00    -0.021 C 
HETATM   17  C22 UNL     1     -11.637 -38.370 -10.985  1.00  0.00     0.026 C 
HETATM   18  C20 UNL     1     -11.337 -36.105 -10.728  1.00  0.00    -0.021 C 
BRANCH  10  19
HETATM   19  O1  UNL     1     -15.461 -36.110 -12.183  1.00  0.00    -0.345 OA
ATOM     20  H1  UNL     1     -15.518 -35.489 -11.467  1.00  0.00     0.219 HD
ENDBRANCH  10  19
BRANCH  14  21
HETATM   21  O2  UNL     1     -12.139 -37.610 -15.435  1.00  0.00    -0.345 OA
ATOM     22  H2  UNL     1     -11.396 -37.186 -15.849  1.00  0.00     0.219 HD
ENDBRANCH  14  21
ENDBRANCH   8   9
BRANCH   1  23
HETATM   23  N2  UNL     1     -15.886 -38.766 -14.939  1.00  0.00    -0.375 N 
HETATM   24  C7  UNL     1     -15.027 -39.853 -15.317  1.00  0.00     0.153 C 
HETATM   25  C6  UNL     1     -14.500 -40.454 -14.026  1.00  0.00     0.292 C 
HETATM   26  N1  UNL     1     -15.525 -40.920 -13.155  1.00  0.00     0.096 N 
HETATM   27  C24 UNL     1     -16.845 -40.431 -13.424  1.00  0.00     0.236 C 
HETATM   28  C23 UNL     1     -16.851 -38.993 -13.901  1.00  0.00     0.158 C 
HETATM   29  C25 UNL     1     -17.633 -40.440 -12.134  1.00  0.00     0.044 C 
BRANCH  26  30
HETATM   30  C5  UNL     1     -15.472 -42.367 -13.130  1.00  0.00     0.273 C 
BRANCH  30  31
HETATM   31  C4  UNL     1     -14.907 -42.919 -11.864  1.00  0.00     0.030 C 
BRANCH  31  32
HETATM   32  C3  UNL     1     -15.904 -43.498 -10.914  1.00  0.00     0.001 C 
BRANCH  32  33
HETATM   33  C2  UNL     1     -15.913 -42.841  -9.550  1.00  0.00    -0.005 C 
HETATM   34  C1  UNL     1     -15.204 -43.769  -8.590  1.00  0.00     0.005 C 
ENDBRANCH  32  33
ENDBRANCH  31  32
ENDBRANCH  30  31
ENDBRANCH  26  30
ENDBRANCH   1  23
TORSDOF 8
ENDMDL
MODEL 5
REMARK VINA RESULT: -7.257244172      0.867      1.463
REMARK  8 active torsions:
REMARK  status: ('A' for Active; 'I' for Inactive)
REMARK    1  A    between atoms: C2_2  and  C3_3 
REMARK    2  A    between atoms: C3_3  and  C4_4 
REMARK    3  A    between atoms: C4_4  and  C5_5 
REMARK    4  A    between atoms: C5_5  and  N1_6 
REMARK    5  A    between atoms: N2_9  and  C8_10 
REMARK    6  A    between atoms: C13_17  and  N3_18 
REMARK    7  A    between atoms: C14_19  and  O1_20 
REMARK    8  A    between atoms: C17_24  and  O2_25 
ROOT
HETATM    1  C8  UNL     1     -16.162 -37.543 -14.539  1.00  0.00     0.062 A 
HETATM    2  C9  UNL     1     -17.351 -37.413 -15.260  1.00  0.00     0.051 A 
HETATM    3  C10 UNL     1     -17.581 -36.234 -15.930  1.00  0.00     0.016 A 
HETATM    4 BR1  UNL     1     -19.231 -36.086 -16.915  1.00  0.00    -0.051 Br
HETATM    5  C11 UNL     1     -16.681 -35.189 -15.909  1.00  0.00     0.064 A 
HETATM    6  C12 UNL     1     -15.521 -35.358 -15.187  1.00  0.00     0.147 A 
HETATM    7  F1  UNL     1     -14.580 -34.377 -15.116  1.00  0.00    -0.204 F 
HETATM    8  C13 UNL     1     -15.241 -36.537 -14.490  1.00  0.00     0.108 A 
ENDROOT
BRANCH   8   9
HETATM    9  N3  UNL     1     -14.039 -36.678 -13.767  1.00  0.00    -0.266 N 
HETATM   10  C14 UNL     1     -12.852 -37.155 -14.196  1.00  0.00     0.157 A 
HETATM   11  C15 UNL     1     -11.973 -37.115 -13.143  1.00  0.00     0.012 A 
HETATM   12  C16 UNL     1     -12.649 -36.603 -12.063  1.00  0.00     0.012 A 
HETATM   13  C21 UNL     1     -10.595 -37.390 -12.671  1.00  0.00     0.047 C 
HETATM   14  C17 UNL     1     -13.941 -36.333 -12.462  1.00  0.00     0.157 A 
HETATM   15  C18 UNL     1     -11.677 -36.567 -10.918  1.00  0.00     0.047 C 
HETATM   16  C19 UNL     1     -11.362 -37.971 -10.593  1.00  0.00    -0.021 C 
HETATM   17  C22 UNL     1     -10.408 -36.197 -11.711  1.00  0.00     0.026 C 
HETATM   18  C20 UNL     1     -10.702 -38.477 -11.659  1.00  0.00    -0.021 C 
BRANCH  10  19
HETATM   19  O1  UNL     1     -12.588 -37.610 -15.508  1.00  0.00    -0.345 OA
ATOM     20  H1  UNL     1     -13.043 -37.317 -16.289  1.00  0.00     0.219 HD
ENDBRANCH  10  19
BRANCH  14  21
HETATM   21  O2  UNL     1     -14.932 -35.798 -11.625  1.00  0.00    -0.345 OA
ATOM     22  H2  UNL     1     -15.873 -35.792 -11.753  1.00  0.00     0.219 HD
ENDBRANCH  14  21
ENDBRANCH   8   9
BRANCH   1  23
HETATM   23  N2  UNL     1     -15.976 -38.760 -13.866  1.00  0.00    -0.375 N 
HETATM   24  C7  UNL     1     -15.170 -39.806 -14.430  1.00  0.00     0.153 C 
HETATM   25  C6  UNL     1     -14.251 -40.287 -13.321  1.00  0.00     0.292 C 
HETATM   26  N1  UNL     1     -14.944 -40.767 -12.174  1.00  0.00     0.096 N 
HETATM   27  C24 UNL     1     -16.323 -40.388 -12.072  1.00  0.00     0.236 C 
HETATM   28  C23 UNL     1     -16.585 -38.986 -12.586  1.00  0.00     0.158 C 
HETATM   29  C25 UNL     1     -16.710 -40.370 -10.611  1.00  0.00     0.044 C 
BRANCH  26  30
HETATM   30  C5  UNL     1     -14.765 -42.202 -12.107  1.00  0.00     0.273 C 
BRANCH  30  31
HETATM   31  C4  UNL     1     -15.957 -42.925 -11.572  1.00  0.00     0.030 C 
BRANCH  31  32
HETATM   32  C3  UNL     1     -15.678 -43.895 -10.471  1.00  0.00     0.001 C 
BRANCH  32  33
HETATM   33  C2  UNL     1     -15.208 -43.252  -9.183  1.00  0.00    -0.005 C 
HETATM   34  C1  UNL     1     -15.187 -44.322  -8.116  1.00  0.00     0.005 C 
ENDBRANCH  32  33
ENDBRANCH  31  32
ENDBRANCH  30  31
ENDBRANCH  26  30
ENDBRANCH   1  23
TORSDOF 8
ENDMDL
