MODEL 1
REMARK VINA RESULT: -6.719608587      0.000      0.000
REMARK  6 active torsions:
REMARK  status: ('A' for Active; 'I' for Inactive)
REMARK    1  A    between atoms: S1_2  and  C2_3 
REMARK    2  A    between atoms: C2_3  and  C3_4 
REMARK    3  A    between atoms: C3_4  and  C4_5 
REMARK    4  A    between atoms: N1_13  and  C12_15 
REMARK    5  A    between atoms: C12_15  and  C13_16 
REMARK    6  A    between atoms: C13_16  and  C14_17 
ROOT
HETATM    1  C4  UNL     1      -7.950 -20.742   2.372  1.00  0.00    -0.005 C 
HETATM    2  C5  UNL     1      -6.650 -20.448   3.096  1.00  0.00     0.005 C 
HETATM    3  C6  UNL     1      -6.300 -21.580   4.058  1.00  0.00     0.001 C 
HETATM    4  C7  UNL     1      -7.492 -21.946   4.926  1.00  0.00     0.006 C 
HETATM    5  C8  UNL     1      -8.501 -20.870   4.766  1.00  0.00    -0.001 C 
HETATM    6  C9  UNL     1      -9.609 -20.860   5.761  1.00  0.00    -0.000 C 
HETATM    7  C10 UNL     1      -9.374 -21.615   7.017  1.00  0.00     0.057 C 
HETATM    8  C11 UNL     1      -8.740 -20.871   8.106  1.00  0.00    -0.017 C 
HETATM    9  N1  UNL     1      -7.938 -21.468   8.869  1.00  0.00    -0.396 N 
ATOM     10  H1  UNL     1      -7.799 -22.456   8.655  1.00  0.00     0.159 HD
HETATM   11  C15 UNL     1      -9.051 -19.454   8.313  1.00  0.00     0.056 C 
HETATM   12  C16 UNL     1      -9.089 -18.755   6.998  1.00  0.00    -0.009 C 
HETATM   13  C17 UNL     1      -9.505 -17.318   7.183  1.00  0.00     0.011 C 
HETATM   14  C18 UNL     1      -9.983 -19.398   5.960  1.00  0.00    -0.006 C 
HETATM   15  C19 UNL     1      -9.733 -18.623   4.686  1.00  0.00     0.006 C 
HETATM   16  C20 UNL     1      -9.800 -19.370   3.419  1.00  0.00     0.010 C 
HETATM   17  C21 UNL     1      -9.072 -20.695   3.392  1.00  0.00    -0.036 C 
HETATM   18  C22 UNL     1     -10.106 -21.707   2.989  1.00  0.00     0.016 C 
ENDROOT
BRANCH   9  19
HETATM   19  C12 UNL     1      -7.203 -20.995   9.966  1.00  0.00     0.130 C 
BRANCH  19  20
HETATM   20  C13 UNL     1      -8.042 -21.198  11.230  1.00  0.00     0.132 C 
BRANCH  20  21
HETATM   21  C14 UNL     1      -8.304 -22.638  11.442  1.00  0.00     0.174 C 
HETATM   22  O1  UNL     1      -7.689 -23.282  12.322  1.00  0.00    -0.648 OA
HETATM   23  O2  UNL     1      -9.241 -23.311  10.664  1.00  0.00    -0.648 OA
ENDBRANCH  20  21
ENDBRANCH  19  20
ENDBRANCH   9  19
BRANCH   1  24
HETATM   24  C3  UNL     1      -7.829 -22.079   1.724  1.00  0.00     0.015 C 
BRANCH  24  25
HETATM   25  C2  UNL     1      -6.913 -22.081   0.496  1.00  0.00     0.073 C 
BRANCH  25  26
HETATM   26  S1  UNL     1      -7.848 -22.815  -0.917  1.00  0.00    -0.173 SA
HETATM   27  C1  UNL     1      -7.514 -21.820  -2.404  1.00  0.00     0.089 C 
ENDBRANCH  25  26
ENDBRANCH  24  25
ENDBRANCH   1  24
TORSDOF 6
ENDMDL
MODEL 2
REMARK VINA RESULT: -6.657555343      4.847      8.000
REMARK  6 active torsions:
REMARK  status: ('A' for Active; 'I' for Inactive)
REMARK    1  A    between atoms: S1_2  and  C2_3 
REMARK    2  A    between atoms: C2_3  and  C3_4 
REMARK    3  A    between atoms: C3_4  and  C4_5 
REMARK    4  A    between atoms: N1_13  and  C12_15 
REMARK    5  A    between atoms: C12_15  and  C13_16 
REMARK    6  A    between atoms: C13_16  and  C14_17 
ROOT
HETATM    1  C4  UNL     1      -9.959 -19.283   8.353  1.00  0.00    -0.005 C 
HETATM    2  C5  UNL     1      -8.615 -18.592   8.228  1.00  0.00     0.005 C 
HETATM    3  C6  UNL     1      -8.639 -17.565   7.100  1.00  0.00     0.001 C 
HETATM    4  C7  UNL     1      -9.214 -18.164   5.829  1.00  0.00     0.006 C 
HETATM    5  C8  UNL     1      -9.266 -19.635   6.019  1.00  0.00    -0.001 C 
HETATM    6  C9  UNL     1      -9.498 -20.444   4.790  1.00  0.00    -0.000 C 
HETATM    7  C10 UNL     1      -9.225 -19.772   3.496  1.00  0.00     0.057 C 
HETATM    8  C11 UNL     1      -7.856 -19.878   2.991  1.00  0.00    -0.017 C 
HETATM    9  N1  UNL     1      -7.358 -18.905   2.367  1.00  0.00    -0.396 N 
ATOM     10  H1  UNL     1      -7.977 -18.102   2.261  1.00  0.00     0.159 HD
HETATM   11  C15 UNL     1      -7.085 -21.106   3.196  1.00  0.00     0.056 C 
HETATM   12  C16 UNL     1      -7.295 -21.599   4.587  1.00  0.00    -0.009 C 
HETATM   13  C17 UNL     1      -6.588 -22.916   4.785  1.00  0.00     0.011 C 
HETATM   14  C18 UNL     1      -8.743 -21.750   4.998  1.00  0.00    -0.006 C 
HETATM   15  C19 UNL     1      -8.704 -22.095   6.470  1.00  0.00     0.006 C 
HETATM   16  C20 UNL     1      -9.799 -21.584   7.311  1.00  0.00     0.010 C 
HETATM   17  C21 UNL     1     -10.165 -20.130   7.111  1.00  0.00    -0.036 C 
HETATM   18  C22 UNL     1     -11.632 -20.132   6.790  1.00  0.00     0.016 C 
ENDROOT
BRANCH   9  19
HETATM   19  C12 UNL     1      -6.087 -18.749   1.795  1.00  0.00     0.130 C 
BRANCH  19  20
HETATM   20  C13 UNL     1      -6.263 -18.187   0.382  1.00  0.00     0.132 C 
BRANCH  20  21
HETATM   21  C14 UNL     1      -6.246 -19.285  -0.609  1.00  0.00     0.174 C 
HETATM   22  O1  UNL     1      -6.613 -20.440  -0.296  1.00  0.00    -0.648 OA
HETATM   23  O2  UNL     1      -5.817 -19.058  -1.913  1.00  0.00    -0.648 OA
ENDBRANCH  20  21
ENDBRANCH  19  20
ENDBRANCH   9  19
BRANCH   1  24
HETATM   24  C3  UNL     1     -11.008 -18.235   8.504  1.00  0.00     0.015 C 
BRANCH  24  25
HETATM   25  C2  UNL     1     -11.547 -18.113   9.933  1.00  0.00     0.073 C 
BRANCH  25  26
HETATM   26  S1  UNL     1     -11.254 -19.717  10.797  1.00  0.00    -0.173 SA
HETATM   27  C1  UNL     1     -12.639 -20.835  10.417  1.00  0.00     0.089 C 
ENDBRANCH  25  26
ENDBRANCH  24  25
ENDBRANCH   1  24
TORSDOF 6
ENDMDL
MODEL 3
REMARK VINA RESULT: -6.578585546      4.874      7.991
REMARK  6 active torsions:
REMARK  status: ('A' for Active; 'I' for Inactive)
REMARK    1  A    between atoms: S1_2  and  C2_3 
REMARK    2  A    between atoms: C2_3  and  C3_4 
REMARK    3  A    between atoms: C3_4  and  C4_5 
REMARK    4  A    between atoms: N1_13  and  C12_15 
REMARK    5  A    between atoms: C12_15  and  C13_16 
REMARK    6  A    between atoms: C13_16  and  C14_17 
ROOT
HETATM    1  C4  UNL     1      -9.958 -19.274   8.372  1.00  0.00    -0.005 C 
HETATM    2  C5  UNL     1      -8.615 -18.581   8.247  1.00  0.00     0.005 C 
HETATM    3  C6  UNL     1      -8.640 -17.557   7.116  1.00  0.00     0.001 C 
HETATM    4  C7  UNL     1      -9.212 -18.161   5.846  1.00  0.00     0.006 C 
HETATM    5  C8  UNL     1      -9.261 -19.632   6.040  1.00  0.00    -0.001 C 
HETATM    6  C9  UNL     1      -9.489 -20.445   4.814  1.00  0.00    -0.000 C 
HETATM    7  C10 UNL     1      -9.216 -19.777   3.518  1.00  0.00     0.057 C 
HETATM    8  C11 UNL     1      -7.846 -19.881   3.016  1.00  0.00    -0.017 C 
HETATM    9  N1  UNL     1      -7.349 -18.909   2.390  1.00  0.00    -0.396 N 
ATOM     10  H1  UNL     1      -7.970 -18.108   2.280  1.00  0.00     0.159 HD
HETATM   11  C15 UNL     1      -7.073 -21.107   3.226  1.00  0.00     0.056 C 
HETATM   12  C16 UNL     1      -7.283 -21.596   4.618  1.00  0.00    -0.009 C 
HETATM   13  C17 UNL     1      -6.573 -22.910   4.821  1.00  0.00     0.011 C 
HETATM   14  C18 UNL     1      -8.732 -21.749   5.027  1.00  0.00    -0.006 C 
HETATM   15  C19 UNL     1      -8.694 -22.089   6.501  1.00  0.00     0.006 C 
HETATM   16  C20 UNL     1      -9.791 -21.578   7.338  1.00  0.00     0.010 C 
HETATM   17  C21 UNL     1     -10.160 -20.126   7.132  1.00  0.00    -0.036 C 
HETATM   18  C22 UNL     1     -11.627 -20.132   6.809  1.00  0.00     0.016 C 
ENDROOT
BRANCH   9  19
HETATM   19  C12 UNL     1      -6.078 -18.751   1.818  1.00  0.00     0.130 C 
BRANCH  19  20
HETATM   20  C13 UNL     1      -6.252 -18.187   0.407  1.00  0.00     0.132 C 
BRANCH  20  21
HETATM   21  C14 UNL     1      -6.236 -19.283  -0.586  1.00  0.00     0.174 C 
HETATM   22  O1  UNL     1      -6.623 -20.434  -0.281  1.00  0.00    -0.648 OA
HETATM   23  O2  UNL     1      -5.787 -19.059  -1.884  1.00  0.00    -0.648 OA
ENDBRANCH  20  21
ENDBRANCH  19  20
ENDBRANCH   9  19
BRANCH   1  24
HETATM   24  C3  UNL     1     -11.011 -18.228   8.519  1.00  0.00     0.015 C 
BRANCH  24  25
HETATM   25  C2  UNL     1     -11.185 -17.736   9.959  1.00  0.00     0.073 C 
BRANCH  25  26
HETATM   26  S1  UNL     1     -10.960 -15.905   9.972  1.00  0.00    -0.173 SA
HETATM   27  C1  UNL     1     -11.320 -15.270   8.305  1.00  0.00     0.089 C 
ENDBRANCH  25  26
ENDBRANCH  24  25
ENDBRANCH   1  24
TORSDOF 6
ENDMDL
MODEL 4
REMARK VINA RESULT: -6.495669877      2.690      4.366
REMARK  6 active torsions:
REMARK  status: ('A' for Active; 'I' for Inactive)
REMARK    1  A    between atoms: S1_2  and  C2_3 
REMARK    2  A    between atoms: C2_3  and  C3_4 
REMARK    3  A    between atoms: C3_4  and  C4_5 
REMARK    4  A    between atoms: N1_13  and  C12_15 
REMARK    5  A    between atoms: C12_15  and  C13_16 
REMARK    6  A    between atoms: C13_16  and  C14_17 
ROOT
HETATM    1  C4  UNL     1      -8.391 -22.619   3.725  1.00  0.00    -0.005 C 
HETATM    2  C5  UNL     1      -9.805 -22.074   3.747  1.00  0.00     0.005 C 
HETATM    3  C6  UNL     1      -9.811 -20.603   4.154  1.00  0.00     0.001 C 
HETATM    4  C7  UNL     1      -8.978 -20.381   5.405  1.00  0.00     0.006 C 
HETATM    5  C8  UNL     1      -8.699 -21.715   5.992  1.00  0.00    -0.001 C 
HETATM    6  C9  UNL     1      -8.171 -21.718   7.384  1.00  0.00    -0.000 C 
HETATM    7  C10 UNL     1      -8.383 -20.479   8.173  1.00  0.00     0.057 C 
HETATM    8  C11 UNL     1      -9.635 -20.402   8.927  1.00  0.00    -0.017 C 
HETATM    9  N1  UNL     1     -10.207 -19.288   9.048  1.00  0.00    -0.396 N 
ATOM     10  H1  UNL     1      -9.727 -18.508   8.598  1.00  0.00     0.159 HD
HETATM   11  C15 UNL     1     -10.203 -21.603   9.543  1.00  0.00     0.056 C 
HETATM   12  C16 UNL     1     -10.097 -22.748   8.594  1.00  0.00    -0.009 C 
HETATM   13  C17 UNL     1     -10.586 -24.014   9.250  1.00  0.00     0.011 C 
HETATM   14  C18 UNL     1      -8.711 -22.985   8.035  1.00  0.00    -0.006 C 
HETATM   15  C19 UNL     1      -8.883 -24.067   6.993  1.00  0.00     0.006 C 
HETATM   16  C20 UNL     1      -8.013 -24.006   5.808  1.00  0.00     0.010 C 
HETATM   17  C21 UNL     1      -7.880 -22.649   5.154  1.00  0.00    -0.036 C 
HETATM   18  C22 UNL     1      -6.406 -22.366   5.124  1.00  0.00     0.016 C 
ENDROOT
BRANCH   9  19
HETATM   19  C12 UNL     1     -11.399 -18.945   9.703  1.00  0.00     0.130 C 
BRANCH  19  20
HETATM   20  C13 UNL     1     -12.383 -18.409   8.661  1.00  0.00     0.132 C 
BRANCH  20  21
HETATM   21  C14 UNL     1     -11.907 -18.729   7.298  1.00  0.00     0.174 C 
HETATM   22  O1  UNL     1     -12.220 -19.806   6.742  1.00  0.00    -0.648 OA
HETATM   23  O2  UNL     1     -11.095 -17.839   6.602  1.00  0.00    -0.648 OA
ENDBRANCH  20  21
ENDBRANCH  19  20
ENDBRANCH   9  19
BRANCH   1  24
HETATM   24  C3  UNL     1      -7.567 -21.739   2.847  1.00  0.00     0.015 C 
BRANCH  24  25
HETATM   25  C2  UNL     1      -7.744 -22.030   1.353  1.00  0.00     0.073 C 
BRANCH  25  26
HETATM   26  S1  UNL     1      -6.646 -20.885   0.411  1.00  0.00    -0.173 SA
HETATM   27  C1  UNL     1      -5.960 -19.663   1.571  1.00  0.00     0.089 C 
ENDBRANCH  25  26
ENDBRANCH  24  25
ENDBRANCH   1  24
TORSDOF 6
ENDMDL
MODEL 5
REMARK VINA RESULT: -6.426623075      4.004      7.520
REMARK  6 active torsions:
REMARK  status: ('A' for Active; 'I' for Inactive)
REMARK    1  A    between atoms: S1_2  and  C2_3 
REMARK    2  A    between atoms: C2_3  and  C3_4 
REMARK    3  A    between atoms: C3_4  and  C4_5 
REMARK    4  A    between atoms: N1_13  and  C12_15 
REMARK    5  A    between atoms: C12_15  and  C13_16 
REMARK    6  A    between atoms: C13_16  and  C14_17 
ROOT
HETATM    1  C4  UNL     1     -10.542 -22.665  10.677  1.00  0.00    -0.005 C 
HETATM    2  C5  UNL     1     -10.880 -23.586   9.520  1.00  0.00     0.005 C 
HETATM    3  C6  UNL     1      -9.678 -23.757   8.597  1.00  0.00     0.001 C 
HETATM    4  C7  UNL     1      -9.070 -22.412   8.238  1.00  0.00     0.006 C 
HETATM    5  C8  UNL     1     -10.039 -21.366   8.650  1.00  0.00    -0.001 C 
HETATM    6  C9  UNL     1      -9.794 -20.000   8.111  1.00  0.00    -0.000 C 
HETATM    7  C10 UNL     1      -8.911 -19.908   6.922  1.00  0.00     0.057 C 
HETATM    8  C11 UNL     1      -9.570 -20.019   5.620  1.00  0.00    -0.017 C 
HETATM    9  N1  UNL     1      -8.970 -20.598   4.678  1.00  0.00    -0.396 N 
ATOM     10  H1  UNL     1      -8.041 -20.947   4.913  1.00  0.00     0.159 HD
HETATM   11  C15 UNL     1     -10.903 -19.447   5.416  1.00  0.00     0.056 C 
HETATM   12  C16 UNL     1     -11.762 -19.751   6.596  1.00  0.00    -0.009 C 
HETATM   13  C17 UNL     1     -13.106 -19.086   6.446  1.00  0.00     0.011 C 
HETATM   14  C18 UNL     1     -11.166 -19.365   7.932  1.00  0.00    -0.006 C 
HETATM   15  C19 UNL     1     -12.126 -19.911   8.966  1.00  0.00     0.006 C 
HETATM   16  C20 UNL     1     -11.550 -20.387  10.235  1.00  0.00     0.010 C 
HETATM   17  C21 UNL     1     -10.329 -21.271  10.117  1.00  0.00    -0.036 C 
HETATM   18  C22 UNL     1      -9.271 -20.598  10.942  1.00  0.00     0.016 C 
ENDROOT
BRANCH   9  19
HETATM   19  C12 UNL     1      -9.373 -20.840   3.357  1.00  0.00     0.130 C 
BRANCH  19  20
HETATM   20  C13 UNL     1      -8.758 -22.166   2.902  1.00  0.00     0.132 C 
BRANCH  20  21
HETATM   21  C14 UNL     1      -8.023 -22.797   4.019  1.00  0.00     0.174 C 
HETATM   22  O1  UNL     1      -8.589 -23.610   4.785  1.00  0.00    -0.648 OA
HETATM   23  O2  UNL     1      -6.683 -22.497   4.247  1.00  0.00    -0.648 OA
ENDBRANCH  20  21
ENDBRANCH  19  20
ENDBRANCH   9  19
BRANCH   1  24
HETATM   24  C3  UNL     1      -9.324 -23.197  11.353  1.00  0.00     0.015 C 
BRANCH  24  25
HETATM   25  C2  UNL     1      -9.631 -23.996  12.624  1.00  0.00     0.073 C 
BRANCH  25  26
HETATM   26  S1  UNL     1      -8.107 -24.031  13.663  1.00  0.00    -0.173 SA
HETATM   27  C1  UNL     1      -6.916 -22.840  12.976  1.00  0.00     0.089 C 
ENDBRANCH  25  26
ENDBRANCH  24  25
ENDBRANCH   1  24
TORSDOF 6
ENDMDL
