MODEL 1
REMARK VINA RESULT: -6.781972311      0.000      0.000
REMARK  5 active torsions:
REMARK  status: ('A' for Active; 'I' for Inactive)
REMARK    1  A    between atoms: N1_2  and  C3_4 
REMARK    2  A    between atoms: C4_7  and  N3_8 
REMARK    3  A    between atoms: N3_8  and  C5_10 
REMARK    4  A    between atoms: C5_10  and  N4_12 
REMARK    5  A    between atoms: N4_12  and  N5_14 
ROOT
HETATM    1  C3  UNL     1      54.555 131.451 -90.894  1.00  0.00     0.709 A 
HETATM    2  N2  UNL     1      53.957 131.324 -89.696  1.00  0.00    -0.019 N 
ATOM      3  H2  UNL     1      53.428 130.510 -89.382  1.00  0.00     0.203 HD
HETATM    4  C4  UNL     1      54.172 132.459 -88.965  1.00  0.00     0.714 A 
HETATM    5  N6  UNL     1      54.899 133.269 -89.724  1.00  0.00    -0.117 N 
ATOM      6  H6  UNL     1      55.225 134.199 -89.460  1.00  0.00     0.206 HD
HETATM    7  N7  UNL     1      55.130 132.666 -90.886  1.00  0.00    -0.117 N 
ATOM      8  H7  UNL     1      55.666 133.066 -91.657  1.00  0.00     0.206 HD
ENDROOT
BRANCH   4   9
HETATM    9  N3  UNL     1      53.746 132.690 -87.759  1.00  0.00    -0.163 N 
ATOM     10  H3  UNL     1      54.032 133.528 -87.255  1.00  0.00     0.186 HD
BRANCH   9  11
HETATM   11  C5  UNL     1      52.872 131.741 -87.163  1.00  0.00     0.204 C 
HETATM   12  S1  UNL     1      53.451 130.512 -86.265  1.00  0.00    -0.039 SA
BRANCH  11  13
HETATM   13  N4  UNL     1      51.480 131.854 -87.347  1.00  0.00    -0.282 N 
ATOM     14  H4  UNL     1      50.905 131.016 -87.434  1.00  0.00     0.189 HD
BRANCH  13  15
HETATM   15  N5  UNL     1      50.892 133.114 -87.408  1.00  0.00    -0.343 N 
ATOM     16  H52 UNL     1      50.882 133.616 -88.296  1.00  0.00     0.176 HD
ATOM     17  H51 UNL     1      50.479 133.521 -86.568  1.00  0.00     0.176 HD
ENDBRANCH  13  15
ENDBRANCH  11  13
ENDBRANCH   9  11
ENDBRANCH   4   9
BRANCH   1  18
HETATM   18  N1  UNL     1      54.606 130.543 -91.978  1.00  0.00    -0.225 N 
HETATM   19  C1  UNL     1      55.470 130.908 -93.110  1.00  0.00     0.168 C 
HETATM   20  C2  UNL     1      53.856 129.323 -91.989  1.00  0.00     0.168 C 
ENDBRANCH   1  18
TORSDOF 5
ENDMDL
MODEL 2
REMARK VINA RESULT: -6.737733352      2.342      5.075
REMARK  5 active torsions:
REMARK  status: ('A' for Active; 'I' for Inactive)
REMARK    1  A    between atoms: N1_2  and  C3_4 
REMARK    2  A    between atoms: C4_7  and  N3_8 
REMARK    3  A    between atoms: N3_8  and  C5_10 
REMARK    4  A    between atoms: C5_10  and  N4_12 
REMARK    5  A    between atoms: N4_12  and  N5_14 
ROOT
HETATM    1  C3  UNL     1      53.545 131.843 -88.046  1.00  0.00     0.709 A 
HETATM    2  N2  UNL     1      53.698 131.247 -89.242  1.00  0.00    -0.019 N 
ATOM      3  H2  UNL     1      53.357 130.318 -89.487  1.00  0.00     0.203 HD
HETATM    4  C4  UNL     1      54.383 132.085 -90.076  1.00  0.00     0.714 A 
HETATM    5  N6  UNL     1      54.643 133.186 -89.382  1.00  0.00    -0.117 N 
ATOM      6  H6  UNL     1      55.144 134.004 -89.729  1.00  0.00     0.206 HD
HETATM    7  N7  UNL     1      54.141 133.044 -88.160  1.00  0.00    -0.117 N 
ATOM      8  H7  UNL     1      54.199 133.742 -87.418  1.00  0.00     0.206 HD
ENDROOT
BRANCH   4   9
HETATM    9  N3  UNL     1      54.709 131.844 -91.311  1.00  0.00    -0.163 N 
ATOM     10  H3  UNL     1      54.421 132.471 -92.061  1.00  0.00     0.186 HD
BRANCH   9  11
HETATM   11  C5  UNL     1      55.479 130.682 -91.586  1.00  0.00     0.204 C 
HETATM   12  S1  UNL     1      54.948 129.547 -92.625  1.00  0.00    -0.039 SA
BRANCH  11  13
HETATM   13  N4  UNL     1      56.725 130.497 -90.954  1.00  0.00    -0.282 N 
ATOM     14  H4  UNL     1      56.925 129.626 -90.461  1.00  0.00     0.189 HD
BRANCH  13  15
HETATM   15  N5  UNL     1      57.681 131.507 -91.004  1.00  0.00    -0.343 N 
ATOM     16  H52 UNL     1      57.912 132.017 -90.151  1.00  0.00     0.176 HD
ATOM     17  H51 UNL     1      58.140 131.725 -91.889  1.00  0.00     0.176 HD
ENDBRANCH  13  15
ENDBRANCH  11  13
ENDBRANCH   9  11
ENDBRANCH   4   9
BRANCH   1  18
HETATM   18  N1  UNL     1      52.908 131.369 -86.875  1.00  0.00    -0.225 N 
HETATM   19  C1  UNL     1      51.515 131.786 -86.661  1.00  0.00     0.168 C 
HETATM   20  C2  UNL     1      53.576 130.524 -85.931  1.00  0.00     0.168 C 
ENDBRANCH   1  18
TORSDOF 5
ENDMDL
MODEL 3
REMARK VINA RESULT: -6.625954700      2.296      5.120
REMARK  5 active torsions:
REMARK  status: ('A' for Active; 'I' for Inactive)
REMARK    1  A    between atoms: N1_2  and  C3_4 
REMARK    2  A    between atoms: C4_7  and  N3_8 
REMARK    3  A    between atoms: N3_8  and  C5_10 
REMARK    4  A    between atoms: C5_10  and  N4_12 
REMARK    5  A    between atoms: N4_12  and  N5_14 
ROOT
HETATM    1  C3  UNL     1      53.650 131.910 -88.361  1.00  0.00     0.709 A 
HETATM    2  N2  UNL     1      53.779 131.227 -89.512  1.00  0.00    -0.019 N 
ATOM      3  H2  UNL     1      53.410 130.292 -89.689  1.00  0.00     0.203 HD
HETATM    4  C4  UNL     1      54.483 131.983 -90.406  1.00  0.00     0.714 A 
HETATM    5  N6  UNL     1      54.779 133.122 -89.793  1.00  0.00    -0.117 N 
ATOM      6  H6  UNL     1      55.302 133.898 -90.198  1.00  0.00     0.206 HD
HETATM    7  N7  UNL     1      54.279 133.082 -88.562  1.00  0.00    -0.117 N 
ATOM      8  H7  UNL     1      54.361 133.829 -87.872  1.00  0.00     0.206 HD
ENDROOT
BRANCH   4   9
HETATM    9  N3  UNL     1      54.797 131.645 -91.621  1.00  0.00    -0.163 N 
ATOM     10  H3  UNL     1      54.799 132.335 -92.372  1.00  0.00     0.186 HD
BRANCH   9  11
HETATM   11  C5  UNL     1      55.135 130.289 -91.874  1.00  0.00     0.204 C 
HETATM   12  S1  UNL     1      54.121 129.305 -92.684  1.00  0.00    -0.039 SA
BRANCH  11  13
HETATM   13  N4  UNL     1      56.366 129.774 -91.421  1.00  0.00    -0.282 N 
ATOM     14  H4  UNL     1      56.995 130.360 -90.872  1.00  0.00     0.189 HD
BRANCH  13  15
HETATM   15  N5  UNL     1      56.719 128.463 -91.724  1.00  0.00    -0.343 N 
ATOM     16  H52 UNL     1      56.314 128.016 -92.547  1.00  0.00     0.176 HD
ATOM     17  H51 UNL     1      57.377 127.964 -91.124  1.00  0.00     0.176 HD
ENDBRANCH  13  15
ENDBRANCH  11  13
ENDBRANCH   9  11
ENDBRANCH   4   9
BRANCH   1  18
HETATM   18  N1  UNL     1      53.005 131.539 -87.157  1.00  0.00    -0.225 N 
HETATM   19  C1  UNL     1      51.765 132.251 -86.820  1.00  0.00     0.168 C 
HETATM   20  C2  UNL     1      53.526 130.520 -86.295  1.00  0.00     0.168 C 
ENDBRANCH   1  18
TORSDOF 5
ENDMDL
MODEL 4
REMARK VINA RESULT: -6.574830102      1.182      1.675
REMARK  5 active torsions:
REMARK  status: ('A' for Active; 'I' for Inactive)
REMARK    1  A    between atoms: N1_2  and  C3_4 
REMARK    2  A    between atoms: C4_7  and  N3_8 
REMARK    3  A    between atoms: N3_8  and  C5_10 
REMARK    4  A    between atoms: C5_10  and  N4_12 
REMARK    5  A    between atoms: N4_12  and  N5_14 
ROOT
HETATM    1  C3  UNL     1      54.678 131.848 -91.057  1.00  0.00     0.709 A 
HETATM    2  N2  UNL     1      54.802 132.823 -90.140  1.00  0.00    -0.019 N 
ATOM      3  H2  UNL     1      55.289 133.708 -90.280  1.00  0.00     0.203 HD
HETATM    4  C4  UNL     1      54.171 132.440 -88.990  1.00  0.00     0.714 A 
HETATM    5  N6  UNL     1      53.668 131.233 -89.215  1.00  0.00    -0.117 N 
ATOM      6  H6  UNL     1      53.138 130.675 -88.546  1.00  0.00     0.206 HD
HETATM    7  N7  UNL     1      53.971 130.873 -90.458  1.00  0.00    -0.117 N 
ATOM      8  H7  UNL     1      53.707 129.988 -90.892  1.00  0.00     0.206 HD
ENDROOT
BRANCH   4   9
HETATM    9  N3  UNL     1      54.084 133.131 -87.893  1.00  0.00    -0.163 N 
ATOM     10  H3  UNL     1      54.658 133.962 -87.751  1.00  0.00     0.186 HD
BRANCH   9  11
HETATM   11  C5  UNL     1      53.168 132.698 -86.898  1.00  0.00     0.204 C 
HETATM   12  S1  UNL     1      53.688 132.151 -85.455  1.00  0.00    -0.039 SA
BRANCH  11  13
HETATM   13  N4  UNL     1      51.782 132.736 -87.152  1.00  0.00    -0.282 N 
ATOM     14  H4  UNL     1      51.331 133.617 -87.397  1.00  0.00     0.189 HD
BRANCH  13  15
HETATM   15  N5  UNL     1      51.033 131.567 -87.067  1.00  0.00    -0.343 N 
ATOM     16  H52 UNL     1      51.486 130.671 -87.248  1.00  0.00     0.176 HD
ATOM     17  H51 UNL     1      50.042 131.617 -86.827  1.00  0.00     0.176 HD
ENDBRANCH  13  15
ENDBRANCH  11  13
ENDBRANCH   9  11
ENDBRANCH   4   9
BRANCH   1  18
HETATM   18  N1  UNL     1      55.161 131.790 -92.386  1.00  0.00    -0.225 N 
HETATM   19  C1  UNL     1      54.652 132.800 -93.323  1.00  0.00     0.168 C 
HETATM   20  C2  UNL     1      56.101 130.797 -92.813  1.00  0.00     0.168 C 
ENDBRANCH   1  18
TORSDOF 5
ENDMDL
MODEL 5
REMARK VINA RESULT: -6.543847621      1.354      1.896
REMARK  5 active torsions:
REMARK  status: ('A' for Active; 'I' for Inactive)
REMARK    1  A    between atoms: N1_2  and  C3_4 
REMARK    2  A    between atoms: C4_7  and  N3_8 
REMARK    3  A    between atoms: N3_8  and  C5_10 
REMARK    4  A    between atoms: C5_10  and  N4_12 
REMARK    5  A    between atoms: N4_12  and  N5_14 
ROOT
HETATM    1  C3  UNL     1      54.814 131.267 -91.050  1.00  0.00     0.709 A 
HETATM    2  N2  UNL     1      53.928 131.096 -90.053  1.00  0.00    -0.019 N 
ATOM      3  H2  UNL     1      53.354 130.265 -89.908  1.00  0.00     0.203 HD
HETATM    4  C4  UNL     1      53.917 132.214 -89.267  1.00  0.00     0.714 A 
HETATM    5  N6  UNL     1      54.797 133.058 -89.790  1.00  0.00    -0.117 N 
ATOM      6  H6  UNL     1      55.019 133.985 -89.429  1.00  0.00     0.206 HD
HETATM    7  N7  UNL     1      55.339 132.492 -90.864  1.00  0.00    -0.117 N 
ATOM      8  H7  UNL     1      56.047 132.922 -91.458  1.00  0.00     0.206 HD
ENDROOT
BRANCH   4   9
HETATM    9  N3  UNL     1      53.184 132.403 -88.210  1.00  0.00    -0.163 N 
ATOM     10  H3  UNL     1      52.242 132.786 -88.288  1.00  0.00     0.186 HD
BRANCH   9  11
HETATM   11  C5  UNL     1      53.732 132.063 -86.944  1.00  0.00     0.204 C 
HETATM   12  S1  UNL     1      54.144 133.214 -85.869  1.00  0.00    -0.039 SA
BRANCH  11  13
HETATM   13  N4  UNL     1      53.928 130.710 -86.602  1.00  0.00    -0.282 N 
ATOM     14  H4  UNL     1      54.828 130.401 -86.234  1.00  0.00     0.189 HD
BRANCH  13  15
HETATM   15  N5  UNL     1      52.890 129.799 -86.768  1.00  0.00    -0.343 N 
ATOM     16  H52 UNL     1      53.095 128.874 -87.145  1.00  0.00     0.176 HD
ATOM     17  H51 UNL     1      51.938 130.065 -86.513  1.00  0.00     0.176 HD
ENDBRANCH  13  15
ENDBRANCH  11  13
ENDBRANCH   9  11
ENDBRANCH   4   9
BRANCH   1  18
HETATM   18  N1  UNL     1      55.170 130.392 -92.103  1.00  0.00    -0.225 N 
HETATM   19  C1  UNL     1      54.190 129.361 -92.471  1.00  0.00     0.168 C 
HETATM   20  C2  UNL     1      56.426 130.490 -92.786  1.00  0.00     0.168 C 
ENDBRANCH   1  18
TORSDOF 5
ENDMDL
