MODEL 1
REMARK VINA RESULT: -7.152249039      0.000      0.000
REMARK  7 active torsions:
REMARK  status: ('A' for Active; 'I' for Inactive)
REMARK    1  A    between atoms: N1_1  and  N2_4 
REMARK    2  A    between atoms: N2_4  and  N3_5 
REMARK    3  A    between atoms: N3_5  and  C1_7 
REMARK    4  A    between atoms: C1_7  and  N4_8 
REMARK    5  A    between atoms: C4_15  and  N7_16 
REMARK    6  A    between atoms: N9_24  and  N10_25 
REMARK    7  A    between atoms: N10_25  and  N11_26 
ROOT
HETATM    1  N4  UNL     1     -15.162 -28.115  18.789  1.00  0.00    -0.239 N 
HETATM    2  C2  UNL     1     -14.442 -27.351  19.759  1.00  0.00     0.143 A 
HETATM    3  N5  UNL     1     -13.106 -27.209  19.695  1.00  0.00    -0.337 N 
ATOM      4  H5  UNL     1     -12.597 -27.658  18.933  1.00  0.00     0.168 HD
HETATM    5  C3  UNL     1     -12.422 -26.495  20.601  1.00  0.00     0.183 A 
HETATM    6  N6  UNL     1     -13.055 -25.880  21.630  1.00  0.00    -0.338 N 
ATOM      7  H6  UNL     1     -12.524 -25.340  22.313  1.00  0.00     0.168 HD
HETATM    8  C4  UNL     1     -14.407 -25.992  21.741  1.00  0.00     0.119 A 
HETATM    9  C5  UNL     1     -15.105 -26.728  20.806  1.00  0.00     0.122 A 
HETATM   10  C6  UNL     1     -16.552 -26.900  20.849  1.00  0.00     0.276 C 
HETATM   11  O1  UNL     1     -17.201 -26.350  21.786  1.00  0.00    -0.266 OA
HETATM   12  N8  UNL     1     -17.182 -27.674  19.845  1.00  0.00    -0.249 N 
ATOM     13  H8  UNL     1     -18.157 -27.940  19.983  1.00  0.00     0.187 HD
HETATM   14  N9  UNL     1     -16.544 -28.090  18.680  1.00  0.00    -0.017 NA
ENDROOT
BRANCH   1  15
HETATM   15  C1  UNL     1     -14.372 -28.937  17.896  1.00  0.00     0.303 C 
BRANCH  15  16
HETATM   16  N3  UNL     1     -15.171 -29.965  17.268  1.00  0.00    -0.233 N 
ATOM     17  H3  UNL     1     -15.638 -30.688  17.814  1.00  0.00     0.199 HD
BRANCH  16  18
HETATM   18  N2  UNL     1     -15.261 -29.924  16.025  1.00  0.00    -0.247 NA
BRANCH  18  19
HETATM   19  N1  UNL     1     -15.225 -30.142  14.795  1.00  0.00    -0.261 N 
ATOM     20  H12 UNL     1     -14.416 -30.755  14.895  1.00  0.00     0.193 HD
ATOM     21  H11 UNL     1     -15.382 -30.176  13.787  1.00  0.00     0.193 HD
ENDBRANCH  18  19
ENDBRANCH  16  18
ENDBRANCH  15  16
ENDBRANCH   1  15
BRANCH  14  22
HETATM   22  N10 UNL     1     -16.990 -27.264  17.645  1.00  0.00    -0.014 NA
BRANCH  22  23
HETATM   23  N11 UNL     1     -17.886 -27.917  16.788  1.00  0.00    -0.330 N 
ATOM     24 2H11 UNL     1     -17.682 -28.818  16.355  1.00  0.00     0.173 HD
ATOM     25 1H11 UNL     1     -18.750 -27.392  16.656  1.00  0.00     0.173 HD
ENDBRANCH  22  23
ENDBRANCH  14  22
BRANCH   8  26
HETATM   26  N7  UNL     1     -15.040 -25.423  22.705  1.00  0.00    -0.385 N 
ATOM     27  H72 UNL     1     -14.616 -24.631  23.188  1.00  0.00     0.157 HD
ATOM     28  H71 UNL     1     -15.962 -25.751  22.993  1.00  0.00     0.157 HD
ENDBRANCH   8  26
TORSDOF 7
ENDMDL
MODEL 2
REMARK VINA RESULT: -7.057345358      2.055      4.842
REMARK  7 active torsions:
REMARK  status: ('A' for Active; 'I' for Inactive)
REMARK    1  A    between atoms: N1_1  and  N2_4 
REMARK    2  A    between atoms: N2_4  and  N3_5 
REMARK    3  A    between atoms: N3_5  and  C1_7 
REMARK    4  A    between atoms: C1_7  and  N4_8 
REMARK    5  A    between atoms: C4_15  and  N7_16 
REMARK    6  A    between atoms: N9_24  and  N10_25 
REMARK    7  A    between atoms: N10_25  and  N11_26 
ROOT
HETATM    1  N4  UNL     1     -15.736 -26.804  19.587  1.00  0.00    -0.239 N 
HETATM    2  C2  UNL     1     -14.960 -27.789  18.901  1.00  0.00     0.143 A 
HETATM    3  N5  UNL     1     -13.807 -28.258  19.410  1.00  0.00    -0.337 N 
ATOM      4  H5  UNL     1     -13.481 -27.900  20.308  1.00  0.00     0.168 HD
HETATM    5  C3  UNL     1     -13.072 -29.182  18.773  1.00  0.00     0.183 A 
HETATM    6  N6  UNL     1     -13.464 -29.687  17.579  1.00  0.00    -0.338 N 
ATOM      7  H6  UNL     1     -12.897 -30.390  17.105  1.00  0.00     0.168 HD
HETATM    8  C4  UNL     1     -14.624 -29.247  17.020  1.00  0.00     0.119 A 
HETATM    9  C5  UNL     1     -15.376 -28.296  17.678  1.00  0.00     0.122 A 
HETATM   10  C6  UNL     1     -16.630 -27.769  17.153  1.00  0.00     0.276 C 
HETATM   11  O1  UNL     1     -17.051 -28.202  16.040  1.00  0.00    -0.266 OA
HETATM   12  N8  UNL     1     -17.333 -26.795  17.901  1.00  0.00    -0.249 N 
ATOM     13  H8  UNL     1     -18.102 -26.301  17.447  1.00  0.00     0.187 HD
HETATM   14  N9  UNL     1     -17.032 -26.473  19.221  1.00  0.00    -0.017 NA
ENDROOT
BRANCH   1  15
HETATM   15  C1  UNL     1     -15.101 -26.147  20.711  1.00  0.00     0.303 C 
BRANCH  15  16
HETATM   16  N3  UNL     1     -16.023 -25.953  21.807  1.00  0.00    -0.233 N 
ATOM     17  H3  UNL     1     -16.626 -25.133  21.860  1.00  0.00     0.199 HD
BRANCH  16  18
HETATM   18  N2  UNL     1     -16.045 -26.839  22.685  1.00  0.00    -0.247 NA
BRANCH  18  19
HETATM   19  N1  UNL     1     -16.054 -27.905  23.337  1.00  0.00    -0.261 N 
ATOM     20  H12 UNL     1     -15.068 -27.802  23.578  1.00  0.00     0.193 HD
ATOM     21  H11 UNL     1     -16.287 -28.782  23.803  1.00  0.00     0.193 HD
ENDBRANCH  18  19
ENDBRANCH  16  18
ENDBRANCH  15  16
ENDBRANCH   1  15
BRANCH  14  22
HETATM   22  N10 UNL     1     -17.994 -27.087  20.027  1.00  0.00    -0.014 NA
BRANCH  22  23
HETATM   23  N11 UNL     1     -17.728 -28.447  20.235  1.00  0.00    -0.330 N 
ATOM     24 2H11 UNL     1     -18.038 -29.177  19.593  1.00  0.00     0.173 HD
ATOM     25 1H11 UNL     1     -17.198 -28.615  21.089  1.00  0.00     0.173 HD
ENDBRANCH  22  23
ENDBRANCH  14  22
BRANCH   8  26
HETATM   26  N7  UNL     1     -15.027 -29.704  15.887  1.00  0.00    -0.385 N 
ATOM     27  H72 UNL     1     -15.886 -30.252  15.841  1.00  0.00     0.157 HD
ATOM     28  H71 UNL     1     -14.500 -29.526  15.032  1.00  0.00     0.157 HD
ENDBRANCH   8  26
TORSDOF 7
ENDMDL
MODEL 3
REMARK VINA RESULT: -6.994715206      1.343      1.906
REMARK  7 active torsions:
REMARK  status: ('A' for Active; 'I' for Inactive)
REMARK    1  A    between atoms: N1_1  and  N2_4 
REMARK    2  A    between atoms: N2_4  and  N3_5 
REMARK    3  A    between atoms: N3_5  and  C1_7 
REMARK    4  A    between atoms: C1_7  and  N4_8 
REMARK    5  A    between atoms: C4_15  and  N7_16 
REMARK    6  A    between atoms: N9_24  and  N10_25 
REMARK    7  A    between atoms: N10_25  and  N11_26 
ROOT
HETATM    1  N4  UNL     1     -14.660 -27.900  18.410  1.00  0.00    -0.239 N 
HETATM    2  C2  UNL     1     -14.284 -27.153  19.568  1.00  0.00     0.143 A 
HETATM    3  N5  UNL     1     -13.012 -26.766  19.775  1.00  0.00    -0.337 N 
ATOM      4  H5  UNL     1     -12.302 -27.013  19.085  1.00  0.00     0.168 HD
HETATM    5  C3  UNL     1     -12.649 -26.065  20.859  1.00  0.00     0.183 A 
HETATM    6  N6  UNL     1     -13.557 -25.713  21.801  1.00  0.00    -0.338 N 
ATOM      7  H6  UNL     1     -13.269 -25.180  22.622  1.00  0.00     0.168 HD
HETATM    8  C4  UNL     1     -14.858 -26.080  21.641  1.00  0.00     0.119 A 
HETATM    9  C5  UNL     1     -15.226 -26.801  20.524  1.00  0.00     0.122 A 
HETATM   10  C6  UNL     1     -16.595 -27.234  20.272  1.00  0.00     0.276 C 
HETATM   11  O1  UNL     1     -17.490 -26.936  21.116  1.00  0.00    -0.266 OA
HETATM   12  N8  UNL     1     -16.878 -27.971  19.097  1.00  0.00    -0.249 N 
ATOM     13  H8  UNL     1     -17.788 -28.424  19.020  1.00  0.00     0.187 HD
HETATM   14  N9  UNL     1     -15.981 -28.110  18.042  1.00  0.00    -0.017 NA
ENDROOT
BRANCH   1  15
HETATM   15  C1  UNL     1     -13.582 -28.444  17.611  1.00  0.00     0.303 C 
BRANCH  15  16
HETATM   16  N3  UNL     1     -13.284 -29.812  17.974  1.00  0.00    -0.233 N 
ATOM     17  H3  UNL     1     -13.631 -30.598  17.427  1.00  0.00     0.199 HD
BRANCH  16  18
HETATM   18  N2  UNL     1     -12.580 -29.981  18.989  1.00  0.00    -0.247 NA
BRANCH  18  19
HETATM   19  N1  UNL     1     -11.683 -29.991  19.860  1.00  0.00    -0.261 N 
ATOM     20  H12 UNL     1     -11.999 -30.892  20.220  1.00  0.00     0.193 HD
ATOM     21  H11 UNL     1     -10.894 -29.793  20.474  1.00  0.00     0.193 HD
ENDBRANCH  18  19
ENDBRANCH  16  18
ENDBRANCH  15  16
ENDBRANCH   1  15
BRANCH  14  22
HETATM   22  N10 UNL     1     -16.401 -27.250  17.024  1.00  0.00    -0.014 NA
BRANCH  22  23
HETATM   23  N11 UNL     1     -17.761 -27.403  16.723  1.00  0.00    -0.330 N 
ATOM     24 2H11 UNL     1     -18.447 -26.661  16.862  1.00  0.00     0.173 HD
ATOM     25 1H11 UNL     1     -17.977 -28.329  16.354  1.00  0.00     0.173 HD
ENDBRANCH  22  23
ENDBRANCH  14  22
BRANCH   8  26
HETATM   26  N7  UNL     1     -15.746 -25.764  22.515  1.00  0.00    -0.385 N 
ATOM     27  H72 UNL     1     -16.210 -24.857  22.458  1.00  0.00     0.157 HD
ATOM     28  H71 UNL     1     -15.996 -26.408  23.266  1.00  0.00     0.157 HD
ENDBRANCH   8  26
TORSDOF 7
ENDMDL
MODEL 4
REMARK VINA RESULT: -6.929421456      2.759      5.016
REMARK  7 active torsions:
REMARK  status: ('A' for Active; 'I' for Inactive)
REMARK    1  A    between atoms: N1_1  and  N2_4 
REMARK    2  A    between atoms: N2_4  and  N3_5 
REMARK    3  A    between atoms: N3_5  and  C1_7 
REMARK    4  A    between atoms: C1_7  and  N4_8 
REMARK    5  A    between atoms: C4_15  and  N7_16 
REMARK    6  A    between atoms: N9_24  and  N10_25 
REMARK    7  A    between atoms: N10_25  and  N11_26 
ROOT
HETATM    1  N4  UNL     1     -13.570 -28.389  18.973  1.00  0.00    -0.239 N 
HETATM    2  C2  UNL     1     -14.906 -27.880  18.964  1.00  0.00     0.143 A 
HETATM    3  N5  UNL     1     -15.405 -27.193  20.007  1.00  0.00    -0.337 N 
ATOM      4  H5  UNL     1     -14.814 -27.032  20.822  1.00  0.00     0.168 HD
HETATM    5  C3  UNL     1     -16.657 -26.712  20.008  1.00  0.00     0.183 A 
HETATM    6  N6  UNL     1     -17.480 -26.900  18.948  1.00  0.00    -0.338 N 
ATOM      7  H6  UNL     1     -18.430 -26.529  18.960  1.00  0.00     0.168 HD
HETATM    8  C4  UNL     1     -17.024 -27.588  17.866  1.00  0.00     0.119 A 
HETATM    9  C5  UNL     1     -15.735 -28.082  17.871  1.00  0.00     0.122 A 
HETATM   10  C6  UNL     1     -15.165 -28.829  16.757  1.00  0.00     0.276 C 
HETATM   11  O1  UNL     1     -15.884 -29.038  15.736  1.00  0.00    -0.266 OA
HETATM   12  N8  UNL     1     -13.833 -29.296  16.851  1.00  0.00    -0.249 N 
ATOM     13  H8  UNL     1     -13.506 -29.967  16.157  1.00  0.00     0.187 HD
HETATM   14  N9  UNL     1     -12.943 -28.887  17.841  1.00  0.00    -0.017 NA
ENDROOT
BRANCH   1  15
HETATM   15  C1  UNL     1     -12.875 -28.362  20.244  1.00  0.00     0.303 C 
BRANCH  15  16
HETATM   16  N3  UNL     1     -12.246 -29.630  20.536  1.00  0.00    -0.233 N 
ATOM     17  H3  UNL     1     -11.574 -30.054  19.897  1.00  0.00     0.199 HD
BRANCH  16  18
HETATM   18  N2  UNL     1     -12.566 -30.181  21.609  1.00  0.00    -0.247 NA
BRANCH  18  19
HETATM   19  N1  UNL     1     -12.630 -30.862  22.654  1.00  0.00    -0.261 N 
ATOM     20  H12 UNL     1     -12.041 -31.591  22.253  1.00  0.00     0.193 HD
ATOM     21  H11 UNL     1     -12.816 -31.240  23.584  1.00  0.00     0.193 HD
ENDBRANCH  18  19
ENDBRANCH  16  18
ENDBRANCH  15  16
ENDBRANCH   1  15
BRANCH  14  22
HETATM   22  N10 UNL     1     -12.069 -27.966  17.259  1.00  0.00    -0.014 NA
BRANCH  22  23
HETATM   23  N11 UNL     1     -10.934 -27.733  18.049  1.00  0.00    -0.330 N 
ATOM     24 2H11 UNL     1     -10.760 -28.222  18.927  1.00  0.00     0.173 HD
ATOM     25 1H11 UNL     1     -10.317 -27.030  17.645  1.00  0.00     0.173 HD
ENDBRANCH  22  23
ENDBRANCH  14  22
BRANCH   8  26
HETATM   26  N7  UNL     1     -17.777 -27.786  16.843  1.00  0.00    -0.385 N 
ATOM     27  H72 UNL     1     -18.062 -26.995  16.266  1.00  0.00     0.157 HD
ATOM     28  H71 UNL     1     -18.094 -28.724  16.598  1.00  0.00     0.157 HD
ENDBRANCH   8  26
TORSDOF 7
ENDMDL
MODEL 5
REMARK VINA RESULT: -6.914067678      2.184      4.431
REMARK  7 active torsions:
REMARK  status: ('A' for Active; 'I' for Inactive)
REMARK    1  A    between atoms: N1_1  and  N2_4 
REMARK    2  A    between atoms: N2_4  and  N3_5 
REMARK    3  A    between atoms: N3_5  and  C1_7 
REMARK    4  A    between atoms: C1_7  and  N4_8 
REMARK    5  A    between atoms: C4_15  and  N7_16 
REMARK    6  A    between atoms: N9_24  and  N10_25 
REMARK    7  A    between atoms: N10_25  and  N11_26 
ROOT
HETATM    1  N4  UNL     1     -13.426 -27.916  18.842  1.00  0.00    -0.239 N 
HETATM    2  C2  UNL     1     -14.776 -27.611  18.484  1.00  0.00     0.143 A 
HETATM    3  N5  UNL     1     -15.169 -27.555  17.199  1.00  0.00    -0.337 N 
ATOM      4  H5  UNL     1     -14.485 -27.735  16.464  1.00  0.00     0.168 HD
HETATM    5  C3  UNL     1     -16.433 -27.268  16.854  1.00  0.00     0.183 A 
HETATM    6  N6  UNL     1     -17.377 -27.023  17.795  1.00  0.00    -0.338 N 
ATOM      7  H6  UNL     1     -18.335 -26.806  17.520  1.00  0.00     0.168 HD
HETATM    8  C4  UNL     1     -17.032 -27.067  19.110  1.00  0.00     0.119 A 
HETATM    9  C5  UNL     1     -15.730 -27.361  19.460  1.00  0.00     0.122 A 
HETATM   10  C6  UNL     1     -15.274 -27.430  20.842  1.00  0.00     0.276 C 
HETATM   11  O1  UNL     1     -16.109 -27.210  21.768  1.00  0.00    -0.266 OA
HETATM   12  N8  UNL     1     -13.918 -27.740  21.105  1.00  0.00    -0.249 N 
ATOM     13  H8  UNL     1     -13.567 -27.606  22.053  1.00  0.00     0.187 HD
HETATM   14  N9  UNL     1     -13.037 -28.217  20.138  1.00  0.00    -0.017 NA
ENDROOT
BRANCH   1  15
HETATM   15  C1  UNL     1     -12.453 -27.901  17.770  1.00  0.00     0.303 C 
BRANCH  15  16
HETATM   16  N3  UNL     1     -11.101 -27.819  18.275  1.00  0.00    -0.233 N 
ATOM     17  H3  UNL     1     -10.785 -28.399  19.052  1.00  0.00     0.199 HD
BRANCH  16  18
HETATM   18  N2  UNL     1     -10.341 -27.005  17.715  1.00  0.00    -0.247 NA
BRANCH  18  19
HETATM   19  N1  UNL     1      -9.618 -26.037  17.397  1.00  0.00    -0.261 N 
ATOM     20  H12 UNL     1      -8.848 -26.383  17.969  1.00  0.00     0.193 HD
ATOM     21  H11 UNL     1      -9.216 -25.182  17.010  1.00  0.00     0.193 HD
ENDBRANCH  18  19
ENDBRANCH  16  18
ENDBRANCH  15  16
ENDBRANCH   1  15
BRANCH  14  22
HETATM   22  N10 UNL     1     -12.890 -29.589  20.353  1.00  0.00    -0.014 NA
BRANCH  22  23
HETATM   23  N11 UNL     1     -11.650 -29.911  20.922  1.00  0.00    -0.330 N 
ATOM     24 2H11 UNL     1     -10.899 -29.230  21.038  1.00  0.00     0.173 HD
ATOM     25 1H11 UNL     1     -11.592 -30.890  21.201  1.00  0.00     0.173 HD
ENDBRANCH  22  23
ENDBRANCH  14  22
BRANCH   8  26
HETATM   26  N7  UNL     1     -17.901 -26.838  20.030  1.00  0.00    -0.385 N 
ATOM     27  H72 UNL     1     -18.169 -27.587  20.668  1.00  0.00     0.157 HD
ATOM     28  H71 UNL     1     -18.327 -25.917  20.131  1.00  0.00     0.157 HD
ENDBRANCH   8  26
TORSDOF 7
ENDMDL
