MODEL 1
REMARK VINA RESULT: -7.431059471      0.000      0.000
REMARK  10 active torsions:
REMARK  status: ('A' for Active; 'I' for Inactive)
REMARK    1  A    between atoms: C2_2  and  O1_3 
REMARK    2  A    between atoms: O1_3  and  C3_4 
REMARK    3  A    between atoms: C3_4  and  C4_5 
REMARK    4  A    between atoms: C4_5  and  C5_6 
REMARK    5  A    between atoms: C5_6  and  N1_7 
REMARK    6  A    between atoms: C7_12  and  N3_13 
REMARK    7  A    between atoms: N3_13  and  C8_15 
REMARK    8  A    between atoms: C8_15  and  C9_16 
REMARK    9  A    between atoms: C9_16  and  C10_17 
REMARK   10  A    between atoms: C10_17  and  N4_18 
ROOT
HETATM    1  N1  UNL     1       6.945  15.880 -32.831  1.00  0.00    -0.375 N 
ATOM      2  H1  UNL     1       6.371  16.365 -33.520  1.00  0.00     0.161 HD
HETATM    3  C6  UNL     1       6.802  16.339 -31.677  1.00  0.00     0.131 A 
HETATM    4  N2  UNL     1       5.921  17.384 -31.549  1.00  0.00    -0.176 N 
ATOM      5  H2  UNL     1       5.439  17.726 -32.381  1.00  0.00     0.186 HD
HETATM    6  C7  UNL     1       5.671  17.972 -30.372  1.00  0.00     0.681 A 
HETATM    7  N5  UNL     1       6.283  17.552 -29.253  1.00  0.00    -0.176 N 
ATOM      8  H5  UNL     1       6.090  18.001 -28.357  1.00  0.00     0.186 HD
HETATM    9  C11 UNL     1       7.164  16.520 -29.332  1.00  0.00     0.135 A 
HETATM   10  N6  UNL     1       7.916  15.892 -28.398  1.00  0.00    -0.345 N 
ATOM     11  H6  UNL     1       7.932  16.127 -27.405  1.00  0.00     0.167 HD
HETATM   12  C12 UNL     1       8.630  14.925 -28.967  1.00  0.00     0.008 A 
HETATM   13  C13 UNL     1       9.580  13.997 -28.324  1.00  0.00     0.068 C 
HETATM   14  C14 UNL     1       8.341  14.910 -30.334  1.00  0.00     0.043 A 
HETATM   15  C15 UNL     1       7.425  15.917 -30.522  1.00  0.00     0.055 A 
ENDROOT
BRANCH   6  16
HETATM   16  N3  UNL     1       4.846  18.955 -30.240  1.00  0.00    -0.226 N 
ATOM     17  H3  UNL     1       3.950  18.962 -30.727  1.00  0.00     0.177 HD
BRANCH  16  18
HETATM   18  C8  UNL     1       5.238  20.040 -29.379  1.00  0.00     0.139 C 
BRANCH  18  19
HETATM   19  C9  UNL     1       4.191  20.468 -28.406  1.00  0.00     0.047 C 
BRANCH  19  20
HETATM   20  C10 UNL     1       4.725  20.289 -26.985  1.00  0.00     0.231 C 
BRANCH  20  21
HETATM   21  N4  UNL     1       5.127  21.562 -26.449  1.00  0.00    -0.079 N 
ATOM     22  H43 UNL     1       6.142  21.659 -26.414  1.00  0.00     0.274 HD
ATOM     23  H42 UNL     1       4.926  22.329 -27.091  1.00  0.00     0.274 HD
ATOM     24  H41 UNL     1       4.697  21.705 -25.535  1.00  0.00     0.274 HD
ENDBRANCH  20  21
ENDBRANCH  19  20
ENDBRANCH  18  19
ENDBRANCH  16  18
ENDBRANCH   6  16
BRANCH   1  25
HETATM   25  C5  UNL     1       7.714  14.852 -33.395  1.00  0.00     0.123 C 
BRANCH  25  26
HETATM   26  C4  UNL     1       9.100  15.341 -33.858  1.00  0.00     0.046 C 
BRANCH  26  27
HETATM   27  C3  UNL     1      10.135  14.306 -33.565  1.00  0.00     0.169 C 
BRANCH  27  28
HETATM   28  O1  UNL     1      10.950  14.694 -32.522  1.00  0.00    -0.391 OA
BRANCH  28  29
HETATM   29  C2  UNL     1      11.673  13.697 -31.924  1.00  0.00     0.163 C 
HETATM   30  C1  UNL     1      12.817  13.216 -32.797  1.00  0.00     0.033 C 
ENDBRANCH  28  29
ENDBRANCH  27  28
ENDBRANCH  26  27
ENDBRANCH  25  26
ENDBRANCH   1  25
TORSDOF 10
ENDMDL
MODEL 2
REMARK VINA RESULT: -7.326274140      2.662      4.420
REMARK  10 active torsions:
REMARK  status: ('A' for Active; 'I' for Inactive)
REMARK    1  A    between atoms: C2_2  and  O1_3 
REMARK    2  A    between atoms: O1_3  and  C3_4 
REMARK    3  A    between atoms: C3_4  and  C4_5 
REMARK    4  A    between atoms: C4_5  and  C5_6 
REMARK    5  A    between atoms: C5_6  and  N1_7 
REMARK    6  A    between atoms: C7_12  and  N3_13 
REMARK    7  A    between atoms: N3_13  and  C8_15 
REMARK    8  A    between atoms: C8_15  and  C9_16 
REMARK    9  A    between atoms: C9_16  and  C10_17 
REMARK   10  A    between atoms: C10_17  and  N4_18 
ROOT
HETATM    1  N1  UNL     1       9.226  13.551 -29.917  1.00  0.00    -0.375 N 
ATOM      2  H1  UNL     1       8.895  13.104 -30.772  1.00  0.00     0.161 HD
HETATM    3  C6  UNL     1       8.606  14.604 -29.654  1.00  0.00     0.131 A 
HETATM    4  N2  UNL     1       7.617  14.958 -30.539  1.00  0.00    -0.176 N 
ATOM      5  H2  UNL     1       7.443  14.360 -31.347  1.00  0.00     0.186 HD
HETATM    6  C7  UNL     1       6.874  16.061 -30.380  1.00  0.00     0.681 A 
HETATM    7  N5  UNL     1       7.071  16.875 -29.330  1.00  0.00    -0.176 N 
ATOM      8  H5  UNL     1       6.502  17.714 -29.211  1.00  0.00     0.186 HD
HETATM    9  C11 UNL     1       8.039  16.564 -28.428  1.00  0.00     0.135 A 
HETATM   10  N6  UNL     1       8.459  17.176 -27.297  1.00  0.00    -0.345 N 
ATOM     11  H6  UNL     1       8.074  18.043 -26.924  1.00  0.00     0.167 HD
HETATM   12  C12 UNL     1       9.450  16.480 -26.746  1.00  0.00     0.008 A 
HETATM   13  C13 UNL     1      10.199  16.783 -25.512  1.00  0.00     0.068 C 
HETATM   14  C14 UNL     1       9.697  15.358 -27.544  1.00  0.00     0.043 A 
HETATM   15  C15 UNL     1       8.799  15.447 -28.580  1.00  0.00     0.055 A 
ENDROOT
BRANCH   6  16
HETATM   16  N3  UNL     1       5.944  16.404 -31.205  1.00  0.00    -0.226 N 
ATOM     17  H3  UNL     1       4.965  16.179 -31.022  1.00  0.00     0.177 HD
BRANCH  16  18
HETATM   18  C8  UNL     1       6.337  17.117 -32.392  1.00  0.00     0.139 C 
BRANCH  18  19
HETATM   19  C9  UNL     1       6.867  16.253 -33.487  1.00  0.00     0.047 C 
BRANCH  19  20
HETATM   20  C10 UNL     1       8.183  16.840 -33.995  1.00  0.00     0.231 C 
BRANCH  20  21
HETATM   21  N4  UNL     1       9.292  16.143 -33.402  1.00  0.00    -0.079 N 
ATOM     22  H43 UNL     1       9.043  15.715 -32.510  1.00  0.00     0.274 HD
ATOM     23  H42 UNL     1       9.527  15.291 -33.914  1.00  0.00     0.274 HD
ATOM     24  H41 UNL     1      10.092  16.770 -33.316  1.00  0.00     0.274 HD
ENDBRANCH  20  21
ENDBRANCH  19  20
ENDBRANCH  18  19
ENDBRANCH  16  18
ENDBRANCH   6  16
BRANCH   1  25
HETATM   25  C5  UNL     1      10.271  12.844 -29.307  1.00  0.00     0.123 C 
BRANCH  25  26
HETATM   26  C4  UNL     1      11.637  13.137 -29.959  1.00  0.00     0.046 C 
BRANCH  26  27
HETATM   27  C3  UNL     1      11.444  13.757 -31.303  1.00  0.00     0.169 C 
BRANCH  27  28
HETATM   28  O1  UNL     1      11.610  15.125 -31.251  1.00  0.00    -0.391 OA
BRANCH  28  29
HETATM   29  C2  UNL     1      12.492  15.586 -30.311  1.00  0.00     0.163 C 
HETATM   30  C1  UNL     1      12.095  16.947 -29.771  1.00  0.00     0.033 C 
ENDBRANCH  28  29
ENDBRANCH  27  28
ENDBRANCH  26  27
ENDBRANCH  25  26
ENDBRANCH   1  25
TORSDOF 10
ENDMDL
MODEL 3
REMARK VINA RESULT: -7.231255963      1.347      3.097
REMARK  10 active torsions:
REMARK  status: ('A' for Active; 'I' for Inactive)
REMARK    1  A    between atoms: C2_2  and  O1_3 
REMARK    2  A    between atoms: O1_3  and  C3_4 
REMARK    3  A    between atoms: C3_4  and  C4_5 
REMARK    4  A    between atoms: C4_5  and  C5_6 
REMARK    5  A    between atoms: C5_6  and  N1_7 
REMARK    6  A    between atoms: C7_12  and  N3_13 
REMARK    7  A    between atoms: N3_13  and  C8_15 
REMARK    8  A    between atoms: C8_15  and  C9_16 
REMARK    9  A    between atoms: C9_16  and  C10_17 
REMARK   10  A    between atoms: C10_17  and  N4_18 
ROOT
HETATM    1  N1  UNL     1       7.959  15.036 -28.832  1.00  0.00    -0.375 N 
ATOM      2  H1  UNL     1       7.828  15.075 -27.821  1.00  0.00     0.161 HD
HETATM    3  C6  UNL     1       7.222  15.837 -29.444  1.00  0.00     0.131 A 
HETATM    4  N2  UNL     1       6.391  16.606 -28.667  1.00  0.00    -0.176 N 
ATOM      5  H2  UNL     1       6.417  16.488 -27.654  1.00  0.00     0.186 HD
HETATM    6  C7  UNL     1       5.548  17.506 -29.190  1.00  0.00     0.681 A 
HETATM    7  N5  UNL     1       5.485  17.694 -30.519  1.00  0.00    -0.176 N 
ATOM      8  H5  UNL     1       4.844  18.382 -30.915  1.00  0.00     0.186 HD
HETATM    9  C11 UNL     1       6.289  16.955 -31.327  1.00  0.00     0.135 A 
HETATM   10  N6  UNL     1       6.445  16.922 -32.671  1.00  0.00    -0.345 N 
ATOM     11  H6  UNL     1       5.932  17.502 -33.334  1.00  0.00     0.167 HD
HETATM   12  C12 UNL     1       7.367  16.020 -32.998  1.00  0.00     0.008 A 
HETATM   13  C13 UNL     1       7.848  15.658 -34.345  1.00  0.00     0.068 C 
HETATM   14  C14 UNL     1       7.843  15.430 -31.824  1.00  0.00     0.043 A 
HETATM   15  C15 UNL     1       7.148  16.038 -30.806  1.00  0.00     0.055 A 
ENDROOT
BRANCH   6  16
HETATM   16  N3  UNL     1       4.764  18.234 -28.471  1.00  0.00    -0.226 N 
ATOM     17  H3  UNL     1       3.750  18.184 -28.578  1.00  0.00     0.177 HD
BRANCH  16  18
HETATM   18  C8  UNL     1       5.372  19.117 -27.510  1.00  0.00     0.139 C 
BRANCH  18  19
HETATM   19  C9  UNL     1       4.778  20.485 -27.464  1.00  0.00     0.047 C 
BRANCH  19  20
HETATM   20  C10 UNL     1       3.800  20.647 -28.627  1.00  0.00     0.231 C 
BRANCH  20  21
HETATM   21  N4  UNL     1       2.517  21.068 -28.133  1.00  0.00    -0.079 N 
ATOM     22  H43 UNL     1       1.814  20.332 -28.215  1.00  0.00     0.274 HD
ATOM     23  H42 UNL     1       2.510  21.165 -27.117  1.00  0.00     0.274 HD
ATOM     24  H41 UNL     1       2.228  21.927 -28.601  1.00  0.00     0.274 HD
ENDBRANCH  20  21
ENDBRANCH  19  20
ENDBRANCH  18  19
ENDBRANCH  16  18
ENDBRANCH   6  16
BRANCH   1  25
HETATM   25  C5  UNL     1       8.925  14.094 -29.215  1.00  0.00     0.123 C 
BRANCH  25  26
HETATM   26  C4  UNL     1      10.348  14.686 -29.230  1.00  0.00     0.046 C 
BRANCH  26  27
HETATM   27  C3  UNL     1      11.272  13.787 -29.984  1.00  0.00     0.169 C 
BRANCH  27  28
HETATM   28  O1  UNL     1      10.693  13.343 -31.154  1.00  0.00    -0.391 OA
BRANCH  28  29
HETATM   29  C2  UNL     1      11.162  13.912 -32.308  1.00  0.00     0.163 C 
HETATM   30  C1  UNL     1      12.561  13.437 -32.654  1.00  0.00     0.033 C 
ENDBRANCH  28  29
ENDBRANCH  27  28
ENDBRANCH  26  27
ENDBRANCH  25  26
ENDBRANCH   1  25
TORSDOF 10
ENDMDL
MODEL 4
REMARK VINA RESULT: -7.193071446      1.555      3.364
REMARK  10 active torsions:
REMARK  status: ('A' for Active; 'I' for Inactive)
REMARK    1  A    between atoms: C2_2  and  O1_3 
REMARK    2  A    between atoms: O1_3  and  C3_4 
REMARK    3  A    between atoms: C3_4  and  C4_5 
REMARK    4  A    between atoms: C4_5  and  C5_6 
REMARK    5  A    between atoms: C5_6  and  N1_7 
REMARK    6  A    between atoms: C7_12  and  N3_13 
REMARK    7  A    between atoms: N3_13  and  C8_15 
REMARK    8  A    between atoms: C8_15  and  C9_16 
REMARK    9  A    between atoms: C9_16  and  C10_17 
REMARK   10  A    between atoms: C10_17  and  N4_18 
ROOT
HETATM    1  N1  UNL     1       7.628  16.080 -28.148  1.00  0.00    -0.375 N 
ATOM      2  H1  UNL     1       7.472  16.325 -27.171  1.00  0.00     0.161 HD
HETATM    3  C6  UNL     1       6.891  16.719 -28.929  1.00  0.00     0.131 A 
HETATM    4  N2  UNL     1       6.027  17.612 -28.345  1.00  0.00    -0.176 N 
ATOM      5  H2  UNL     1       6.030  17.708 -27.330  1.00  0.00     0.186 HD
HETATM    6  C7  UNL     1       5.179  18.363 -29.061  1.00  0.00     0.681 A 
HETATM    7  N5  UNL     1       5.144  18.269 -30.401  1.00  0.00    -0.176 N 
ATOM      8  H5  UNL     1       4.499  18.843 -30.944  1.00  0.00     0.186 HD
HETATM    9  C11 UNL     1       5.982  17.397 -31.021  1.00  0.00     0.135 A 
HETATM   10  N6  UNL     1       6.171  17.089 -32.325  1.00  0.00    -0.345 N 
ATOM     11  H6  UNL     1       5.662  17.506 -33.105  1.00  0.00     0.167 HD
HETATM   12  C12 UNL     1       7.117  16.161 -32.439  1.00  0.00     0.008 A 
HETATM   13  C13 UNL     1       7.638  15.538 -33.671  1.00  0.00     0.068 C 
HETATM   14  C14 UNL     1       7.576  15.840 -31.158  1.00  0.00     0.043 A 
HETATM   15  C15 UNL     1       6.845  16.629 -30.304  1.00  0.00     0.055 A 
ENDROOT
BRANCH   6  16
HETATM   16  N3  UNL     1       4.363  19.205 -28.525  1.00  0.00    -0.226 N 
ATOM     17  H3  UNL     1       3.390  18.957 -28.344  1.00  0.00     0.177 HD
BRANCH  16  18
HETATM   18  C8  UNL     1       4.877  20.507 -28.190  1.00  0.00     0.139 C 
BRANCH  18  19
HETATM   19  C9  UNL     1       5.107  20.727 -26.732  1.00  0.00     0.047 C 
BRANCH  19  20
HETATM   20  C10 UNL     1       3.976  20.070 -25.942  1.00  0.00     0.231 C 
BRANCH  20  21
HETATM   21  N4  UNL     1       2.783  20.869 -26.039  1.00  0.00    -0.079 N 
ATOM     22  H43 UNL     1       2.248  20.656 -26.881  1.00  0.00     0.274 HD
ATOM     23  H42 UNL     1       2.084  20.598 -25.346  1.00  0.00     0.274 HD
ATOM     24  H41 UNL     1       3.021  21.859 -25.977  1.00  0.00     0.274 HD
ENDBRANCH  20  21
ENDBRANCH  19  20
ENDBRANCH  18  19
ENDBRANCH  16  18
ENDBRANCH   6  16
BRANCH   1  25
HETATM   25  C5  UNL     1       8.622  15.103 -28.308  1.00  0.00     0.123 C 
BRANCH  25  26
HETATM   26  C4  UNL     1      10.043  15.686 -28.187  1.00  0.00     0.046 C 
BRANCH  26  27
HETATM   27  C3  UNL     1      10.788  15.494 -29.467  1.00  0.00     0.169 C 
BRANCH  27  28
HETATM   28  O1  UNL     1      11.678  14.444 -29.375  1.00  0.00    -0.391 OA
BRANCH  28  29
HETATM   29  C2  UNL     1      11.450  13.391 -30.219  1.00  0.00     0.163 C 
HETATM   30  C1  UNL     1      10.642  12.290 -29.556  1.00  0.00     0.033 C 
ENDBRANCH  28  29
ENDBRANCH  27  28
ENDBRANCH  26  27
ENDBRANCH  25  26
ENDBRANCH   1  25
TORSDOF 10
ENDMDL
MODEL 5
REMARK VINA RESULT: -7.188298208      1.973      5.787
REMARK  10 active torsions:
REMARK  status: ('A' for Active; 'I' for Inactive)
REMARK    1  A    between atoms: C2_2  and  O1_3 
REMARK    2  A    between atoms: O1_3  and  C3_4 
REMARK    3  A    between atoms: C3_4  and  C4_5 
REMARK    4  A    between atoms: C4_5  and  C5_6 
REMARK    5  A    between atoms: C5_6  and  N1_7 
REMARK    6  A    between atoms: C7_12  and  N3_13 
REMARK    7  A    between atoms: N3_13  and  C8_15 
REMARK    8  A    between atoms: C8_15  and  C9_16 
REMARK    9  A    between atoms: C9_16  and  C10_17 
REMARK   10  A    between atoms: C10_17  and  N4_18 
ROOT
HETATM    1  N1  UNL     1       8.336  16.221 -28.494  1.00  0.00    -0.375 N 
ATOM      2  H1  UNL     1       8.883  15.387 -28.701  1.00  0.00     0.161 HD
HETATM    3  C6  UNL     1       7.498  16.481 -29.384  1.00  0.00     0.131 A 
HETATM    4  N2  UNL     1       7.467  15.619 -30.451  1.00  0.00    -0.176 N 
ATOM      5  H2  UNL     1       8.112  14.829 -30.465  1.00  0.00     0.186 HD
HETATM    6  C7  UNL     1       6.620  15.777 -31.477  1.00  0.00     0.681 A 
HETATM    7  N5  UNL     1       5.753  16.803 -31.498  1.00  0.00    -0.176 N 
ATOM      8  H5  UNL     1       5.108  16.920 -32.279  1.00  0.00     0.186 HD
HETATM    9  C11 UNL     1       5.749  17.682 -30.462  1.00  0.00     0.135 A 
HETATM   10  N6  UNL     1       5.009  18.786 -30.209  1.00  0.00    -0.345 N 
ATOM     11  H6  UNL     1       4.278  19.154 -30.819  1.00  0.00     0.167 HD
HETATM   12  C12 UNL     1       5.376  19.322 -29.048  1.00  0.00     0.008 A 
HETATM   13  C13 UNL     1       4.837  20.527 -28.390  1.00  0.00     0.068 C 
HETATM   14  C14 UNL     1       6.402  18.541 -28.507  1.00  0.00     0.043 A 
HETATM   15  C15 UNL     1       6.605  17.531 -29.416  1.00  0.00     0.055 A 
ENDROOT
BRANCH   6  16
HETATM   16  N3  UNL     1       6.581  14.974 -32.485  1.00  0.00    -0.226 N 
ATOM     17  H3  UNL     1       6.064  14.095 -32.442  1.00  0.00     0.177 HD
BRANCH  16  18
HETATM   18  C8  UNL     1       7.294  15.364 -33.673  1.00  0.00     0.139 C 
BRANCH  18  19
HETATM   19  C9  UNL     1       8.453  14.489 -34.016  1.00  0.00     0.047 C 
BRANCH  19  20
HETATM   20  C10 UNL     1       9.692  14.984 -33.272  1.00  0.00     0.231 C 
BRANCH  20  21
HETATM   21  N4  UNL     1      10.757  14.025 -33.401  1.00  0.00    -0.079 N 
ATOM     22  H43 UNL     1      10.910  13.505 -32.536  1.00  0.00     0.274 HD
ATOM     23  H42 UNL     1      10.496  13.241 -34.000  1.00  0.00     0.274 HD
ATOM     24  H41 UNL     1      11.606  14.489 -33.724  1.00  0.00     0.274 HD
ENDBRANCH  20  21
ENDBRANCH  19  20
ENDBRANCH  18  19
ENDBRANCH  16  18
ENDBRANCH   6  16
BRANCH   1  25
HETATM   25  C5  UNL     1       8.696  16.814 -27.275  1.00  0.00     0.123 C 
BRANCH  25  26
HETATM   26  C4  UNL     1      10.223  16.943 -27.112  1.00  0.00     0.046 C 
BRANCH  26  27
HETATM   27  C3  UNL     1      10.887  16.919 -28.450  1.00  0.00     0.169 C 
BRANCH  27  28
HETATM   28  O1  UNL     1      11.550  15.728 -28.658  1.00  0.00    -0.391 OA
BRANCH  28  29
HETATM   29  C2  UNL     1      11.270  15.086 -29.834  1.00  0.00     0.163 C 
HETATM   30  C1  UNL     1      10.660  13.715 -29.608  1.00  0.00     0.033 C 
ENDBRANCH  28  29
ENDBRANCH  27  28
ENDBRANCH  26  27
ENDBRANCH  25  26
ENDBRANCH   1  25
TORSDOF 10
ENDMDL
