MODEL 1
REMARK VINA RESULT: -6.611902206      0.000      0.000
REMARK  4 active torsions:
REMARK  status: ('A' for Active; 'I' for Inactive)
REMARK    1  A    between atoms: N1_1  and  O1_4 
REMARK    2  A    between atoms: O1_4  and  C1_5 
REMARK    3  A    between atoms: C1_5  and  N2_6 
REMARK    4  A    between atoms: C5_14  and  N4_15 
ROOT
HETATM    1  N2  UNL     1      18.767 -19.257  -0.883  1.00  0.00    -0.259 N 
HETATM    2  C2  UNL     1      19.306 -18.128  -0.388  1.00  0.00     0.330 A 
HETATM    3  O2  UNL     1      20.558 -17.947  -0.376  1.00  0.00    -0.246 OA
HETATM    4  N3  UNL     1      18.320 -17.317   0.048  1.00  0.00    -0.304 N 
ATOM      5  H3  UNL     1      18.451 -16.398   0.469  1.00  0.00     0.171 HD
HETATM    6  C3  UNL     1      17.116 -17.929  -0.167  1.00  0.00     0.101 A 
HETATM    7  C4  UNL     1      15.812 -17.565   0.079  1.00  0.00     0.081 A 
HETATM    8  S1  UNL     1      15.490 -15.984   0.835  1.00  0.00    -0.047 SA
HETATM    9  C5  UNL     1      14.765 -18.410  -0.255  1.00  0.00     0.190 A 
HETATM   10  C6  UNL     1      15.104 -19.632  -0.845  1.00  0.00     0.281 A 
HETATM   11  O5  UNL     1      14.190 -20.440  -1.169  1.00  0.00    -0.265 OA
HETATM   12  N5  UNL     1      16.394 -19.940  -1.064  1.00  0.00    -0.305 N 
ATOM     13  H5  UNL     1      16.602 -20.840  -1.496  1.00  0.00     0.170 HD
HETATM   14  C7  UNL     1      17.433 -19.135  -0.749  1.00  0.00     0.145 A 
ENDROOT
BRANCH   1  15
HETATM   15  C1  UNL     1      19.467 -20.410  -1.462  1.00  0.00     0.337 C 
BRANCH  15  16
HETATM   16  O1  UNL     1      20.354 -19.850  -2.405  1.00  0.00    -0.267 OA
BRANCH  16  17
HETATM   17  N1  UNL     1      19.639 -19.229  -3.351  1.00  0.00    -0.309 N 
ATOM     18  H12 UNL     1      19.155 -18.341  -3.227  1.00  0.00     0.184 HD
ATOM     19  H11 UNL     1      19.664 -19.792  -4.202  1.00  0.00     0.184 HD
ENDBRANCH  16  17
ENDBRANCH  15  16
ENDBRANCH   1  15
BRANCH   9  20
HETATM   20  N4  UNL     1      13.418 -18.060  -0.013  1.00  0.00    -0.108 N 
HETATM   21  O3  UNL     1      12.769 -17.483  -0.883  1.00  0.00    -0.532 OA
HETATM   22  O4  UNL     1      12.856 -18.367   1.183  1.00  0.00    -0.532 OA
ENDBRANCH   9  20
TORSDOF 4
ENDMDL
MODEL 2
REMARK VINA RESULT: -6.393070790      6.131      7.625
REMARK  4 active torsions:
REMARK  status: ('A' for Active; 'I' for Inactive)
REMARK    1  A    between atoms: N1_1  and  O1_4 
REMARK    2  A    between atoms: O1_4  and  C1_5 
REMARK    3  A    between atoms: C1_5  and  N2_6 
REMARK    4  A    between atoms: C5_14  and  N4_15 
ROOT
HETATM    1  N2  UNL     1      14.124 -19.042   5.068  1.00  0.00    -0.259 N 
HETATM    2  C2  UNL     1      14.720 -19.619   6.127  1.00  0.00     0.330 A 
HETATM    3  O2  UNL     1      14.540 -20.843   6.396  1.00  0.00    -0.246 OA
HETATM    4  N3  UNL     1      15.471 -18.703   6.770  1.00  0.00    -0.304 N 
ATOM      5  H3  UNL     1      16.029 -18.874   7.607  1.00  0.00     0.171 HD
HETATM    6  C3  UNL     1      15.363 -17.506   6.119  1.00  0.00     0.101 A 
HETATM    7  C4  UNL     1      15.904 -16.258   6.334  1.00  0.00     0.081 A 
HETATM    8  S1  UNL     1      16.992 -16.023   7.725  1.00  0.00    -0.047 SA
HETATM    9  C5  UNL     1      15.609 -15.201   5.485  1.00  0.00     0.190 A 
HETATM   10  C6  UNL     1      14.747 -15.472   4.417  1.00  0.00     0.281 A 
HETATM   11  O5  UNL     1      14.445 -14.546   3.614  1.00  0.00    -0.265 OA
HETATM   12  N5  UNL     1      14.246 -16.707   4.251  1.00  0.00    -0.305 N 
ATOM     13  H5  UNL     1      13.621 -16.866   3.461  1.00  0.00     0.170 HD
HETATM   14  C7  UNL     1      14.516 -17.754   5.063  1.00  0.00     0.145 A 
ENDROOT
BRANCH   1  15
HETATM   15  C1  UNL     1      13.220 -19.665   4.093  1.00  0.00     0.337 C 
BRANCH  15  16
HETATM   16  O1  UNL     1      13.731 -19.276   2.837  1.00  0.00    -0.267 OA
BRANCH  16  17
HETATM   17  N1  UNL     1      12.706 -19.053   2.006  1.00  0.00    -0.309 N 
ATOM     18  H12 UNL     1      11.822 -19.560   2.022  1.00  0.00     0.184 HD
ATOM     19  H11 UNL     1      12.961 -18.300   1.366  1.00  0.00     0.184 HD
ENDBRANCH  16  17
ENDBRANCH  15  16
ENDBRANCH   1  15
BRANCH   9  20
HETATM   20  N4  UNL     1      16.151 -13.913   5.684  1.00  0.00    -0.108 N 
HETATM   21  O3  UNL     1      17.220 -13.609   5.158  1.00  0.00    -0.532 OA
HETATM   22  O4  UNL     1      15.481 -13.022   6.458  1.00  0.00    -0.532 OA
ENDBRANCH   9  20
TORSDOF 4
ENDMDL
MODEL 3
REMARK VINA RESULT: -6.342299688      9.742     10.855
REMARK  4 active torsions:
REMARK  status: ('A' for Active; 'I' for Inactive)
REMARK    1  A    between atoms: N1_1  and  O1_4 
REMARK    2  A    between atoms: O1_4  and  C1_5 
REMARK    3  A    between atoms: C1_5  and  N2_6 
REMARK    4  A    between atoms: C5_14  and  N4_15 
ROOT
HETATM    1  N2  UNL     1      18.942 -10.390   4.806  1.00  0.00    -0.259 N 
HETATM    2  C2  UNL     1      19.436  -9.164   5.058  1.00  0.00     0.330 A 
HETATM    3  O2  UNL     1      20.487  -8.749   4.487  1.00  0.00    -0.246 OA
HETATM    4  N3  UNL     1      18.648  -8.541   5.957  1.00  0.00    -0.304 N 
ATOM      5  H3  UNL     1      18.794  -7.600   6.323  1.00  0.00     0.171 HD
HETATM    6  C3  UNL     1      17.621  -9.376   6.299  1.00  0.00     0.101 A 
HETATM    7  C4  UNL     1      16.549  -9.258   7.154  1.00  0.00     0.081 A 
HETATM    8  S1  UNL     1      16.344  -7.743   8.070  1.00  0.00    -0.047 SA
HETATM    9  C5  UNL     1      15.642 -10.296   7.303  1.00  0.00     0.190 A 
HETATM   10  C6  UNL     1      15.875 -11.450   6.547  1.00  0.00     0.281 A 
HETATM   11  O5  UNL     1      15.080 -12.427   6.644  1.00  0.00    -0.265 OA
HETATM   12  N5  UNL     1      16.937 -11.515   5.726  1.00  0.00    -0.305 N 
ATOM     13  H5  UNL     1      17.074 -12.373   5.191  1.00  0.00     0.170 HD
HETATM   14  C7  UNL     1      17.835 -10.518   5.562  1.00  0.00     0.145 A 
ENDROOT
BRANCH   1  15
HETATM   15  C1  UNL     1      19.478 -11.408   3.895  1.00  0.00     0.337 C 
BRANCH  15  16
HETATM   16  O1  UNL     1      19.111 -10.961   2.608  1.00  0.00    -0.267 OA
BRANCH  16  17
HETATM   17  N1  UNL     1      20.223 -10.681   1.917  1.00  0.00    -0.309 N 
ATOM     18  H12 UNL     1      21.035 -10.194   2.293  1.00  0.00     0.184 HD
ATOM     19  H11 UNL     1      20.114 -11.034   0.966  1.00  0.00     0.184 HD
ENDBRANCH  16  17
ENDBRANCH  15  16
ENDBRANCH   1  15
BRANCH   9  20
HETATM   20  N4  UNL     1      14.534 -10.200   8.173  1.00  0.00    -0.108 N 
HETATM   21  O3  UNL     1      14.648 -10.533   9.351  1.00  0.00    -0.532 OA
HETATM   22  O4  UNL     1      13.351  -9.739   7.695  1.00  0.00    -0.532 OA
ENDBRANCH   9  20
TORSDOF 4
ENDMDL
MODEL 4
REMARK VINA RESULT: -6.280897847      8.566      9.737
REMARK  4 active torsions:
REMARK  status: ('A' for Active; 'I' for Inactive)
REMARK    1  A    between atoms: N1_1  and  O1_4 
REMARK    2  A    between atoms: O1_4  and  C1_5 
REMARK    3  A    between atoms: C1_5  and  N2_6 
REMARK    4  A    between atoms: C5_14  and  N4_15 
ROOT
HETATM    1  N2  UNL     1      18.611 -10.203   5.215  1.00  0.00    -0.259 N 
HETATM    2  C2  UNL     1      18.282  -9.150   5.985  1.00  0.00     0.330 A 
HETATM    3  O2  UNL     1      19.006  -8.113   6.027  1.00  0.00    -0.246 OA
HETATM    4  N3  UNL     1      17.130  -9.416   6.634  1.00  0.00    -0.304 N 
ATOM      5  H3  UNL     1      16.656  -8.788   7.283  1.00  0.00     0.171 HD
HETATM    6  C3  UNL     1      16.701 -10.665   6.281  1.00  0.00     0.101 A 
HETATM    7  C4  UNL     1      15.609 -11.426   6.633  1.00  0.00     0.081 A 
HETATM    8  S1  UNL     1      14.429 -10.753   7.786  1.00  0.00    -0.047 SA
HETATM    9  C5  UNL     1      15.427 -12.693   6.101  1.00  0.00     0.190 A 
HETATM   10  C6  UNL     1      16.399 -13.146   5.202  1.00  0.00     0.281 A 
HETATM   11  O5  UNL     1      16.282 -14.293   4.688  1.00  0.00    -0.265 OA
HETATM   12  N5  UNL     1      17.446 -12.364   4.892  1.00  0.00    -0.305 N 
ATOM     13  H5  UNL     1      18.134 -12.728   4.233  1.00  0.00     0.170 HD
HETATM   14  C7  UNL     1      17.648 -11.125   5.395  1.00  0.00     0.145 A 
ENDROOT
BRANCH   1  15
HETATM   15  C1  UNL     1      19.782 -10.348   4.341  1.00  0.00     0.337 C 
BRANCH  15  16
HETATM   16  O1  UNL     1      19.241 -10.533   3.051  1.00  0.00    -0.267 OA
BRANCH  16  17
HETATM   17  N1  UNL     1      20.245 -10.724   2.187  1.00  0.00    -0.309 N 
ATOM     18  H12 UNL     1      21.231 -10.571   2.396  1.00  0.00     0.184 HD
ATOM     19  H11 UNL     1      19.856 -11.042   1.299  1.00  0.00     0.184 HD
ENDBRANCH  16  17
ENDBRANCH  15  16
ENDBRANCH   1  15
BRANCH   9  20
HETATM   20  N4  UNL     1      14.315 -13.494   6.445  1.00  0.00    -0.108 N 
HETATM   21  O3  UNL     1      13.283 -13.427   5.782  1.00  0.00    -0.532 OA
HETATM   22  O4  UNL     1      14.403 -14.330   7.510  1.00  0.00    -0.532 OA
ENDBRANCH   9  20
TORSDOF 4
ENDMDL
MODEL 5
REMARK VINA RESULT: -6.248398829      5.964      7.357
REMARK  4 active torsions:
REMARK  status: ('A' for Active; 'I' for Inactive)
REMARK    1  A    between atoms: N1_1  and  O1_4 
REMARK    2  A    between atoms: O1_4  and  C1_5 
REMARK    3  A    between atoms: C1_5  and  N2_6 
REMARK    4  A    between atoms: C5_14  and  N4_15 
ROOT
HETATM    1  N2  UNL     1      16.557 -15.791   6.364  1.00  0.00    -0.259 N 
HETATM    2  C2  UNL     1      16.811 -16.652   7.365  1.00  0.00     0.330 A 
HETATM    3  O2  UNL     1      17.576 -16.340   8.324  1.00  0.00    -0.246 OA
HETATM    4  N3  UNL     1      16.141 -17.802   7.145  1.00  0.00    -0.304 N 
ATOM      5  H3  UNL     1      16.157 -18.623   7.750  1.00  0.00     0.171 HD
HETATM    6  C3  UNL     1      15.437 -17.688   5.979  1.00  0.00     0.101 A 
HETATM    7  C4  UNL     1      14.601 -18.537   5.290  1.00  0.00     0.081 A 
HETATM    8  S1  UNL     1      14.288 -20.160   5.956  1.00  0.00    -0.047 SA
HETATM    9  C5  UNL     1      14.011 -18.140   4.099  1.00  0.00     0.190 A 
HETATM   10  C6  UNL     1      14.309 -16.850   3.647  1.00  0.00     0.281 A 
HETATM   11  O5  UNL     1      13.798 -16.438   2.568  1.00  0.00    -0.265 OA
HETATM   12  N5  UNL     1      15.131 -16.060   4.357  1.00  0.00    -0.305 N 
ATOM     13  H5  UNL     1      15.325 -15.126   3.995  1.00  0.00     0.170 HD
HETATM   14  C7  UNL     1      15.720 -16.422   5.520  1.00  0.00     0.145 A 
ENDROOT
BRANCH   1  15
HETATM   15  C1  UNL     1      17.074 -14.427   6.196  1.00  0.00     0.337 C 
BRANCH  15  16
HETATM   16  O1  UNL     1      15.930 -13.644   5.933  1.00  0.00    -0.267 OA
BRANCH  16  17
HETATM   17  N1  UNL     1      16.324 -12.416   5.572  1.00  0.00    -0.309 N 
ATOM     18  H12 UNL     1      15.985 -11.913   4.753  1.00  0.00     0.184 HD
ATOM     19  H11 UNL     1      17.008 -12.080   6.249  1.00  0.00     0.184 HD
ENDBRANCH  16  17
ENDBRANCH  15  16
ENDBRANCH   1  15
BRANCH   9  20
HETATM   20  N4  UNL     1      13.149 -18.992   3.374  1.00  0.00    -0.108 N 
HETATM   21  O3  UNL     1      11.941 -18.977   3.597  1.00  0.00    -0.532 OA
HETATM   22  O4  UNL     1      13.671 -19.822   2.436  1.00  0.00    -0.532 OA
ENDBRANCH   9  20
TORSDOF 4
ENDMDL
