MODEL 1
REMARK VINA RESULT: -6.469984362      0.000      0.000
REMARK  5 active torsions:
REMARK  status: ('A' for Active; 'I' for Inactive)
REMARK    1  A    between atoms: O1_2  and  C2_3 
REMARK    2  A    between atoms: C2_3  and  N3_9 
REMARK    3  A    between atoms: N1_4  and  N2_6 
REMARK    4  A    between atoms: N3_9  and  N4_11 
REMARK    5  A    between atoms: N7_19  and  N8_20 
ROOT
HETATM    1  N4  UNL     1      15.125 -18.001  -0.183  1.00  0.00    -0.187 N 
HETATM    2  C3  UNL     1      15.390 -16.948   0.642  1.00  0.00     0.293 A 
HETATM    3  O2  UNL     1      16.337 -16.140   0.408  1.00  0.00    -0.264 OA
HETATM    4  C4  UNL     1      14.644 -16.710   1.773  1.00  0.00     0.157 A 
HETATM    5  C5  UNL     1      14.924 -15.595   2.649  1.00  0.00     0.108 C 
HETATM    6  N5  UNL     1      15.158 -14.691   3.335  1.00  0.00    -0.191 NA
HETATM    7  C6  UNL     1      13.616 -17.591   2.025  1.00  0.00     0.166 A 
HETATM    8  N6  UNL     1      12.833 -17.358   3.193  1.00  0.00    -0.079 NA
HETATM    9  N7  UNL     1      13.338 -18.634   1.223  1.00  0.00    -0.219 N 
HETATM   10  C7  UNL     1      14.117 -18.823   0.108  1.00  0.00     0.223 A 
HETATM   11  S1  UNL     1      13.696 -20.118  -0.797  1.00  0.00    -0.037 SA
ENDROOT
BRANCH   1  12
HETATM   12  N3  UNL     1      15.907 -18.186  -1.299  1.00  0.00    -0.252 N 
ATOM     13  H3  UNL     1      15.589 -17.705  -2.140  1.00  0.00     0.191 HD
BRANCH  12  14
HETATM   14  C2  UNL     1      17.079 -18.943  -1.445  1.00  0.00     0.253 C 
HETATM   15  N1  UNL     1      17.405 -19.495  -2.590  1.00  0.00    -0.271 N 
ATOM     16  H1  UNL     1      18.262 -20.042  -2.667  1.00  0.00     0.190 HD
BRANCH  14  17
HETATM   17  O1  UNL     1      17.977 -19.174  -0.409  1.00  0.00    -0.325 OA
HETATM   18  C1  UNL     1      19.206 -18.456  -0.407  1.00  0.00     0.213 C 
ENDBRANCH  14  17
BRANCH  15  19
HETATM   19  N2  UNL     1      16.574 -19.332  -3.703  1.00  0.00    -0.342 N 
ATOM     20  H22 UNL     1      15.572 -19.205  -3.560  1.00  0.00     0.176 HD
ATOM     21  H21 UNL     1      16.975 -19.340  -4.641  1.00  0.00     0.176 HD
ENDBRANCH  15  19
ENDBRANCH  12  14
ENDBRANCH   1  12
BRANCH   9  22
HETATM   22  N8  UNL     1      12.284 -19.495   1.527  1.00  0.00    -0.335 N 
ATOM     23  H82 UNL     1      11.930 -19.587   2.479  1.00  0.00     0.177 HD
ATOM     24  H81 UNL     1      11.846 -20.053   0.793  1.00  0.00     0.177 HD
ENDBRANCH   9  22
TORSDOF 5
ENDMDL
MODEL 2
REMARK VINA RESULT: -6.094849221      6.966      9.723
REMARK  5 active torsions:
REMARK  status: ('A' for Active; 'I' for Inactive)
REMARK    1  A    between atoms: O1_2  and  C2_3 
REMARK    2  A    between atoms: C2_3  and  N3_9 
REMARK    3  A    between atoms: N1_4  and  N2_6 
REMARK    4  A    between atoms: N3_9  and  N4_11 
REMARK    5  A    between atoms: N7_19  and  N8_20 
ROOT
HETATM    1  N4  UNL     1      17.386 -10.871   5.966  1.00  0.00    -0.187 N 
HETATM    2  C3  UNL     1      17.166 -12.089   5.395  1.00  0.00     0.293 A 
HETATM    3  O2  UNL     1      18.050 -12.666   4.695  1.00  0.00    -0.264 OA
HETATM    4  C4  UNL     1      15.972 -12.754   5.549  1.00  0.00     0.157 A 
HETATM    5  C5  UNL     1      15.737 -14.046   4.943  1.00  0.00     0.108 C 
HETATM    6  N5  UNL     1      15.569 -15.084   4.457  1.00  0.00    -0.191 NA
HETATM    7  C6  UNL     1      15.013 -12.124   6.310  1.00  0.00     0.166 A 
HETATM    8  N6  UNL     1      13.770 -12.801   6.478  1.00  0.00    -0.079 NA
HETATM    9  N7  UNL     1      15.212 -10.924   6.882  1.00  0.00    -0.219 N 
HETATM   10  C7  UNL     1      16.424 -10.305   6.695  1.00  0.00     0.223 A 
HETATM   11  S1  UNL     1      16.561  -8.852   7.431  1.00  0.00    -0.037 SA
ENDROOT
BRANCH   1  12
HETATM   12  N3  UNL     1      18.601 -10.256   5.777  1.00  0.00    -0.252 N 
ATOM     13  H3  UNL     1      19.285 -10.401   6.520  1.00  0.00     0.191 HD
BRANCH  12  14
HETATM   14  C2  UNL     1      19.034  -9.457   4.708  1.00  0.00     0.253 C 
HETATM   15  N1  UNL     1      19.563  -8.272   4.903  1.00  0.00    -0.271 N 
ATOM     16  H1  UNL     1      19.867  -7.711   4.108  1.00  0.00     0.190 HD
BRANCH  14  17
HETATM   17  O1  UNL     1      18.937  -9.840   3.375  1.00  0.00    -0.325 OA
HETATM   18  C1  UNL     1      20.057 -10.476   2.771  1.00  0.00     0.213 C 
ENDBRANCH  14  17
BRANCH  15  19
HETATM   19  N2  UNL     1      19.710  -7.781   6.204  1.00  0.00    -0.342 N 
ATOM     20  H22 UNL     1      20.549  -8.019   6.733  1.00  0.00     0.176 HD
ATOM     21  H21 UNL     1      18.981  -7.193   6.610  1.00  0.00     0.176 HD
ENDBRANCH  15  19
ENDBRANCH  12  14
ENDBRANCH   1  12
BRANCH   9  22
HETATM   22  N8  UNL     1      14.205 -10.331   7.644  1.00  0.00    -0.335 N 
ATOM     23  H82 UNL     1      13.622 -10.882   8.274  1.00  0.00     0.177 HD
ATOM     24  H81 UNL     1      14.035  -9.327   7.582  1.00  0.00     0.177 HD
ENDBRANCH   9  22
TORSDOF 5
ENDMDL
MODEL 3
REMARK VINA RESULT: -5.892562075      9.150     11.689
REMARK  5 active torsions:
REMARK  status: ('A' for Active; 'I' for Inactive)
REMARK    1  A    between atoms: O1_2  and  C2_3 
REMARK    2  A    between atoms: C2_3  and  N3_9 
REMARK    3  A    between atoms: N1_4  and  N2_6 
REMARK    4  A    between atoms: N3_9  and  N4_11 
REMARK    5  A    between atoms: N7_19  and  N8_20 
ROOT
HETATM    1  N4  UNL     1      17.428  -9.068   6.389  1.00  0.00    -0.187 N 
HETATM    2  C3  UNL     1      18.300  -9.301   5.368  1.00  0.00     0.293 A 
HETATM    3  O2  UNL     1      18.880  -8.354   4.758  1.00  0.00    -0.264 OA
HETATM    4  C4  UNL     1      18.595 -10.576   4.945  1.00  0.00     0.157 A 
HETATM    5  C5  UNL     1      19.520 -10.824   3.862  1.00  0.00     0.108 C 
HETATM    6  N5  UNL     1      20.270 -11.004   2.998  1.00  0.00    -0.191 NA
HETATM    7  C6  UNL     1      17.963 -11.603   5.611  1.00  0.00     0.166 A 
HETATM    8  N6  UNL     1      18.259 -12.931   5.184  1.00  0.00    -0.079 NA
HETATM    9  N7  UNL     1      17.101 -11.395   6.620  1.00  0.00    -0.219 N 
HETATM   10  C7  UNL     1      16.843 -10.099   6.999  1.00  0.00     0.223 A 
HETATM   11  S1  UNL     1      15.781  -9.956   8.234  1.00  0.00    -0.037 SA
ENDROOT
BRANCH   1  12
HETATM   12  N3  UNL     1      17.173  -7.771   6.766  1.00  0.00    -0.252 N 
ATOM     13  H3  UNL     1      16.188  -7.539   6.895  1.00  0.00     0.191 HD
BRANCH  12  14
HETATM   14  C2  UNL     1      18.074  -6.721   6.997  1.00  0.00     0.253 C 
HETATM   15  N1  UNL     1      18.224  -5.739   6.140  1.00  0.00    -0.271 N 
ATOM     16  H1  UNL     1      18.888  -4.989   6.332  1.00  0.00     0.190 HD
BRANCH  14  17
HETATM   17  O1  UNL     1      18.876  -6.633   8.130  1.00  0.00    -0.325 OA
HETATM   18  C1  UNL     1      20.271  -6.414   7.956  1.00  0.00     0.213 C 
ENDBRANCH  14  17
BRANCH  15  19
HETATM   19  N2  UNL     1      17.470  -5.722   4.962  1.00  0.00    -0.342 N 
ATOM     20  H22 UNL     1      17.716  -6.363   4.207  1.00  0.00     0.176 HD
ATOM     21  H21 UNL     1      16.687  -5.075   4.869  1.00  0.00     0.176 HD
ENDBRANCH  15  19
ENDBRANCH  12  14
ENDBRANCH   1  12
BRANCH   9  22
HETATM   22  N8  UNL     1      16.488 -12.473   7.259  1.00  0.00    -0.335 N 
ATOM     23  H82 UNL     1      16.690 -13.435   6.987  1.00  0.00     0.177 HD
ATOM     24  H81 UNL     1      15.823 -12.314   8.015  1.00  0.00     0.177 HD
ENDBRANCH   9  22
TORSDOF 5
ENDMDL
MODEL 4
REMARK VINA RESULT: -5.798320691      2.113      2.654
REMARK  5 active torsions:
REMARK  status: ('A' for Active; 'I' for Inactive)
REMARK    1  A    between atoms: O1_2  and  C2_3 
REMARK    2  A    between atoms: C2_3  and  N3_9 
REMARK    3  A    between atoms: N1_4  and  N2_6 
REMARK    4  A    between atoms: N3_9  and  N4_11 
REMARK    5  A    between atoms: N7_19  and  N8_20 
ROOT
HETATM    1  N4  UNL     1      13.495 -18.556   1.468  1.00  0.00    -0.187 N 
HETATM    2  C3  UNL     1      14.096 -17.373   1.781  1.00  0.00     0.293 A 
HETATM    3  O2  UNL     1      14.660 -16.659   0.899  1.00  0.00    -0.264 OA
HETATM    4  C4  UNL     1      14.124 -16.894   3.070  1.00  0.00     0.157 A 
HETATM    5  C5  UNL     1      14.762 -15.640   3.403  1.00  0.00     0.108 C 
HETATM    6  N5  UNL     1      15.270 -14.629   3.650  1.00  0.00    -0.191 NA
HETATM    7  C6  UNL     1      13.510 -17.673   4.026  1.00  0.00     0.166 A 
HETATM    8  N6  UNL     1      13.530 -17.190   5.367  1.00  0.00    -0.079 NA
HETATM    9  N7  UNL     1      12.911 -18.842   3.738  1.00  0.00    -0.219 N 
HETATM   10  C7  UNL     1      12.915 -19.271   2.433  1.00  0.00     0.223 A 
HETATM   11  S1  UNL     1      12.161 -20.701   2.191  1.00  0.00    -0.037 SA
ENDROOT
BRANCH   1  12
HETATM   12  N3  UNL     1      13.500 -18.982   0.161  1.00  0.00    -0.252 N 
ATOM     13  H3  UNL     1      12.706 -18.676  -0.402  1.00  0.00     0.191 HD
BRANCH  12  14
HETATM   14  C2  UNL     1      14.442 -19.776  -0.509  1.00  0.00     0.253 C 
HETATM   15  N1  UNL     1      14.078 -20.748  -1.312  1.00  0.00    -0.271 N 
ATOM     16  H1  UNL     1      14.784 -21.312  -1.785  1.00  0.00     0.190 HD
BRANCH  14  17
HETATM   17  O1  UNL     1      15.817 -19.611  -0.379  1.00  0.00    -0.325 OA
HETATM   18  C1  UNL     1      16.506 -18.872  -1.381  1.00  0.00     0.213 C 
ENDBRANCH  14  17
BRANCH  15  19
HETATM   19  N2  UNL     1      12.719 -21.008  -1.519  1.00  0.00    -0.342 N 
ATOM     20  H22 UNL     1      12.060 -20.831  -0.761  1.00  0.00     0.176 HD
ATOM     21  H21 UNL     1      12.402 -21.369  -2.419  1.00  0.00     0.176 HD
ENDBRANCH  15  19
ENDBRANCH  12  14
ENDBRANCH   1  12
BRANCH   9  22
HETATM   22  N8  UNL     1      12.305 -19.591   4.746  1.00  0.00    -0.335 N 
ATOM     23  H82 UNL     1      12.485 -20.590   4.846  1.00  0.00     0.177 HD
ATOM     24  H81 UNL     1      11.665 -19.146   5.404  1.00  0.00     0.177 HD
ENDBRANCH   9  22
TORSDOF 5
ENDMDL
MODEL 5
REMARK VINA RESULT: -5.792095210      6.677      9.194
REMARK  5 active torsions:
REMARK  status: ('A' for Active; 'I' for Inactive)
REMARK    1  A    between atoms: O1_2  and  C2_3 
REMARK    2  A    between atoms: C2_3  and  N3_9 
REMARK    3  A    between atoms: N1_4  and  N2_6 
REMARK    4  A    between atoms: N3_9  and  N4_11 
REMARK    5  A    between atoms: N7_19  and  N8_20 
ROOT
HETATM    1  N4  UNL     1      16.831 -12.012   5.362  1.00  0.00    -0.187 N 
HETATM    2  C3  UNL     1      17.849 -11.662   4.526  1.00  0.00     0.293 A 
HETATM    3  O2  UNL     1      18.212 -12.409   3.570  1.00  0.00    -0.264 OA
HETATM    4  C4  UNL     1      18.536 -10.480   4.679  1.00  0.00     0.157 A 
HETATM    5  C5  UNL     1      19.616 -10.109   3.793  1.00  0.00     0.108 C 
HETATM    6  N5  UNL     1      20.474  -9.823   3.068  1.00  0.00    -0.191 NA
HETATM    7  C6  UNL     1      18.139  -9.671   5.720  1.00  0.00     0.166 A 
HETATM    8  N6  UNL     1      18.842  -8.443   5.890  1.00  0.00    -0.079 NA
HETATM    9  N7  UNL     1      17.137  -9.997   6.554  1.00  0.00    -0.219 N 
HETATM   10  C7  UNL     1      16.486 -11.191   6.354  1.00  0.00     0.223 A 
HETATM   11  S1  UNL     1      15.286 -11.491   7.423  1.00  0.00    -0.037 SA
ENDROOT
BRANCH   1  12
HETATM   12  N3  UNL     1      16.181 -13.207   5.159  1.00  0.00    -0.252 N 
ATOM     13  H3  UNL     1      15.414 -13.178   4.487  1.00  0.00     0.191 HD
BRANCH  12  14
HETATM   14  C2  UNL     1      16.424 -14.458   5.744  1.00  0.00     0.253 C 
HETATM   15  N1  UNL     1      15.833 -15.547   5.311  1.00  0.00    -0.271 N 
ATOM     16  H1  UNL     1      16.026 -16.445   5.756  1.00  0.00     0.190 HD
BRANCH  14  17
HETATM   17  O1  UNL     1      17.289 -14.651   6.815  1.00  0.00    -0.325 OA
HETATM   18  C1  UNL     1      16.795 -15.314   7.973  1.00  0.00     0.213 C 
ENDBRANCH  14  17
BRANCH  15  19
HETATM   19  N2  UNL     1      14.940 -15.475   4.237  1.00  0.00    -0.342 N 
ATOM     20  H22 UNL     1      14.026 -15.919   4.322  1.00  0.00     0.176 HD
ATOM     21  H21 UNL     1      15.209 -14.982   3.385  1.00  0.00     0.176 HD
ENDBRANCH  15  19
ENDBRANCH  12  14
ENDBRANCH   1  12
BRANCH   9  22
HETATM   22  N8  UNL     1      16.777  -9.139   7.593  1.00  0.00    -0.335 N 
ATOM     23  H82 UNL     1      16.354  -9.493   8.451  1.00  0.00     0.177 HD
ATOM     24  H81 UNL     1      16.932  -8.135   7.509  1.00  0.00     0.177 HD
ENDBRANCH   9  22
TORSDOF 5
ENDMDL
