MODEL 1
REMARK VINA RESULT: -8.706511993      0.000      0.000
REMARK  8 active torsions:
REMARK  status: ('A' for Active; 'I' for Inactive)
REMARK    1  A    between atoms: C2_2  and  C3_3 
REMARK    2  A    between atoms: C3_3  and  C4_4 
REMARK    3  A    between atoms: C12_13  and  O1_14 
REMARK    4  A    between atoms: O1_14  and  C13_15 
REMARK    5  A    between atoms: C13_15  and  C14_16 
REMARK    6  A    between atoms: C14_16  and  C15_17 
REMARK    7  A    between atoms: C15_17  and  C16_18 
REMARK    8  A    between atoms: C16_18  and  N3_21 
ROOT
HETATM    1  C16 UNL     1      -7.954  -1.804  17.223  1.00  0.00     0.187 C 
HETATM    2  C17 UNL     1      -9.305  -1.311  16.969  1.00  0.00     0.084 C 
HETATM    3  N2  UNL     1     -10.365  -0.918  16.750  1.00  0.00    -0.195 NA
ENDROOT
BRANCH   1   4
HETATM    4  C15 UNL     1      -7.963  -2.658  18.473  1.00  0.00     0.042 C 
BRANCH   4   5
HETATM    5  C14 UNL     1      -7.992  -1.644  19.630  1.00  0.00     0.030 C 
BRANCH   5   6
HETATM    6  C13 UNL     1      -9.302  -1.657  20.337  1.00  0.00     0.176 C 
BRANCH   6   7
HETATM    7  O1  UNL     1      -9.933  -0.455  20.530  1.00  0.00    -0.350 OA
BRANCH   7   8
HETATM    8  C12 UNL     1     -11.297  -0.213  20.572  1.00  0.00     0.083 A 
HETATM    9  C11 UNL     1     -11.778   0.778  21.455  1.00  0.00     0.011 A 
HETATM   10  C10 UNL     1     -11.474   1.768  22.467  1.00  0.00     0.041 A 
HETATM   11  C24 UNL     1     -13.101   0.990  21.471  1.00  0.00     0.071 A 
HETATM   12  C9  UNL     1     -10.819   1.517  23.746  1.00  0.00     0.033 C 
HETATM   13  C25 UNL     1     -12.924   2.048  22.497  1.00  0.00     0.053 A 
HETATM   14  C8  UNL     1      -9.732   0.542  23.950  1.00  0.00    -0.000 C 
HETATM   15  C28 UNL     1     -11.765   1.424  24.945  1.00  0.00     0.228 C 
HETATM   16  C4  UNL     1     -10.008  -0.752  24.650  1.00  0.00     0.018 C 
HETATM   17  C7  UNL     1      -8.836   1.229  25.057  1.00  0.00     0.036 C 
HETATM   18  C5  UNL     1     -10.930  -0.617  25.844  1.00  0.00     0.278 C 
HETATM   19  N1  UNL     1     -11.078   0.798  26.051  1.00  0.00     0.093 N 
HETATM   20  C6  UNL     1      -9.778   1.382  26.232  1.00  0.00     0.273 C 
HETATM   21  C27 UNL     1     -13.050   0.742  24.547  1.00  0.00     0.037 C 
HETATM   22  C26 UNL     1     -13.733   1.776  23.685  1.00  0.00     0.014 C 
HETATM   23  O4  UNL     1     -13.945   0.314  20.707  1.00  0.00    -0.279 OA
HETATM   24  C23 UNL     1     -13.543  -0.604  19.887  1.00  0.00     0.290 A 
HETATM   25  C22 UNL     1     -12.198  -0.880  19.809  1.00  0.00     0.119 A 
HETATM   26  O3  UNL     1     -14.310  -1.273  19.141  1.00  0.00    -0.260 OA
BRANCH  16  27
HETATM   27  C3  UNL     1     -10.318  -1.944  23.814  1.00  0.00     0.006 C 
BRANCH  27  28
HETATM   28  C2  UNL     1      -9.540  -3.173  24.238  1.00  0.00    -0.004 C 
HETATM   29  C1  UNL     1      -8.344  -3.430  23.368  1.00  0.00     0.005 C 
ENDBRANCH  27  28
ENDBRANCH  16  27
ENDBRANCH   7   8
ENDBRANCH   6   7
ENDBRANCH   5   6
ENDBRANCH   4   5
ENDBRANCH   1   4
BRANCH   1  30
HETATM   30  N3  UNL     1      -7.435  -2.406  16.068  1.00  0.00    -0.392 N 
HETATM   31  C18 UNL     1      -7.335  -1.651  14.879  1.00  0.00     0.144 C 
HETATM   32  C19 UNL     1      -5.876  -1.533  14.493  1.00  0.00     0.187 C 
HETATM   33  O2  UNL     1      -5.196  -2.730  14.544  1.00  0.00    -0.388 OA
HETATM   34  C20 UNL     1      -5.203  -3.200  15.866  1.00  0.00     0.187 C 
HETATM   35  C21 UNL     1      -6.636  -3.566  16.193  1.00  0.00     0.144 C 
ENDBRANCH   1  30
TORSDOF 8
ENDMDL
MODEL 2
REMARK VINA RESULT: -8.661973276      1.625      2.183
REMARK  8 active torsions:
REMARK  status: ('A' for Active; 'I' for Inactive)
REMARK    1  A    between atoms: C2_2  and  C3_3 
REMARK    2  A    between atoms: C3_3  and  C4_4 
REMARK    3  A    between atoms: C12_13  and  O1_14 
REMARK    4  A    between atoms: O1_14  and  C13_15 
REMARK    5  A    between atoms: C13_15  and  C14_16 
REMARK    6  A    between atoms: C14_16  and  C15_17 
REMARK    7  A    between atoms: C15_17  and  C16_18 
REMARK    8  A    between atoms: C16_18  and  N3_21 
ROOT
HETATM    1  C16 UNL     1      -7.901  -2.715  17.003  1.00  0.00     0.187 C 
HETATM    2  C17 UNL     1      -6.862  -3.213  17.901  1.00  0.00     0.084 C 
HETATM    3  N2  UNL     1      -6.038  -3.619  18.594  1.00  0.00    -0.195 NA
ENDROOT
BRANCH   1   4
HETATM    4  C15 UNL     1      -8.395  -1.375  17.509  1.00  0.00     0.042 C 
BRANCH   4   5
HETATM    5  C14 UNL     1      -9.902  -1.582  17.733  1.00  0.00     0.030 C 
BRANCH   5   6
HETATM    6  C13 UNL     1     -10.652  -0.299  17.635  1.00  0.00     0.176 C 
BRANCH   6   7
HETATM    7  O1  UNL     1     -11.208   0.202  18.784  1.00  0.00    -0.350 OA
BRANCH   7   8
HETATM    8  C12 UNL     1     -12.515   0.060  19.224  1.00  0.00     0.083 A 
HETATM    9  C11 UNL     1     -13.031   1.019  20.122  1.00  0.00     0.011 A 
HETATM   10  C10 UNL     1     -12.799   2.218  20.900  1.00  0.00     0.041 A 
HETATM   11  C24 UNL     1     -14.298   0.855  20.526  1.00  0.00     0.071 A 
HETATM   12  C9  UNL     1     -11.782   2.390  21.932  1.00  0.00     0.033 C 
HETATM   13  C25 UNL     1     -14.199   2.086  21.351  1.00  0.00     0.053 A 
HETATM   14  C8  UNL     1     -10.429   1.807  21.875  1.00  0.00    -0.000 C 
HETATM   15  C28 UNL     1     -12.294   2.252  23.367  1.00  0.00     0.228 C 
HETATM   16  C4  UNL     1     -10.082   0.632  22.736  1.00  0.00     0.018 C 
HETATM   17  C7  UNL     1      -9.536   2.900  22.588  1.00  0.00     0.036 C 
HETATM   18  C5  UNL     1     -10.646   0.716  24.140  1.00  0.00     0.278 C 
HETATM   19  N1  UNL     1     -11.174   2.049  24.258  1.00  0.00     0.093 N 
HETATM   20  C6  UNL     1     -10.129   2.993  23.978  1.00  0.00     0.273 C 
HETATM   21  C27 UNL     1     -13.352   1.182  23.446  1.00  0.00     0.037 C 
HETATM   22  C26 UNL     1     -14.532   1.815  22.749  1.00  0.00     0.014 C 
HETATM   23  O4  UNL     1     -15.056  -0.153  20.122  1.00  0.00    -0.279 OA
HETATM   24  C23 UNL     1     -14.617  -1.053  19.302  1.00  0.00     0.290 A 
HETATM   25  C22 UNL     1     -13.326  -0.956  18.837  1.00  0.00     0.119 A 
HETATM   26  O3  UNL     1     -15.301  -2.030  18.890  1.00  0.00    -0.260 OA
BRANCH  16  27
HETATM   27  C3  UNL     1     -10.209  -0.727  22.145  1.00  0.00     0.006 C 
BRANCH  27  28
HETATM   28  C2  UNL     1      -9.100  -1.042  21.162  1.00  0.00    -0.004 C 
HETATM   29  C1  UNL     1      -8.408  -2.340  21.466  1.00  0.00     0.005 C 
ENDBRANCH  27  28
ENDBRANCH  16  27
ENDBRANCH   7   8
ENDBRANCH   6   7
ENDBRANCH   5   6
ENDBRANCH   4   5
ENDBRANCH   1   4
BRANCH   1  30
HETATM   30  N3  UNL     1      -7.448  -2.745  15.677  1.00  0.00    -0.392 N 
HETATM   31  C18 UNL     1      -7.524  -1.574  14.892  1.00  0.00     0.144 C 
HETATM   32  C19 UNL     1      -6.123  -1.148  14.508  1.00  0.00     0.187 C 
HETATM   33  O2  UNL     1      -5.346  -2.182  14.031  1.00  0.00    -0.388 OA
HETATM   34  C20 UNL     1      -5.189  -3.136  15.048  1.00  0.00     0.187 C 
HETATM   35  C21 UNL     1      -6.549  -3.761  15.277  1.00  0.00     0.144 C 
ENDBRANCH   1  30
TORSDOF 8
ENDMDL
MODEL 3
REMARK VINA RESULT: -8.628708496      0.892      1.378
REMARK  8 active torsions:
REMARK  status: ('A' for Active; 'I' for Inactive)
REMARK    1  A    between atoms: C2_2  and  C3_3 
REMARK    2  A    between atoms: C3_3  and  C4_4 
REMARK    3  A    between atoms: C12_13  and  O1_14 
REMARK    4  A    between atoms: O1_14  and  C13_15 
REMARK    5  A    between atoms: C13_15  and  C14_16 
REMARK    6  A    between atoms: C14_16  and  C15_17 
REMARK    7  A    between atoms: C15_17  and  C16_18 
REMARK    8  A    between atoms: C16_18  and  N3_21 
ROOT
HETATM    1  C16 UNL     1      -7.209  -3.071  17.911  1.00  0.00     0.187 C 
HETATM    2  C17 UNL     1      -5.862  -3.011  18.471  1.00  0.00     0.084 C 
HETATM    3  N2  UNL     1      -4.793  -2.976  18.899  1.00  0.00    -0.195 NA
ENDROOT
BRANCH   1   4
HETATM    4  C15 UNL     1      -8.021  -1.910  18.443  1.00  0.00     0.042 C 
BRANCH   4   5
HETATM    5  C14 UNL     1      -7.979  -2.081  19.971  1.00  0.00     0.030 C 
BRANCH   5   6
HETATM    6  C13 UNL     1      -9.333  -1.942  20.576  1.00  0.00     0.176 C 
BRANCH   6   7
HETATM    7  O1  UNL     1      -9.847  -0.677  20.704  1.00  0.00    -0.350 OA
BRANCH   7   8
HETATM    8  C12 UNL     1     -11.179  -0.297  20.667  1.00  0.00     0.083 A 
HETATM    9  C11 UNL     1     -11.588   0.799  21.458  1.00  0.00     0.011 A 
HETATM   10  C10 UNL     1     -11.222   1.825  22.413  1.00  0.00     0.041 A 
HETATM   11  C24 UNL     1     -12.881   1.144  21.400  1.00  0.00     0.071 A 
HETATM   12  C9  UNL     1     -10.646   1.603  23.735  1.00  0.00     0.033 C 
HETATM   13  C25 UNL     1     -12.635   2.250  22.358  1.00  0.00     0.053 A 
HETATM   14  C8  UNL     1      -9.674   0.541  24.054  1.00  0.00    -0.000 C 
HETATM   15  C28 UNL     1     -11.642   1.692  24.893  1.00  0.00     0.228 C 
HETATM   16  C4  UNL     1     -10.109  -0.666  24.828  1.00  0.00     0.018 C 
HETATM   17  C7  UNL     1      -8.755   1.212  25.151  1.00  0.00     0.036 C 
HETATM   18  C5  UNL     1     -11.058  -0.352  25.966  1.00  0.00     0.278 C 
HETATM   19  N1  UNL     1     -11.066   1.082  26.070  1.00  0.00     0.093 N 
HETATM   20  C6  UNL     1      -9.721   1.544  26.269  1.00  0.00     0.273 C 
HETATM   21  C27 UNL     1     -12.974   1.116  24.484  1.00  0.00     0.037 C 
HETATM   22  C26 UNL     1     -13.513   2.148  23.524  1.00  0.00     0.014 C 
HETATM   23  O4  UNL     1     -13.761   0.502  20.646  1.00  0.00    -0.279 OA
HETATM   24  C23 UNL     1     -13.425  -0.508  19.910  1.00  0.00     0.290 A 
HETATM   25  C22 UNL     1     -12.114  -0.924  19.912  1.00  0.00     0.119 A 
HETATM   26  O3  UNL     1     -14.228  -1.150  19.177  1.00  0.00    -0.260 OA
BRANCH  16  27
HETATM   27  C3  UNL     1     -10.509  -1.878  24.062  1.00  0.00     0.006 C 
BRANCH  27  28
HETATM   28  C2  UNL     1      -9.874  -3.144  24.599  1.00  0.00    -0.004 C 
HETATM   29  C1  UNL     1      -8.750  -3.640  23.736  1.00  0.00     0.005 C 
ENDBRANCH  27  28
ENDBRANCH  16  27
ENDBRANCH   7   8
ENDBRANCH   6   7
ENDBRANCH   5   6
ENDBRANCH   4   5
ENDBRANCH   1   4
BRANCH   1  30
HETATM   30  N3  UNL     1      -7.146  -3.192  16.515  1.00  0.00    -0.392 N 
HETATM   31  C18 UNL     1      -7.665  -2.158  15.707  1.00  0.00     0.144 C 
HETATM   32  C19 UNL     1      -6.538  -1.557  14.894  1.00  0.00     0.187 C 
HETATM   33  O2  UNL     1      -5.738  -2.498  14.284  1.00  0.00    -0.388 OA
HETATM   34  C20 UNL     1      -5.120  -3.277  15.274  1.00  0.00     0.187 C 
HETATM   35  C21 UNL     1      -6.213  -4.087  15.941  1.00  0.00     0.144 C 
ENDBRANCH   1  30
TORSDOF 8
ENDMDL
MODEL 4
REMARK VINA RESULT: -8.591993369      3.067      5.242
REMARK  8 active torsions:
REMARK  status: ('A' for Active; 'I' for Inactive)
REMARK    1  A    between atoms: C2_2  and  C3_3 
REMARK    2  A    between atoms: C3_3  and  C4_4 
REMARK    3  A    between atoms: C12_13  and  O1_14 
REMARK    4  A    between atoms: O1_14  and  C13_15 
REMARK    5  A    between atoms: C13_15  and  C14_16 
REMARK    6  A    between atoms: C14_16  and  C15_17 
REMARK    7  A    between atoms: C15_17  and  C16_18 
REMARK    8  A    between atoms: C16_18  and  N3_21 
ROOT
HETATM    1  C16 UNL     1      -7.870  -2.483  21.862  1.00  0.00     0.187 C 
HETATM    2  C17 UNL     1      -8.971  -1.918  21.086  1.00  0.00     0.084 C 
HETATM    3  N2  UNL     1      -9.827  -1.471  20.459  1.00  0.00    -0.195 NA
ENDROOT
BRANCH   1   4
HETATM    4  C15 UNL     1      -8.429  -3.169  23.091  1.00  0.00     0.042 C 
BRANCH   4   5
HETATM    5  C14 UNL     1      -8.925  -2.017  23.981  1.00  0.00     0.030 C 
BRANCH   5   6
HETATM    6  C13 UNL     1     -10.013  -2.460  24.896  1.00  0.00     0.176 C 
BRANCH   6   7
HETATM    7  O1  UNL     1     -11.117  -1.654  25.009  1.00  0.00    -0.350 OA
BRANCH   7   8
HETATM    8  C12 UNL     1     -11.404  -0.749  26.019  1.00  0.00     0.083 A 
HETATM    9  C11 UNL     1     -12.524   0.097  25.866  1.00  0.00     0.011 A 
HETATM   10  C10 UNL     1     -13.637   0.518  25.041  1.00  0.00     0.041 A 
HETATM   11  C24 UNL     1     -12.777   0.959  26.860  1.00  0.00     0.071 A 
HETATM   12  C9  UNL     1     -13.548   1.060  23.689  1.00  0.00     0.033 C 
HETATM   13  C25 UNL     1     -13.963   1.466  26.125  1.00  0.00     0.053 A 
HETATM   14  C8  UNL     1     -12.579   0.612  22.672  1.00  0.00    -0.000 C 
HETATM   15  C28 UNL     1     -13.653   2.584  23.600  1.00  0.00     0.228 C 
HETATM   16  C4  UNL     1     -11.404   1.475  22.326  1.00  0.00     0.018 C 
HETATM   17  C7  UNL     1     -13.386   0.750  21.320  1.00  0.00     0.036 C 
HETATM   18  C5  UNL     1     -11.734   2.951  22.238  1.00  0.00     0.278 C 
HETATM   19  N1  UNL     1     -13.169   3.024  22.311  1.00  0.00     0.093 N 
HETATM   20  C6  UNL     1     -13.732   2.223  21.260  1.00  0.00     0.273 C 
HETATM   21  C27 UNL     1     -12.963   3.227  24.775  1.00  0.00     0.037 C 
HETATM   22  C26 UNL     1     -13.886   2.913  25.928  1.00  0.00     0.014 C 
HETATM   23  O4  UNL     1     -12.027   1.039  27.948  1.00  0.00    -0.279 OA
HETATM   24  C23 UNL     1     -10.991   0.282  28.123  1.00  0.00     0.290 A 
HETATM   25  C22 UNL     1     -10.664  -0.632  27.149  1.00  0.00     0.119 A 
HETATM   26  O3  UNL     1     -10.247   0.324  29.142  1.00  0.00    -0.260 OA
BRANCH  16  27
HETATM   27  C3  UNL     1     -10.117   1.213  23.025  1.00  0.00     0.006 C 
BRANCH  27  28
HETATM   28  C2  UNL     1      -9.868   2.176  24.168  1.00  0.00    -0.004 C 
HETATM   29  C1  UNL     1      -8.784   1.707  25.096  1.00  0.00     0.005 C 
ENDBRANCH  27  28
ENDBRANCH  16  27
ENDBRANCH   7   8
ENDBRANCH   6   7
ENDBRANCH   5   6
ENDBRANCH   4   5
ENDBRANCH   1   4
BRANCH   1  30
HETATM   30  N3  UNL     1      -7.051  -3.266  21.037  1.00  0.00    -0.392 N 
HETATM   31  C18 UNL     1      -6.955  -2.958  19.663  1.00  0.00     0.144 C 
HETATM   32  C19 UNL     1      -5.526  -2.572  19.344  1.00  0.00     0.187 C 
HETATM   33  O2  UNL     1      -4.593  -3.442  19.865  1.00  0.00    -0.388 OA
HETATM   34  C20 UNL     1      -4.690  -3.423  21.265  1.00  0.00     0.187 C 
HETATM   35  C21 UNL     1      -6.024  -4.044  21.621  1.00  0.00     0.144 C 
ENDBRANCH   1  30
TORSDOF 8
ENDMDL
MODEL 5
REMARK VINA RESULT: -8.434062010      1.642      2.133
REMARK  8 active torsions:
REMARK  status: ('A' for Active; 'I' for Inactive)
REMARK    1  A    between atoms: C2_2  and  C3_3 
REMARK    2  A    between atoms: C3_3  and  C4_4 
REMARK    3  A    between atoms: C12_13  and  O1_14 
REMARK    4  A    between atoms: O1_14  and  C13_15 
REMARK    5  A    between atoms: C13_15  and  C14_16 
REMARK    6  A    between atoms: C14_16  and  C15_17 
REMARK    7  A    between atoms: C15_17  and  C16_18 
REMARK    8  A    between atoms: C16_18  and  N3_21 
ROOT
HETATM    1  C16 UNL     1      -8.475  -1.739  16.462  1.00  0.00     0.187 C 
HETATM    2  C17 UNL     1      -9.084  -2.025  15.165  1.00  0.00     0.084 C 
HETATM    3  N2  UNL     1      -9.545  -2.246  14.134  1.00  0.00    -0.195 NA
ENDROOT
BRANCH   1   4
HETATM    4  C15 UNL     1      -9.357  -2.297  17.559  1.00  0.00     0.042 C 
BRANCH   4   5
HETATM    5  C14 UNL     1      -9.616  -1.100  18.489  1.00  0.00     0.030 C 
BRANCH   5   6
HETATM    6  C13 UNL     1     -10.553  -0.120  17.873  1.00  0.00     0.176 C 
BRANCH   6   7
HETATM    7  O1  UNL     1     -11.309   0.654  18.715  1.00  0.00    -0.350 OA
BRANCH   7   8
HETATM    8  C12 UNL     1     -12.566   0.371  19.227  1.00  0.00     0.083 A 
HETATM    9  C11 UNL     1     -13.094   1.219  20.224  1.00  0.00     0.011 A 
HETATM   10  C10 UNL     1     -12.905   2.378  21.072  1.00  0.00     0.041 A 
HETATM   11  C24 UNL     1     -14.311   0.919  20.697  1.00  0.00     0.071 A 
HETATM   12  C9  UNL     1     -11.835   2.567  22.045  1.00  0.00     0.033 C 
HETATM   13  C25 UNL     1     -14.254   2.095  21.602  1.00  0.00     0.053 A 
HETATM   14  C8  UNL     1     -10.446   2.108  21.858  1.00  0.00    -0.000 C 
HETATM   15  C28 UNL     1     -12.231   2.289  23.496  1.00  0.00     0.228 C 
HETATM   16  C4  UNL     1      -9.945   0.912  22.607  1.00  0.00     0.018 C 
HETATM   17  C7  UNL     1      -9.597   3.224  22.589  1.00  0.00     0.036 C 
HETATM   18  C5  UNL     1     -10.412   0.852  24.047  1.00  0.00     0.278 C 
HETATM   19  N1  UNL     1     -11.038   2.123  24.296  1.00  0.00     0.093 N 
HETATM   20  C6  UNL     1     -10.095   3.170  24.018  1.00  0.00     0.273 C 
HETATM   21  C27 UNL     1     -13.190   1.128  23.565  1.00  0.00     0.037 C 
HETATM   22  C26 UNL     1     -14.464   1.703  22.995  1.00  0.00     0.014 C 
HETATM   23  O4  UNL     1     -15.010  -0.121  20.270  1.00  0.00    -0.279 OA
HETATM   24  C23 UNL     1     -14.559  -0.922  19.360  1.00  0.00     0.290 A 
HETATM   25  C22 UNL     1     -13.317  -0.683  18.821  1.00  0.00     0.119 A 
HETATM   26  O3  UNL     1     -15.189  -1.925  18.923  1.00  0.00    -0.260 OA
BRANCH  16  27
HETATM   27  C3  UNL     1     -10.002  -0.410  21.927  1.00  0.00     0.006 C 
BRANCH  27  28
HETATM   28  C2  UNL     1      -9.250  -1.488  22.681  1.00  0.00    -0.004 C 
HETATM   29  C1  UNL     1      -8.339  -2.287  21.795  1.00  0.00     0.005 C 
ENDBRANCH  27  28
ENDBRANCH  16  27
ENDBRANCH   7   8
ENDBRANCH   6   7
ENDBRANCH   5   6
ENDBRANCH   4   5
ENDBRANCH   1   4
BRANCH   1  30
HETATM   30  N3  UNL     1      -7.138  -2.160  16.471  1.00  0.00    -0.392 N 
HETATM   31  C18 UNL     1      -6.744  -3.197  17.343  1.00  0.00     0.144 C 
HETATM   32  C19 UNL     1      -6.262  -4.374  16.521  1.00  0.00     0.187 C 
HETATM   33  O2  UNL     1      -5.386  -4.021  15.518  1.00  0.00    -0.388 OA
HETATM   34  C20 UNL     1      -6.046  -3.172  14.617  1.00  0.00     0.187 C 
HETATM   35  C21 UNL     1      -6.317  -1.877  15.354  1.00  0.00     0.144 C 
ENDBRANCH   1  30
TORSDOF 8
ENDMDL
