MODEL 1
REMARK VINA RESULT: -8.974195129      0.000      0.000
REMARK  7 active torsions:
REMARK  status: ('A' for Active; 'I' for Inactive)
REMARK    1  A    between atoms: C3_3  and  C4_4 
REMARK    2  A    between atoms: C4_4  and  C5_5 
REMARK    3  A    between atoms: C5_5  and  C6_6 
REMARK    4  A    between atoms: C8_9  and  N1_10 
REMARK    5  A    between atoms: N1_10  and  C9_11 
REMARK    6  A    between atoms: N1_10  and  C15_17 
REMARK       I    between atoms: N2_20  and  C18_21 
REMARK    7  A    between atoms: C18_21  and  C19_23 
ROOT
HETATM    1  N1  UNL     1     -10.229  -0.570  21.618  1.00  0.00    -0.350 N 
ENDROOT
BRANCH   1   2
HETATM    2  C8  UNL     1      -9.118  -1.497  21.689  1.00  0.00     0.147 A 
HETATM    3  S1  UNL     1      -8.417  -2.219  23.093  1.00  0.00    -0.064 SA
HETATM    4  C7  UNL     1      -7.209  -3.147  22.312  1.00  0.00     0.078 A 
HETATM    5  C6  UNL     1      -7.430  -2.834  20.994  1.00  0.00     0.018 A 
HETATM    6  N3  UNL     1      -8.390  -2.009  20.728  1.00  0.00    -0.340 N 
ATOM      7  H3  UNL     1      -8.583  -1.755  19.759  1.00  0.00     0.168 HD
BRANCH   5   8
HETATM    8  C5  UNL     1      -6.571  -3.442  19.907  1.00  0.00     0.062 C 
BRANCH   8   9
HETATM    9  C4  UNL     1      -6.249  -2.438  18.847  1.00  0.00     0.048 C 
BRANCH   9  10
HETATM   10  C3  UNL     1      -6.708  -2.859  17.499  1.00  0.00    -0.017 A 
HETATM   11  C2  UNL     1      -7.928  -2.668  16.897  1.00  0.00     0.032 A 
HETATM   12  C1  UNL     1      -9.095  -1.976  17.493  1.00  0.00     0.070 C 
HETATM   13  N5  UNL     1      -7.878  -3.216  15.689  1.00  0.00    -0.301 N 
HETATM   14  N4  UNL     1      -6.680  -3.740  15.507  1.00  0.00    -0.309 N 
HETATM   15  C26 UNL     1      -8.915  -3.282  14.660  1.00  0.00     0.177 C 
HETATM   16  C25 UNL     1      -5.928  -3.544  16.594  1.00  0.00     0.116 A 
ATOM     17  H4  UNL     1      -6.374  -4.224  14.663  1.00  0.00     0.186 HD
ENDBRANCH   9  10
ENDBRANCH   8   9
ENDBRANCH   5   8
ENDBRANCH   1   2
BRANCH   1  18
HETATM   18  C9  UNL     1     -10.797  -0.455  20.307  1.00  0.00     0.087 C 
HETATM   19  C10 UNL     1     -12.152  -1.011  20.132  1.00  0.00     0.025 C 
HETATM   20  C11 UNL     1     -13.122  -0.247  19.313  1.00  0.00     0.002 C 
HETATM   21  C12 UNL     1     -12.590   0.610  18.225  1.00  0.00     0.000 C 
HETATM   22  C13 UNL     1     -11.092   0.807  18.277  1.00  0.00     0.002 C 
HETATM   23  C14 UNL     1     -10.816   0.962  19.781  1.00  0.00     0.025 C 
ENDBRANCH   1  18
BRANCH   1  24
HETATM   24  C15 UNL     1     -10.540   0.045  22.826  1.00  0.00     0.106 C 
HETATM   25  C16 UNL     1     -11.065   1.370  22.958  1.00  0.00     0.047 C 
HETATM   26  C17 UNL     1     -12.541   1.231  23.241  1.00  0.00     0.128 C 
HETATM   27  N2  UNL     1     -12.494   0.129  24.165  1.00  0.00    -0.350 N 
HETATM   28  C18 UNL     1     -13.180  -0.008  25.381  1.00  0.00     0.224 C 
HETATM   29  C24 UNL     1     -11.575  -0.816  23.574  1.00  0.00     0.151 C 
HETATM   30  O1  UNL     1     -13.036  -1.071  26.080  1.00  0.00    -0.273 OA
BRANCH  28  31
HETATM   31  C19 UNL     1     -14.094   1.010  25.952  1.00  0.00     0.082 C 
HETATM   32  C20 UNL     1     -13.614   1.549  27.261  1.00  0.00     0.040 C 
HETATM   33  C21 UNL     1     -12.442   2.461  27.210  1.00  0.00     0.168 C 
HETATM   34  O2  UNL     1     -12.376   3.163  26.041  1.00  0.00    -0.391 OA
HETATM   35  C22 UNL     1     -13.649   3.432  25.550  1.00  0.00     0.168 C 
HETATM   36  C23 UNL     1     -14.283   2.169  24.987  1.00  0.00     0.040 C 
ENDBRANCH  28  31
ENDBRANCH   1  24
TORSDOF 7
ENDMDL
MODEL 2
REMARK VINA RESULT: -8.928655811      6.338     10.044
REMARK  7 active torsions:
REMARK  status: ('A' for Active; 'I' for Inactive)
REMARK    1  A    between atoms: C3_3  and  C4_4 
REMARK    2  A    between atoms: C4_4  and  C5_5 
REMARK    3  A    between atoms: C5_5  and  C6_6 
REMARK    4  A    between atoms: C8_9  and  N1_10 
REMARK    5  A    between atoms: N1_10  and  C9_11 
REMARK    6  A    between atoms: N1_10  and  C15_17 
REMARK       I    between atoms: N2_20  and  C18_21 
REMARK    7  A    between atoms: C18_21  and  C19_23 
ROOT
HETATM    1  N1  UNL     1      -6.384  -5.790  24.402  1.00  0.00    -0.350 N 
ENDROOT
BRANCH   1   2
HETATM    2  C8  UNL     1      -6.730  -4.770  23.433  1.00  0.00     0.147 A 
HETATM    3  S1  UNL     1      -8.001  -3.603  23.517  1.00  0.00    -0.064 SA
HETATM    4  C7  UNL     1      -7.709  -2.818  22.024  1.00  0.00     0.078 A 
HETATM    5  C6  UNL     1      -6.630  -3.520  21.550  1.00  0.00     0.018 A 
HETATM    6  N3  UNL     1      -6.173  -4.483  22.282  1.00  0.00    -0.340 N 
ATOM      7  H3  UNL     1      -5.372  -5.026  21.961  1.00  0.00     0.168 HD
BRANCH   5   8
HETATM    8  C5  UNL     1      -6.010  -3.165  20.215  1.00  0.00     0.062 C 
BRANCH   8   9
HETATM    9  C4  UNL     1      -6.873  -2.210  19.455  1.00  0.00     0.048 C 
BRANCH   9  10
HETATM   10  C3  UNL     1      -7.220  -2.705  18.098  1.00  0.00    -0.017 A 
HETATM   11  C2  UNL     1      -8.352  -2.481  17.354  1.00  0.00     0.032 A 
HETATM   12  C1  UNL     1      -9.520  -1.667  17.767  1.00  0.00     0.070 C 
HETATM   13  N5  UNL     1      -8.217  -3.125  16.201  1.00  0.00    -0.301 N 
HETATM   14  N4  UNL     1      -7.050  -3.741  16.190  1.00  0.00    -0.309 N 
HETATM   15  C26 UNL     1      -9.144  -3.203  15.071  1.00  0.00     0.177 C 
HETATM   16  C25 UNL     1      -6.403  -3.510  17.335  1.00  0.00     0.116 A 
ATOM     17  H4  UNL     1      -6.695  -4.310  15.421  1.00  0.00     0.186 HD
ENDBRANCH   9  10
ENDBRANCH   8   9
ENDBRANCH   5   8
ENDBRANCH   1   2
BRANCH   1  18
HETATM   18  C9  UNL     1      -7.254  -6.928  24.372  1.00  0.00     0.087 C 
HETATM   19  C10 UNL     1      -6.606  -8.241  24.200  1.00  0.00     0.025 C 
HETATM   20  C11 UNL     1      -7.109  -9.382  25.001  1.00  0.00     0.002 C 
HETATM   21  C12 UNL     1      -8.538  -9.374  25.399  1.00  0.00     0.000 C 
HETATM   22  C13 UNL     1      -9.232  -8.050  25.168  1.00  0.00     0.002 C 
HETATM   23  C14 UNL     1      -8.162  -7.024  25.577  1.00  0.00     0.025 C 
ENDBRANCH   1  18
BRANCH   1  24
HETATM   24  C15 UNL     1      -5.280  -5.481  25.190  1.00  0.00     0.106 C 
HETATM   25  C16 UNL     1      -5.085  -5.928  26.536  1.00  0.00     0.047 C 
HETATM   26  C17 UNL     1      -4.083  -7.055  26.482  1.00  0.00     0.128 C 
HETATM   27  N2  UNL     1      -3.167  -6.501  25.520  1.00  0.00    -0.350 N 
HETATM   28  C18 UNL     1      -1.766  -6.478  25.575  1.00  0.00     0.224 C 
HETATM   29  C24 UNL     1      -4.004  -5.961  24.474  1.00  0.00     0.151 C 
HETATM   30  O1  UNL     1      -1.096  -5.956  24.617  1.00  0.00    -0.273 OA
BRANCH  28  31
HETATM   31  C19 UNL     1      -0.957  -7.028  26.691  1.00  0.00     0.082 C 
HETATM   32  C20 UNL     1      -1.289  -8.452  26.997  1.00  0.00     0.040 C 
HETATM   33  C21 UNL     1      -0.829  -9.465  26.010  1.00  0.00     0.168 C 
HETATM   34  O2  UNL     1       0.309  -9.083  25.361  1.00  0.00    -0.391 OA
HETATM   35  C22 UNL     1       1.120  -8.315  26.190  1.00  0.00     0.168 C 
HETATM   36  C23 UNL     1       0.528  -6.927  26.382  1.00  0.00     0.040 C 
ENDBRANCH  28  31
ENDBRANCH   1  24
TORSDOF 7
ENDMDL
MODEL 3
REMARK VINA RESULT: -8.864667947      1.480      2.275
REMARK  7 active torsions:
REMARK  status: ('A' for Active; 'I' for Inactive)
REMARK    1  A    between atoms: C3_3  and  C4_4 
REMARK    2  A    between atoms: C4_4  and  C5_5 
REMARK    3  A    between atoms: C5_5  and  C6_6 
REMARK    4  A    between atoms: C8_9  and  N1_10 
REMARK    5  A    between atoms: N1_10  and  C9_11 
REMARK    6  A    between atoms: N1_10  and  C15_17 
REMARK       I    between atoms: N2_20  and  C18_21 
REMARK    7  A    between atoms: C18_21  and  C19_23 
ROOT
HETATM    1  N1  UNL     1      -9.921  -0.966  22.320  1.00  0.00    -0.350 N 
ENDROOT
BRANCH   1   2
HETATM    2  C8  UNL     1      -8.827  -1.705  21.724  1.00  0.00     0.147 A 
HETATM    3  S1  UNL     1      -7.898  -2.984  22.420  1.00  0.00    -0.064 SA
HETATM    4  C7  UNL     1      -6.860  -3.282  21.091  1.00  0.00     0.078 A 
HETATM    5  C6  UNL     1      -7.307  -2.357  20.180  1.00  0.00     0.018 A 
HETATM    6  N3  UNL     1      -8.288  -1.592  20.536  1.00  0.00    -0.340 N 
ATOM      7  H3  UNL     1      -8.646  -0.894  19.884  1.00  0.00     0.168 HD
BRANCH   5   8
HETATM    8  C5  UNL     1      -6.662  -2.251  18.815  1.00  0.00     0.062 C 
BRANCH   8   9
HETATM    9  C4  UNL     1      -7.677  -2.380  17.725  1.00  0.00     0.048 C 
BRANCH   9  10
HETATM   10  C3  UNL     1      -7.062  -2.460  16.375  1.00  0.00    -0.017 A 
HETATM   11  C2  UNL     1      -6.421  -3.514  15.773  1.00  0.00     0.032 A 
HETATM   12  C1  UNL     1      -6.193  -4.852  16.369  1.00  0.00     0.070 C 
HETATM   13  N5  UNL     1      -6.039  -3.123  14.563  1.00  0.00    -0.301 N 
HETATM   14  N4  UNL     1      -6.413  -1.870  14.381  1.00  0.00    -0.309 N 
HETATM   15  C26 UNL     1      -5.321  -3.873  13.532  1.00  0.00     0.177 C 
HETATM   16  C25 UNL     1      -7.046  -1.422  15.469  1.00  0.00     0.116 A 
ATOM     17  H4  UNL     1      -6.244  -1.325  13.536  1.00  0.00     0.186 HD
ENDBRANCH   9  10
ENDBRANCH   8   9
ENDBRANCH   5   8
ENDBRANCH   1   2
BRANCH   1  18
HETATM   18  C9  UNL     1     -10.883  -0.497  21.367  1.00  0.00     0.087 C 
HETATM   19  C10 UNL     1     -10.614   0.820  20.761  1.00  0.00     0.025 C 
HETATM   20  C11 UNL     1     -10.875   0.992  19.313  1.00  0.00     0.002 C 
HETATM   21  C12 UNL     1     -11.937   0.161  18.695  1.00  0.00     0.000 C 
HETATM   22  C13 UNL     1     -12.429  -0.963  19.579  1.00  0.00     0.002 C 
HETATM   23  C14 UNL     1     -11.138  -1.472  20.240  1.00  0.00     0.025 C 
ENDBRANCH   1  18
BRANCH   1  24
HETATM   24  C15 UNL     1      -9.838  -0.836  23.703  1.00  0.00     0.106 C 
HETATM   25  C16 UNL     1      -9.330   0.314  24.387  1.00  0.00     0.047 C 
HETATM   26  C17 UNL     1     -10.523   1.079  24.904  1.00  0.00     0.128 C 
HETATM   27  N2  UNL     1     -11.323  -0.026  25.363  1.00  0.00    -0.350 N 
HETATM   28  C18 UNL     1     -12.026  -0.140  26.571  1.00  0.00     0.224 C 
HETATM   29  C24 UNL     1     -11.245  -1.008  24.306  1.00  0.00     0.151 C 
HETATM   30  O1  UNL     1     -12.709  -1.195  26.816  1.00  0.00    -0.273 OA
BRANCH  28  31
HETATM   31  C19 UNL     1     -12.050   0.894  27.633  1.00  0.00     0.082 C 
HETATM   32  C20 UNL     1     -12.646   2.183  27.171  1.00  0.00     0.040 C 
HETATM   33  C21 UNL     1     -14.118   2.195  26.966  1.00  0.00     0.168 C 
HETATM   34  O2  UNL     1     -14.768   1.321  27.789  1.00  0.00    -0.391 OA
HETATM   35  C22 UNL     1     -14.108   1.203  29.008  1.00  0.00     0.168 C 
HETATM   36  C23 UNL     1     -12.823   0.404  28.847  1.00  0.00     0.040 C 
ENDBRANCH  28  31
ENDBRANCH   1  24
TORSDOF 7
ENDMDL
MODEL 4
REMARK VINA RESULT: -8.848008430      3.277      9.000
REMARK  7 active torsions:
REMARK  status: ('A' for Active; 'I' for Inactive)
REMARK    1  A    between atoms: C3_3  and  C4_4 
REMARK    2  A    between atoms: C4_4  and  C5_5 
REMARK    3  A    between atoms: C5_5  and  C6_6 
REMARK    4  A    between atoms: C8_9  and  N1_10 
REMARK    5  A    between atoms: N1_10  and  C9_11 
REMARK    6  A    between atoms: N1_10  and  C15_17 
REMARK       I    between atoms: N2_20  and  C18_21 
REMARK    7  A    between atoms: C18_21  and  C19_23 
ROOT
HETATM    1  N1  UNL     1     -10.180  -0.584  21.779  1.00  0.00    -0.350 N 
ENDROOT
BRANCH   1   2
HETATM    2  C8  UNL     1     -10.269  -0.979  23.169  1.00  0.00     0.147 A 
HETATM    3  S1  UNL     1      -9.055  -1.719  24.150  1.00  0.00    -0.064 SA
HETATM    4  C7  UNL     1      -9.952  -1.834  25.604  1.00  0.00     0.078 A 
HETATM    5  C6  UNL     1     -11.153  -1.283  25.231  1.00  0.00     0.018 A 
HETATM    6  N3  UNL     1     -11.268  -0.870  24.010  1.00  0.00    -0.340 N 
ATOM      7  H3  UNL     1     -12.146  -0.454  23.699  1.00  0.00     0.168 HD
BRANCH   5   8
HETATM    8  C5  UNL     1     -12.288  -1.172  26.225  1.00  0.00     0.062 C 
BRANCH   8   9
HETATM    9  C4  UNL     1     -13.463  -0.467  25.629  1.00  0.00     0.048 C 
BRANCH   9  10
HETATM   10  C3  UNL     1     -13.318   1.011  25.651  1.00  0.00    -0.017 A 
HETATM   11  C2  UNL     1     -13.831   1.948  24.789  1.00  0.00     0.032 A 
HETATM   12  C1  UNL     1     -14.672   1.671  23.600  1.00  0.00     0.070 C 
HETATM   13  N5  UNL     1     -13.439   3.146  25.206  1.00  0.00    -0.301 N 
HETATM   14  N4  UNL     1     -12.704   3.000  26.293  1.00  0.00    -0.309 N 
HETATM   15  C26 UNL     1     -13.719   4.462  24.633  1.00  0.00     0.177 C 
HETATM   16  C25 UNL     1     -12.603   1.704  26.603  1.00  0.00     0.116 A 
ATOM     17  H4  UNL     1     -12.276   3.763  26.817  1.00  0.00     0.186 HD
ENDBRANCH   9  10
ENDBRANCH   8   9
ENDBRANCH   5   8
ENDBRANCH   1   2
BRANCH   1  18
HETATM   18  C9  UNL     1     -10.318   0.828  21.574  1.00  0.00     0.087 C 
HETATM   19  C10 UNL     1     -11.538   1.270  20.874  1.00  0.00     0.025 C 
HETATM   20  C11 UNL     1     -12.226   2.487  21.366  1.00  0.00     0.002 C 
HETATM   21  C12 UNL     1     -11.403   3.529  22.028  1.00  0.00     0.000 C 
HETATM   22  C13 UNL     1      -9.999   3.081  22.365  1.00  0.00     0.002 C 
HETATM   23  C14 UNL     1     -10.205   1.635  22.846  1.00  0.00     0.025 C 
ENDBRANCH   1  18
BRANCH   1  24
HETATM   24  C15 UNL     1      -9.986  -1.640  20.895  1.00  0.00     0.106 C 
HETATM   25  C16 UNL     1     -10.854  -1.963  19.803  1.00  0.00     0.047 C 
HETATM   26  C17 UNL     1     -10.180  -1.465  18.547  1.00  0.00     0.128 C 
HETATM   27  N2  UNL     1      -8.829  -1.863  18.839  1.00  0.00    -0.350 N 
HETATM   28  C18 UNL     1      -7.910  -2.494  17.986  1.00  0.00     0.224 C 
HETATM   29  C24 UNL     1      -8.614  -1.478  20.215  1.00  0.00     0.151 C 
HETATM   30  O1  UNL     1      -6.731  -2.765  18.405  1.00  0.00    -0.273 OA
BRANCH  28  31
HETATM   31  C19 UNL     1      -8.196  -2.890  16.586  1.00  0.00     0.082 C 
HETATM   32  C20 UNL     1      -8.234  -1.724  15.652  1.00  0.00     0.040 C 
HETATM   33  C21 UNL     1      -6.928  -1.092  15.330  1.00  0.00     0.168 C 
HETATM   34  O2  UNL     1      -5.891  -1.979  15.380  1.00  0.00    -0.391 OA
HETATM   35  C22 UNL     1      -6.306  -3.251  14.998  1.00  0.00     0.168 C 
HETATM   36  C23 UNL     1      -7.161  -3.884  16.085  1.00  0.00     0.040 C 
ENDBRANCH  28  31
ENDBRANCH   1  24
TORSDOF 7
ENDMDL
MODEL 5
REMARK VINA RESULT: -8.794616727      3.541      5.676
REMARK  7 active torsions:
REMARK  status: ('A' for Active; 'I' for Inactive)
REMARK    1  A    between atoms: C3_3  and  C4_4 
REMARK    2  A    between atoms: C4_4  and  C5_5 
REMARK    3  A    between atoms: C5_5  and  C6_6 
REMARK    4  A    between atoms: C8_9  and  N1_10 
REMARK    5  A    between atoms: N1_10  and  C9_11 
REMARK    6  A    between atoms: N1_10  and  C15_17 
REMARK       I    between atoms: N2_20  and  C18_21 
REMARK    7  A    between atoms: C18_21  and  C19_23 
ROOT
HETATM    1  N1  UNL     1      -8.994  -2.357  23.420  1.00  0.00    -0.350 N 
ENDROOT
BRANCH   1   2
HETATM    2  C8  UNL     1      -8.841  -3.733  23.846  1.00  0.00     0.147 A 
HETATM    3  S1  UNL     1     -10.058  -4.813  24.428  1.00  0.00    -0.064 SA
HETATM    4  C7  UNL     1      -9.063  -6.182  24.689  1.00  0.00     0.078 A 
HETATM    5  C6  UNL     1      -7.834  -5.707  24.303  1.00  0.00     0.018 A 
HETATM    6  N3  UNL     1      -7.768  -4.483  23.890  1.00  0.00    -0.340 N 
ATOM      7  H3  UNL     1      -6.871  -4.098  23.594  1.00  0.00     0.168 HD
BRANCH   5   8
HETATM    8  C5  UNL     1      -6.613  -6.599  24.367  1.00  0.00     0.062 C 
BRANCH   8   9
HETATM    9  C4  UNL     1      -5.533  -5.980  25.195  1.00  0.00     0.048 C 
BRANCH   9  10
HETATM   10  C3  UNL     1      -4.331  -5.623  24.399  1.00  0.00    -0.017 A 
HETATM   11  C2  UNL     1      -3.026  -5.494  24.806  1.00  0.00     0.032 A 
HETATM   12  C1  UNL     1      -2.519  -5.688  26.185  1.00  0.00     0.070 C 
HETATM   13  N5  UNL     1      -2.298  -5.162  23.746  1.00  0.00    -0.301 N 
HETATM   14  N4  UNL     1      -3.091  -5.079  22.693  1.00  0.00    -0.309 N 
HETATM   15  C26 UNL     1      -0.860  -4.910  23.654  1.00  0.00     0.177 C 
HETATM   16  C25 UNL     1      -4.349  -5.355  23.048  1.00  0.00     0.116 A 
ATOM     17  H4  UNL     1      -2.787  -4.839  21.749  1.00  0.00     0.186 HD
ENDBRANCH   9  10
ENDBRANCH   8   9
ENDBRANCH   5   8
ENDBRANCH   1   2
BRANCH   1  18
HETATM   18  C9  UNL     1      -8.344  -2.066  22.177  1.00  0.00     0.087 C 
HETATM   19  C10 UNL     1      -7.029  -2.700  21.964  1.00  0.00     0.025 C 
HETATM   20  C11 UNL     1      -6.722  -3.244  20.620  1.00  0.00     0.002 C 
HETATM   21  C12 UNL     1      -7.369  -2.605  19.448  1.00  0.00     0.000 C 
HETATM   22  C13 UNL     1      -8.485  -1.651  19.807  1.00  0.00     0.002 C 
HETATM   23  C14 UNL     1      -9.195  -2.371  20.965  1.00  0.00     0.025 C 
ENDBRANCH   1  18
BRANCH   1  24
HETATM   24  C15 UNL     1      -9.735  -1.567  24.292  1.00  0.00     0.106 C 
HETATM   25  C16 UNL     1      -9.185  -0.563  25.153  1.00  0.00     0.047 C 
HETATM   26  C17 UNL     1      -9.480   0.771  24.513  1.00  0.00     0.128 C 
HETATM   27  N2  UNL     1     -10.829   0.525  24.078  1.00  0.00    -0.350 N 
HETATM   28  C18 UNL     1     -11.943   1.368  24.200  1.00  0.00     0.224 C 
HETATM   29  C24 UNL     1     -10.796  -0.793  23.488  1.00  0.00     0.151 C 
HETATM   30  O1  UNL     1     -13.079   0.997  23.739  1.00  0.00    -0.273 OA
BRANCH  28  31
HETATM   31  C19 UNL     1     -11.922   2.705  24.840  1.00  0.00     0.082 C 
HETATM   32  C20 UNL     1     -11.391   3.770  23.937  1.00  0.00     0.040 C 
HETATM   33  C21 UNL     1     -12.276   4.191  22.819  1.00  0.00     0.168 C 
HETATM   34  O2  UNL     1     -13.601   4.056  23.122  1.00  0.00    -0.391 OA
HETATM   35  C22 UNL     1     -13.826   4.276  24.477  1.00  0.00     0.168 C 
HETATM   36  C23 UNL     1     -13.314   3.105  25.302  1.00  0.00     0.040 C 
ENDBRANCH  28  31
ENDBRANCH   1  24
TORSDOF 7
ENDMDL
