MODEL 1
REMARK VINA RESULT: -7.145794733      0.000      0.000
REMARK  9 active torsions:
REMARK  status: ('A' for Active; 'I' for Inactive)
REMARK    1  A    between atoms: C5_10  and  N3_11 
REMARK    2  A    between atoms: N3_11  and  C6_13 
REMARK    3  A    between atoms: C6_13  and  C7_14 
REMARK    4  A    between atoms: C7_14  and  N4_15 
REMARK    5  A    between atoms: N6_21  and  C8_22 
REMARK    6  A    between atoms: C8_22  and  C9_23 
REMARK    7  A    between atoms: C9_23  and  C10_24 
REMARK    8  A    between atoms: C10_24  and  C11_25 
REMARK    9  A    between atoms: C11_25  and  C12_26 
ROOT
HETATM    1  C1  UNL     1     -18.308  14.965  22.649  1.00  0.00     0.072 C 
HETATM    2  C2  UNL     1     -18.432  13.556  23.026  1.00  0.00     0.051 A 
HETATM    3  N1  UNL     1     -19.624  12.902  22.972  1.00  0.00    -0.300 N 
ATOM      4  H1  UNL     1     -20.440  13.437  22.673  1.00  0.00     0.186 HD
HETATM    5  N2  UNL     1     -19.808  11.652  23.269  1.00  0.00    -0.265 N 
ATOM      6  H2  UNL     1     -20.736  11.233  23.204  1.00  0.00     0.190 HD
HETATM    7  C3  UNL     1     -18.760  10.923  23.664  1.00  0.00     0.276 A 
HETATM    8  O1  UNL     1     -18.859   9.703  23.970  1.00  0.00    -0.266 OA
HETATM    9  C4  UNL     1     -17.500  11.470  23.760  1.00  0.00     0.108 A 
HETATM   10  C5  UNL     1     -16.266  10.973  24.123  1.00  0.00     0.134 A 
HETATM   11  N5  UNL     1     -15.394  11.964  24.025  1.00  0.00    -0.282 N 
ATOM     12  H5  UNL     1     -14.397  11.898  24.229  1.00  0.00     0.189 HD
HETATM   13  N6  UNL     1     -16.041  13.079  23.608  1.00  0.00    -0.288 N 
HETATM   14  C13 UNL     1     -17.332  12.833  23.430  1.00  0.00     0.094 A 
ENDROOT
BRANCH  10  15
HETATM   15  N3  UNL     1     -16.068   9.753  24.483  1.00  0.00    -0.373 N 
ATOM     16  H3  UNL     1     -16.878   9.145  24.607  1.00  0.00     0.161 HD
BRANCH  15  17
HETATM   17  C6  UNL     1     -14.751   9.202  24.718  1.00  0.00     0.148 C 
BRANCH  17  18
HETATM   18  C7  UNL     1     -14.277   8.498  23.465  1.00  0.00     0.249 C 
BRANCH  18  19
HETATM   19  N4  UNL     1     -13.133   9.199  22.902  1.00  0.00    -0.078 N 
ATOM     20  H43 UNL     1     -13.315   9.527  21.954  1.00  0.00     0.274 HD
ATOM     21  H42 UNL     1     -12.983  10.103  23.348  1.00  0.00     0.274 HD
ATOM     22  H41 UNL     1     -12.303   8.607  22.949  1.00  0.00     0.274 HD
ENDBRANCH  18  19
ENDBRANCH  17  18
ENDBRANCH  15  17
ENDBRANCH  10  15
BRANCH  13  23
HETATM   23  C8  UNL     1     -15.341  14.344  23.442  1.00  0.00     0.149 C 
BRANCH  23  24
HETATM   24  C9  UNL     1     -15.086  14.946  24.810  1.00  0.00     0.022 C 
BRANCH  24  25
HETATM   25  C10 UNL     1     -15.053  16.432  24.762  1.00  0.00     0.010 C 
BRANCH  25  26
HETATM   26  C11 UNL     1     -16.373  17.085  24.834  1.00  0.00     0.117 C 
BRANCH  26  27
HETATM   27  C12 UNL     1     -17.183  16.855  26.070  1.00  0.00     0.387 C 
HETATM   28  F1  UNL     1     -17.989  17.995  26.232  1.00  0.00    -0.171 F 
HETATM   29  F2  UNL     1     -16.486  16.684  27.214  1.00  0.00    -0.171 F 
HETATM   30  F3  UNL     1     -18.086  15.825  25.853  1.00  0.00    -0.171 F 
ENDBRANCH  26  27
ENDBRANCH  25  26
ENDBRANCH  24  25
ENDBRANCH  23  24
ENDBRANCH  13  23
TORSDOF 9
ENDMDL
MODEL 2
REMARK VINA RESULT: -7.083465430      4.405      6.554
REMARK  9 active torsions:
REMARK  status: ('A' for Active; 'I' for Inactive)
REMARK    1  A    between atoms: C5_10  and  N3_11 
REMARK    2  A    between atoms: N3_11  and  C6_13 
REMARK    3  A    between atoms: C6_13  and  C7_14 
REMARK    4  A    between atoms: C7_14  and  N4_15 
REMARK    5  A    between atoms: N6_21  and  C8_22 
REMARK    6  A    between atoms: C8_22  and  C9_23 
REMARK    7  A    between atoms: C9_23  and  C10_24 
REMARK    8  A    between atoms: C10_24  and  C11_25 
REMARK    9  A    between atoms: C11_25  and  C12_26 
ROOT
HETATM    1  C1  UNL     1     -19.203   9.710  24.072  1.00  0.00     0.072 C 
HETATM    2  C2  UNL     1     -18.876  11.082  23.680  1.00  0.00     0.051 A 
HETATM    3  N1  UNL     1     -19.825  11.942  23.221  1.00  0.00    -0.300 N 
ATOM      4  H1  UNL     1     -20.779  11.589  23.142  1.00  0.00     0.186 HD
HETATM    5  N2  UNL     1     -19.616  13.176  22.876  1.00  0.00    -0.265 N 
ATOM      6  H2  UNL     1     -20.382  13.759  22.540  1.00  0.00     0.190 HD
HETATM    7  C3  UNL     1     -18.377  13.669  22.969  1.00  0.00     0.276 A 
HETATM    8  O1  UNL     1     -18.095  14.858  22.653  1.00  0.00    -0.266 OA
HETATM    9  C4  UNL     1     -17.329  12.898  23.420  1.00  0.00     0.108 A 
HETATM   10  C5  UNL     1     -15.985  13.133  23.620  1.00  0.00     0.134 A 
HETATM   11  N5  UNL     1     -15.450  12.014  24.080  1.00  0.00    -0.282 N 
ATOM     12  H5  UNL     1     -14.468  11.881  24.321  1.00  0.00     0.189 HD
HETATM   13  N6  UNL     1     -16.419  11.071  24.177  1.00  0.00    -0.288 N 
HETATM   14  C13 UNL     1     -17.589  11.560  23.787  1.00  0.00     0.094 A 
ENDROOT
BRANCH  10  15
HETATM   15  N3  UNL     1     -15.417  14.264  23.382  1.00  0.00    -0.373 N 
ATOM     16  H3  UNL     1     -15.435  14.626  22.429  1.00  0.00     0.161 HD
BRANCH  15  17
HETATM   17  C6  UNL     1     -14.756  15.046  24.404  1.00  0.00     0.148 C 
BRANCH  17  18
HETATM   18  C7  UNL     1     -15.770  15.951  25.069  1.00  0.00     0.249 C 
BRANCH  18  19
HETATM   19  N4  UNL     1     -16.379  16.829  24.082  1.00  0.00    -0.078 N 
ATOM     20  H43 UNL     1     -16.264  17.813  24.324  1.00  0.00     0.274 HD
ATOM     21  H42 UNL     1     -15.863  16.829  23.202  1.00  0.00     0.274 HD
ATOM     22  H41 UNL     1     -17.359  16.579  23.950  1.00  0.00     0.274 HD
ENDBRANCH  18  19
ENDBRANCH  17  18
ENDBRANCH  15  17
ENDBRANCH  10  15
BRANCH  13  23
HETATM   23  C8  UNL     1     -16.119   9.719  24.624  1.00  0.00     0.149 C 
BRANCH  23  24
HETATM   24  C9  UNL     1     -14.755   9.713  25.287  1.00  0.00     0.022 C 
BRANCH  24  25
HETATM   25  C10 UNL     1     -13.779   8.884  24.533  1.00  0.00     0.010 C 
BRANCH  25  26
HETATM   26  C11 UNL     1     -14.194   8.524  23.165  1.00  0.00     0.117 C 
BRANCH  26  27
HETATM   27  C12 UNL     1     -13.429   7.435  22.482  1.00  0.00     0.387 C 
HETATM   28  F1  UNL     1     -13.883   7.406  21.152  1.00  0.00    -0.171 F 
HETATM   29  F2  UNL     1     -13.583   6.193  22.990  1.00  0.00    -0.171 F 
HETATM   30  F3  UNL     1     -12.093   7.793  22.381  1.00  0.00    -0.171 F 
ENDBRANCH  26  27
ENDBRANCH  25  26
ENDBRANCH  24  25
ENDBRANCH  23  24
ENDBRANCH  13  23
TORSDOF 9
ENDMDL
MODEL 3
REMARK VINA RESULT: -7.077091565      2.431      4.772
REMARK  9 active torsions:
REMARK  status: ('A' for Active; 'I' for Inactive)
REMARK    1  A    between atoms: C5_10  and  N3_11 
REMARK    2  A    between atoms: N3_11  and  C6_13 
REMARK    3  A    between atoms: C6_13  and  C7_14 
REMARK    4  A    between atoms: C7_14  and  N4_15 
REMARK    5  A    between atoms: N6_21  and  C8_22 
REMARK    6  A    between atoms: C8_22  and  C9_23 
REMARK    7  A    between atoms: C9_23  and  C10_24 
REMARK    8  A    between atoms: C10_24  and  C11_25 
REMARK    9  A    between atoms: C11_25  and  C12_26 
ROOT
HETATM    1  C1  UNL     1     -19.094   9.670  23.978  1.00  0.00     0.072 C 
HETATM    2  C2  UNL     1     -18.842  11.075  23.654  1.00  0.00     0.051 A 
HETATM    3  N1  UNL     1     -19.854  11.932  23.348  1.00  0.00    -0.300 N 
ATOM      4  H1  UNL     1     -20.801  11.554  23.335  1.00  0.00     0.186 HD
HETATM    5  N2  UNL     1     -19.711  13.192  23.072  1.00  0.00    -0.265 N 
ATOM      6  H2  UNL     1     -20.521  13.771  22.850  1.00  0.00     0.190 HD
HETATM    7  C3  UNL     1     -18.483  13.718  23.081  1.00  0.00     0.276 A 
HETATM    8  O1  UNL     1     -18.264  14.934  22.823  1.00  0.00    -0.266 OA
HETATM    9  C4  UNL     1     -17.376  12.954  23.376  1.00  0.00     0.108 A 
HETATM   10  C5  UNL     1     -16.025  13.219  23.464  1.00  0.00     0.134 A 
HETATM   11  N5  UNL     1     -15.419  12.089  23.792  1.00  0.00    -0.282 N 
ATOM     12  H5  UNL     1     -14.415  11.974  23.930  1.00  0.00     0.189 HD
HETATM   13  N6  UNL     1     -16.350  11.111  23.915  1.00  0.00    -0.288 N 
HETATM   14  C13 UNL     1     -17.564  11.586  23.672  1.00  0.00     0.094 A 
ENDROOT
BRANCH  10  15
HETATM   15  N3  UNL     1     -15.513  14.381  23.253  1.00  0.00    -0.373 N 
ATOM     16  H3  UNL     1     -15.637  14.808  22.335  1.00  0.00     0.161 HD
BRANCH  15  17
HETATM   17  C6  UNL     1     -14.771  15.111  24.257  1.00  0.00     0.148 C 
BRANCH  17  18
HETATM   18  C7  UNL     1     -15.719  16.016  25.015  1.00  0.00     0.249 C 
BRANCH  18  19
HETATM   19  N4  UNL     1     -16.419  16.892  24.088  1.00  0.00    -0.078 N 
ATOM     20  H43 UNL     1     -15.788  17.300  23.398  1.00  0.00     0.274 HD
ATOM     21  H42 UNL     1     -17.021  16.370  23.451  1.00  0.00     0.274 HD
ATOM     22  H41 UNL     1     -16.935  17.605  24.604  1.00  0.00     0.274 HD
ENDBRANCH  18  19
ENDBRANCH  17  18
ENDBRANCH  15  17
ENDBRANCH  10  15
BRANCH  13  23
HETATM   23  C8  UNL     1     -15.972   9.743  24.236  1.00  0.00     0.149 C 
BRANCH  23  24
HETATM   24  C9  UNL     1     -15.057   9.757  25.445  1.00  0.00     0.022 C 
BRANCH  24  25
HETATM   25  C10 UNL     1     -15.759  10.242  26.662  1.00  0.00     0.010 C 
BRANCH  25  26
HETATM   26  C11 UNL     1     -14.953  11.105  27.543  1.00  0.00     0.117 C 
BRANCH  26  27
HETATM   27  C12 UNL     1     -14.923  12.568  27.227  1.00  0.00     0.387 C 
HETATM   28  F1  UNL     1     -14.603  13.225  28.427  1.00  0.00    -0.171 F 
HETATM   29  F2  UNL     1     -16.077  13.099  26.768  1.00  0.00    -0.171 F 
HETATM   30  F3  UNL     1     -13.854  12.843  26.389  1.00  0.00    -0.171 F 
ENDBRANCH  26  27
ENDBRANCH  25  26
ENDBRANCH  24  25
ENDBRANCH  23  24
ENDBRANCH  13  23
TORSDOF 9
ENDMDL
MODEL 4
REMARK VINA RESULT: -6.881763958      3.286      5.675
REMARK  9 active torsions:
REMARK  status: ('A' for Active; 'I' for Inactive)
REMARK    1  A    between atoms: C5_10  and  N3_11 
REMARK    2  A    between atoms: N3_11  and  C6_13 
REMARK    3  A    between atoms: C6_13  and  C7_14 
REMARK    4  A    between atoms: C7_14  and  N4_15 
REMARK    5  A    between atoms: N6_21  and  C8_22 
REMARK    6  A    between atoms: C8_22  and  C9_23 
REMARK    7  A    between atoms: C9_23  and  C10_24 
REMARK    8  A    between atoms: C10_24  and  C11_25 
REMARK    9  A    between atoms: C11_25  and  C12_26 
ROOT
HETATM    1  C1  UNL     1     -19.107   9.671  23.978  1.00  0.00     0.072 C 
HETATM    2  C2  UNL     1     -18.818  11.064  23.633  1.00  0.00     0.051 A 
HETATM    3  N1  UNL     1     -19.797  11.922  23.236  1.00  0.00    -0.300 N 
ATOM      4  H1  UNL     1     -20.745  11.552  23.170  1.00  0.00     0.186 HD
HETATM    5  N2  UNL     1     -19.622  13.173  22.936  1.00  0.00    -0.265 N 
ATOM      6  H2  UNL     1     -20.409  13.753  22.645  1.00  0.00     0.190 HD
HETATM    7  C3  UNL     1     -18.391  13.687  23.014  1.00  0.00     0.276 A 
HETATM    8  O1  UNL     1     -18.141  14.893  22.738  1.00  0.00    -0.266 OA
HETATM    9  C4  UNL     1     -17.315  12.921  23.404  1.00  0.00     0.108 A 
HETATM   10  C5  UNL     1     -15.970  13.176  23.575  1.00  0.00     0.134 A 
HETATM   11  N5  UNL     1     -15.401  12.050  23.974  1.00  0.00    -0.282 N 
ATOM     12  H5  UNL     1     -14.410  11.928  24.183  1.00  0.00     0.189 HD
HETATM   13  N6  UNL     1     -16.348  11.084  24.060  1.00  0.00    -0.288 N 
HETATM   14  C13 UNL     1     -17.538  11.564  23.723  1.00  0.00     0.094 A 
ENDROOT
BRANCH  10  15
HETATM   15  N3  UNL     1     -15.432  14.327  23.367  1.00  0.00    -0.373 N 
ATOM     16  H3  UNL     1     -15.474  14.720  22.427  1.00  0.00     0.161 HD
BRANCH  15  17
HETATM   17  C6  UNL     1     -14.772  15.088  24.405  1.00  0.00     0.148 C 
BRANCH  17  18
HETATM   18  C7  UNL     1     -15.774  16.020  25.050  1.00  0.00     0.249 C 
BRANCH  18  19
HETATM   19  N4  UNL     1     -16.336  16.917  24.052  1.00  0.00    -0.078 N 
ATOM     20  H43 UNL     1     -17.272  17.233  24.306  1.00  0.00     0.274 HD
ATOM     21  H42 UNL     1     -15.868  17.823  24.047  1.00  0.00     0.274 HD
ATOM     22  H41 UNL     1     -16.319  16.472  23.134  1.00  0.00     0.274 HD
ENDBRANCH  18  19
ENDBRANCH  17  18
ENDBRANCH  15  17
ENDBRANCH  10  15
BRANCH  13  23
HETATM   23  C8  UNL     1     -16.009   9.722  24.443  1.00  0.00     0.149 C 
BRANCH  23  24
HETATM   24  C9  UNL     1     -14.716   9.327  23.756  1.00  0.00     0.022 C 
BRANCH  24  25
HETATM   25  C10 UNL     1     -13.712   8.813  24.724  1.00  0.00     0.010 C 
BRANCH  25  26
HETATM   26  C11 UNL     1     -13.051   9.847  25.541  1.00  0.00     0.117 C 
BRANCH  26  27
HETATM   27  C12 UNL     1     -13.176   9.726  27.027  1.00  0.00     0.387 C 
HETATM   28  F1  UNL     1     -12.640  10.909  27.566  1.00  0.00    -0.171 F 
HETATM   29  F2  UNL     1     -12.524   8.689  27.596  1.00  0.00    -0.171 F 
HETATM   30  F3  UNL     1     -14.514   9.761  27.388  1.00  0.00    -0.171 F 
ENDBRANCH  26  27
ENDBRANCH  25  26
ENDBRANCH  24  25
ENDBRANCH  23  24
ENDBRANCH  13  23
TORSDOF 9
ENDMDL
MODEL 5
REMARK VINA RESULT: -6.766019053      4.414      6.684
REMARK  9 active torsions:
REMARK  status: ('A' for Active; 'I' for Inactive)
REMARK    1  A    between atoms: C5_10  and  N3_11 
REMARK    2  A    between atoms: N3_11  and  C6_13 
REMARK    3  A    between atoms: C6_13  and  C7_14 
REMARK    4  A    between atoms: C7_14  and  N4_15 
REMARK    5  A    between atoms: N6_21  and  C8_22 
REMARK    6  A    between atoms: C8_22  and  C9_23 
REMARK    7  A    between atoms: C9_23  and  C10_24 
REMARK    8  A    between atoms: C10_24  and  C11_25 
REMARK    9  A    between atoms: C11_25  and  C12_26 
ROOT
HETATM    1  C1  UNL     1     -18.916   9.559  23.242  1.00  0.00     0.072 C 
HETATM    2  C2  UNL     1     -18.914  10.986  23.568  1.00  0.00     0.051 A 
HETATM    3  N1  UNL     1     -19.896  11.822  23.134  1.00  0.00    -0.300 N 
ATOM      4  H1  UNL     1     -20.631  11.419  22.553  1.00  0.00     0.186 HD
HETATM    5  N2  UNL     1     -19.973  13.090  23.399  1.00  0.00    -0.265 N 
ATOM      6  H2  UNL     1     -20.743  13.652  23.035  1.00  0.00     0.190 HD
HETATM    7  C3  UNL     1     -19.026  13.648  24.159  1.00  0.00     0.276 A 
HETATM    8  O1  UNL     1     -19.033  14.873  24.460  1.00  0.00    -0.266 OA
HETATM    9  C4  UNL     1     -17.979  12.908  24.661  1.00  0.00     0.108 A 
HETATM   10  C5  UNL     1     -16.890  13.204  25.454  1.00  0.00     0.134 A 
HETATM   11  N5  UNL     1     -16.207  12.084  25.625  1.00  0.00    -0.282 N 
ATOM     12  H5  UNL     1     -15.348  11.990  26.168  1.00  0.00     0.189 HD
HETATM   13  N6  UNL     1     -16.831  11.082  24.960  1.00  0.00    -0.288 N 
HETATM   14  C13 UNL     1     -17.922  11.531  24.353  1.00  0.00     0.094 A 
ENDROOT
BRANCH  10  15
HETATM   15  N3  UNL     1     -16.644  14.382  25.912  1.00  0.00    -0.373 N 
ATOM     16  H3  UNL     1     -17.282  14.778  26.603  1.00  0.00     0.161 HD
BRANCH  15  17
HETATM   17  C6  UNL     1     -15.505  15.169  25.495  1.00  0.00     0.148 C 
BRANCH  17  18
HETATM   18  C7  UNL     1     -15.983  16.533  25.047  1.00  0.00     0.249 C 
BRANCH  18  19
HETATM   19  N4  UNL     1     -16.597  16.439  23.732  1.00  0.00    -0.078 N 
ATOM     20  H43 UNL     1     -15.999  15.953  23.064  1.00  0.00     0.274 HD
ATOM     21  H42 UNL     1     -17.386  15.792  23.725  1.00  0.00     0.274 HD
ATOM     22  H41 UNL     1     -16.861  17.368  23.402  1.00  0.00     0.274 HD
ENDBRANCH  18  19
ENDBRANCH  17  18
ENDBRANCH  15  17
ENDBRANCH  10  15
BRANCH  13  23
HETATM   23  C8  UNL     1     -16.287   9.732  24.938  1.00  0.00     0.149 C 
BRANCH  23  24
HETATM   24  C9  UNL     1     -15.258   9.637  23.828  1.00  0.00     0.022 C 
BRANCH  24  25
HETATM   25  C10 UNL     1     -14.219   8.617  24.126  1.00  0.00     0.010 C 
BRANCH  25  26
HETATM   26  C11 UNL     1     -13.116   8.549  23.150  1.00  0.00     0.117 C 
BRANCH  26  27
HETATM   27  C12 UNL     1     -13.189   7.478  22.108  1.00  0.00     0.387 C 
HETATM   28  F1  UNL     1     -13.584   6.305  22.774  1.00  0.00    -0.171 F 
HETATM   29  F2  UNL     1     -12.039   7.207  21.453  1.00  0.00    -0.171 F 
HETATM   30  F3  UNL     1     -14.234   7.745  21.236  1.00  0.00    -0.171 F 
ENDBRANCH  26  27
ENDBRANCH  25  26
ENDBRANCH  24  25
ENDBRANCH  23  24
ENDBRANCH  13  23
TORSDOF 9
ENDMDL
