MODEL 1
REMARK VINA RESULT: -8.966936547      0.000      0.000
REMARK  7 active torsions:
REMARK  status: ('A' for Active; 'I' for Inactive)
REMARK    1  A    between atoms: C6_6  and  C8_8 
REMARK    2  A    between atoms: C11_11  and  O1_12 
REMARK    3  A    between atoms: O1_12  and  C12_13 
REMARK    4  A    between atoms: C13_15  and  C14_16 
REMARK    5  A    between atoms: C14_16  and  N2_21 
REMARK    6  A    between atoms: N1_17  and  O2_19 
REMARK    7  A    between atoms: N2_21  and  C15_23 
ROOT
HETATM    1  C15 UNL     1      22.376   9.985  -4.945  1.00  0.00     0.245 C 
HETATM    2  C16 UNL     1      21.863  11.358  -5.003  1.00  0.00     0.078 C 
HETATM    3  N3  UNL     1      21.431  12.436  -5.044  1.00  0.00    -0.196 NA
ENDROOT
BRANCH   1   4
HETATM    4  N2  UNL     1      23.487   9.909  -4.004  1.00  0.00    -0.361 N 
ATOM      5  H2  UNL     1      24.318  10.480  -4.162  1.00  0.00     0.162 HD
BRANCH   4   6
HETATM    6  C14 UNL     1      23.433   9.057  -2.876  1.00  0.00     0.139 C 
HETATM    7  N1  UNL     1      22.853   9.404  -1.809  1.00  0.00    -0.252 N 
ATOM      8  H1  UNL     1      22.414  10.324  -1.800  1.00  0.00     0.196 HD
BRANCH   6   9
HETATM    9  C13 UNL     1      24.101   7.733  -2.972  1.00  0.00     0.056 A 
HETATM   10  S1  UNL     1      25.267   7.036  -1.974  1.00  0.00    -0.058 SA
HETATM   11  C12 UNL     1      25.499   5.506  -2.825  1.00  0.00     0.156 A 
HETATM   12  C18 UNL     1      24.621   5.653  -3.861  1.00  0.00     0.158 A 
HETATM   13  C17 UNL     1      23.906   6.787  -3.938  1.00  0.00     0.068 A 
HETATM   14  F1  UNL     1      24.525   4.639  -4.820  1.00  0.00    -0.203 F 
BRANCH  11  15
HETATM   15  O1  UNL     1      26.364   4.539  -2.441  1.00  0.00    -0.297 OA
BRANCH  15  16
HETATM   16  C11 UNL     1      27.426   3.885  -2.907  1.00  0.00     0.115 A 
HETATM   17  C10 UNL     1      27.210   2.494  -3.147  1.00  0.00     0.041 A 
HETATM   18  C9  UNL     1      28.195   1.703  -3.607  1.00  0.00     0.011 A 
HETATM   19  C8  UNL     1      29.472   2.157  -3.879  1.00  0.00    -0.047 A 
HETATM   20  C20 UNL     1      29.675   3.500  -3.649  1.00  0.00     0.053 A 
HETATM   21  C19 UNL     1      28.690   4.332  -3.179  1.00  0.00     0.150 A 
HETATM   22  F2  UNL     1      29.037   5.615  -3.005  1.00  0.00    -0.203 F 
BRANCH  19  23
HETATM   23  C6  UNL     1      30.505   1.200  -4.327  1.00  0.00    -0.017 C 
HETATM   24  C5  UNL     1      31.680   1.053  -3.441  1.00  0.00     0.015 C 
HETATM   25  C4  UNL     1      32.900   1.814  -3.763  1.00  0.00     0.010 C 
HETATM   26  C2  UNL     1      33.191   2.108  -5.186  1.00  0.00    -0.048 C 
HETATM   27  C1  UNL     1      33.974   3.410  -5.229  1.00  0.00     0.015 C 
HETATM   28  C3  UNL     1      34.144   1.040  -5.756  1.00  0.00     0.015 C 
HETATM   29  C22 UNL     1      31.998   2.272  -6.084  1.00  0.00     0.010 C 
HETATM   30  C21 UNL     1      30.850   1.408  -5.783  1.00  0.00     0.015 C 
HETATM   31  C7  UNL     1      29.796  -0.178  -4.328  1.00  0.00     0.020 C 
ENDBRANCH  19  23
ENDBRANCH  15  16
ENDBRANCH  11  15
ENDBRANCH   6   9
BRANCH   7  32
HETATM   32  O2  UNL     1      22.759   8.660  -0.663  1.00  0.00    -0.288 OA
ATOM     33  H2  UNL     1      23.297   8.756   0.114  1.00  0.00     0.244 HD
ENDBRANCH   7  32
ENDBRANCH   4   6
ENDBRANCH   1   4
TORSDOF 7
ENDMDL
MODEL 2
REMARK VINA RESULT: -8.886585234      1.533      1.781
REMARK  7 active torsions:
REMARK  status: ('A' for Active; 'I' for Inactive)
REMARK    1  A    between atoms: C6_6  and  C8_8 
REMARK    2  A    between atoms: C11_11  and  O1_12 
REMARK    3  A    between atoms: O1_12  and  C12_13 
REMARK    4  A    between atoms: C13_15  and  C14_16 
REMARK    5  A    between atoms: C14_16  and  N2_21 
REMARK    6  A    between atoms: N1_17  and  O2_19 
REMARK    7  A    between atoms: N2_21  and  C15_23 
ROOT
HETATM    1  C15 UNL     1      23.034  10.612  -4.830  1.00  0.00     0.245 C 
HETATM    2  C16 UNL     1      21.942  11.133  -5.658  1.00  0.00     0.078 C 
HETATM    3  N3  UNL     1      21.083  11.529  -6.334  1.00  0.00    -0.196 NA
ENDROOT
BRANCH   1   4
HETATM    4  N2  UNL     1      22.517  10.186  -3.535  1.00  0.00    -0.361 N 
ATOM      5  H2  UNL     1      21.697  10.651  -3.144  1.00  0.00     0.162 HD
BRANCH   4   6
HETATM    6  C14 UNL     1      23.133   9.139  -2.811  1.00  0.00     0.139 C 
HETATM    7  N1  UNL     1      23.052   9.063  -1.553  1.00  0.00    -0.252 N 
ATOM      8  H1  UNL     1      22.511   9.787  -1.081  1.00  0.00     0.196 HD
BRANCH   6   9
HETATM    9  C13 UNL     1      23.905   8.125  -3.576  1.00  0.00     0.056 A 
HETATM   10  S1  UNL     1      25.572   7.932  -3.739  1.00  0.00    -0.058 SA
HETATM   11  C12 UNL     1      25.598   6.533  -4.815  1.00  0.00     0.156 A 
HETATM   12  C18 UNL     1      24.260   6.307  -4.976  1.00  0.00     0.158 A 
HETATM   13  C17 UNL     1      23.394   7.118  -4.344  1.00  0.00     0.068 A 
HETATM   14  F1  UNL     1      23.842   5.271  -5.817  1.00  0.00    -0.203 F 
BRANCH  11  15
HETATM   15  O1  UNL     1      26.724   5.949  -5.286  1.00  0.00    -0.297 OA
BRANCH  15  16
HETATM   16  C11 UNL     1      27.462   4.860  -5.086  1.00  0.00     0.115 A 
HETATM   17  C10 UNL     1      28.872   5.080  -5.131  1.00  0.00     0.041 A 
HETATM   18  C9  UNL     1      29.743   4.069  -4.958  1.00  0.00     0.011 A 
HETATM   19  C8  UNL     1      29.356   2.762  -4.728  1.00  0.00    -0.047 A 
HETATM   20  C20 UNL     1      27.995   2.556  -4.682  1.00  0.00     0.053 A 
HETATM   21  C19 UNL     1      27.083   3.565  -4.855  1.00  0.00     0.150 A 
HETATM   22  F2  UNL     1      25.792   3.212  -4.783  1.00  0.00    -0.203 F 
BRANCH  19  23
HETATM   23  C6  UNL     1      30.387   1.709  -4.607  1.00  0.00    -0.017 C 
HETATM   24  C5  UNL     1      31.501   1.997  -3.678  1.00  0.00     0.015 C 
HETATM   25  C4  UNL     1      32.760   2.524  -4.236  1.00  0.00     0.010 C 
HETATM   26  C2  UNL     1      33.145   2.119  -5.608  1.00  0.00    -0.048 C 
HETATM   27  C1  UNL     1      33.966   3.253  -6.201  1.00  0.00     0.015 C 
HETATM   28  C3  UNL     1      34.100   0.912  -5.548  1.00  0.00     0.015 C 
HETATM   29  C22 UNL     1      32.014   1.841  -6.557  1.00  0.00     0.010 C 
HETATM   30  C21 UNL     1      30.826   1.214  -5.964  1.00  0.00     0.015 C 
HETATM   31  C7  UNL     1      29.640   0.489  -4.012  1.00  0.00     0.020 C 
ENDBRANCH  19  23
ENDBRANCH  15  16
ENDBRANCH  11  15
ENDBRANCH   6   9
BRANCH   7  32
HETATM   32  O2  UNL     1      23.622   8.100  -0.763  1.00  0.00    -0.288 OA
ATOM     33  H2  UNL     1      23.516   8.011   0.177  1.00  0.00     0.244 HD
ENDBRANCH   7  32
ENDBRANCH   4   6
ENDBRANCH   1   4
TORSDOF 7
ENDMDL
MODEL 3
REMARK VINA RESULT: -8.737581033      1.738      2.073
REMARK  7 active torsions:
REMARK  status: ('A' for Active; 'I' for Inactive)
REMARK    1  A    between atoms: C6_6  and  C8_8 
REMARK    2  A    between atoms: C11_11  and  O1_12 
REMARK    3  A    between atoms: O1_12  and  C12_13 
REMARK    4  A    between atoms: C13_15  and  C14_16 
REMARK    5  A    between atoms: C14_16  and  N2_21 
REMARK    6  A    between atoms: N1_17  and  O2_19 
REMARK    7  A    between atoms: N2_21  and  C15_23 
ROOT
HETATM    1  C15 UNL     1      22.126   9.887  -5.134  1.00  0.00     0.245 C 
HETATM    2  C16 UNL     1      21.805  11.317  -5.081  1.00  0.00     0.078 C 
HETATM    3  N3  UNL     1      21.528  12.445  -5.053  1.00  0.00    -0.196 NA
ENDROOT
BRANCH   1   4
HETATM    4  N2  UNL     1      22.379   9.384  -3.789  1.00  0.00    -0.361 N 
ATOM      5  H2  UNL     1      21.596   9.241  -3.151  1.00  0.00     0.162 HD
BRANCH   4   6
HETATM    6  C14 UNL     1      23.693   9.090  -3.354  1.00  0.00     0.139 C 
HETATM    7  N1  UNL     1      24.580   9.985  -3.268  1.00  0.00    -0.252 N 
ATOM      8  H1  UNL     1      24.303  10.935  -3.516  1.00  0.00     0.196 HD
BRANCH   6   9
HETATM    9  C13 UNL     1      24.014   7.679  -3.014  1.00  0.00     0.056 A 
HETATM   10  S1  UNL     1      24.621   6.444  -3.988  1.00  0.00    -0.058 SA
HETATM   11  C12 UNL     1      24.667   5.137  -2.802  1.00  0.00     0.156 A 
HETATM   12  C18 UNL     1      24.191   5.779  -1.694  1.00  0.00     0.158 A 
HETATM   13  C17 UNL     1      23.857   7.075  -1.799  1.00  0.00     0.068 A 
HETATM   14  F1  UNL     1      24.032   5.057  -0.507  1.00  0.00    -0.203 F 
BRANCH  11  15
HETATM   15  O1  UNL     1      25.080   3.876  -3.067  1.00  0.00    -0.297 OA
BRANCH  15  16
HETATM   16  C11 UNL     1      26.121   3.241  -3.599  1.00  0.00     0.115 A 
HETATM   17  C10 UNL     1      26.956   2.569  -2.656  1.00  0.00     0.041 A 
HETATM   18  C9  UNL     1      28.051   1.895  -3.047  1.00  0.00     0.011 A 
HETATM   19  C8  UNL     1      28.455   1.797  -4.365  1.00  0.00    -0.047 A 
HETATM   20  C20 UNL     1      27.645   2.443  -5.273  1.00  0.00     0.053 A 
HETATM   21  C19 UNL     1      26.522   3.140  -4.904  1.00  0.00     0.150 A 
HETATM   22  F2  UNL     1      25.834   3.716  -5.899  1.00  0.00    -0.203 F 
BRANCH  19  23
HETATM   23  C6  UNL     1      29.706   1.081  -4.692  1.00  0.00    -0.017 C 
HETATM   24  C5  UNL     1      30.363   0.379  -3.568  1.00  0.00     0.015 C 
HETATM   25  C4  UNL     1      31.472   1.056  -2.871  1.00  0.00     0.010 C 
HETATM   26  C2  UNL     1      32.327   1.986  -3.646  1.00  0.00    -0.048 C 
HETATM   27  C1  UNL     1      32.845   3.037  -2.679  1.00  0.00     0.015 C 
HETATM   28  C3  UNL     1      33.578   1.245  -4.154  1.00  0.00     0.015 C 
HETATM   29  C22 UNL     1      31.656   2.711  -4.778  1.00  0.00     0.010 C 
HETATM   30  C21 UNL     1      30.636   1.947  -5.508  1.00  0.00     0.015 C 
HETATM   31  C7  UNL     1      29.283  -0.022  -5.695  1.00  0.00     0.020 C 
ENDBRANCH  19  23
ENDBRANCH  15  16
ENDBRANCH  11  15
ENDBRANCH   6   9
BRANCH   7  32
HETATM   32  O2  UNL     1      25.879   9.800  -2.873  1.00  0.00    -0.288 OA
ATOM     33  H2  UNL     1      26.318  10.251  -2.161  1.00  0.00     0.244 HD
ENDBRANCH   7  32
ENDBRANCH   4   6
ENDBRANCH   1   4
TORSDOF 7
ENDMDL
MODEL 4
REMARK VINA RESULT: -8.699125603      1.275      1.547
REMARK  7 active torsions:
REMARK  status: ('A' for Active; 'I' for Inactive)
REMARK    1  A    between atoms: C6_6  and  C8_8 
REMARK    2  A    between atoms: C11_11  and  O1_12 
REMARK    3  A    between atoms: O1_12  and  C12_13 
REMARK    4  A    between atoms: C13_15  and  C14_16 
REMARK    5  A    between atoms: C14_16  and  N2_21 
REMARK    6  A    between atoms: N1_17  and  O2_19 
REMARK    7  A    between atoms: N2_21  and  C15_23 
ROOT
HETATM    1  C15 UNL     1      25.654  10.011  -4.469  1.00  0.00     0.245 C 
HETATM    2  C16 UNL     1      26.519  11.194  -4.424  1.00  0.00     0.078 C 
HETATM    3  N3  UNL     1      27.207  12.131  -4.415  1.00  0.00    -0.196 NA
ENDROOT
BRANCH   1   4
HETATM    4  N2  UNL     1      24.420  10.269  -3.736  1.00  0.00    -0.361 N 
ATOM      5  H2  UNL     1      24.001  11.198  -3.770  1.00  0.00     0.162 HD
BRANCH   4   6
HETATM    6  C14 UNL     1      23.794   9.251  -2.979  1.00  0.00     0.139 C 
HETATM    7  N1  UNL     1      22.823   9.498  -2.210  1.00  0.00    -0.252 N 
ATOM      8  H1  UNL     1      22.501  10.465  -2.167  1.00  0.00     0.196 HD
BRANCH   6   9
HETATM    9  C13 UNL     1      24.326   7.868  -3.098  1.00  0.00     0.056 A 
HETATM   10  S1  UNL     1      25.425   7.046  -2.119  1.00  0.00    -0.058 SA
HETATM   11  C12 UNL     1      25.497   5.513  -2.991  1.00  0.00     0.156 A 
HETATM   12  C18 UNL     1      24.629   5.759  -4.017  1.00  0.00     0.158 A 
HETATM   13  C17 UNL     1      24.030   6.960  -4.074  1.00  0.00     0.068 A 
HETATM   14  F1  UNL     1      24.426   4.773  -4.987  1.00  0.00    -0.203 F 
BRANCH  11  15
HETATM   15  O1  UNL     1      26.265   4.459  -2.627  1.00  0.00    -0.297 OA
BRANCH  15  16
HETATM   16  C11 UNL     1      27.362   3.819  -3.024  1.00  0.00     0.115 A 
HETATM   17  C10 UNL     1      27.179   2.426  -3.278  1.00  0.00     0.041 A 
HETATM   18  C9  UNL     1      28.202   1.647  -3.674  1.00  0.00     0.011 A 
HETATM   19  C8  UNL     1      29.487   2.118  -3.865  1.00  0.00    -0.047 A 
HETATM   20  C20 UNL     1      29.658   3.463  -3.622  1.00  0.00     0.053 A 
HETATM   21  C19 UNL     1      28.635   4.282  -3.217  1.00  0.00     0.150 A 
HETATM   22  F2  UNL     1      28.954   5.569  -3.021  1.00  0.00    -0.203 F 
BRANCH  19  23
HETATM   23  C6  UNL     1      30.558   1.173  -4.246  1.00  0.00    -0.017 C 
HETATM   24  C5  UNL     1      31.838   1.317  -3.519  1.00  0.00     0.015 C 
HETATM   25  C4  UNL     1      32.922   2.089  -4.153  1.00  0.00     0.010 C 
HETATM   26  C2  UNL     1      33.011   2.091  -5.632  1.00  0.00    -0.048 C 
HETATM   27  C1  UNL     1      33.637   3.412  -6.046  1.00  0.00     0.015 C 
HETATM   28  C3  UNL     1      34.001   1.007  -6.099  1.00  0.00     0.015 C 
HETATM   29  C22 UNL     1      31.710   1.960  -6.372  1.00  0.00     0.010 C 
HETATM   30  C21 UNL     1      30.706   1.090  -5.747  1.00  0.00     0.015 C 
HETATM   31  C7  UNL     1      30.008  -0.226  -3.869  1.00  0.00     0.020 C 
ENDBRANCH  19  23
ENDBRANCH  15  16
ENDBRANCH  11  15
ENDBRANCH   6   9
BRANCH   7  32
HETATM   32  O2  UNL     1      22.160   8.588  -1.428  1.00  0.00    -0.288 OA
ATOM     33  H2  UNL     1      21.746   8.765  -0.591  1.00  0.00     0.244 HD
ENDBRANCH   7  32
ENDBRANCH   4   6
ENDBRANCH   1   4
TORSDOF 7
ENDMDL
MODEL 5
REMARK VINA RESULT: -8.691960281      1.832      2.190
REMARK  7 active torsions:
REMARK  status: ('A' for Active; 'I' for Inactive)
REMARK    1  A    between atoms: C6_6  and  C8_8 
REMARK    2  A    between atoms: C11_11  and  O1_12 
REMARK    3  A    between atoms: O1_12  and  C12_13 
REMARK    4  A    between atoms: C13_15  and  C14_16 
REMARK    5  A    between atoms: C14_16  and  N2_21 
REMARK    6  A    between atoms: N1_17  and  O2_19 
REMARK    7  A    between atoms: N2_21  and  C15_23 
ROOT
HETATM    1  C15 UNL     1      25.062  10.706  -4.555  1.00  0.00     0.245 C 
HETATM    2  C16 UNL     1      26.363  11.383  -4.528  1.00  0.00     0.078 C 
HETATM    3  N3  UNL     1      27.382  11.942  -4.515  1.00  0.00    -0.196 NA
ENDROOT
BRANCH   1   4
HETATM    4  N2  UNL     1      24.804  10.074  -3.266  1.00  0.00    -0.361 N 
ATOM      5  H2  UNL     1      25.378  10.324  -2.461  1.00  0.00     0.162 HD
BRANCH   4   6
HETATM    6  C14 UNL     1      23.770   9.121  -3.114  1.00  0.00     0.139 C 
HETATM    7  N1  UNL     1      22.641   9.434  -2.641  1.00  0.00    -0.252 N 
ATOM      8  H1  UNL     1      22.504  10.411  -2.383  1.00  0.00     0.196 HD
BRANCH   6   9
HETATM    9  C13 UNL     1      24.054   7.717  -3.513  1.00  0.00     0.056 A 
HETATM   10  S1  UNL     1      24.692   6.445  -2.610  1.00  0.00    -0.058 SA
HETATM   11  C12 UNL     1      24.707   5.189  -3.851  1.00  0.00     0.156 A 
HETATM   12  C18 UNL     1      24.196   5.874  -4.917  1.00  0.00     0.158 A 
HETATM   13  C17 UNL     1      23.861   7.164  -4.747  1.00  0.00     0.068 A 
HETATM   14  F1  UNL     1      24.076   5.223  -6.148  1.00  0.00    -0.203 F 
BRANCH  11  15
HETATM   15  O1  UNL     1      25.149   3.925  -3.656  1.00  0.00    -0.297 OA
BRANCH  15  16
HETATM   16  C11 UNL     1      26.278   3.223  -3.727  1.00  0.00     0.115 A 
HETATM   17  C10 UNL     1      26.912   3.242  -5.007  1.00  0.00     0.041 A 
HETATM   18  C9  UNL     1      28.053   2.567  -5.231  1.00  0.00     0.011 A 
HETATM   19  C8  UNL     1      28.696   1.815  -4.266  1.00  0.00    -0.047 A 
HETATM   20  C20 UNL     1      28.083   1.803  -3.032  1.00  0.00     0.053 A 
HETATM   21  C19 UNL     1      26.918   2.479  -2.773  1.00  0.00     0.150 A 
HETATM   22  F2  UNL     1      26.441   2.374  -1.525  1.00  0.00    -0.203 F 
BRANCH  19  23
HETATM   23  C6  UNL     1      29.916   1.062  -4.623  1.00  0.00    -0.017 C 
HETATM   24  C5  UNL     1      30.635   0.422  -3.500  1.00  0.00     0.015 C 
HETATM   25  C4  UNL     1      31.792   1.125  -2.917  1.00  0.00     0.010 C 
HETATM   26  C2  UNL     1      32.606   1.991  -3.800  1.00  0.00    -0.048 C 
HETATM   27  C1  UNL     1      33.196   3.093  -2.935  1.00  0.00     0.015 C 
HETATM   28  C3  UNL     1      33.816   1.202  -4.336  1.00  0.00     0.015 C 
HETATM   29  C22 UNL     1      31.875   2.654  -4.933  1.00  0.00     0.010 C 
HETATM   30  C21 UNL     1      30.803   1.862  -5.548  1.00  0.00     0.015 C 
HETATM   31  C7  UNL     1      29.419  -0.095  -5.526  1.00  0.00     0.020 C 
ENDBRANCH  19  23
ENDBRANCH  15  16
ENDBRANCH  11  15
ENDBRANCH   6   9
BRANCH   7  32
HETATM   32  O2  UNL     1      21.585   8.585  -2.442  1.00  0.00    -0.288 OA
ATOM     33  H2  UNL     1      20.837   8.743  -1.877  1.00  0.00     0.244 HD
ENDBRANCH   7  32
ENDBRANCH   4   6
ENDBRANCH   1   4
TORSDOF 7
ENDMDL
