MODEL 1
REMARK VINA RESULT: -8.293996435      0.000      0.000
REMARK  10 active torsions:
REMARK  status: ('A' for Active; 'I' for Inactive)
REMARK    1  A    between atoms: C3_5  and  N3_6 
REMARK    2  A    between atoms: N3_6  and  O1_8 
REMARK    3  A    between atoms: C5_12  and  C6_13 
REMARK       I    between atoms: C6_13  and  N5_15 
REMARK    4  A    between atoms: N5_15  and  C7_17 
REMARK    5  A    between atoms: C8_18  and  N6_19 
REMARK    6  A    between atoms: N8_28  and  C11_29 
REMARK    7  A    between atoms: C11_29  and  C12_30 
REMARK       I    between atoms: C12_30  and  N9_32 
REMARK    8  A    between atoms: N9_32  and  C13_34 
REMARK    9  A    between atoms: C13_34  and  C14_35 
REMARK   10  A    between atoms: C13_34  and  C15_38 
ROOT
HETATM    1  C7  UNL     1      29.292 -18.529 -42.515  1.00  0.00     0.154 A 
HETATM    2  C8  UNL     1      30.635 -18.463 -43.017  1.00  0.00     0.214 A 
HETATM    3  C9  UNL     1      31.720 -18.804 -42.258  1.00  0.00     0.286 A 
HETATM    4  O5  UNL     1      32.904 -18.747 -42.697  1.00  0.00    -0.265 OA
HETATM    5  N7  UNL     1      31.526 -19.214 -41.009  1.00  0.00    -0.273 N 
ATOM      6  H7  UNL     1      32.321 -19.474 -40.426  1.00  0.00     0.173 HD
HETATM    7  C10 UNL     1      30.294 -19.283 -40.523  1.00  0.00     0.331 A 
HETATM    8  O6  UNL     1      30.161 -19.676 -39.336  1.00  0.00    -0.246 OA
HETATM    9  N8  UNL     1      29.186 -18.938 -41.285  1.00  0.00    -0.274 N 
ENDROOT
BRANCH   1  10
HETATM   10  N5  UNL     1      28.326 -18.029 -43.354  1.00  0.00    -0.305 N 
HETATM   11  C6  UNL     1      27.492 -18.390 -44.379  1.00  0.00     0.276 C 
HETATM   12  O2  UNL     1      27.600 -19.508 -45.005  1.00  0.00    -0.266 OA
ATOM     13  H5  UNL     1      28.177 -17.043 -43.138  1.00  0.00     0.170 HD
BRANCH  11  14
HETATM   14  C5  UNL     1      26.373 -17.588 -44.918  1.00  0.00     0.131 A 
HETATM   15  N1  UNL     1      26.344 -16.463 -45.609  1.00  0.00    -0.332 N 
HETATM   16  C1  UNL     1      27.416 -15.625 -46.079  1.00  0.00     0.158 C 
HETATM   17  C2  UNL     1      25.035 -16.099 -45.857  1.00  0.00     0.149 A 
HETATM   18  N2  UNL     1      24.639 -14.941 -46.581  1.00  0.00    -0.080 NA
HETATM   19  C3  UNL     1      24.239 -17.052 -45.285  1.00  0.00     0.122 A 
HETATM   20  C4  UNL     1      25.033 -17.981 -44.698  1.00  0.00     0.110 A 
HETATM   21  N4  UNL     1      24.577 -19.109 -44.014  1.00  0.00    -0.097 NA
BRANCH  19  22
HETATM   22  N3  UNL     1      22.817 -17.012 -45.333  1.00  0.00    -0.264 N 
ATOM     23  H3  UNL     1      22.321 -16.995 -46.224  1.00  0.00     0.194 HD
BRANCH  22  24
HETATM   24  O1  UNL     1      22.192 -17.000 -44.242  1.00  0.00    -0.289 OA
ATOM     25  H1  UNL     1      21.660 -16.238 -44.044  1.00  0.00     0.244 HD
ENDBRANCH  22  24
ENDBRANCH  19  22
ENDBRANCH  11  14
ENDBRANCH   1  10
BRANCH   2  26
HETATM   26  N6  UNL     1      30.814 -18.046 -44.347  1.00  0.00    -0.106 N 
HETATM   27  O3  UNL     1      31.203 -18.853 -45.195  1.00  0.00    -0.531 OA
HETATM   28  O4  UNL     1      30.560 -16.757 -44.697  1.00  0.00    -0.531 OA
ENDBRANCH   2  26
BRANCH   9  29
HETATM   29  C11 UNL     1      27.962 -19.089 -40.561  1.00  0.00     0.238 C 
BRANCH  29  30
HETATM   30  C12 UNL     1      27.386 -20.432 -40.935  1.00  0.00     0.237 C 
HETATM   31  O7  UNL     1      26.592 -20.562 -41.902  1.00  0.00    -0.272 OA
HETATM   32  N9  UNL     1      27.725 -21.595 -40.202  1.00  0.00    -0.341 N 
ATOM     33  H9  UNL     1      28.368 -21.518 -39.414  1.00  0.00     0.163 HD
BRANCH  32  34
HETATM   34  C13 UNL     1      27.180 -22.893 -40.547  1.00  0.00     0.220 C 
BRANCH  34  35
HETATM   35  C14 UNL     1      28.252 -23.901 -40.578  1.00  0.00     0.201 C 
HETATM   36  O8  UNL     1      27.982 -25.119 -40.574  1.00  0.00    -0.646 OA
HETATM   37  O9  UNL     1      29.566 -23.492 -40.613  1.00  0.00    -0.646 OA
ENDBRANCH  34  35
BRANCH  34  38
HETATM   38  C15 UNL     1      26.110 -23.253 -39.576  1.00  0.00    -0.009 A 
HETATM   39  C16 UNL     1      26.282 -23.815 -38.306  1.00  0.00     0.028 A 
HETATM   40  C17 UNL     1      24.997 -23.960 -37.802  1.00  0.00     0.088 A 
HETATM   41  N10 UNL     1      24.107 -23.508 -38.724  1.00  0.00    -0.375 N 
HETATM   42  C18 UNL     1      24.768 -23.070 -39.816  1.00  0.00     0.097 A 
ATOM     43  H10 UNL     1      23.094 -23.500 -38.607  1.00  0.00     0.164 HD
ENDBRANCH  34  38
ENDBRANCH  32  34
ENDBRANCH  29  30
ENDBRANCH   9  29
TORSDOF 10
ENDMDL
MODEL 2
REMARK VINA RESULT: -8.188563184      4.047      7.904
REMARK  10 active torsions:
REMARK  status: ('A' for Active; 'I' for Inactive)
REMARK    1  A    between atoms: C3_5  and  N3_6 
REMARK    2  A    between atoms: N3_6  and  O1_8 
REMARK    3  A    between atoms: C5_12  and  C6_13 
REMARK       I    between atoms: C6_13  and  N5_15 
REMARK    4  A    between atoms: N5_15  and  C7_17 
REMARK    5  A    between atoms: C8_18  and  N6_19 
REMARK    6  A    between atoms: N8_28  and  C11_29 
REMARK    7  A    between atoms: C11_29  and  C12_30 
REMARK       I    between atoms: C12_30  and  N9_32 
REMARK    8  A    between atoms: N9_32  and  C13_34 
REMARK    9  A    between atoms: C13_34  and  C14_35 
REMARK   10  A    between atoms: C13_34  and  C15_38 
ROOT
HETATM    1  C7  UNL     1      26.766 -16.954 -45.201  1.00  0.00     0.154 A 
HETATM    2  C8  UNL     1      27.792 -17.422 -44.313  1.00  0.00     0.214 A 
HETATM    3  C9  UNL     1      27.761 -18.666 -43.745  1.00  0.00     0.286 A 
HETATM    4  O5  UNL     1      28.663 -19.080 -42.962  1.00  0.00    -0.265 OA
HETATM    5  N7  UNL     1      26.744 -19.473 -44.026  1.00  0.00    -0.273 N 
ATOM      6  H7  UNL     1      26.702 -20.405 -43.614  1.00  0.00     0.173 HD
HETATM    7  C10 UNL     1      25.784 -19.063 -44.843  1.00  0.00     0.331 A 
HETATM    8  O6  UNL     1      24.843 -19.863 -45.079  1.00  0.00    -0.246 OA
HETATM    9  N8  UNL     1      25.806 -17.802 -45.424  1.00  0.00    -0.274 N 
ENDROOT
BRANCH   1  10
HETATM   10  N5  UNL     1      26.874 -15.638 -45.582  1.00  0.00    -0.305 N 
HETATM   11  C6  UNL     1      27.461 -14.829 -46.517  1.00  0.00     0.276 C 
HETATM   12  O2  UNL     1      28.376 -15.242 -47.321  1.00  0.00    -0.266 OA
ATOM     13  H5  UNL     1      26.323 -15.062 -44.945  1.00  0.00     0.170 HD
BRANCH  11  14
HETATM   14  C5  UNL     1      27.155 -13.401 -46.752  1.00  0.00     0.131 A 
HETATM   15  N1  UNL     1      27.854 -12.301 -46.538  1.00  0.00    -0.332 N 
HETATM   16  C1  UNL     1      29.174 -12.122 -45.994  1.00  0.00     0.158 C 
HETATM   17  C2  UNL     1      27.111 -11.196 -46.906  1.00  0.00     0.149 A 
HETATM   18  N2  UNL     1      27.561  -9.850 -46.813  1.00  0.00    -0.080 NA
HETATM   19  C3  UNL     1      25.908 -11.656 -47.362  1.00  0.00     0.122 A 
HETATM   20  C4  UNL     1      25.903 -13.009 -47.279  1.00  0.00     0.110 A 
HETATM   21  N4  UNL     1      24.842 -13.832 -47.657  1.00  0.00    -0.097 NA
BRANCH  19  22
HETATM   22  N3  UNL     1      24.872 -10.799 -47.831  1.00  0.00    -0.264 N 
ATOM     23  H3  UNL     1      24.637  -9.938 -47.337  1.00  0.00     0.194 HD
BRANCH  22  24
HETATM   24  O1  UNL     1      24.256 -11.138 -48.873  1.00  0.00    -0.289 OA
ATOM     25  H1  UNL     1      23.451 -10.678 -49.083  1.00  0.00     0.244 HD
ENDBRANCH  22  24
ENDBRANCH  19  22
ENDBRANCH  11  14
ENDBRANCH   1  10
BRANCH   2  26
HETATM   26  N6  UNL     1      28.868 -16.557 -44.046  1.00  0.00    -0.106 N 
HETATM   27  O3  UNL     1      29.907 -16.651 -44.703  1.00  0.00    -0.531 OA
HETATM   28  O4  UNL     1      28.762 -15.621 -43.066  1.00  0.00    -0.531 OA
ENDBRANCH   2  26
BRANCH   9  29
HETATM   29  C11 UNL     1      24.674 -17.575 -46.269  1.00  0.00     0.238 C 
BRANCH  29  30
HETATM   30  C12 UNL     1      23.639 -16.855 -45.441  1.00  0.00     0.237 C 
HETATM   31  O7  UNL     1      22.948 -17.458 -44.580  1.00  0.00    -0.272 OA
HETATM   32  N9  UNL     1      23.413 -15.468 -45.610  1.00  0.00    -0.341 N 
ATOM     33  H9  UNL     1      23.961 -14.955 -46.301  1.00  0.00     0.163 HD
BRANCH  32  34
HETATM   34  C13 UNL     1      22.422 -14.760 -44.825  1.00  0.00     0.220 C 
BRANCH  34  35
HETATM   35  C14 UNL     1      23.019 -14.280 -43.569  1.00  0.00     0.201 C 
HETATM   36  O8  UNL     1      24.254 -14.315 -43.394  1.00  0.00    -0.646 OA
HETATM   37  O9  UNL     1      22.202 -13.786 -42.576  1.00  0.00    -0.646 OA
ENDBRANCH  34  35
BRANCH  34  38
HETATM   38  C15 UNL     1      21.858 -13.643 -45.633  1.00  0.00    -0.009 A 
HETATM   39  C16 UNL     1      22.405 -12.365 -45.797  1.00  0.00     0.028 A 
HETATM   40  C17 UNL     1      21.515 -11.700 -46.629  1.00  0.00     0.088 A 
HETATM   41  N10 UNL     1      20.493 -12.538 -46.943  1.00  0.00    -0.375 N 
HETATM   42  C18 UNL     1      20.684 -13.732 -46.344  1.00  0.00     0.097 A 
ATOM     43  H10 UNL     1      19.702 -12.300 -47.541  1.00  0.00     0.164 HD
ENDBRANCH  34  38
ENDBRANCH  32  34
ENDBRANCH  29  30
ENDBRANCH   9  29
TORSDOF 10
ENDMDL
MODEL 3
REMARK VINA RESULT: -8.188275792      2.182      7.179
REMARK  10 active torsions:
REMARK  status: ('A' for Active; 'I' for Inactive)
REMARK    1  A    between atoms: C3_5  and  N3_6 
REMARK    2  A    between atoms: N3_6  and  O1_8 
REMARK    3  A    between atoms: C5_12  and  C6_13 
REMARK       I    between atoms: C6_13  and  N5_15 
REMARK    4  A    between atoms: N5_15  and  C7_17 
REMARK    5  A    between atoms: C8_18  and  N6_19 
REMARK    6  A    between atoms: N8_28  and  C11_29 
REMARK    7  A    between atoms: C11_29  and  C12_30 
REMARK       I    between atoms: C12_30  and  N9_32 
REMARK    8  A    between atoms: N9_32  and  C13_34 
REMARK    9  A    between atoms: C13_34  and  C14_35 
REMARK   10  A    between atoms: C13_34  and  C15_38 
ROOT
HETATM    1  C7  UNL     1      26.462 -16.698 -44.849  1.00  0.00     0.154 A 
HETATM    2  C8  UNL     1      25.216 -16.565 -45.548  1.00  0.00     0.214 A 
HETATM    3  C9  UNL     1      24.966 -15.536 -46.414  1.00  0.00     0.286 A 
HETATM    4  O5  UNL     1      23.869 -15.416 -47.030  1.00  0.00    -0.265 OA
HETATM    5  N7  UNL     1      25.912 -14.626 -46.619  1.00  0.00    -0.273 N 
ATOM      6  H7  UNL     1      25.746 -13.851 -47.261  1.00  0.00     0.173 HD
HETATM    7  C10 UNL     1      27.071 -14.728 -45.984  1.00  0.00     0.331 A 
HETATM    8  O6  UNL     1      27.935 -13.842 -46.210  1.00  0.00    -0.246 OA
HETATM    9  N8  UNL     1      27.335 -15.768 -45.103  1.00  0.00    -0.274 N 
ENDROOT
BRANCH   1  10
HETATM   10  N5  UNL     1      26.509 -17.708 -43.918  1.00  0.00    -0.305 N 
HETATM   11  C6  UNL     1      26.948 -18.992 -43.739  1.00  0.00     0.276 C 
HETATM   12  O2  UNL     1      27.365 -19.729 -44.707  1.00  0.00    -0.266 OA
ATOM     13  H5  UNL     1      26.060 -17.388 -43.060  1.00  0.00     0.170 HD
BRANCH  11  14
HETATM   14  C5  UNL     1      27.014 -19.721 -42.454  1.00  0.00     0.131 A 
HETATM   15  N1  UNL     1      26.264 -20.681 -41.943  1.00  0.00    -0.332 N 
HETATM   16  C1  UNL     1      25.109 -21.352 -42.478  1.00  0.00     0.158 C 
HETATM   17  C2  UNL     1      26.725 -21.015 -40.684  1.00  0.00     0.149 A 
HETATM   18  N2  UNL     1      26.153 -22.016 -39.852  1.00  0.00    -0.080 NA
HETATM   19  C3  UNL     1      27.803 -20.215 -40.427  1.00  0.00     0.122 A 
HETATM   20  C4  UNL     1      28.006 -19.407 -41.497  1.00  0.00     0.110 A 
HETATM   21  N4  UNL     1      29.019 -18.454 -41.601  1.00  0.00    -0.097 NA
BRANCH  19  22
HETATM   22  N3  UNL     1      28.545 -20.273 -39.214  1.00  0.00    -0.264 N 
ATOM     23  H3  UNL     1      28.103 -20.073 -38.317  1.00  0.00     0.194 HD
BRANCH  22  24
HETATM   24  O1  UNL     1      29.764 -20.577 -39.284  1.00  0.00    -0.289 OA
ATOM     25  H1  UNL     1      30.102 -21.201 -38.653  1.00  0.00     0.244 HD
ENDBRANCH  22  24
ENDBRANCH  19  22
ENDBRANCH  11  14
ENDBRANCH   1  10
BRANCH   2  26
HETATM   26  N6  UNL     1      24.237 -17.551 -45.331  1.00  0.00    -0.106 N 
HETATM   27  O3  UNL     1      24.221 -18.563 -46.035  1.00  0.00    -0.531 OA
HETATM   28  O4  UNL     1      23.313 -17.387 -44.348  1.00  0.00    -0.531 OA
ENDBRANCH   2  26
BRANCH   9  29
HETATM   29  C11 UNL     1      28.645 -15.678 -44.535  1.00  0.00     0.238 C 
BRANCH  29  30
HETATM   30  C12 UNL     1      29.445 -16.836 -45.078  1.00  0.00     0.237 C 
HETATM   31  O7  UNL     1      29.399 -17.156 -46.293  1.00  0.00    -0.272 OA
HETATM   32  N9  UNL     1      30.280 -17.601 -44.227  1.00  0.00    -0.341 N 
ATOM     33  H9  UNL     1      30.336 -17.361 -43.238  1.00  0.00     0.163 HD
BRANCH  32  34
HETATM   34  C13 UNL     1      31.055 -18.717 -44.731  1.00  0.00     0.220 C 
BRANCH  34  35
HETATM   35  C14 UNL     1      32.389 -18.260 -45.150  1.00  0.00     0.201 C 
HETATM   36  O8  UNL     1      32.827 -17.150 -44.785  1.00  0.00    -0.646 OA
HETATM   37  O9  UNL     1      33.161 -19.070 -45.953  1.00  0.00    -0.646 OA
ENDBRANCH  34  35
BRANCH  34  38
HETATM   38  C15 UNL     1      31.134 -19.775 -43.685  1.00  0.00    -0.009 A 
HETATM   39  C16 UNL     1      30.518 -21.031 -43.712  1.00  0.00     0.028 A 
HETATM   40  C17 UNL     1      30.892 -21.638 -42.522  1.00  0.00     0.088 A 
HETATM   41  N10 UNL     1      31.689 -20.789 -41.823  1.00  0.00    -0.375 N 
HETATM   42  C18 UNL     1      31.850 -19.642 -42.518  1.00  0.00     0.097 A 
ATOM     43  H10 UNL     1      32.103 -20.987 -40.913  1.00  0.00     0.164 HD
ENDBRANCH  34  38
ENDBRANCH  32  34
ENDBRANCH  29  30
ENDBRANCH   9  29
TORSDOF 10
ENDMDL
MODEL 4
REMARK VINA RESULT: -8.054432052      3.660      7.800
REMARK  10 active torsions:
REMARK  status: ('A' for Active; 'I' for Inactive)
REMARK    1  A    between atoms: C3_5  and  N3_6 
REMARK    2  A    between atoms: N3_6  and  O1_8 
REMARK    3  A    between atoms: C5_12  and  C6_13 
REMARK       I    between atoms: C6_13  and  N5_15 
REMARK    4  A    between atoms: N5_15  and  C7_17 
REMARK    5  A    between atoms: C8_18  and  N6_19 
REMARK    6  A    between atoms: N8_28  and  C11_29 
REMARK    7  A    between atoms: C11_29  and  C12_30 
REMARK       I    between atoms: C12_30  and  N9_32 
REMARK    8  A    between atoms: N9_32  and  C13_34 
REMARK    9  A    between atoms: C13_34  and  C14_35 
REMARK   10  A    between atoms: C13_34  and  C15_38 
ROOT
HETATM    1  C7  UNL     1      26.991 -17.441 -44.845  1.00  0.00     0.154 A 
HETATM    2  C8  UNL     1      27.871 -17.715 -43.745  1.00  0.00     0.214 A 
HETATM    3  C9  UNL     1      27.664 -18.754 -42.880  1.00  0.00     0.286 A 
HETATM    4  O5  UNL     1      28.438 -18.997 -41.911  1.00  0.00    -0.265 OA
HETATM    5  N7  UNL     1      26.610 -19.541 -43.063  1.00  0.00    -0.273 N 
ATOM      6  H7  UNL     1      26.437 -20.321 -42.431  1.00  0.00     0.173 HD
HETATM    7  C10 UNL     1      25.782 -19.307 -44.073  1.00  0.00     0.331 A 
HETATM    8  O6  UNL     1      24.798 -20.079 -44.205  1.00  0.00    -0.246 OA
HETATM    9  N8  UNL     1      25.983 -18.255 -44.956  1.00  0.00    -0.274 N 
ENDROOT
BRANCH   1  10
HETATM   10  N5  UNL     1      27.261 -16.287 -45.541  1.00  0.00    -0.305 N 
HETATM   11  C6  UNL     1      28.024 -15.799 -46.568  1.00  0.00     0.276 C 
HETATM   12  O2  UNL     1      28.985 -16.466 -47.102  1.00  0.00    -0.266 OA
ATOM     13  H5  UNL     1      26.695 -15.529 -45.160  1.00  0.00     0.170 HD
BRANCH  11  14
HETATM   14  C5  UNL     1      27.879 -14.475 -47.210  1.00  0.00     0.131 A 
HETATM   15  N1  UNL     1      28.176 -14.043 -48.422  1.00  0.00    -0.332 N 
HETATM   16  C1  UNL     1      28.753 -14.733 -49.546  1.00  0.00     0.158 C 
HETATM   17  C2  UNL     1      27.870 -12.700 -48.530  1.00  0.00     0.149 A 
HETATM   18  N2  UNL     1      28.059 -11.918 -49.702  1.00  0.00    -0.080 NA
HETATM   19  C3  UNL     1      27.365 -12.307 -47.322  1.00  0.00     0.122 A 
HETATM   20  C4  UNL     1      27.359 -13.376 -46.488  1.00  0.00     0.110 A 
HETATM   21  N4  UNL     1      26.910 -13.360 -45.167  1.00  0.00    -0.097 NA
BRANCH  19  22
HETATM   22  N3  UNL     1      26.937 -10.977 -47.052  1.00  0.00    -0.264 N 
ATOM     23  H3  UNL     1      27.306 -10.456 -46.256  1.00  0.00     0.194 HD
BRANCH  22  24
HETATM   24  O1  UNL     1      26.089 -10.464 -47.826  1.00  0.00    -0.289 OA
ATOM     25  H1  UNL     1      26.408  -9.934 -48.547  1.00  0.00     0.244 HD
ENDBRANCH  22  24
ENDBRANCH  19  22
ENDBRANCH  11  14
ENDBRANCH   1  10
BRANCH   2  26
HETATM   26  N6  UNL     1      28.991 -16.881 -43.583  1.00  0.00    -0.106 N 
HETATM   27  O3  UNL     1      30.087 -17.232 -44.027  1.00  0.00    -0.531 OA
HETATM   28  O4  UNL     1      28.866 -15.691 -42.938  1.00  0.00    -0.531 OA
ENDBRANCH   2  26
BRANCH   9  29
HETATM   29  C11 UNL     1      24.970 -18.193 -45.964  1.00  0.00     0.238 C 
BRANCH  29  30
HETATM   30  C12 UNL     1      23.944 -17.188 -45.504  1.00  0.00     0.237 C 
HETATM   31  O7  UNL     1      22.981 -17.520 -44.766  1.00  0.00    -0.272 OA
HETATM   32  N9  UNL     1      24.037 -15.829 -45.892  1.00  0.00    -0.341 N 
ATOM     33  H9  UNL     1      24.809 -15.533 -46.489  1.00  0.00     0.163 HD
BRANCH  32  34
HETATM   34  C13 UNL     1      23.060 -14.850 -45.460  1.00  0.00     0.220 C 
BRANCH  34  35
HETATM   35  C14 UNL     1      23.273 -14.511 -44.045  1.00  0.00     0.201 C 
HETATM   36  O8  UNL     1      24.395 -14.652 -43.517  1.00  0.00    -0.646 OA
HETATM   37  O9  UNL     1      22.220 -14.033 -43.296  1.00  0.00    -0.646 OA
ENDBRANCH  34  35
BRANCH  34  38
HETATM   38  C15 UNL     1      23.145 -13.648 -46.336  1.00  0.00    -0.009 A 
HETATM   39  C16 UNL     1      22.564 -12.396 -46.104  1.00  0.00     0.028 A 
HETATM   40  C17 UNL     1      22.929 -11.625 -47.198  1.00  0.00     0.088 A 
HETATM   41  N10 UNL     1      23.686 -12.378 -48.038  1.00  0.00    -0.375 N 
HETATM   42  C18 UNL     1      23.831 -13.619 -47.529  1.00  0.00     0.097 A 
ATOM     43  H10 UNL     1      24.085 -12.054 -48.919  1.00  0.00     0.164 HD
ENDBRANCH  34  38
ENDBRANCH  32  34
ENDBRANCH  29  30
ENDBRANCH   9  29
TORSDOF 10
ENDMDL
MODEL 5
REMARK VINA RESULT: -8.022353823      3.345      9.879
REMARK  10 active torsions:
REMARK  status: ('A' for Active; 'I' for Inactive)
REMARK    1  A    between atoms: C3_5  and  N3_6 
REMARK    2  A    between atoms: N3_6  and  O1_8 
REMARK    3  A    between atoms: C5_12  and  C6_13 
REMARK       I    between atoms: C6_13  and  N5_15 
REMARK    4  A    between atoms: N5_15  and  C7_17 
REMARK    5  A    between atoms: C8_18  and  N6_19 
REMARK    6  A    between atoms: N8_28  and  C11_29 
REMARK    7  A    between atoms: C11_29  and  C12_30 
REMARK       I    between atoms: C12_30  and  N9_32 
REMARK    8  A    between atoms: N9_32  and  C13_34 
REMARK    9  A    between atoms: C13_34  and  C14_35 
REMARK   10  A    between atoms: C13_34  and  C15_38 
ROOT
HETATM    1  C7  UNL     1      25.209 -15.933 -45.529  1.00  0.00     0.154 A 
HETATM    2  C8  UNL     1      23.818 -15.641 -45.333  1.00  0.00     0.214 A 
HETATM    3  C9  UNL     1      23.185 -14.613 -45.975  1.00  0.00     0.286 A 
HETATM    4  O5  UNL     1      21.960 -14.354 -45.803  1.00  0.00    -0.265 OA
HETATM    5  N7  UNL     1      23.883 -13.854 -46.813  1.00  0.00    -0.273 N 
ATOM      6  H7  UNL     1      23.430 -13.083 -47.303  1.00  0.00     0.173 HD
HETATM    7  C10 UNL     1      25.170 -14.104 -47.011  1.00  0.00     0.331 A 
HETATM    8  O6  UNL     1      25.788 -13.358 -47.814  1.00  0.00    -0.246 OA
HETATM    9  N8  UNL     1      25.822 -15.145 -46.364  1.00  0.00    -0.274 N 
ENDROOT
BRANCH   1  10
HETATM   10  N5  UNL     1      25.726 -16.912 -44.715  1.00  0.00    -0.305 N 
HETATM   11  C6  UNL     1      26.378 -18.115 -44.752  1.00  0.00     0.276 C 
HETATM   12  O2  UNL     1      26.525 -18.795 -45.833  1.00  0.00    -0.266 OA
ATOM     13  H5  UNL     1      25.569 -16.650 -43.741  1.00  0.00     0.170 HD
BRANCH  11  14
HETATM   14  C5  UNL     1      26.997 -18.808 -43.602  1.00  0.00     0.131 A 
HETATM   15  N1  UNL     1      28.208 -18.742 -43.078  1.00  0.00    -0.332 N 
HETATM   16  C1  UNL     1      29.351 -17.956 -43.459  1.00  0.00     0.158 C 
HETATM   17  C2  UNL     1      28.305 -19.616 -42.012  1.00  0.00     0.149 A 
HETATM   18  N2  UNL     1      29.469 -19.796 -41.216  1.00  0.00    -0.080 NA
HETATM   19  C3  UNL     1      27.094 -20.237 -41.892  1.00  0.00     0.122 A 
HETATM   20  C4  UNL     1      26.268 -19.763 -42.857  1.00  0.00     0.110 A 
HETATM   21  N4  UNL     1      24.945 -20.163 -43.048  1.00  0.00    -0.097 NA
BRANCH  19  22
HETATM   22  N3  UNL     1      26.814 -21.215 -40.896  1.00  0.00    -0.264 N 
ATOM     23  H3  UNL     1      27.377 -22.062 -40.817  1.00  0.00     0.194 HD
BRANCH  22  24
HETATM   24  O1  UNL     1      25.850 -21.000 -40.117  1.00  0.00    -0.289 OA
ATOM     25  H1  UNL     1      25.249 -21.716 -39.947  1.00  0.00     0.244 HD
ENDBRANCH  22  24
ENDBRANCH  19  22
ENDBRANCH  11  14
ENDBRANCH   1  10
BRANCH   2  26
HETATM   26  N6  UNL     1      23.096 -16.470 -44.456  1.00  0.00    -0.106 N 
HETATM   27  O3  UNL     1      22.852 -16.085 -43.310  1.00  0.00    -0.531 OA
HETATM   28  O4  UNL     1      22.668 -17.691 -44.872  1.00  0.00    -0.531 OA
ENDBRANCH   2  26
BRANCH   9  29
HETATM   29  C11 UNL     1      27.203 -15.229 -46.727  1.00  0.00     0.238 C 
BRANCH  29  30
HETATM   30  C12 UNL     1      27.910 -14.078 -46.056  1.00  0.00     0.237 C 
HETATM   31  O7  UNL     1      27.875 -13.920 -44.809  1.00  0.00    -0.272 OA
HETATM   32  N9  UNL     1      28.641 -13.135 -46.819  1.00  0.00    -0.341 N 
ATOM     33  H9  UNL     1      28.687 -13.241 -47.832  1.00  0.00     0.163 HD
BRANCH  32  34
HETATM   34  C13 UNL     1      29.326 -12.022 -46.191  1.00  0.00     0.220 C 
BRANCH  34  35
HETATM   35  C14 UNL     1      30.772 -12.105 -46.450  1.00  0.00     0.201 C 
HETATM   36  O8  UNL     1      31.282 -13.156 -46.888  1.00  0.00    -0.646 OA
HETATM   37  O9  UNL     1      31.568 -11.008 -46.205  1.00  0.00    -0.646 OA
ENDBRANCH  34  35
BRANCH  34  38
HETATM   38  C15 UNL     1      28.747 -10.743 -46.688  1.00  0.00    -0.009 A 
HETATM   39  C16 UNL     1      28.619 -10.341 -48.023  1.00  0.00     0.028 A 
HETATM   40  C17 UNL     1      28.028  -9.087 -47.963  1.00  0.00     0.088 A 
HETATM   41  N10 UNL     1      27.815  -8.760 -46.662  1.00  0.00    -0.375 N 
HETATM   42  C18 UNL     1      28.248  -9.759 -45.866  1.00  0.00     0.097 A 
ATOM     43  H10 UNL     1      27.393  -7.890 -46.337  1.00  0.00     0.164 HD
ENDBRANCH  34  38
ENDBRANCH  32  34
ENDBRANCH  29  30
ENDBRANCH   9  29
TORSDOF 10
ENDMDL
