MODEL 1
REMARK VINA RESULT: -4.771734177      0.000      0.000
REMARK  5 active torsions:
REMARK  status: ('A' for Active; 'I' for Inactive)
REMARK    1  A    between atoms: N1_1  and  C1_4 
REMARK    2  A    between atoms: C2_5  and  C3_6 
REMARK    3  A    between atoms: C4_7  and  C5_8 
REMARK    4  A    between atoms: C6_9  and  C7_10 
REMARK    5  A    between atoms: C7_10  and  N2_11 
ROOT
HETATM    1  C3  UNL     1     -15.787  16.759  -3.951  1.00  0.00     0.001 C 
HETATM    2  C4  UNL     1     -16.573  16.222  -4.711  1.00  0.00    -0.001 C 
ENDROOT
BRANCH   2   3
HETATM    3  C5  UNL     1     -17.505  15.614  -5.593  1.00  0.00    -0.013 C 
HETATM    4  C6  UNL     1     -18.311  15.113  -6.348  1.00  0.00    -0.065 C 
BRANCH   4   5
HETATM    5  C7  UNL     1     -19.284  14.531  -7.268  1.00  0.00     0.324 C 
BRANCH   5   6
HETATM    6  N2  UNL     1     -20.520  14.335  -6.580  1.00  0.00    -0.069 N 
ATOM      7  H23 UNL     1     -20.661  13.364  -6.305  1.00  0.00     0.275 HD
ATOM      8  H22 UNL     1     -20.516  14.750  -5.648  1.00  0.00     0.275 HD
ATOM      9  H21 UNL     1     -21.283  14.688  -7.158  1.00  0.00     0.275 HD
ENDBRANCH   5   6
ENDBRANCH   4   5
ENDBRANCH   2   3
BRANCH   1  10
HETATM   10  C2  UNL     1     -14.884  17.403  -3.068  1.00  0.00     0.009 C 
HETATM   11  C1  UNL     1     -14.094  17.954  -2.325  1.00  0.00     0.017 C 
BRANCH  11  12
HETATM   12  N1  UNL     1     -13.172  18.582  -1.485  1.00  0.00    -0.359 N 
ATOM     13  H12 UNL     1     -13.563  18.599  -2.427  1.00  0.00     0.166 HD
ATOM     14  H11 UNL     1     -12.502  19.032  -0.860  1.00  0.00     0.166 HD
ENDBRANCH  11  12
ENDBRANCH   1  10
TORSDOF 5
ENDMDL
MODEL 2
REMARK VINA RESULT: -4.590057169      1.677      6.575
REMARK  5 active torsions:
REMARK  status: ('A' for Active; 'I' for Inactive)
REMARK    1  A    between atoms: N1_1  and  C1_4 
REMARK    2  A    between atoms: C2_5  and  C3_6 
REMARK    3  A    between atoms: C4_7  and  C5_8 
REMARK    4  A    between atoms: C6_9  and  C7_10 
REMARK    5  A    between atoms: C7_10  and  N2_11 
ROOT
HETATM    1  C3  UNL     1     -18.299  15.502  -4.930  1.00  0.00     0.001 C 
HETATM    2  C4  UNL     1     -17.426  15.527  -4.080  1.00  0.00    -0.001 C 
ENDROOT
BRANCH   2   3
HETATM    3  C5  UNL     1     -16.409  15.579  -3.091  1.00  0.00    -0.013 C 
HETATM    4  C6  UNL     1     -15.533  15.640  -2.254  1.00  0.00    -0.065 C 
BRANCH   4   5
HETATM    5  C7  UNL     1     -14.479  15.738  -1.249  1.00  0.00     0.324 C 
BRANCH   5   6
HETATM    6  N2  UNL     1     -13.710  16.917  -1.490  1.00  0.00    -0.069 N 
ATOM      7  H23 UNL     1     -14.295  17.725  -1.703  1.00  0.00     0.275 HD
ATOM      8  H22 UNL     1     -13.273  17.276  -0.640  1.00  0.00     0.275 HD
ATOM      9  H21 UNL     1     -13.029  16.728  -2.225  1.00  0.00     0.275 HD
ENDBRANCH   5   6
ENDBRANCH   4   5
ENDBRANCH   2   3
BRANCH   1  10
HETATM   10  C2  UNL     1     -19.317  15.497  -5.916  1.00  0.00     0.009 C 
HETATM   11  C1  UNL     1     -20.184  15.512  -6.769  1.00  0.00     0.017 C 
BRANCH  11  12
HETATM   12  N1  UNL     1     -21.176  15.549  -7.752  1.00  0.00    -0.359 N 
ATOM     13  H12 UNL     1     -20.862  15.997  -6.890  1.00  0.00     0.166 HD
ATOM     14  H11 UNL     1     -21.894  15.566  -8.477  1.00  0.00     0.166 HD
ENDBRANCH  11  12
ENDBRANCH   1  10
TORSDOF 5
ENDMDL
MODEL 3
REMARK VINA RESULT: -4.537224640      1.741      6.535
REMARK  5 active torsions:
REMARK  status: ('A' for Active; 'I' for Inactive)
REMARK    1  A    between atoms: N1_1  and  C1_4 
REMARK    2  A    between atoms: C2_5  and  C3_6 
REMARK    3  A    between atoms: C4_7  and  C5_8 
REMARK    4  A    between atoms: C6_9  and  C7_10 
REMARK    5  A    between atoms: C7_10  and  N2_11 
ROOT
HETATM    1  C3  UNL     1     -17.714  15.236  -5.694  1.00  0.00     0.001 C 
HETATM    2  C4  UNL     1     -17.097  15.352  -4.650  1.00  0.00    -0.001 C 
ENDROOT
BRANCH   2   3
HETATM    3  C5  UNL     1     -16.368  15.507  -3.441  1.00  0.00    -0.013 C 
HETATM    4  C6  UNL     1     -15.731  15.650  -2.419  1.00  0.00    -0.065 C 
BRANCH   4   5
HETATM    5  C7  UNL     1     -14.957  15.844  -1.197  1.00  0.00     0.324 C 
BRANCH   5   6
HETATM    6  N2  UNL     1     -13.793  16.615  -1.497  1.00  0.00    -0.069 N 
ATOM      7  H23 UNL     1     -12.934  16.150  -1.202  1.00  0.00     0.275 HD
ATOM      8  H22 UNL     1     -13.600  16.653  -2.498  1.00  0.00     0.275 HD
ATOM      9  H21 UNL     1     -13.891  17.543  -1.085  1.00  0.00     0.275 HD
ENDBRANCH   5   6
ENDBRANCH   4   5
ENDBRANCH   2   3
BRANCH   1  10
HETATM   10  C2  UNL     1     -18.426  15.123  -6.914  1.00  0.00     0.009 C 
HETATM   11  C1  UNL     1     -19.032  15.047  -7.966  1.00  0.00     0.017 C 
BRANCH  11  12
HETATM   12  N1  UNL     1     -19.727  14.980  -9.176  1.00  0.00    -0.359 N 
ATOM     13  H12 UNL     1     -19.320  15.629  -8.502  1.00  0.00     0.166 HD
ATOM     14  H11 UNL     1     -20.234  14.916 -10.059  1.00  0.00     0.166 HD
ENDBRANCH  11  12
ENDBRANCH   1  10
TORSDOF 5
ENDMDL
MODEL 4
REMARK VINA RESULT: -4.506525105      1.279      1.279
REMARK  5 active torsions:
REMARK  status: ('A' for Active; 'I' for Inactive)
REMARK    1  A    between atoms: N1_1  and  C1_4 
REMARK    2  A    between atoms: C2_5  and  C3_6 
REMARK    3  A    between atoms: C4_7  and  C5_8 
REMARK    4  A    between atoms: C6_9  and  C7_10 
REMARK    5  A    between atoms: C7_10  and  N2_11 
ROOT
HETATM    1  C3  UNL     1     -15.677  17.329  -4.630  1.00  0.00     0.001 C 
HETATM    2  C4  UNL     1     -16.406  16.938  -5.524  1.00  0.00    -0.001 C 
ENDROOT
BRANCH   2   3
HETATM    3  C5  UNL     1     -17.268  16.471  -6.551  1.00  0.00    -0.013 C 
HETATM    4  C6  UNL     1     -18.020  16.087  -7.422  1.00  0.00    -0.065 C 
BRANCH   4   5
HETATM    5  C7  UNL     1     -18.934  15.646  -8.471  1.00  0.00     0.324 C 
BRANCH   5   6
HETATM    6  N2  UNL     1     -19.074  14.226  -8.405  1.00  0.00    -0.069 N 
ATOM      7  H23 UNL     1     -18.989  13.786  -9.321  1.00  0.00     0.275 HD
ATOM      8  H22 UNL     1     -18.276  13.778  -7.955  1.00  0.00     0.275 HD
ATOM      9  H21 UNL     1     -19.956  13.998  -7.947  1.00  0.00     0.275 HD
ENDBRANCH   5   6
ENDBRANCH   4   5
ENDBRANCH   2   3
BRANCH   1  10
HETATM   10  C2  UNL     1     -14.847  17.780  -3.573  1.00  0.00     0.009 C 
HETATM   11  C1  UNL     1     -14.135  18.146  -2.657  1.00  0.00     0.017 C 
BRANCH  11  12
HETATM   12  N1  UNL     1     -13.321  18.549  -1.596  1.00  0.00    -0.359 N 
ATOM     13  H12 UNL     1     -13.709  18.853  -2.489  1.00  0.00     0.166 HD
ATOM     14  H11 UNL     1     -12.729  18.831  -0.814  1.00  0.00     0.166 HD
ENDBRANCH  11  12
ENDBRANCH   1  10
TORSDOF 5
ENDMDL
MODEL 5
REMARK VINA RESULT: -4.497029701      1.450      6.679
REMARK  5 active torsions:
REMARK  status: ('A' for Active; 'I' for Inactive)
REMARK    1  A    between atoms: N1_1  and  C1_4 
REMARK    2  A    between atoms: C2_5  and  C3_6 
REMARK    3  A    between atoms: C4_7  and  C5_8 
REMARK    4  A    between atoms: C6_9  and  C7_10 
REMARK    5  A    between atoms: C7_10  and  N2_11 
ROOT
HETATM    1  C3  UNL     1     -16.889  16.270  -6.313  1.00  0.00     0.001 C 
HETATM    2  C4  UNL     1     -16.222  16.903  -5.515  1.00  0.00    -0.001 C 
ENDROOT
BRANCH   2   3
HETATM    3  C5  UNL     1     -15.434  17.652  -4.601  1.00  0.00    -0.013 C 
HETATM    4  C6  UNL     1     -14.756  18.305  -3.836  1.00  0.00    -0.065 C 
BRANCH   4   5
HETATM    5  C7  UNL     1     -13.946  19.111  -2.929  1.00  0.00     0.324 C 
BRANCH   5   6
HETATM    6  N2  UNL     1     -13.530  18.302  -1.827  1.00  0.00    -0.069 N 
ATOM      7  H23 UNL     1     -13.891  18.645  -0.937  1.00  0.00     0.275 HD
ATOM      8  H22 UNL     1     -13.984  17.389  -1.823  1.00  0.00     0.275 HD
ATOM      9  H21 UNL     1     -12.513  18.230  -1.830  1.00  0.00     0.275 HD
ENDBRANCH   5   6
ENDBRANCH   4   5
ENDBRANCH   2   3
BRANCH   1  10
HETATM   10  C2  UNL     1     -17.659  15.548  -7.260  1.00  0.00     0.009 C 
HETATM   11  C1  UNL     1     -18.301  14.924  -8.083  1.00  0.00     0.017 C 
BRANCH  11  12
HETATM   12  N1  UNL     1     -19.022  14.207  -9.041  1.00  0.00    -0.359 N 
ATOM     13  H12 UNL     1     -18.426  14.103  -8.220  1.00  0.00     0.166 HD
ATOM     14  H11 UNL     1     -19.553  13.696  -9.747  1.00  0.00     0.166 HD
ENDBRANCH  11  12
ENDBRANCH   1  10
TORSDOF 5
ENDMDL
