MODEL 1
REMARK VINA RESULT: -7.026372297      0.000      0.000
REMARK  9 active torsions:
REMARK  status: ('A' for Active; 'I' for Inactive)
REMARK    1  A    between atoms: C3_3  and  C5_5 
REMARK    2  A    between atoms: C5_5  and  N1_6 
REMARK    3  A    between atoms: C5_5  and  N3_15 
REMARK    4  A    between atoms: N1_6  and  C6_7 
REMARK    5  A    between atoms: N3_15  and  C11_18 
REMARK    6  A    between atoms: C11_18  and  C12_19 
REMARK    7  A    between atoms: C11_18  and  C18_31 
REMARK       I    between atoms: C12_19  and  N4_21 
REMARK    8  A    between atoms: N4_21  and  C13_23 
REMARK    9  A    between atoms: C17_28  and  O2_29 
ROOT
HETATM    1  C1  UNL     1     -14.984  17.502  24.412  1.00  0.00     0.012 C 
HETATM    2  C2  UNL     1     -14.567  17.807  23.321  1.00  0.00    -0.108 C 
HETATM    3  C3  UNL     1     -14.068  18.203  22.011  1.00  0.00     0.123 C 
HETATM    4  C4  UNL     1     -14.262  17.099  20.992  1.00  0.00     0.028 C 
ENDROOT
BRANCH   3   5
HETATM    5  C5  UNL     1     -12.561  18.569  22.075  1.00  0.00     0.378 C 
BRANCH   5   6
HETATM    6  N1  UNL     1     -12.264  19.703  22.687  1.00  0.00    -0.396 NA
BRANCH   6   7
HETATM    7  C6  UNL     1     -12.061  20.703  23.365  1.00  0.00     0.175 A 
HETATM    8  C7  UNL     1     -11.164  21.712  22.974  1.00  0.00     0.065 A 
HETATM    9  C8  UNL     1     -10.995  22.789  23.789  1.00  0.00     0.030 A 
HETATM   10  C9  UNL     1     -11.681  22.909  24.982  1.00  0.00     0.049 A 
HETATM   11 CL1  UNL     1     -11.476  24.276  26.031  1.00  0.00    -0.083 Cl
HETATM   12  C10 UNL     1     -12.560  21.924  25.372  1.00  0.00     0.114 A 
HETATM   13  N2  UNL     1     -12.708  20.883  24.557  1.00  0.00    -0.340 N 
ATOM     14  H2  UNL     1     -13.361  20.156  24.846  1.00  0.00     0.167 HD
ENDBRANCH   6   7
ENDBRANCH   5   6
BRANCH   5  15
HETATM   15  N3  UNL     1     -12.122  18.438  20.673  1.00  0.00    -0.028 N 
ATOM     16  H32 UNL     1     -11.916  17.468  20.436  1.00  0.00     0.282 HD
ATOM     17  H31 UNL     1     -12.893  18.599  20.024  1.00  0.00     0.282 HD
BRANCH  15  18
HETATM   18  C11 UNL     1     -11.008  19.296  20.386  1.00  0.00     0.288 C 
BRANCH  18  19
HETATM   19  C12 UNL     1      -9.701  18.665  20.440  1.00  0.00     0.249 C 
HETATM   20  O1  UNL     1      -9.647  17.452  20.011  1.00  0.00    -0.271 OA
HETATM   21  N4  UNL     1      -8.479  19.177  20.891  1.00  0.00    -0.352 N 
ATOM     22  H4  UNL     1      -8.472  20.133  21.250  1.00  0.00     0.163 HD
BRANCH  21  23
HETATM   23  C13 UNL     1      -7.236  18.464  20.888  1.00  0.00     0.114 C 
HETATM   24  C14 UNL     1      -6.242  18.965  21.939  1.00  0.00     0.048 C 
HETATM   25  C15 UNL     1      -5.116  17.959  21.623  1.00  0.00     0.086 C 
HETATM   26 CL2  UNL     1      -3.637  18.319  22.487  1.00  0.00    -0.125 Cl
HETATM   27  C16 UNL     1      -5.016  18.129  20.120  1.00  0.00     0.054 C 
HETATM   28  C17 UNL     1      -6.416  18.546  19.658  1.00  0.00     0.142 C 
BRANCH  28  29
HETATM   29  O2  UNL     1      -6.919  17.620  18.732  1.00  0.00    -0.393 OA
ATOM     30  H2  UNL     1      -7.534  18.071  18.166  1.00  0.00     0.210 HD
ENDBRANCH  28  29
ENDBRANCH  21  23
ENDBRANCH  18  19
BRANCH  18  31
HETATM   31  C18 UNL     1     -11.275  19.976  19.040  1.00  0.00    -0.014 C 
HETATM   32  C19 UNL     1     -10.030  20.138  18.210  1.00  0.00     0.017 C 
HETATM   33  C20 UNL     1     -12.349  19.255  18.251  1.00  0.00     0.017 C 
HETATM   34  C21 UNL     1     -11.799  21.349  19.371  1.00  0.00     0.017 C 
ENDBRANCH  18  31
ENDBRANCH  15  18
ENDBRANCH   5  15
ENDBRANCH   3   5
TORSDOF 9
ENDMDL
MODEL 2
REMARK VINA RESULT: -6.737661709      3.488      6.904
REMARK  9 active torsions:
REMARK  status: ('A' for Active; 'I' for Inactive)
REMARK    1  A    between atoms: C3_3  and  C5_5 
REMARK    2  A    between atoms: C5_5  and  N1_6 
REMARK    3  A    between atoms: C5_5  and  N3_15 
REMARK    4  A    between atoms: N1_6  and  C6_7 
REMARK    5  A    between atoms: N3_15  and  C11_18 
REMARK    6  A    between atoms: C11_18  and  C12_19 
REMARK    7  A    between atoms: C11_18  and  C18_31 
REMARK       I    between atoms: C12_19  and  N4_21 
REMARK    8  A    between atoms: N4_21  and  C13_23 
REMARK    9  A    between atoms: C17_28  and  O2_29 
ROOT
HETATM    1  C1  UNL     1      -7.649  18.291  23.737  1.00  0.00     0.012 C 
HETATM    2  C2  UNL     1      -8.429  17.967  22.874  1.00  0.00    -0.108 C 
HETATM    3  C3  UNL     1      -9.384  17.560  21.852  1.00  0.00     0.123 C 
HETATM    4  C4  UNL     1      -8.769  17.619  20.469  1.00  0.00     0.028 C 
ENDROOT
BRANCH   3   5
HETATM    5  C5  UNL     1     -10.648  18.461  21.880  1.00  0.00     0.378 C 
BRANCH   5   6
HETATM    6  N1  UNL     1     -11.689  18.022  21.192  1.00  0.00    -0.396 NA
BRANCH   6   7
HETATM    7  C6  UNL     1     -12.597  17.485  20.568  1.00  0.00     0.175 A 
HETATM    8  C7  UNL     1     -13.048  17.965  19.327  1.00  0.00     0.065 A 
HETATM    9  C8  UNL     1     -14.065  17.311  18.701  1.00  0.00     0.030 A 
HETATM   10  C9  UNL     1     -14.658  16.194  19.259  1.00  0.00     0.049 A 
HETATM   11 CL1  UNL     1     -15.954  15.350  18.474  1.00  0.00    -0.083 Cl
HETATM   12  C10 UNL     1     -14.222  15.719  20.475  1.00  0.00     0.114 A 
HETATM   13  N2  UNL     1     -13.226  16.375  21.064  1.00  0.00    -0.340 N 
ATOM     14  H2  UNL     1     -12.903  16.021  21.963  1.00  0.00     0.167 HD
ENDBRANCH   6   7
ENDBRANCH   5   6
BRANCH   5  15
HETATM   15  N3  UNL     1     -10.124  19.789  21.511  1.00  0.00    -0.028 N 
ATOM     16  H32 UNL     1      -9.536  20.176  22.250  1.00  0.00     0.282 HD
ATOM     17  H31 UNL     1      -9.424  19.722  20.771  1.00  0.00     0.282 HD
BRANCH  15  18
HETATM   18  C11 UNL     1     -11.179  20.693  21.153  1.00  0.00     0.288 C 
BRANCH  18  19
HETATM   19  C12 UNL     1     -11.737  21.468  22.246  1.00  0.00     0.249 C 
HETATM   20  O1  UNL     1     -13.010  21.367  22.412  1.00  0.00    -0.271 OA
HETATM   21  N4  UNL     1     -11.098  22.318  23.158  1.00  0.00    -0.352 N 
ATOM     22  H4  UNL     1     -10.090  22.438  23.062  1.00  0.00     0.163 HD
BRANCH  21  23
HETATM   23  C13 UNL     1     -11.751  23.031  24.215  1.00  0.00     0.114 C 
HETATM   24  C14 UNL     1     -10.959  24.241  24.716  1.00  0.00     0.048 C 
HETATM   25  C15 UNL     1     -11.981  24.708  25.772  1.00  0.00     0.086 C 
HETATM   26 CL2  UNL     1     -11.360  26.002  26.776  1.00  0.00    -0.125 Cl
HETATM   27  C16 UNL     1     -12.218  23.406  26.512  1.00  0.00     0.054 C 
HETATM   28  C17 UNL     1     -11.980  22.298  25.481  1.00  0.00     0.142 C 
BRANCH  28  29
HETATM   29  O2  UNL     1     -13.135  21.515  25.332  1.00  0.00    -0.393 OA
ATOM     30  H2  UNL     1     -12.921  20.774  24.776  1.00  0.00     0.210 HD
ENDBRANCH  28  29
ENDBRANCH  21  23
ENDBRANCH  18  19
BRANCH  18  31
HETATM   31  C18 UNL     1     -10.673  21.575  20.008  1.00  0.00    -0.014 C 
HETATM   32  C19 UNL     1     -11.522  22.799  19.794  1.00  0.00     0.017 C 
HETATM   33  C20 UNL     1      -9.221  21.963  20.199  1.00  0.00     0.017 C 
HETATM   34  C21 UNL     1     -10.756  20.725  18.767  1.00  0.00     0.017 C 
ENDBRANCH  18  31
ENDBRANCH  15  18
ENDBRANCH   5  15
ENDBRANCH   3   5
TORSDOF 9
ENDMDL
MODEL 3
REMARK VINA RESULT: -6.680111187      4.392      6.646
REMARK  9 active torsions:
REMARK  status: ('A' for Active; 'I' for Inactive)
REMARK    1  A    between atoms: C3_3  and  C5_5 
REMARK    2  A    between atoms: C5_5  and  N1_6 
REMARK    3  A    between atoms: C5_5  and  N3_15 
REMARK    4  A    between atoms: N1_6  and  C6_7 
REMARK    5  A    between atoms: N3_15  and  C11_18 
REMARK    6  A    between atoms: C11_18  and  C12_19 
REMARK    7  A    between atoms: C11_18  and  C18_31 
REMARK       I    between atoms: C12_19  and  N4_21 
REMARK    8  A    between atoms: N4_21  and  C13_23 
REMARK    9  A    between atoms: C17_28  and  O2_29 
ROOT
HETATM    1  C1  UNL     1     -10.844  23.880  20.059  1.00  0.00     0.012 C 
HETATM    2  C2  UNL     1     -11.447  22.834  20.084  1.00  0.00    -0.108 C 
HETATM    3  C3  UNL     1     -12.191  21.582  20.094  1.00  0.00     0.123 C 
HETATM    4  C4  UNL     1     -12.183  20.947  21.469  1.00  0.00     0.028 C 
ENDROOT
BRANCH   3   5
HETATM    5  C5  UNL     1     -11.600  20.574  19.071  1.00  0.00     0.378 C 
BRANCH   5   6
HETATM    6  N1  UNL     1     -12.279  19.451  18.904  1.00  0.00    -0.396 NA
BRANCH   6   7
HETATM    7  C6  UNL     1     -13.013  18.474  18.820  1.00  0.00     0.175 A 
HETATM    8  C7  UNL     1     -13.449  17.758  19.947  1.00  0.00     0.065 A 
HETATM    9  C8  UNL     1     -14.262  16.681  19.766  1.00  0.00     0.030 A 
HETATM   10  C9  UNL     1     -14.663  16.282  18.505  1.00  0.00     0.049 A 
HETATM   11 CL1  UNL     1     -15.699  14.912  18.257  1.00  0.00    -0.083 Cl
HETATM   12  C10 UNL     1     -14.239  16.978  17.396  1.00  0.00     0.114 A 
HETATM   13  N2  UNL     1     -13.447  18.027  17.601  1.00  0.00    -0.340 N 
ATOM     14  H2  UNL     1     -13.135  18.542  16.779  1.00  0.00     0.167 HD
ENDBRANCH   6   7
ENDBRANCH   5   6
BRANCH   5  15
HETATM   15  N3  UNL     1     -10.195  20.441  19.502  1.00  0.00    -0.028 N 
ATOM     16  H32 UNL     1      -9.711  21.338  19.474  1.00  0.00     0.282 HD
ATOM     17  H31 UNL     1     -10.129  20.256  20.503  1.00  0.00     0.282 HD
BRANCH  15  18
HETATM   18  C11 UNL     1      -9.501  19.445  18.737  1.00  0.00     0.288 C 
BRANCH  18  19
HETATM   19  C12 UNL     1      -8.783  19.936  17.575  1.00  0.00     0.249 C 
HETATM   20  O1  UNL     1      -8.038  20.968  17.772  1.00  0.00    -0.271 OA
HETATM   21  N4  UNL     1      -8.776  19.456  16.260  1.00  0.00    -0.352 N 
ATOM     22  H4  UNL     1      -9.358  18.645  16.051  1.00  0.00     0.163 HD
BRANCH  21  23
HETATM   23  C13 UNL     1      -8.013  20.016  15.184  1.00  0.00     0.114 C 
HETATM   24  C14 UNL     1      -8.659  19.818  13.810  1.00  0.00     0.048 C 
HETATM   25  C15 UNL     1      -7.581  20.555  12.990  1.00  0.00     0.086 C 
HETATM   26 CL2  UNL     1      -7.820  20.384  11.264  1.00  0.00    -0.125 Cl
HETATM   27  C16 UNL     1      -6.331  19.878  13.515  1.00  0.00     0.054 C 
HETATM   28  C17 UNL     1      -6.665  19.451  14.948  1.00  0.00     0.142 C 
BRANCH  28  29
HETATM   29  O2  UNL     1      -5.775  20.048  15.854  1.00  0.00    -0.393 OA
ATOM     30  H2  UNL     1      -5.242  19.363  16.241  1.00  0.00     0.210 HD
ENDBRANCH  28  29
ENDBRANCH  21  23
ENDBRANCH  18  19
BRANCH  18  31
HETATM   31  C18 UNL     1      -8.599  18.663  19.696  1.00  0.00    -0.014 C 
HETATM   32  C19 UNL     1      -7.462  17.971  18.994  1.00  0.00     0.017 C 
HETATM   33  C20 UNL     1      -8.076  19.541  20.816  1.00  0.00     0.017 C 
HETATM   34  C21 UNL     1      -9.476  17.609  20.319  1.00  0.00     0.017 C 
ENDBRANCH  18  31
ENDBRANCH  15  18
ENDBRANCH   5  15
ENDBRANCH   3   5
TORSDOF 9
ENDMDL
MODEL 4
REMARK VINA RESULT: -6.619406045      0.410      1.048
REMARK  9 active torsions:
REMARK  status: ('A' for Active; 'I' for Inactive)
REMARK    1  A    between atoms: C3_3  and  C5_5 
REMARK    2  A    between atoms: C5_5  and  N1_6 
REMARK    3  A    between atoms: C5_5  and  N3_15 
REMARK    4  A    between atoms: N1_6  and  C6_7 
REMARK    5  A    between atoms: N3_15  and  C11_18 
REMARK    6  A    between atoms: C11_18  and  C12_19 
REMARK    7  A    between atoms: C11_18  and  C18_31 
REMARK       I    between atoms: C12_19  and  N4_21 
REMARK    8  A    between atoms: N4_21  and  C13_23 
REMARK    9  A    between atoms: C17_28  and  O2_29 
ROOT
HETATM    1  C1  UNL     1     -14.517  16.845  20.299  1.00  0.00     0.012 C 
HETATM    2  C2  UNL     1     -14.045  17.246  21.336  1.00  0.00    -0.108 C 
HETATM    3  C3  UNL     1     -13.458  17.707  22.587  1.00  0.00     0.123 C 
HETATM    4  C4  UNL     1     -14.459  18.495  23.407  1.00  0.00     0.028 C 
ENDROOT
BRANCH   3   5
HETATM    5  C5  UNL     1     -12.213  18.596  22.324  1.00  0.00     0.378 C 
BRANCH   5   6
HETATM    6  N1  UNL     1     -12.178  19.752  22.966  1.00  0.00    -0.396 NA
BRANCH   6   7
HETATM    7  C6  UNL     1     -12.004  20.808  23.562  1.00  0.00     0.175 A 
HETATM    8  C7  UNL     1     -11.145  21.812  23.086  1.00  0.00     0.065 A 
HETATM    9  C8  UNL     1     -11.006  22.955  23.814  1.00  0.00     0.030 A 
HETATM   10  C9  UNL     1     -11.687  23.143  25.001  1.00  0.00     0.049 A 
HETATM   11 CL1  UNL     1     -11.521  24.594  25.938  1.00  0.00    -0.083 Cl
HETATM   12  C10 UNL     1     -12.530  22.164  25.474  1.00  0.00     0.114 A 
HETATM   13  N2  UNL     1     -12.648  21.058  24.744  1.00  0.00    -0.340 N 
ATOM     14  H2  UNL     1     -13.274  20.334  25.095  1.00  0.00     0.167 HD
ENDBRANCH   6   7
ENDBRANCH   5   6
BRANCH   5  15
HETATM   15  N3  UNL     1     -12.144  18.653  20.852  1.00  0.00    -0.028 N 
ATOM     16  H32 UNL     1     -12.135  17.719  20.443  1.00  0.00     0.282 HD
ATOM     17  H31 UNL     1     -13.018  18.993  20.451  1.00  0.00     0.282 HD
BRANCH  15  18
HETATM   18  C11 UNL     1     -11.024  19.431  20.406  1.00  0.00     0.288 C 
BRANCH  18  19
HETATM   19  C12 UNL     1      -9.737  18.760  20.450  1.00  0.00     0.249 C 
HETATM   20  O1  UNL     1      -9.724  17.546  20.021  1.00  0.00    -0.271 OA
HETATM   21  N4  UNL     1      -8.496  19.234  20.891  1.00  0.00    -0.352 N 
ATOM     22  H4  UNL     1      -8.457  20.189  21.249  1.00  0.00     0.163 HD
BRANCH  21  23
HETATM   23  C13 UNL     1      -7.276  18.483  20.878  1.00  0.00     0.114 C 
HETATM   24  C14 UNL     1      -6.240  18.982  21.889  1.00  0.00     0.048 C 
HETATM   25  C15 UNL     1      -5.155  17.933  21.575  1.00  0.00     0.086 C 
HETATM   26 CL2  UNL     1      -3.643  18.271  22.393  1.00  0.00    -0.125 Cl
HETATM   27  C16 UNL     1      -5.087  18.057  20.066  1.00  0.00     0.054 C 
HETATM   28  C17 UNL     1      -6.485  18.505  19.627  1.00  0.00     0.142 C 
BRANCH  28  29
HETATM   29  O2  UNL     1      -7.040  17.569  18.740  1.00  0.00    -0.393 OA
ATOM     30  H2  UNL     1      -6.363  16.945  18.505  1.00  0.00     0.210 HD
ENDBRANCH  28  29
ENDBRANCH  21  23
ENDBRANCH  18  19
BRANCH  18  31
HETATM   31  C18 UNL     1     -11.355  19.973  19.012  1.00  0.00    -0.014 C 
HETATM   32  C19 UNL     1     -10.133  20.177  18.159  1.00  0.00     0.017 C 
HETATM   33  C20 UNL     1     -12.363  19.096  18.295  1.00  0.00     0.017 C 
HETATM   34  C21 UNL     1     -12.000  21.315  19.235  1.00  0.00     0.017 C 
ENDBRANCH  18  31
ENDBRANCH  15  18
ENDBRANCH   5  15
ENDBRANCH   3   5
TORSDOF 9
ENDMDL
MODEL 5
REMARK VINA RESULT: -6.587760258      3.280      6.306
REMARK  9 active torsions:
REMARK  status: ('A' for Active; 'I' for Inactive)
REMARK    1  A    between atoms: C3_3  and  C5_5 
REMARK    2  A    between atoms: C5_5  and  N1_6 
REMARK    3  A    between atoms: C5_5  and  N3_15 
REMARK    4  A    between atoms: N1_6  and  C6_7 
REMARK    5  A    between atoms: N3_15  and  C11_18 
REMARK    6  A    between atoms: C11_18  and  C12_19 
REMARK    7  A    between atoms: C11_18  and  C18_31 
REMARK       I    between atoms: C12_19  and  N4_21 
REMARK    8  A    between atoms: N4_21  and  C13_23 
REMARK    9  A    between atoms: C17_28  and  O2_29 
ROOT
HETATM    1  C1  UNL     1      -9.906  23.870  22.800  1.00  0.00     0.012 C 
HETATM    2  C2  UNL     1     -10.715  23.048  23.158  1.00  0.00    -0.108 C 
HETATM    3  C3  UNL     1     -11.704  22.061  23.566  1.00  0.00     0.123 C 
HETATM    4  C4  UNL     1     -11.812  21.980  25.075  1.00  0.00     0.028 C 
ENDROOT
BRANCH   3   5
HETATM    5  C5  UNL     1     -11.351  20.655  23.011  1.00  0.00     0.378 C 
BRANCH   5   6
HETATM    6  N1  UNL     1     -10.087  20.284  23.129  1.00  0.00    -0.396 NA
BRANCH   6   7
HETATM    7  C6  UNL     1      -8.954  19.880  23.362  1.00  0.00     0.175 A 
HETATM    8  C7  UNL     1      -7.967  20.693  23.945  1.00  0.00     0.065 A 
HETATM    9  C8  UNL     1      -6.731  20.166  24.167  1.00  0.00     0.030 A 
HETATM   10  C9  UNL     1      -6.432  18.859  23.833  1.00  0.00     0.049 A 
HETATM   11 CL1  UNL     1      -4.862  18.173  24.110  1.00  0.00    -0.083 Cl
HETATM   12  C10 UNL     1      -7.393  18.057  23.261  1.00  0.00     0.114 A 
HETATM   13  N2  UNL     1      -8.592  18.596  23.056  1.00  0.00    -0.340 N 
ATOM     14  H2  UNL     1      -9.304  18.000  22.635  1.00  0.00     0.167 HD
ENDBRANCH   6   7
ENDBRANCH   5   6
BRANCH   5  15
HETATM   15  N3  UNL     1     -11.908  20.682  21.645  1.00  0.00    -0.028 N 
ATOM     16  H32 UNL     1     -12.878  20.368  21.632  1.00  0.00     0.282 HD
ATOM     17  H31 UNL     1     -12.046  21.638  21.318  1.00  0.00     0.282 HD
BRANCH  15  18
HETATM   18  C11 UNL     1     -11.100  19.927  20.731  1.00  0.00     0.288 C 
BRANCH  18  19
HETATM   19  C12 UNL     1     -11.728  18.745  20.169  1.00  0.00     0.249 C 
HETATM   20  O1  UNL     1     -11.023  17.667  20.203  1.00  0.00    -0.271 OA
HETATM   21  N4  UNL     1     -12.994  18.594  19.591  1.00  0.00    -0.352 N 
ATOM     22  H4  UNL     1     -13.587  19.422  19.533  1.00  0.00     0.163 HD
BRANCH  21  23
HETATM   23  C13 UNL     1     -13.522  17.366  19.074  1.00  0.00     0.114 C 
HETATM   24  C14 UNL     1     -13.997  17.469  17.622  1.00  0.00     0.048 C 
HETATM   25  C15 UNL     1     -14.438  15.999  17.468  1.00  0.00     0.086 C 
HETATM   26 CL2  UNL     1     -15.277  15.709  15.958  1.00  0.00    -0.125 Cl
HETATM   27  C16 UNL     1     -15.305  15.846  18.701  1.00  0.00     0.054 C 
HETATM   28  C17 UNL     1     -14.732  16.824  19.732  1.00  0.00     0.142 C 
BRANCH  28  29
HETATM   29  O2  UNL     1     -14.333  16.135  20.887  1.00  0.00    -0.393 OA
ATOM     30  H2  UNL     1     -15.010  15.505  21.106  1.00  0.00     0.210 HD
ENDBRANCH  28  29
ENDBRANCH  21  23
ENDBRANCH  18  19
BRANCH  18  31
HETATM   31  C18 UNL     1     -10.590  20.888  19.653  1.00  0.00    -0.014 C 
HETATM   32  C19 UNL     1      -9.281  21.534  20.018  1.00  0.00     0.017 C 
HETATM   33  C20 UNL     1     -10.488  20.211  18.300  1.00  0.00     0.017 C 
HETATM   34  C21 UNL     1     -11.631  21.971  19.541  1.00  0.00     0.017 C 
ENDBRANCH  18  31
ENDBRANCH  15  18
ENDBRANCH   5  15
ENDBRANCH   3   5
TORSDOF 9
ENDMDL
