MODEL 1
REMARK VINA RESULT: -8.681193138      0.000      0.000
REMARK  6 active torsions:
REMARK  status: ('A' for Active; 'I' for Inactive)
REMARK       I    between atoms: C1_2  and  N1_3 
REMARK    1  A    between atoms: C1_2  and  C12_15 
REMARK    2  A    between atoms: N1_3  and  C2_5 
REMARK    3  A    between atoms: C14_17  and  O2_18 
REMARK    4  A    between atoms: N2_20  and  C15_21 
REMARK    5  A    between atoms: C15_21  and  C16_22 
REMARK    6  A    between atoms: C20_26  and  O3_27 
ROOT
HETATM    1  C12 UNL     1      14.425  10.495  11.202  1.00  0.00     0.087 A 
HETATM    2  C13 UNL     1      13.294  11.229  10.924  1.00  0.00     0.077 A 
HETATM    3  C14 UNL     1      12.898  11.902  12.051  1.00  0.00     0.145 A 
HETATM    4  N2  UNL     1      13.782  11.581  13.013  1.00  0.00    -0.307 N 
HETATM    5  C20 UNL     1      14.709  10.741  12.538  1.00  0.00     0.160 A 
ENDROOT
BRANCH   1   6
HETATM    6  C1  UNL     1      15.177   9.629  10.273  1.00  0.00     0.256 C 
HETATM    7  O1  UNL     1      15.550  10.109   9.198  1.00  0.00    -0.267 OA
HETATM    8  N1  UNL     1      15.438   8.302  10.646  1.00  0.00    -0.347 N 
ATOM      9  H1  UNL     1      15.101   7.966  11.549  1.00  0.00     0.163 HD
BRANCH   8  10
HETATM   10  C2  UNL     1      16.166   7.400   9.796  1.00  0.00     0.034 C 
HETATM   11  C3  UNL     1      17.587   7.838   9.687  1.00  0.00     0.035 C 
HETATM   12  C4  UNL     1      18.371   6.830   8.845  1.00  0.00    -0.012 C 
HETATM   13  C5  UNL     1      17.741   6.868   7.455  1.00  0.00     0.009 C 
HETATM   14  C9  UNL     1      18.312   5.446   9.417  1.00  0.00     0.009 C 
HETATM   15  C6  UNL     1      16.300   6.436   7.532  1.00  0.00    -0.012 C 
HETATM   16  C7  UNL     1      16.287   5.020   8.083  1.00  0.00     0.009 C 
HETATM   17  C11 UNL     1      15.480   7.305   8.470  1.00  0.00     0.035 C 
HETATM   18  C8  UNL     1      16.845   5.056   9.467  1.00  0.00    -0.012 C 
HETATM   19  C10 UNL     1      16.134   5.991  10.399  1.00  0.00     0.035 C 
ENDBRANCH   8  10
ENDBRANCH   1   6
BRANCH   5  20
HETATM   20  O3  UNL     1      15.797  10.155  13.162  1.00  0.00    -0.345 OA
ATOM     21  H3  UNL     1      15.735   9.812  14.045  1.00  0.00     0.219 HD
ENDBRANCH   5  20
BRANCH   3  22
HETATM   22  O2  UNL     1      11.795  12.762  12.202  1.00  0.00    -0.346 OA
ATOM     23  H2  UNL     1      10.888  12.526  12.359  1.00  0.00     0.219 HD
ENDBRANCH   3  22
BRANCH   4  24
HETATM   24  C15 UNL     1      13.712  12.077  14.351  1.00  0.00     0.138 C 
BRANCH  24  25
HETATM   25  C16 UNL     1      12.708  11.419  15.227  1.00  0.00     0.004 C 
HETATM   26  C17 UNL     1      11.868  12.260  16.125  1.00  0.00     0.006 C 
HETATM   27  C18 UNL     1      11.985  11.122  17.156  1.00  0.00     0.001 C 
HETATM   28  C19 UNL     1      13.348  10.846  16.500  1.00  0.00     0.006 C 
ENDBRANCH  24  25
ENDBRANCH   4  24
TORSDOF 6
ENDMDL
MODEL 2
REMARK VINA RESULT: -8.643060905      0.133      1.470
REMARK  6 active torsions:
REMARK  status: ('A' for Active; 'I' for Inactive)
REMARK       I    between atoms: C1_2  and  N1_3 
REMARK    1  A    between atoms: C1_2  and  C12_15 
REMARK    2  A    between atoms: N1_3  and  C2_5 
REMARK    3  A    between atoms: C14_17  and  O2_18 
REMARK    4  A    between atoms: N2_20  and  C15_21 
REMARK    5  A    between atoms: C15_21  and  C16_22 
REMARK    6  A    between atoms: C20_26  and  O3_27 
ROOT
HETATM    1  C12 UNL     1      14.373  10.504  11.244  1.00  0.00     0.087 A 
HETATM    2  C13 UNL     1      13.262  11.256  10.934  1.00  0.00     0.077 A 
HETATM    3  C14 UNL     1      12.856  11.950  12.045  1.00  0.00     0.145 A 
HETATM    4  N2  UNL     1      13.715  11.623  13.029  1.00  0.00    -0.307 N 
HETATM    5  C20 UNL     1      14.635  10.760  12.582  1.00  0.00     0.160 A 
ENDROOT
BRANCH   1   6
HETATM    6  C1  UNL     1      15.128   9.614  10.341  1.00  0.00     0.256 C 
HETATM    7  O1  UNL     1      15.474  10.053   9.240  1.00  0.00    -0.267 OA
HETATM    8  N1  UNL     1      15.421   8.309  10.766  1.00  0.00    -0.347 N 
ATOM      9  H1  UNL     1      15.105   8.006  11.688  1.00  0.00     0.163 HD
BRANCH   8  10
HETATM   10  C2  UNL     1      16.152   7.385   9.943  1.00  0.00     0.034 C 
HETATM   11  C3  UNL     1      15.577   7.364   8.567  1.00  0.00     0.035 C 
HETATM   12  C4  UNL     1      16.411   6.438   7.678  1.00  0.00    -0.012 C 
HETATM   13  C5  UNL     1      16.274   5.044   8.285  1.00  0.00     0.009 C 
HETATM   14  C9  UNL     1      17.849   6.854   7.618  1.00  0.00     0.009 C 
HETATM   15  C6  UNL     1      16.841   5.034   9.681  1.00  0.00    -0.012 C 
HETATM   16  C7  UNL     1      18.305   5.426   9.570  1.00  0.00     0.009 C 
HETATM   17  C11 UNL     1      16.161   6.039  10.594  1.00  0.00     0.035 C 
HETATM   18  C8  UNL     1      18.373   6.821   9.043  1.00  0.00    -0.012 C 
HETATM   19  C10 UNL     1      17.616   7.829   9.854  1.00  0.00     0.035 C 
ENDBRANCH   8  10
ENDBRANCH   1   6
BRANCH   5  20
HETATM   20  O3  UNL     1      15.698  10.162  13.236  1.00  0.00    -0.345 OA
ATOM     21  H3  UNL     1      15.817  10.252  14.174  1.00  0.00     0.219 HD
ENDBRANCH   5  20
BRANCH   3  22
HETATM   22  O2  UNL     1      11.767  12.831  12.164  1.00  0.00    -0.346 OA
ATOM     23  H2  UNL     1      10.881  12.631  12.441  1.00  0.00     0.219 HD
ENDBRANCH   3  22
BRANCH   4  24
HETATM   24  C15 UNL     1      13.627  12.137  14.359  1.00  0.00     0.138 C 
BRANCH  24  25
HETATM   25  C16 UNL     1      12.656  11.448  15.249  1.00  0.00     0.004 C 
HETATM   26  C17 UNL     1      11.838  12.258  16.195  1.00  0.00     0.006 C 
HETATM   27  C18 UNL     1      11.997  11.095  17.192  1.00  0.00     0.001 C 
HETATM   28  C19 UNL     1      13.341  10.848  16.487  1.00  0.00     0.006 C 
ENDBRANCH  24  25
ENDBRANCH   4  24
TORSDOF 6
ENDMDL
MODEL 3
REMARK VINA RESULT: -8.611163312      0.078      1.471
REMARK  6 active torsions:
REMARK  status: ('A' for Active; 'I' for Inactive)
REMARK       I    between atoms: C1_2  and  N1_3 
REMARK    1  A    between atoms: C1_2  and  C12_15 
REMARK    2  A    between atoms: N1_3  and  C2_5 
REMARK    3  A    between atoms: C14_17  and  O2_18 
REMARK    4  A    between atoms: N2_20  and  C15_21 
REMARK    5  A    between atoms: C15_21  and  C16_22 
REMARK    6  A    between atoms: C20_26  and  O3_27 
ROOT
HETATM    1  C12 UNL     1      14.382  10.505  11.221  1.00  0.00     0.087 A 
HETATM    2  C13 UNL     1      13.255  11.236  10.919  1.00  0.00     0.077 A 
HETATM    3  C14 UNL     1      12.846  11.925  12.032  1.00  0.00     0.145 A 
HETATM    4  N2  UNL     1      13.719  11.616  13.009  1.00  0.00    -0.307 N 
HETATM    5  C20 UNL     1      14.651  10.768  12.556  1.00  0.00     0.160 A 
ENDROOT
BRANCH   1   6
HETATM    6  C1  UNL     1      15.144   9.625  10.314  1.00  0.00     0.256 C 
HETATM    7  O1  UNL     1      15.506  10.081   9.224  1.00  0.00    -0.267 OA
HETATM    8  N1  UNL     1      15.427   8.313  10.721  1.00  0.00    -0.347 N 
ATOM      9  H1  UNL     1      15.099   7.997  11.634  1.00  0.00     0.163 HD
BRANCH   8  10
HETATM   10  C2  UNL     1      16.165   7.399   9.893  1.00  0.00     0.034 C 
HETATM   11  C3  UNL     1      16.128   6.031  10.486  1.00  0.00     0.035 C 
HETATM   12  C4  UNL     1      16.849   5.051   9.558  1.00  0.00    -0.012 C 
HETATM   13  C5  UNL     1      18.301   5.520   9.503  1.00  0.00     0.009 C 
HETATM   14  C9  UNL     1      16.247   5.023   8.186  1.00  0.00     0.009 C 
HETATM   15  C6  UNL     1      18.371   6.905   8.913  1.00  0.00    -0.012 C 
HETATM   16  C7  UNL     1      17.784   6.824   7.514  1.00  0.00     0.009 C 
HETATM   17  C11 UNL     1      17.555   7.915   9.700  1.00  0.00     0.035 C 
HETATM   18  C8  UNL     1      16.349   6.435   7.635  1.00  0.00    -0.012 C 
HETATM   19  C10 UNL     1      15.529   7.345   8.499  1.00  0.00     0.035 C 
ENDBRANCH   8  10
ENDBRANCH   1   6
BRANCH   5  20
HETATM   20  O3  UNL     1      15.731  10.191  13.202  1.00  0.00    -0.345 OA
ATOM     21  H3  UNL     1      15.708  10.004  14.133  1.00  0.00     0.219 HD
ENDBRANCH   5  20
BRANCH   3  22
HETATM   22  O2  UNL     1      11.743  12.787  12.158  1.00  0.00    -0.346 OA
ATOM     23  H2  UNL     1      11.491  13.306  12.912  1.00  0.00     0.219 HD
ENDBRANCH   3  22
BRANCH   4  24
HETATM   24  C15 UNL     1      13.634  12.131  14.339  1.00  0.00     0.138 C 
BRANCH  24  25
HETATM   25  C16 UNL     1      12.664  11.443  15.232  1.00  0.00     0.004 C 
HETATM   26  C17 UNL     1      11.842  12.256  16.171  1.00  0.00     0.006 C 
HETATM   27  C18 UNL     1      12.004  11.099  17.175  1.00  0.00     0.001 C 
HETATM   28  C19 UNL     1      13.350  10.853  16.473  1.00  0.00     0.006 C 
ENDBRANCH  24  25
ENDBRANCH   4  24
TORSDOF 6
ENDMDL
MODEL 4
REMARK VINA RESULT: -8.503427145      1.146      1.694
REMARK  6 active torsions:
REMARK  status: ('A' for Active; 'I' for Inactive)
REMARK       I    between atoms: C1_2  and  N1_3 
REMARK    1  A    between atoms: C1_2  and  C12_15 
REMARK    2  A    between atoms: N1_3  and  C2_5 
REMARK    3  A    between atoms: C14_17  and  O2_18 
REMARK    4  A    between atoms: N2_20  and  C15_21 
REMARK    5  A    between atoms: C15_21  and  C16_22 
REMARK    6  A    between atoms: C20_26  and  O3_27 
ROOT
HETATM    1  C12 UNL     1      14.306  10.792  11.614  1.00  0.00     0.087 A 
HETATM    2  C13 UNL     1      13.375  11.713  11.187  1.00  0.00     0.077 A 
HETATM    3  C14 UNL     1      12.542  12.035  12.227  1.00  0.00     0.145 A 
HETATM    4  N2  UNL     1      12.961  11.314  13.284  1.00  0.00    -0.307 N 
HETATM    5  C20 UNL     1      14.015  10.560  12.950  1.00  0.00     0.160 A 
ENDROOT
BRANCH   1   6
HETATM    6  C1  UNL     1      15.387  10.181  10.816  1.00  0.00     0.256 C 
HETATM    7  O1  UNL     1      16.522  10.658  10.905  1.00  0.00    -0.267 OA
HETATM    8  N1  UNL     1      15.084   9.088   9.990  1.00  0.00    -0.347 N 
ATOM      9  H1  UNL     1      14.124   8.741   9.960  1.00  0.00     0.163 HD
BRANCH   8  10
HETATM   10  C2  UNL     1      16.083   8.440   9.186  1.00  0.00     0.034 C 
HETATM   11  C3  UNL     1      17.107   7.802  10.062  1.00  0.00     0.035 C 
HETATM   12  C4  UNL     1      18.122   7.048   9.200  1.00  0.00    -0.012 C 
HETATM   13  C5  UNL     1      18.807   8.108   8.341  1.00  0.00     0.009 C 
HETATM   14  C9  UNL     1      17.473   6.006   8.341  1.00  0.00     0.009 C 
HETATM   15  C6  UNL     1      17.795   8.777   7.447  1.00  0.00    -0.012 C 
HETATM   16  C7  UNL     1      17.188   7.693   6.572  1.00  0.00     0.009 C 
HETATM   17  C11 UNL     1      16.667   9.427   8.227  1.00  0.00     0.035 C 
HETATM   18  C8  UNL     1      16.471   6.729   7.458  1.00  0.00    -0.012 C 
HETATM   19  C10 UNL     1      15.424   7.350   8.332  1.00  0.00     0.035 C 
ENDBRANCH   8  10
ENDBRANCH   1   6
BRANCH   5  20
HETATM   20  O3  UNL     1      14.762   9.673  13.706  1.00  0.00    -0.345 OA
ATOM     21  H3  UNL     1      15.698   9.578  13.575  1.00  0.00     0.219 HD
ENDBRANCH   5  20
BRANCH   3  22
HETATM   22  O2  UNL     1      11.459  12.932  12.222  1.00  0.00    -0.346 OA
ATOM     23  H2  UNL     1      10.699  12.934  12.791  1.00  0.00     0.219 HD
ENDBRANCH   3  22
BRANCH   4  24
HETATM   24  C15 UNL     1      12.342  11.361  14.570  1.00  0.00     0.138 C 
BRANCH  24  25
HETATM   25  C16 UNL     1      13.140  12.012  15.642  1.00  0.00     0.004 C 
HETATM   26  C17 UNL     1      13.598  11.196  16.802  1.00  0.00     0.006 C 
HETATM   27  C18 UNL     1      13.340  12.443  17.669  1.00  0.00     0.001 C 
HETATM   28  C19 UNL     1      12.249  12.773  16.636  1.00  0.00     0.006 C 
ENDBRANCH  24  25
ENDBRANCH   4  24
TORSDOF 6
ENDMDL
MODEL 5
REMARK VINA RESULT: -8.473644593      1.141      1.585
REMARK  6 active torsions:
REMARK  status: ('A' for Active; 'I' for Inactive)
REMARK       I    between atoms: C1_2  and  N1_3 
REMARK    1  A    between atoms: C1_2  and  C12_15 
REMARK    2  A    between atoms: N1_3  and  C2_5 
REMARK    3  A    between atoms: C14_17  and  O2_18 
REMARK    4  A    between atoms: N2_20  and  C15_21 
REMARK    5  A    between atoms: C15_21  and  C16_22 
REMARK    6  A    between atoms: C20_26  and  O3_27 
ROOT
HETATM    1  C12 UNL     1      14.291  10.789  11.592  1.00  0.00     0.087 A 
HETATM    2  C13 UNL     1      13.356  11.709  11.172  1.00  0.00     0.077 A 
HETATM    3  C14 UNL     1      12.530  12.030  12.219  1.00  0.00     0.145 A 
HETATM    4  N2  UNL     1      12.957  11.309  13.273  1.00  0.00    -0.307 N 
HETATM    5  C20 UNL     1      14.009  10.556  12.931  1.00  0.00     0.160 A 
ENDROOT
BRANCH   1   6
HETATM    6  C1  UNL     1      15.366  10.179  10.786  1.00  0.00     0.256 C 
HETATM    7  O1  UNL     1      16.504  10.650  10.876  1.00  0.00    -0.267 OA
HETATM    8  N1  UNL     1      15.055   9.093   9.954  1.00  0.00    -0.347 N 
ATOM      9  H1  UNL     1      14.094   8.751   9.924  1.00  0.00     0.163 HD
BRANCH   8  10
HETATM   10  C2  UNL     1      16.049   8.446   9.141  1.00  0.00     0.034 C 
HETATM   11  C3  UNL     1      16.704   9.444   8.248  1.00  0.00     0.035 C 
HETATM   12  C4  UNL     1      17.813   8.762   7.444  1.00  0.00    -0.012 C 
HETATM   13  C5  UNL     1      17.117   7.715   6.578  1.00  0.00     0.009 C 
HETATM   14  C9  UNL     1      18.842   8.124   8.327  1.00  0.00     0.009 C 
HETATM   15  C6  UNL     1      16.439   6.694   7.454  1.00  0.00    -0.012 C 
HETATM   16  C7  UNL     1      17.519   6.048   8.305  1.00  0.00     0.009 C 
HETATM   17  C11 UNL     1      15.419   7.315   8.393  1.00  0.00     0.035 C 
HETATM   18  C8  UNL     1      18.111   7.102   9.181  1.00  0.00    -0.012 C 
HETATM   19  C10 UNL     1      17.119   7.822  10.044  1.00  0.00     0.035 C 
ENDBRANCH   8  10
ENDBRANCH   1   6
BRANCH   5  20
HETATM   20  O3  UNL     1      14.762   9.670  13.681  1.00  0.00    -0.345 OA
ATOM     21  H3  UNL     1      14.360   9.106  14.332  1.00  0.00     0.219 HD
ENDBRANCH   5  20
BRANCH   3  22
HETATM   22  O2  UNL     1      11.447  12.927  12.221  1.00  0.00    -0.346 OA
ATOM     23  H2  UNL     1      11.219  13.565  12.886  1.00  0.00     0.219 HD
ENDBRANCH   3  22
BRANCH   4  24
HETATM   24  C15 UNL     1      12.347  11.356  14.563  1.00  0.00     0.138 C 
BRANCH  24  25
HETATM   25  C16 UNL     1      13.167  11.977  15.637  1.00  0.00     0.004 C 
HETATM   26  C17 UNL     1      13.586  11.146  16.801  1.00  0.00     0.006 C 
HETATM   27  C18 UNL     1      13.375  12.405  17.663  1.00  0.00     0.001 C 
HETATM   28  C19 UNL     1      12.303  12.776  16.625  1.00  0.00     0.006 C 
ENDBRANCH  24  25
ENDBRANCH   4  24
TORSDOF 6
ENDMDL
