MODEL 1
REMARK VINA RESULT: -7.889081754      0.000      0.000
REMARK  7 active torsions:
REMARK  status: ('A' for Active; 'I' for Inactive)
REMARK    1  A    between atoms: C2_2  and  C4_4 
REMARK    2  A    between atoms: C4_4  and  C5_5 
REMARK    3  A    between atoms: C5_5  and  C6_6 
REMARK    4  A    between atoms: C6_6  and  N1_7 
REMARK    5  A    between atoms: C9_11  and  O1_12 
REMARK    6  A    between atoms: C10_14  and  O2_15 
REMARK    7  A    between atoms: C20_26  and  O3_27 
ROOT
HETATM    1  N1  UNL     1      14.254  11.164  12.699  1.00  0.00    -0.394 N 
ATOM      2  H1  UNL     1      14.231  11.776  11.883  1.00  0.00     0.159 HD
HETATM    3  C7  UNL     1      14.446   9.917  12.494  1.00  0.00     0.014 C 
HETATM    4  C8  UNL     1      14.485   8.993  13.661  1.00  0.00     0.089 C 
HETATM    5  C9  UNL     1      15.601   7.980  13.340  1.00  0.00     0.152 C 
HETATM    6  C10 UNL     1      16.775   8.681  12.811  1.00  0.00     0.152 C 
HETATM    7  C11 UNL     1      17.016   8.746  11.351  1.00  0.00     0.036 C 
HETATM    8  C12 UNL     1      17.353   7.460  10.669  1.00  0.00    -0.041 C 
HETATM    9  C13 UNL     1      17.824   6.367  11.562  1.00  0.00     0.015 C 
HETATM   10  C14 UNL     1      18.479   7.662   9.636  1.00  0.00     0.015 C 
HETATM   11  C15 UNL     1      16.195   6.907   9.838  1.00  0.00     0.009 C 
HETATM   12  C16 UNL     1      15.751   7.892   8.789  1.00  0.00     0.002 C 
HETATM   13  C17 UNL     1      16.025   9.311   9.118  1.00  0.00     0.012 C 
HETATM   14  C18 UNL     1      16.033   9.600  10.612  1.00  0.00    -0.006 C 
HETATM   15  C19 UNL     1      16.417  11.088  10.710  1.00  0.00     0.019 C 
HETATM   16  C20 UNL     1      14.615   9.508  11.072  1.00  0.00     0.172 C 
ENDROOT
BRANCH   1  17
HETATM   17  C6  UNL     1      14.071  11.759  13.966  1.00  0.00     0.119 C 
BRANCH  17  18
HETATM   18  C5  UNL     1      12.592  11.998  14.277  1.00  0.00     0.020 C 
BRANCH  18  19
HETATM   19  C4  UNL     1      12.437  12.687  15.613  1.00  0.00     0.005 C 
BRANCH  19  20
HETATM   20  C2  UNL     1      12.798  11.812  16.767  1.00  0.00    -0.023 C 
HETATM   21  C1  UNL     1      11.547  11.607  17.623  1.00  0.00     0.009 C 
HETATM   22  C3  UNL     1      13.825  12.573  17.604  1.00  0.00     0.009 C 
ENDBRANCH  19  20
ENDBRANCH  18  19
ENDBRANCH  17  18
ENDBRANCH   1  17
BRANCH  16  23
HETATM   23  O3  UNL     1      13.864  10.389  10.298  1.00  0.00    -0.389 OA
ATOM     24  H3  UNL     1      13.705   9.965   9.463  1.00  0.00     0.210 HD
ENDBRANCH  16  23
BRANCH   5  25
HETATM   25  O1  UNL     1      15.896   7.400  14.599  1.00  0.00    -0.393 OA
ATOM     26  H1  UNL     1      16.424   6.642  14.377  1.00  0.00     0.210 HD
ENDBRANCH   5  25
BRANCH   6  27
HETATM   27  O2  UNL     1      17.920   8.201  13.490  1.00  0.00    -0.393 OA
ATOM     28  H2  UNL     1      18.649   8.201  12.880  1.00  0.00     0.210 HD
ENDBRANCH   6  27
TORSDOF 7
ENDMDL
MODEL 2
REMARK VINA RESULT: -7.532395159      1.477      3.383
REMARK  7 active torsions:
REMARK  status: ('A' for Active; 'I' for Inactive)
REMARK    1  A    between atoms: C2_2  and  C4_4 
REMARK    2  A    between atoms: C4_4  and  C5_5 
REMARK    3  A    between atoms: C5_5  and  C6_6 
REMARK    4  A    between atoms: C6_6  and  N1_7 
REMARK    5  A    between atoms: C9_11  and  O1_12 
REMARK    6  A    between atoms: C10_14  and  O2_15 
REMARK    7  A    between atoms: C20_26  and  O3_27 
ROOT
HETATM    1  N1  UNL     1      15.262   9.204  13.517  1.00  0.00    -0.394 N 
ATOM      2  H1  UNL     1      15.220   8.424  14.174  1.00  0.00     0.159 HD
HETATM    3  C7  UNL     1      16.172   9.171  12.621  1.00  0.00     0.014 C 
HETATM    4  C8  UNL     1      16.264  10.293  11.646  1.00  0.00     0.089 C 
HETATM    5  C9  UNL     1      16.606   9.633  10.297  1.00  0.00     0.152 C 
HETATM    6  C10 UNL     1      15.774   8.441  10.099  1.00  0.00     0.152 C 
HETATM    7  C11 UNL     1      16.311   7.093  10.397  1.00  0.00     0.036 C 
HETATM    8  C12 UNL     1      17.407   6.596   9.513  1.00  0.00    -0.041 C 
HETATM    9  C13 UNL     1      17.541   7.296   8.206  1.00  0.00     0.015 C 
HETATM   10  C14 UNL     1      17.204   5.109   9.164  1.00  0.00     0.015 C 
HETATM   11  C15 UNL     1      18.776   6.624  10.191  1.00  0.00     0.009 C 
HETATM   12  C16 UNL     1      18.782   5.803  11.452  1.00  0.00     0.002 C 
HETATM   13  C17 UNL     1      17.459   5.660  12.103  1.00  0.00     0.012 C 
HETATM   14  C18 UNL     1      16.528   6.837  11.856  1.00  0.00    -0.006 C 
HETATM   15  C19 UNL     1      15.211   6.431  12.544  1.00  0.00     0.019 C 
HETATM   16  C20 UNL     1      17.069   7.983  12.646  1.00  0.00     0.172 C 
ENDROOT
BRANCH   1  17
HETATM   17  C6  UNL     1      14.310  10.236  13.670  1.00  0.00     0.119 C 
BRANCH  17  18
HETATM   18  C5  UNL     1      13.507  10.086  14.964  1.00  0.00     0.020 C 
BRANCH  18  19
HETATM   19  C4  UNL     1      13.158  11.443  15.530  1.00  0.00     0.005 C 
BRANCH  19  20
HETATM   20  C2  UNL     1      12.927  11.419  17.004  1.00  0.00    -0.023 C 
HETATM   21  C1  UNL     1      11.486  11.857  17.270  1.00  0.00     0.009 C 
HETATM   22  C3  UNL     1      13.859  12.459  17.623  1.00  0.00     0.009 C 
ENDBRANCH  19  20
ENDBRANCH  18  19
ENDBRANCH  17  18
ENDBRANCH   1  17
BRANCH  16  23
HETATM   23  O3  UNL     1      17.170   7.571  13.972  1.00  0.00    -0.389 OA
ATOM     24  H3  UNL     1      17.459   6.666  13.964  1.00  0.00     0.210 HD
ENDBRANCH  16  23
BRANCH   5  25
HETATM   25  O1  UNL     1      16.278  10.630   9.345  1.00  0.00    -0.393 OA
ATOM     26  H1  UNL     1      15.609  10.217   8.811  1.00  0.00     0.210 HD
ENDBRANCH   5  25
BRANCH   6  27
HETATM   27  O2  UNL     1      15.235   8.491   8.791  1.00  0.00    -0.393 OA
ATOM     28  H2  UNL     1      14.436   7.977   8.780  1.00  0.00     0.210 HD
ENDBRANCH   6  27
TORSDOF 7
ENDMDL
MODEL 3
REMARK VINA RESULT: -7.505483034      2.013      2.986
REMARK  7 active torsions:
REMARK  status: ('A' for Active; 'I' for Inactive)
REMARK    1  A    between atoms: C2_2  and  C4_4 
REMARK    2  A    between atoms: C4_4  and  C5_5 
REMARK    3  A    between atoms: C5_5  and  C6_6 
REMARK    4  A    between atoms: C6_6  and  N1_7 
REMARK    5  A    between atoms: C9_11  and  O1_12 
REMARK    6  A    between atoms: C10_14  and  O2_15 
REMARK    7  A    between atoms: C20_26  and  O3_27 
ROOT
HETATM    1  N1  UNL     1      15.913   9.568  10.951  1.00  0.00    -0.394 N 
ATOM      2  H1  UNL     1      15.728  10.141  10.127  1.00  0.00     0.159 HD
HETATM    3  C7  UNL     1      16.009   8.305  10.782  1.00  0.00     0.014 C 
HETATM    4  C8  UNL     1      16.278   7.438  11.962  1.00  0.00     0.089 C 
HETATM    5  C9  UNL     1      17.255   6.358  11.459  1.00  0.00     0.152 C 
HETATM    6  C10 UNL     1      18.303   6.976  10.640  1.00  0.00     0.152 C 
HETATM    7  C11 UNL     1      18.209   6.957   9.162  1.00  0.00     0.036 C 
HETATM    8  C12 UNL     1      18.337   5.625   8.498  1.00  0.00    -0.041 C 
HETATM    9  C13 UNL     1      18.958   4.556   9.325  1.00  0.00     0.015 C 
HETATM   10  C14 UNL     1      19.207   5.722   7.229  1.00  0.00     0.015 C 
HETATM   11  C15 UNL     1      17.003   5.089   7.981  1.00  0.00     0.009 C 
HETATM   12  C16 UNL     1      16.369   6.042   7.003  1.00  0.00     0.002 C 
HETATM   13  C17 UNL     1      16.760   7.460   7.179  1.00  0.00     0.012 C 
HETATM   14  C18 UNL     1      17.116   7.820   8.614  1.00  0.00    -0.006 C 
HETATM   15  C19 UNL     1      17.565   9.292   8.536  1.00  0.00     0.019 C 
HETATM   16  C20 UNL     1      15.836   7.820   9.384  1.00  0.00     0.172 C 
ENDROOT
BRANCH   1  17
HETATM   17  C6  UNL     1      16.042  10.233  12.190  1.00  0.00     0.119 C 
BRANCH  17  18
HETATM   18  C5  UNL     1      14.704  10.784  12.685  1.00  0.00     0.020 C 
BRANCH  18  19
HETATM   19  C4  UNL     1      14.252  10.043  13.922  1.00  0.00     0.005 C 
BRANCH  19  20
HETATM   20  C2  UNL     1      13.138  10.730  14.640  1.00  0.00    -0.023 C 
HETATM   21  C1  UNL     1      13.289  12.237  14.429  1.00  0.00     0.009 C 
HETATM   22  C3  UNL     1      13.317  10.441  16.130  1.00  0.00     0.009 C 
ENDBRANCH  19  20
ENDBRANCH  18  19
ENDBRANCH  17  18
ENDBRANCH   1  17
BRANCH  16  23
HETATM   23  O3  UNL     1      14.962   8.697   8.748  1.00  0.00    -0.389 OA
ATOM     24  H3  UNL     1      14.985   8.494   7.820  1.00  0.00     0.210 HD
ENDBRANCH  16  23
BRANCH   5  25
HETATM   25  O1  UNL     1      17.806   5.826  12.651  1.00  0.00    -0.393 OA
ATOM     26  H1  UNL     1      18.722   6.074  12.603  1.00  0.00     0.210 HD
ENDBRANCH   5  25
BRANCH   6  27
HETATM   27  O2  UNL     1      19.554   6.474  11.072  1.00  0.00    -0.393 OA
ATOM     28  H2  UNL     1      20.023   6.152  10.312  1.00  0.00     0.210 HD
ENDBRANCH   6  27
TORSDOF 7
ENDMDL
MODEL 4
REMARK VINA RESULT: -7.424202526      2.254      4.366
REMARK  7 active torsions:
REMARK  status: ('A' for Active; 'I' for Inactive)
REMARK    1  A    between atoms: C2_2  and  C4_4 
REMARK    2  A    between atoms: C4_4  and  C5_5 
REMARK    3  A    between atoms: C5_5  and  C6_6 
REMARK    4  A    between atoms: C6_6  and  N1_7 
REMARK    5  A    between atoms: C9_11  and  O1_12 
REMARK    6  A    between atoms: C10_14  and  O2_15 
REMARK    7  A    between atoms: C20_26  and  O3_27 
ROOT
HETATM    1  N1  UNL     1      16.798   6.601  12.928  1.00  0.00    -0.394 N 
ATOM      2  H1  UNL     1      16.690   5.591  12.826  1.00  0.00     0.159 HD
HETATM    3  C7  UNL     1      17.438   7.221  12.012  1.00  0.00     0.014 C 
HETATM    4  C8  UNL     1      17.614   8.694  12.127  1.00  0.00     0.089 C 
HETATM    5  C9  UNL     1      17.448   9.238  10.695  1.00  0.00     0.152 C 
HETATM    6  C10 UNL     1      16.297   8.598  10.049  1.00  0.00     0.152 C 
HETATM    7  C11 UNL     1      16.493   7.458   9.125  1.00  0.00     0.036 C 
HETATM    8  C12 UNL     1      17.182   7.751   7.832  1.00  0.00    -0.041 C 
HETATM    9  C13 UNL     1      17.207   9.185   7.433  1.00  0.00     0.015 C 
HETATM   10  C14 UNL     1      16.502   7.010   6.664  1.00  0.00     0.015 C 
HETATM   11  C15 UNL     1      18.621   7.240   7.796  1.00  0.00     0.009 C 
HETATM   12  C16 UNL     1      18.683   5.755   8.034  1.00  0.00     0.002 C 
HETATM   13  C17 UNL     1      17.553   5.206   8.820  1.00  0.00     0.012 C 
HETATM   14  C18 UNL     1      16.953   6.203   9.800  1.00  0.00    -0.006 C 
HETATM   15  C19 UNL     1      15.765   5.451  10.428  1.00  0.00     0.019 C 
HETATM   16  C20 UNL     1      17.954   6.381  10.895  1.00  0.00     0.172 C 
ENDROOT
BRANCH   1  17
HETATM   17  C6  UNL     1      16.228   7.204  14.071  1.00  0.00     0.119 C 
BRANCH  17  18
HETATM   18  C5  UNL     1      14.754   7.552  13.858  1.00  0.00     0.020 C 
BRANCH  18  19
HETATM   19  C4  UNL     1      14.300   8.576  14.872  1.00  0.00     0.005 C 
BRANCH  19  20
HETATM   20  C2  UNL     1      13.594   9.737  14.255  1.00  0.00    -0.023 C 
HETATM   21  C1  UNL     1      14.518  10.356  13.205  1.00  0.00     0.009 C 
HETATM   22  C3  UNL     1      13.375  10.770  15.359  1.00  0.00     0.009 C 
ENDBRANCH  19  20
ENDBRANCH  18  19
ENDBRANCH  17  18
ENDBRANCH   1  17
BRANCH  16  23
HETATM   23  O3  UNL     1      18.232   5.122  11.420  1.00  0.00    -0.389 OA
ATOM     24  H3  UNL     1      17.950   4.481  10.778  1.00  0.00     0.210 HD
ENDBRANCH  16  23
BRANCH   5  25
HETATM   25  O1  UNL     1      17.203  10.620  10.889  1.00  0.00    -0.393 OA
ATOM     26  H1  UNL     1      16.705  10.868  10.120  1.00  0.00     0.210 HD
ENDBRANCH   5  25
BRANCH   6  27
HETATM   27  O2  UNL     1      15.513   9.609   9.443  1.00  0.00    -0.393 OA
ATOM     28  H2  UNL     1      15.897   9.816   8.599  1.00  0.00     0.210 HD
ENDBRANCH   6  27
TORSDOF 7
ENDMDL
MODEL 5
REMARK VINA RESULT: -7.395629416      3.156      6.163
REMARK  7 active torsions:
REMARK  status: ('A' for Active; 'I' for Inactive)
REMARK    1  A    between atoms: C2_2  and  C4_4 
REMARK    2  A    between atoms: C4_4  and  C5_5 
REMARK    3  A    between atoms: C5_5  and  C6_6 
REMARK    4  A    between atoms: C6_6  and  N1_7 
REMARK    5  A    between atoms: C9_11  and  O1_12 
REMARK    6  A    between atoms: C10_14  and  O2_15 
REMARK    7  A    between atoms: C20_26  and  O3_27 
ROOT
HETATM    1  N1  UNL     1      18.196   5.426  10.054  1.00  0.00    -0.394 N 
ATOM      2  H1  UNL     1      18.092   5.478   9.040  1.00  0.00     0.159 HD
HETATM    3  C7  UNL     1      18.214   6.527  10.702  1.00  0.00     0.014 C 
HETATM    4  C8  UNL     1      18.364   6.489  12.183  1.00  0.00     0.089 C 
HETATM    5  C9  UNL     1      17.429   7.592  12.715  1.00  0.00     0.152 C 
HETATM    6  C10 UNL     1      16.139   7.530  12.021  1.00  0.00     0.152 C 
HETATM    7  C11 UNL     1      15.851   8.441  10.889  1.00  0.00     0.036 C 
HETATM    8  C12 UNL     1      15.720   9.893  11.213  1.00  0.00    -0.041 C 
HETATM    9  C13 UNL     1      15.466  10.208  12.646  1.00  0.00     0.015 C 
HETATM   10  C14 UNL     1      14.547  10.528  10.439  1.00  0.00     0.015 C 
HETATM   11  C15 UNL     1      16.931  10.713  10.771  1.00  0.00     0.009 C 
HETATM   12  C16 UNL     1      17.172  10.583   9.291  1.00  0.00     0.002 C 
HETATM   13  C17 UNL     1      16.670   9.324   8.691  1.00  0.00     0.012 C 
HETATM   14  C18 UNL     1      16.654   8.152   9.659  1.00  0.00    -0.006 C 
HETATM   15  C19 UNL     1      16.025   7.001   8.852  1.00  0.00     0.019 C 
HETATM   16  C20 UNL     1      18.079   7.766   9.886  1.00  0.00     0.172 C 
ENDROOT
BRANCH   1  17
HETATM   17  C6  UNL     1      18.310   4.142  10.631  1.00  0.00     0.119 C 
BRANCH  17  18
HETATM   18  C5  UNL     1      17.051   3.302  10.408  1.00  0.00     0.020 C 
BRANCH  18  19
HETATM   19  C4  UNL     1      15.847   3.979  11.020  1.00  0.00     0.005 C 
BRANCH  19  20
HETATM   20  C2  UNL     1      15.190   3.158  12.079  1.00  0.00    -0.023 C 
HETATM   21  C1  UNL     1      14.660   4.104  13.158  1.00  0.00     0.009 C 
HETATM   22  C3  UNL     1      16.275   2.285  12.709  1.00  0.00     0.009 C 
ENDBRANCH  19  20
ENDBRANCH  18  19
ENDBRANCH  17  18
ENDBRANCH   1  17
BRANCH  16  23
HETATM   23  O3  UNL     1      18.648   7.505   8.643  1.00  0.00    -0.389 OA
ATOM     24  H3  UNL     1      18.094   6.866   8.209  1.00  0.00     0.210 HD
ENDBRANCH  16  23
BRANCH   5  25
HETATM   25  O1  UNL     1      17.271   7.263  14.084  1.00  0.00    -0.393 OA
ATOM     26  H1  UNL     1      17.915   7.807  14.521  1.00  0.00     0.210 HD
ENDBRANCH   5  25
BRANCH   6  27
HETATM   27  O2  UNL     1      15.111   7.592  12.992  1.00  0.00    -0.393 OA
ATOM     28  H2  UNL     1      14.290   7.364  12.571  1.00  0.00     0.210 HD
ENDBRANCH   6  27
TORSDOF 7
ENDMDL
