MODEL 1
REMARK VINA RESULT: -8.641238744      0.000      0.000
REMARK  4 active torsions:
REMARK  status: ('A' for Active; 'I' for Inactive)
REMARK    1  A    between atoms: C2_5  and  C3_6 
REMARK    2  A    between atoms: C9_14  and  N3_15 
REMARK    3  A    between atoms: N3_15  and  C10_17 
REMARK    4  A    between atoms: C15_25  and  N5_26 
ROOT
HETATM    1  O1  UNL     1      91.245 117.205 128.739  1.00  0.00    -0.265 OA
HETATM    2  C1  UNL     1      90.710 117.241 129.887  1.00  0.00     0.283 A 
HETATM    3  N1  UNL     1      90.578 116.130 130.634  1.00  0.00    -0.310 N 
ATOM      4  H1  UNL     1      90.918 115.243 130.264  1.00  0.00     0.170 HD
HETATM    5  C2  UNL     1      90.013 116.155 131.852  1.00  0.00     0.089 A 
HETATM    6  N2  UNL     1      89.582 117.358 132.290  1.00  0.00    -0.330 N 
ATOM      7  H2  UNL     1      89.150 117.400 133.213  1.00  0.00     0.168 HD
HETATM    8  C9  UNL     1      89.683 118.506 131.593  1.00  0.00     0.142 A 
HETATM    9  C15 UNL     1      90.276 118.467 130.324  1.00  0.00     0.214 A 
ENDROOT
BRANCH   8  10
HETATM   10  N3  UNL     1      89.240 119.752 132.065  1.00  0.00    -0.363 N 
ATOM     11  H3  UNL     1      89.751 120.558 131.705  1.00  0.00     0.162 HD
BRANCH  10  12
HETATM   12  C10 UNL     1      88.186 120.058 132.969  1.00  0.00     0.144 C 
HETATM   13  C11 UNL     1      88.642 120.344 134.391  1.00  0.00     0.034 C 
HETATM   14  C12 UNL     1      87.361 120.179 135.235  1.00  0.00     0.022 C 
HETATM   15  C13 UNL     1      86.519 121.403 134.958  1.00  0.00     0.120 C 
HETATM   16  N4  UNL     1      86.787 121.978 133.652  1.00  0.00    -0.383 N 
HETATM   17  C14 UNL     1      87.347 121.223 132.589  1.00  0.00     0.096 C 
ATOM     18  H4  UNL     1      86.564 122.961 133.492  1.00  0.00     0.160 HD
HETATM   19  S1  UNL     1      87.084 121.598 131.044  1.00  0.00    -0.063 SA
ENDBRANCH  10  12
ENDBRANCH   8  10
BRANCH   9  20
HETATM   20  N5  UNL     1      90.408 119.652 129.545  1.00  0.00    -0.106 N 
HETATM   21  O2  UNL     1      89.552 120.056 128.737  1.00  0.00    -0.531 OA
HETATM   22  O3  UNL     1      91.550 120.398 129.695  1.00  0.00    -0.531 OA
ENDBRANCH   9  20
BRANCH   5  23
HETATM   23  C3  UNL     1      89.871 114.920 132.671  1.00  0.00     0.053 C 
HETATM   24  C4  UNL     1      91.199 114.334 133.042  1.00  0.00     0.012 C 
HETATM   25  C5  UNL     1      91.130 112.845 133.060  1.00  0.00     0.001 C 
HETATM   26  C6  UNL     1      90.848 112.246 131.702  1.00  0.00     0.000 C 
HETATM   27  C7  UNL     1      89.779 113.027 131.013  1.00  0.00     0.001 C 
HETATM   28  C8  UNL     1      88.996 113.901 131.964  1.00  0.00     0.012 C 
ENDBRANCH   5  23
TORSDOF 4
ENDMDL
MODEL 2
REMARK VINA RESULT: -8.627197940      2.133      6.295
REMARK  4 active torsions:
REMARK  status: ('A' for Active; 'I' for Inactive)
REMARK    1  A    between atoms: C2_5  and  C3_6 
REMARK    2  A    between atoms: C9_14  and  N3_15 
REMARK    3  A    between atoms: N3_15  and  C10_17 
REMARK    4  A    between atoms: C15_25  and  N5_26 
ROOT
HETATM    1  O1  UNL     1      88.353 121.375 129.293  1.00  0.00    -0.265 OA
HETATM    2  C1  UNL     1      88.625 120.684 130.318  1.00  0.00     0.283 A 
HETATM    3  N1  UNL     1      87.875 120.754 131.432  1.00  0.00    -0.310 N 
ATOM      4  H1  UNL     1      87.071 121.380 131.447  1.00  0.00     0.170 HD
HETATM    5  C2  UNL     1      88.153 120.025 132.525  1.00  0.00     0.089 A 
HETATM    6  N2  UNL     1      89.230 119.213 132.448  1.00  0.00    -0.330 N 
ATOM      7  H2  UNL     1      89.459 118.650 133.266  1.00  0.00     0.168 HD
HETATM    8  C9  UNL     1      90.022 119.096 131.365  1.00  0.00     0.142 A 
HETATM    9  C15 UNL     1      89.721 119.861 130.230  1.00  0.00     0.214 A 
ENDROOT
BRANCH   8  10
HETATM   10  N3  UNL     1      91.133 118.240 131.294  1.00  0.00    -0.363 N 
ATOM     11  H3  UNL     1      92.040 118.706 131.281  1.00  0.00     0.162 HD
BRANCH  10  12
HETATM   12  C10 UNL     1      91.183 116.820 131.238  1.00  0.00     0.144 C 
HETATM   13  C11 UNL     1      89.829 116.138 131.360  1.00  0.00     0.034 C 
HETATM   14  C12 UNL     1      90.174 114.683 131.739  1.00  0.00     0.022 C 
HETATM   15  C13 UNL     1      90.702 114.039 130.477  1.00  0.00     0.120 C 
HETATM   16  N4  UNL     1      91.297 115.002 129.567  1.00  0.00    -0.383 N 
HETATM   17  C14 UNL     1      91.791 116.257 130.006  1.00  0.00     0.096 C 
ATOM     18  H4  UNL     1      91.361 114.767 128.576  1.00  0.00     0.160 HD
HETATM   19  S1  UNL     1      92.961 117.037 129.218  1.00  0.00    -0.063 SA
ENDBRANCH  10  12
ENDBRANCH   8  10
BRANCH   9  20
HETATM   20  N5  UNL     1      90.524 119.774 129.058  1.00  0.00    -0.106 N 
HETATM   21  O2  UNL     1      90.194 119.159 128.028  1.00  0.00    -0.531 OA
HETATM   22  O3  UNL     1      91.740 120.410 129.061  1.00  0.00    -0.531 OA
ENDBRANCH   9  20
BRANCH   5  23
HETATM   23  C3  UNL     1      87.317 120.111 133.754  1.00  0.00     0.053 C 
HETATM   24  C4  UNL     1      86.753 121.485 133.956  1.00  0.00     0.012 C 
HETATM   25  C5  UNL     1      86.691 121.819 135.407  1.00  0.00     0.001 C 
HETATM   26  C6  UNL     1      88.054 121.900 136.057  1.00  0.00     0.000 C 
HETATM   27  C7  UNL     1      88.905 120.765 135.596  1.00  0.00     0.001 C 
HETATM   28  C8  UNL     1      88.099 119.652 134.971  1.00  0.00     0.012 C 
ENDBRANCH   5  23
TORSDOF 4
ENDMDL
MODEL 3
REMARK VINA RESULT: -8.552141301      2.179      6.070
REMARK  4 active torsions:
REMARK  status: ('A' for Active; 'I' for Inactive)
REMARK    1  A    between atoms: C2_5  and  C3_6 
REMARK    2  A    between atoms: C9_14  and  N3_15 
REMARK    3  A    between atoms: N3_15  and  C10_17 
REMARK    4  A    between atoms: C15_25  and  N5_26 
ROOT
HETATM    1  O1  UNL     1      88.029 121.492 128.701  1.00  0.00    -0.265 OA
HETATM    2  C1  UNL     1      88.410 121.135 129.855  1.00  0.00     0.283 A 
HETATM    3  N1  UNL     1      87.916 121.710 130.966  1.00  0.00    -0.310 N 
ATOM      4  H1  UNL     1      87.220 122.450 130.872  1.00  0.00     0.170 HD
HETATM    5  C2  UNL     1      88.311 121.340 132.195  1.00  0.00     0.089 A 
HETATM    6  N2  UNL     1      89.234 120.355 132.258  1.00  0.00    -0.330 N 
ATOM      7  H2  UNL     1      89.548 120.058 133.182  1.00  0.00     0.168 HD
HETATM    8  C9  UNL     1      89.768 119.739 131.186  1.00  0.00     0.142 A 
HETATM    9  C15 UNL     1      89.347 120.133 129.909  1.00  0.00     0.214 A 
ENDROOT
BRANCH   8  10
HETATM   10  N3  UNL     1      90.719 118.710 131.267  1.00  0.00    -0.363 N 
ATOM     11  H3  UNL     1      91.650 118.951 130.926  1.00  0.00     0.162 HD
BRANCH  10  12
HETATM   12  C10 UNL     1      90.580 117.381 131.753  1.00  0.00     0.144 C 
HETATM   13  C11 UNL     1      89.214 117.067 132.343  1.00  0.00     0.034 C 
HETATM   14  C12 UNL     1      89.454 115.800 133.190  1.00  0.00     0.022 C 
HETATM   15  C13 UNL     1      89.602 114.663 132.204  1.00  0.00     0.120 C 
HETATM   16  N4  UNL     1      90.093 115.107 130.912  1.00  0.00    -0.383 N 
HETATM   17  C14 UNL     1      90.824 116.313 130.750  1.00  0.00     0.096 C 
ATOM     18  H4  UNL     1      89.905 114.532 130.091  1.00  0.00     0.160 HD
HETATM   19  S1  UNL     1      91.875 116.518 129.545  1.00  0.00    -0.063 SA
ENDBRANCH  10  12
ENDBRANCH   8  10
BRANCH   9  20
HETATM   20  N5  UNL     1      89.879 119.514 128.743  1.00  0.00    -0.106 N 
HETATM   21  O2  UNL     1      89.338 118.563 128.149  1.00  0.00    -0.531 OA
HETATM   22  O3  UNL     1      91.060 119.995 128.238  1.00  0.00    -0.531 OA
ENDBRANCH   9  20
BRANCH   5  23
HETATM   23  C3  UNL     1      87.759 121.983 133.418  1.00  0.00     0.053 C 
HETATM   24  C4  UNL     1      88.841 122.469 134.336  1.00  0.00     0.012 C 
HETATM   25  C5  UNL     1      88.434 122.307 135.760  1.00  0.00     0.001 C 
HETATM   26  C6  UNL     1      88.252 120.862 136.166  1.00  0.00     0.000 C 
HETATM   27  C7  UNL     1      87.516 120.123 135.098  1.00  0.00     0.001 C 
HETATM   28  C8  UNL     1      86.806 121.047 134.138  1.00  0.00     0.012 C 
ENDBRANCH   5  23
TORSDOF 4
ENDMDL
MODEL 4
REMARK VINA RESULT: -8.478498920      2.900      3.841
REMARK  4 active torsions:
REMARK  status: ('A' for Active; 'I' for Inactive)
REMARK    1  A    between atoms: C2_5  and  C3_6 
REMARK    2  A    between atoms: C9_14  and  N3_15 
REMARK    3  A    between atoms: N3_15  and  C10_17 
REMARK    4  A    between atoms: C15_25  and  N5_26 
ROOT
HETATM    1  O1  UNL     1      89.096 120.022 130.511  1.00  0.00    -0.265 OA
HETATM    2  C1  UNL     1      88.966 119.523 131.668  1.00  0.00     0.283 A 
HETATM    3  N1  UNL     1      89.320 118.252 131.928  1.00  0.00    -0.310 N 
ATOM      4  H1  UNL     1      89.699 117.681 131.173  1.00  0.00     0.170 HD
HETATM    5  C2  UNL     1      89.188 117.712 133.150  1.00  0.00     0.089 A 
HETATM    6  N2  UNL     1      88.679 118.516 134.110  1.00  0.00    -0.330 N 
ATOM      7  H2  UNL     1      88.571 118.127 135.047  1.00  0.00     0.168 HD
HETATM    8  C9  UNL     1      88.306 119.796 133.917  1.00  0.00     0.142 A 
HETATM    9  C15 UNL     1      88.450 120.348 132.637  1.00  0.00     0.214 A 
ENDROOT
BRANCH   8  10
HETATM   10  N3  UNL     1      87.789 120.623 134.926  1.00  0.00    -0.363 N 
ATOM     11  H3  UNL     1      86.829 120.936 134.781  1.00  0.00     0.162 HD
BRANCH  10  12
HETATM   12  C10 UNL     1      88.403 121.091 136.120  1.00  0.00     0.144 C 
HETATM   13  C11 UNL     1      89.202 122.373 135.954  1.00  0.00     0.034 C 
HETATM   14  C12 UNL     1      90.114 122.410 137.198  1.00  0.00     0.022 C 
HETATM   15  C13 UNL     1      89.220 122.783 138.359  1.00  0.00     0.120 C 
HETATM   16  N4  UNL     1      87.838 122.392 138.145  1.00  0.00    -0.383 N 
HETATM   17  C14 UNL     1      87.472 121.357 137.247  1.00  0.00     0.096 C 
ATOM     18  H4  UNL     1      87.104 122.879 138.660  1.00  0.00     0.160 HD
HETATM   19  S1  UNL     1      86.119 120.501 137.435  1.00  0.00    -0.063 SA
ENDBRANCH  10  12
ENDBRANCH   8  10
BRANCH   9  20
HETATM   20  N5  UNL     1      88.072 121.695 132.378  1.00  0.00    -0.106 N 
HETATM   21  O2  UNL     1      88.639 122.687 132.872  1.00  0.00    -0.531 OA
HETATM   22  O3  UNL     1      87.018 121.919 131.528  1.00  0.00    -0.531 OA
ENDBRANCH   9  20
BRANCH   5  23
HETATM   23  C3  UNL     1      89.580 116.304 133.428  1.00  0.00     0.053 C 
HETATM   24  C4  UNL     1      89.938 116.092 134.868  1.00  0.00     0.012 C 
HETATM   25  C5  UNL     1      91.046 115.103 134.995  1.00  0.00     0.001 C 
HETATM   26  C6  UNL     1      92.341 115.579 134.377  1.00  0.00     0.000 C 
HETATM   27  C7  UNL     1      92.070 116.220 133.057  1.00  0.00     0.001 C 
HETATM   28  C8  UNL     1      90.707 115.867 132.510  1.00  0.00     0.012 C 
ENDBRANCH   5  23
TORSDOF 4
ENDMDL
MODEL 5
REMARK VINA RESULT: -8.460810228      2.551      6.408
REMARK  4 active torsions:
REMARK  status: ('A' for Active; 'I' for Inactive)
REMARK    1  A    between atoms: C2_5  and  C3_6 
REMARK    2  A    between atoms: C9_14  and  N3_15 
REMARK    3  A    between atoms: N3_15  and  C10_17 
REMARK    4  A    between atoms: C15_25  and  N5_26 
ROOT
HETATM    1  O1  UNL     1      91.970 120.468 129.438  1.00  0.00    -0.265 OA
HETATM    2  C1  UNL     1      91.305 119.818 130.298  1.00  0.00     0.283 A 
HETATM    3  N1  UNL     1      90.160 120.301 130.811  1.00  0.00    -0.310 N 
ATOM      4  H1  UNL     1      89.824 121.211 130.500  1.00  0.00     0.170 HD
HETATM    5  C2  UNL     1      89.446 119.620 131.722  1.00  0.00     0.089 A 
HETATM    6  N2  UNL     1      89.938 118.419 132.097  1.00  0.00    -0.330 N 
ATOM      7  H2  UNL     1      89.412 117.885 132.788  1.00  0.00     0.168 HD
HETATM    8  C9  UNL     1      91.077 117.879 131.623  1.00  0.00     0.142 A 
HETATM    9  C15 UNL     1      91.813 118.598 130.672  1.00  0.00     0.214 A 
ENDROOT
BRANCH   8  10
HETATM   10  N3  UNL     1      91.573 116.625 132.013  1.00  0.00    -0.363 N 
ATOM     11  H3  UNL     1      92.590 116.546 132.032  1.00  0.00     0.162 HD
BRANCH  10  12
HETATM   12  C10 UNL     1      90.870 115.447 132.388  1.00  0.00     0.144 C 
HETATM   13  C11 UNL     1      90.408 114.592 131.218  1.00  0.00     0.034 C 
HETATM   14  C12 UNL     1      89.317 113.685 131.824  1.00  0.00     0.022 C 
HETATM   15  C13 UNL     1      90.047 112.655 132.655  1.00  0.00     0.120 C 
HETATM   16  N4  UNL     1      91.328 113.137 133.140  1.00  0.00    -0.383 N 
HETATM   17  C14 UNL     1      91.618 114.519 133.274  1.00  0.00     0.096 C 
ATOM     18  H4  UNL     1      92.045 112.457 133.394  1.00  0.00     0.160 HD
HETATM   19  S1  UNL     1      92.699 115.065 134.338  1.00  0.00    -0.063 SA
ENDBRANCH  10  12
ENDBRANCH   8  10
BRANCH   9  20
HETATM   20  N5  UNL     1      93.023 118.073 130.137  1.00  0.00    -0.106 N 
HETATM   21  O2  UNL     1      93.212 117.847 128.927  1.00  0.00    -0.531 OA
HETATM   22  O3  UNL     1      94.048 117.799 131.006  1.00  0.00    -0.531 OA
ENDBRANCH   9  20
BRANCH   5  23
HETATM   23  C3  UNL     1      88.180 120.163 132.287  1.00  0.00     0.053 C 
HETATM   24  C4  UNL     1      88.232 121.652 132.456  1.00  0.00     0.012 C 
HETATM   25  C5  UNL     1      87.483 122.069 133.675  1.00  0.00     0.001 C 
HETATM   26  C6  UNL     1      88.093 121.547 134.956  1.00  0.00     0.000 C 
HETATM   27  C7  UNL     1      88.491 120.119 134.785  1.00  0.00     0.001 C 
HETATM   28  C8  UNL     1      87.830 119.472 133.592  1.00  0.00     0.012 C 
ENDBRANCH   5  23
TORSDOF 4
ENDMDL
