MODEL 1
REMARK VINA RESULT: -7.229722314      0.000      0.000
REMARK  16 active torsions:
REMARK  status: ('A' for Active; 'I' for Inactive)
REMARK    1  A    between atoms: C2_2  and  C3_3 
REMARK    2  A    between atoms: C3_3  and  C4_4 
REMARK    3  A    between atoms: N1_5  and  O1_6 
REMARK    4  A    between atoms: C5_8  and  C6_9 
REMARK    5  A    between atoms: C6_9  and  C7_10 
REMARK    6  A    between atoms: N3_14  and  C9_16 
REMARK    7  A    between atoms: C9_16  and  C10_17 
REMARK    8  A    between atoms: N4_18  and  C11_19 
REMARK    9  A    between atoms: N4_18  and  C13_21 
REMARK   10  A    between atoms: C13_21  and  C14_22 
REMARK   11  A    between atoms: C14_22  and  C15_23 
REMARK   12  A    between atoms: N9_39  and  C23_40 
REMARK   13  A    between atoms: C23_40  and  C24_41 
REMARK   14  A    between atoms: C24_41  and  N10_42 
REMARK   15  A    between atoms: N10_42  and  C25_43 
REMARK   16  A    between atoms: N10_42  and  C27_45 
ROOT
HETATM    1  C7  UNL     1       0.369   5.487  81.161  1.00  0.00     0.139 A 
HETATM    2  N2  UNL     1       0.049   6.407  82.086  1.00  0.00    -0.175 N 
ATOM      3  H2  UNL     1       0.036   7.391  81.819  1.00  0.00     0.186 HD
HETATM    4  C8  UNL     1      -0.255   6.075  83.350  1.00  0.00     0.705 A 
HETATM    5  N3  UNL     1      -0.588   6.881  84.262  1.00  0.00    -0.220 N 
ATOM      6  H3  UNL     1      -0.785   6.459  85.169  1.00  0.00     0.178 HD
HETATM    7  N5  UNL     1      -0.238   4.752  83.730  1.00  0.00     0.077 N 
HETATM    8  C17 UNL     1      -0.543   4.421  84.994  1.00  0.00     0.368 A 
HETATM    9  O2  UNL     1      -0.837   5.300  85.839  1.00  0.00    -0.245 OA
HETATM   10  N6  UNL     1      -0.517   3.103  85.311  1.00  0.00    -0.254 N 
HETATM   11  C18 UNL     1      -0.847   2.689  86.663  1.00  0.00     0.166 C 
HETATM   12  C19 UNL     1      -0.201   2.161  84.409  1.00  0.00     0.346 A 
HETATM   13  O3  UNL     1      -0.182   0.930  84.725  1.00  0.00    -0.246 OA
HETATM   14  N7  UNL     1       0.098   2.513  83.161  1.00  0.00    -0.135 N 
HETATM   15  C20 UNL     1       0.452   1.559  82.111  1.00  0.00     0.180 C 
HETATM   16  C21 UNL     1       0.084   3.836  82.801  1.00  0.00     0.715 A 
HETATM   17  N8  UNL     1       0.381   4.177  81.545  1.00  0.00    -0.174 N 
ATOM     18  H8  UNL     1       0.620   3.453  80.867  1.00  0.00     0.186 HD
ENDROOT
BRANCH   1  19
HETATM   19  C6  UNL     1       0.668   5.803  79.765  1.00  0.00     0.087 C 
BRANCH  19  20
HETATM   20  C5  UNL     1       1.850   6.050  79.278  1.00  0.00     0.136 A 
HETATM   21  N1  UNL     1       2.254   6.112  78.007  1.00  0.00    -0.202 N 
HETATM   22  C4  UNL     1       3.568   6.446  77.975  1.00  0.00     0.139 A 
HETATM   23  N9  UNL     1       4.014   6.602  79.258  1.00  0.00    -0.292 N 
HETATM   24  C22 UNL     1       2.960   6.357  80.056  1.00  0.00     0.279 A 
HETATM   25  O4  UNL     1       3.020   6.412  81.331  1.00  0.00    -0.265 OA
BRANCH  21  26
HETATM   26  O1  UNL     1       1.432   5.860  76.905  1.00  0.00    -0.281 OA
ATOM     27  H1  UNL     1       1.202   6.475  76.217  1.00  0.00     0.245 HD
ENDBRANCH  21  26
BRANCH  22  28
HETATM   28  C3  UNL     1       4.298   6.578  76.900  1.00  0.00     0.050 C 
BRANCH  28  29
HETATM   29  C2  UNL     1       4.668   5.591  75.917  1.00  0.00    -0.006 C 
HETATM   30  C1  UNL     1       4.459   5.813  74.604  1.00  0.00     0.011 C 
ENDBRANCH  28  29
ENDBRANCH  22  28
BRANCH  23  31
HETATM   31  C23 UNL     1       5.320   7.020  79.727  1.00  0.00     0.178 C 
BRANCH  31  32
HETATM   32  C24 UNL     1       6.256   5.913  80.048  1.00  0.00     0.078 C 
BRANCH  32  33
HETATM   33  N10 UNL     1       7.596   5.964  79.668  1.00  0.00    -0.392 N 
BRANCH  33  34
HETATM   34  C25 UNL     1       8.468   6.918  80.236  1.00  0.00     0.117 C 
HETATM   35  C26 UNL     1       8.699   6.713  81.727  1.00  0.00     0.026 C 
ENDBRANCH  33  34
BRANCH  33  36
HETATM   36  C27 UNL     1       7.900   5.628  78.300  1.00  0.00     0.117 C 
HETATM   37  C28 UNL     1       7.491   4.230  77.926  1.00  0.00     0.026 C 
ENDBRANCH  33  36
ENDBRANCH  32  33
ENDBRANCH  31  32
ENDBRANCH  23  31
ENDBRANCH  19  20
ENDBRANCH   1  19
BRANCH   5  38
HETATM   38  C9  UNL     1      -0.729   8.314  84.201  1.00  0.00     0.182 C 
BRANCH  38  39
HETATM   39  C10 UNL     1       0.586   9.013  84.417  1.00  0.00     0.083 C 
HETATM   40  N4  UNL     1       1.180   9.723  83.415  1.00  0.00    -0.373 N 
BRANCH  40  41
HETATM   41  C11 UNL     1       2.234  10.573  83.860  1.00  0.00     0.122 C 
HETATM   42  C12 UNL     1       3.191   9.978  84.825  1.00  0.00     0.027 C 
ENDBRANCH  40  41
BRANCH  40  43
HETATM   43  C13 UNL     1       0.823   9.816  82.093  1.00  0.00     0.063 C 
BRANCH  43  44
HETATM   44  C14 UNL     1      -0.067  10.981  81.750  1.00  0.00     0.044 C 
BRANCH  44  45
HETATM   45  C15 UNL     1      -0.981  10.748  80.577  1.00  0.00     0.001 C 
HETATM   46  C16 UNL     1      -1.375   9.294  80.413  1.00  0.00     0.005 C 
ENDBRANCH  44  45
ENDBRANCH  43  44
ENDBRANCH  40  43
ENDBRANCH  38  39
ENDBRANCH   5  38
TORSDOF 16
ENDMDL
MODEL 2
REMARK VINA RESULT: -7.178003963      2.369      5.060
REMARK  16 active torsions:
REMARK  status: ('A' for Active; 'I' for Inactive)
REMARK    1  A    between atoms: C2_2  and  C3_3 
REMARK    2  A    between atoms: C3_3  and  C4_4 
REMARK    3  A    between atoms: N1_5  and  O1_6 
REMARK    4  A    between atoms: C5_8  and  C6_9 
REMARK    5  A    between atoms: C6_9  and  C7_10 
REMARK    6  A    between atoms: N3_14  and  C9_16 
REMARK    7  A    between atoms: C9_16  and  C10_17 
REMARK    8  A    between atoms: N4_18  and  C11_19 
REMARK    9  A    between atoms: N4_18  and  C13_21 
REMARK   10  A    between atoms: C13_21  and  C14_22 
REMARK   11  A    between atoms: C14_22  and  C15_23 
REMARK   12  A    between atoms: N9_39  and  C23_40 
REMARK   13  A    between atoms: C23_40  and  C24_41 
REMARK   14  A    between atoms: C24_41  and  N10_42 
REMARK   15  A    between atoms: N10_42  and  C25_43 
REMARK   16  A    between atoms: N10_42  and  C27_45 
ROOT
HETATM    1  C7  UNL     1       0.408   5.075  81.021  1.00  0.00     0.139 A 
HETATM    2  N2  UNL     1       0.086   6.089  81.841  1.00  0.00    -0.175 N 
ATOM      3  H2  UNL     1       0.081   7.039  81.471  1.00  0.00     0.186 HD
HETATM    4  C8  UNL     1      -0.231   5.894  83.130  1.00  0.00     0.705 A 
HETATM    5  N3  UNL     1      -0.566   6.793  83.948  1.00  0.00    -0.220 N 
ATOM      6  H3  UNL     1      -0.774   6.471  84.893  1.00  0.00     0.178 HD
HETATM    7  N5  UNL     1      -0.225   4.618  83.648  1.00  0.00     0.077 N 
HETATM    8  C17 UNL     1      -0.542   4.425  84.937  1.00  0.00     0.368 A 
HETATM    9  O2  UNL     1      -0.838   5.389  85.682  1.00  0.00    -0.245 OA
HETATM   10  N6  UNL     1      -0.526   3.147  85.391  1.00  0.00    -0.254 N 
HETATM   11  C18 UNL     1      -0.871   2.880  86.776  1.00  0.00     0.166 C 
HETATM   12  C19 UNL     1      -0.209   2.114  84.597  1.00  0.00     0.346 A 
HETATM   13  O3  UNL     1      -0.200   0.923  85.042  1.00  0.00    -0.246 OA
HETATM   14  N7  UNL     1       0.103   2.331  83.321  1.00  0.00    -0.135 N 
HETATM   15  C20 UNL     1       0.460   1.269  82.381  1.00  0.00     0.180 C 
HETATM   16  C21 UNL     1       0.099   3.608  82.824  1.00  0.00     0.715 A 
HETATM   17  N8  UNL     1       0.410   3.813  81.541  1.00  0.00    -0.174 N 
ATOM     18  H8  UNL     1       0.649   3.020  80.945  1.00  0.00     0.186 HD
ENDROOT
BRANCH   1  19
HETATM   19  C6  UNL     1       0.721   5.240  79.602  1.00  0.00     0.087 C 
BRANCH  19  20
HETATM   20  C5  UNL     1       1.010   6.366  79.013  1.00  0.00     0.136 A 
HETATM   21  N1  UNL     1       2.156   6.771  78.462  1.00  0.00    -0.202 N 
HETATM   22  C4  UNL     1       1.978   8.003  77.924  1.00  0.00     0.139 A 
HETATM   23  N9  UNL     1       0.685   8.393  78.136  1.00  0.00    -0.292 N 
HETATM   24  C22 UNL     1       0.093   7.390  78.806  1.00  0.00     0.279 A 
HETATM   25  O4  UNL     1      -1.130   7.420  79.174  1.00  0.00    -0.265 OA
BRANCH  21  26
HETATM   26  O1  UNL     1       3.338   6.024  78.461  1.00  0.00    -0.281 OA
ATOM     27  H1  UNL     1       3.424   5.099  78.260  1.00  0.00     0.245 HD
ENDBRANCH  21  26
BRANCH  22  28
HETATM   28  C3  UNL     1       2.892   8.713  77.318  1.00  0.00     0.050 C 
BRANCH  28  29
HETATM   29  C2  UNL     1       3.887   9.593  77.878  1.00  0.00    -0.006 C 
HETATM   30  C1  UNL     1       5.091   9.121  78.258  1.00  0.00     0.011 C 
ENDBRANCH  28  29
ENDBRANCH  22  28
BRANCH  23  31
HETATM   31  C23 UNL     1       0.009   9.595  77.690  1.00  0.00     0.178 C 
BRANCH  31  32
HETATM   32  C24 UNL     1      -0.613   9.503  76.345  1.00  0.00     0.078 C 
BRANCH  32  33
HETATM   33  N10 UNL     1      -1.976   9.256  76.191  1.00  0.00    -0.392 N 
BRANCH  33  34
HETATM   34  C25 UNL     1      -2.511   8.947  74.922  1.00  0.00     0.117 C 
HETATM   35  C26 UNL     1      -3.132  10.147  74.220  1.00  0.00     0.026 C 
ENDBRANCH  33  34
BRANCH  33  36
HETATM   36  C27 UNL     1      -2.873   9.992  77.047  1.00  0.00     0.117 C 
HETATM   37  C28 UNL     1      -3.818   9.110  77.816  1.00  0.00     0.026 C 
ENDBRANCH  33  36
ENDBRANCH  32  33
ENDBRANCH  31  32
ENDBRANCH  23  31
ENDBRANCH  19  20
ENDBRANCH   1  19
BRANCH   5  38
HETATM   38  C9  UNL     1      -0.698   8.213  83.736  1.00  0.00     0.182 C 
BRANCH  38  39
HETATM   39  C10 UNL     1       0.530   8.959  84.181  1.00  0.00     0.083 C 
HETATM   40  N4  UNL     1       1.382   9.521  83.275  1.00  0.00    -0.373 N 
BRANCH  40  41
HETATM   41  C11 UNL     1       2.301  10.447  83.848  1.00  0.00     0.122 C 
HETATM   42  C12 UNL     1       3.240   9.897  84.857  1.00  0.00     0.027 C 
ENDBRANCH  40  41
BRANCH  40  43
HETATM   43  C13 UNL     1       1.385   9.407  81.907  1.00  0.00     0.063 C 
BRANCH  43  44
HETATM   44  C14 UNL     1       2.721   9.080  81.295  1.00  0.00     0.044 C 
BRANCH  44  45
HETATM   45  C15 UNL     1       3.282   7.741  81.691  1.00  0.00     0.001 C 
HETATM   46  C16 UNL     1       4.797   7.721  81.729  1.00  0.00     0.005 C 
ENDBRANCH  44  45
ENDBRANCH  43  44
ENDBRANCH  40  43
ENDBRANCH  38  39
ENDBRANCH   5  38
TORSDOF 16
ENDMDL
MODEL 3
REMARK VINA RESULT: -7.136047482      2.289      7.852
REMARK  16 active torsions:
REMARK  status: ('A' for Active; 'I' for Inactive)
REMARK    1  A    between atoms: C2_2  and  C3_3 
REMARK    2  A    between atoms: C3_3  and  C4_4 
REMARK    3  A    between atoms: N1_5  and  O1_6 
REMARK    4  A    between atoms: C5_8  and  C6_9 
REMARK    5  A    between atoms: C6_9  and  C7_10 
REMARK    6  A    between atoms: N3_14  and  C9_16 
REMARK    7  A    between atoms: C9_16  and  C10_17 
REMARK    8  A    between atoms: N4_18  and  C11_19 
REMARK    9  A    between atoms: N4_18  and  C13_21 
REMARK   10  A    between atoms: C13_21  and  C14_22 
REMARK   11  A    between atoms: C14_22  and  C15_23 
REMARK   12  A    between atoms: N9_39  and  C23_40 
REMARK   13  A    between atoms: C23_40  and  C24_41 
REMARK   14  A    between atoms: C24_41  and  N10_42 
REMARK   15  A    between atoms: N10_42  and  C25_43 
REMARK   16  A    between atoms: N10_42  and  C27_45 
ROOT
HETATM    1  C7  UNL     1       4.017   7.331  81.754  1.00  0.00     0.139 A 
HETATM    2  N2  UNL     1       3.180   7.051  80.742  1.00  0.00    -0.175 N 
ATOM      3  H2  UNL     1       2.184   7.233  80.862  1.00  0.00     0.186 HD
HETATM    4  C8  UNL     1       3.610   6.539  79.579  1.00  0.00     0.705 A 
HETATM    5  N3  UNL     1       2.887   6.275  78.579  1.00  0.00    -0.220 N 
ATOM      6  H3  UNL     1       3.377   5.889  77.773  1.00  0.00     0.178 HD
HETATM    7  N5  UNL     1       4.951   6.281  79.401  1.00  0.00     0.077 N 
HETATM    8  C17 UNL     1       5.380   5.771  78.237  1.00  0.00     0.368 A 
HETATM    9  O2  UNL     1       4.577   5.517  77.307  1.00  0.00    -0.245 OA
HETATM   10  N6  UNL     1       6.711   5.544  78.116  1.00  0.00    -0.254 N 
HETATM   11  C18 UNL     1       7.230   5.000  76.873  1.00  0.00     0.166 C 
HETATM   12  C19 UNL     1       7.572   5.814  79.109  1.00  0.00     0.346 A 
HETATM   13  O3  UNL     1       8.817   5.594  78.975  1.00  0.00    -0.246 OA
HETATM   14  N7  UNL     1       7.123   6.320  80.255  1.00  0.00    -0.135 N 
HETATM   15  C20 UNL     1       7.984   6.646  81.391  1.00  0.00     0.180 C 
HETATM   16  C21 UNL     1       5.784   6.563  80.418  1.00  0.00     0.715 A 
HETATM   17  N8  UNL     1       5.345   7.075  81.570  1.00  0.00    -0.174 N 
ATOM     18  H8  UNL     1       6.008   7.276  82.319  1.00  0.00     0.186 HD
ENDROOT
BRANCH   1  19
HETATM   19  C6  UNL     1       3.595   7.924  83.022  1.00  0.00     0.087 C 
BRANCH  19  20
HETATM   20  C5  UNL     1       2.406   7.832  83.546  1.00  0.00     0.136 A 
HETATM   21  N1  UNL     1       1.470   8.771  83.710  1.00  0.00    -0.202 N 
HETATM   22  C4  UNL     1       0.368   8.205  84.261  1.00  0.00     0.139 A 
HETATM   23  N9  UNL     1       0.605   6.872  84.452  1.00  0.00    -0.292 N 
HETATM   24  C22 UNL     1       1.855   6.646  84.015  1.00  0.00     0.279 A 
HETATM   25  O4  UNL     1       2.409   5.495  84.046  1.00  0.00    -0.265 OA
BRANCH  21  26
HETATM   26  O1  UNL     1       1.633  10.116  83.366  1.00  0.00    -0.281 OA
ATOM     27  H1  UNL     1       1.977  10.806  83.923  1.00  0.00     0.245 HD
ENDBRANCH  21  26
BRANCH  22  28
HETATM   28  C3  UNL     1      -0.735   8.830  84.578  1.00  0.00     0.050 C 
BRANCH  28  29
HETATM   29  C2  UNL     1      -1.913   9.069  83.781  1.00  0.00    -0.006 C 
HETATM   30  C1  UNL     1      -2.150   8.348  82.667  1.00  0.00     0.011 C 
ENDBRANCH  28  29
ENDBRANCH  22  28
BRANCH  23  31
HETATM   31  C23 UNL     1      -0.292   5.847  84.946  1.00  0.00     0.178 C 
BRANCH  31  32
HETATM   32  C24 UNL     1      -0.836   4.935  83.909  1.00  0.00     0.078 C 
BRANCH  32  33
HETATM   33  N10 UNL     1      -0.509   3.579  83.892  1.00  0.00    -0.392 N 
BRANCH  33  34
HETATM   34  C25 UNL     1      -0.082   2.929  85.070  1.00  0.00     0.117 C 
HETATM   35  C26 UNL     1      -1.232   2.410  85.924  1.00  0.00     0.026 C 
ENDBRANCH  33  34
BRANCH  33  36
HETATM   36  C27 UNL     1       0.091   3.068  82.685  1.00  0.00     0.117 C 
HETATM   37  C28 UNL     1       0.105   4.065  81.560  1.00  0.00     0.026 C 
ENDBRANCH  33  36
ENDBRANCH  32  33
ENDBRANCH  31  32
ENDBRANCH  23  31
ENDBRANCH  19  20
ENDBRANCH   1  19
BRANCH   5  38
HETATM   38  C9  UNL     1       1.465   6.444  78.417  1.00  0.00     0.182 C 
BRANCH  38  39
HETATM   39  C10 UNL     1       1.138   7.656  77.588  1.00  0.00     0.083 C 
HETATM   40  N4  UNL     1       0.321   8.639  78.065  1.00  0.00    -0.373 N 
BRANCH  40  41
HETATM   41  C11 UNL     1       0.367   9.845  77.306  1.00  0.00     0.122 C 
HETATM   42  C12 UNL     1      -0.012   9.731  75.876  1.00  0.00     0.027 C 
ENDBRANCH  40  41
BRANCH  40  43
HETATM   43  C13 UNL     1      -0.422   8.659  79.219  1.00  0.00     0.063 C 
BRANCH  43  44
HETATM   44  C14 UNL     1      -1.653   9.526  79.174  1.00  0.00     0.044 C 
BRANCH  44  45
HETATM   45  C15 UNL     1      -2.940   8.776  78.960  1.00  0.00     0.001 C 
HETATM   46  C16 UNL     1      -3.651   9.173  77.682  1.00  0.00     0.005 C 
ENDBRANCH  44  45
ENDBRANCH  43  44
ENDBRANCH  40  43
ENDBRANCH  38  39
ENDBRANCH   5  38
TORSDOF 16
ENDMDL
MODEL 4
REMARK VINA RESULT: -7.131495666      0.951      2.335
REMARK  16 active torsions:
REMARK  status: ('A' for Active; 'I' for Inactive)
REMARK    1  A    between atoms: C2_2  and  C3_3 
REMARK    2  A    between atoms: C3_3  and  C4_4 
REMARK    3  A    between atoms: N1_5  and  O1_6 
REMARK    4  A    between atoms: C5_8  and  C6_9 
REMARK    5  A    between atoms: C6_9  and  C7_10 
REMARK    6  A    between atoms: N3_14  and  C9_16 
REMARK    7  A    between atoms: C9_16  and  C10_17 
REMARK    8  A    between atoms: N4_18  and  C11_19 
REMARK    9  A    between atoms: N4_18  and  C13_21 
REMARK   10  A    between atoms: C13_21  and  C14_22 
REMARK   11  A    between atoms: C14_22  and  C15_23 
REMARK   12  A    between atoms: N9_39  and  C23_40 
REMARK   13  A    between atoms: C23_40  and  C24_41 
REMARK   14  A    between atoms: C24_41  and  N10_42 
REMARK   15  A    between atoms: N10_42  and  C25_43 
REMARK   16  A    between atoms: N10_42  and  C27_45 
ROOT
HETATM    1  C7  UNL     1       0.406   5.480  81.160  1.00  0.00     0.139 A 
HETATM    2  N2  UNL     1       0.069   6.406  82.072  1.00  0.00    -0.175 N 
ATOM      3  H2  UNL     1       0.062   7.388  81.797  1.00  0.00     0.186 HD
HETATM    4  C8  UNL     1      -0.258   6.084  83.332  1.00  0.00     0.705 A 
HETATM    5  N3  UNL     1      -0.607   6.896  84.232  1.00  0.00    -0.220 N 
ATOM      6  H3  UNL     1      -0.821   6.481  85.138  1.00  0.00     0.178 HD
HETATM    7  N5  UNL     1      -0.247   4.763  83.723  1.00  0.00     0.077 N 
HETATM    8  C17 UNL     1      -0.575   4.442  84.983  1.00  0.00     0.368 A 
HETATM    9  O2  UNL     1      -0.885   5.327  85.817  1.00  0.00    -0.245 OA
HETATM   10  N6  UNL     1      -0.555   3.126  85.310  1.00  0.00    -0.254 N 
HETATM   11  C18 UNL     1      -0.910   2.722  86.659  1.00  0.00     0.166 C 
HETATM   12  C19 UNL     1      -0.223   2.178  84.421  1.00  0.00     0.346 A 
HETATM   13  O3  UNL     1      -0.210   0.949  84.747  1.00  0.00    -0.246 OA
HETATM   14  N7  UNL     1       0.099   2.521  83.176  1.00  0.00    -0.135 N 
HETATM   15  C20 UNL     1       0.472   1.559  82.140  1.00  0.00     0.180 C 
HETATM   16  C21 UNL     1       0.091   3.840  82.807  1.00  0.00     0.715 A 
HETATM   17  N8  UNL     1       0.412   4.172  81.554  1.00  0.00    -0.174 N 
ATOM     18  H8  UNL     1       0.663   3.443  80.885  1.00  0.00     0.186 HD
ENDROOT
BRANCH   1  19
HETATM   19  C6  UNL     1       0.731   5.785  79.767  1.00  0.00     0.087 C 
BRANCH  19  20
HETATM   20  C5  UNL     1       1.916   6.068  79.307  1.00  0.00     0.136 A 
HETATM   21  N1  UNL     1       3.046   6.336  79.966  1.00  0.00    -0.202 N 
HETATM   22  C4  UNL     1       4.046   6.526  79.071  1.00  0.00     0.139 A 
HETATM   23  N9  UNL     1       3.543   6.374  77.809  1.00  0.00    -0.292 N 
HETATM   24  C22 UNL     1       2.236   6.096  77.955  1.00  0.00     0.279 A 
HETATM   25  O4  UNL     1       1.449   5.894  76.969  1.00  0.00    -0.265 OA
BRANCH  21  26
HETATM   26  O1  UNL     1       3.149   6.409  81.359  1.00  0.00    -0.281 OA
ATOM     27  H1  UNL     1       2.471   6.192  81.989  1.00  0.00     0.245 HD
ENDBRANCH  21  26
BRANCH  22  28
HETATM   28  C3  UNL     1       5.285   6.824  79.359  1.00  0.00     0.050 C 
BRANCH  28  29
HETATM   29  C2  UNL     1       6.346   5.970  79.834  1.00  0.00    -0.006 C 
HETATM   30  C1  UNL     1       7.430   6.490  80.441  1.00  0.00     0.011 C 
ENDBRANCH  28  29
ENDBRANCH  22  28
BRANCH  23  31
HETATM   31  C23 UNL     1       4.237   6.417  76.538  1.00  0.00     0.178 C 
BRANCH  31  32
HETATM   32  C24 UNL     1       4.993   5.186  76.193  1.00  0.00     0.078 C 
BRANCH  32  33
HETATM   33  N10 UNL     1       6.386   5.152  76.248  1.00  0.00    -0.392 N 
BRANCH  33  34
HETATM   34  C25 UNL     1       7.154   6.157  75.622  1.00  0.00     0.117 C 
HETATM   35  C26 UNL     1       7.871   7.070  76.608  1.00  0.00     0.026 C 
ENDBRANCH  33  34
BRANCH  33  36
HETATM   36  C27 UNL     1       7.007   3.851  76.251  1.00  0.00     0.117 C 
HETATM   37  C28 UNL     1       7.739   3.544  77.527  1.00  0.00     0.026 C 
ENDBRANCH  33  36
ENDBRANCH  32  33
ENDBRANCH  31  32
ENDBRANCH  23  31
ENDBRANCH  19  20
ENDBRANCH   1  19
BRANCH   5  38
HETATM   38  C9  UNL     1      -0.747   8.328  84.158  1.00  0.00     0.182 C 
BRANCH  38  39
HETATM   39  C10 UNL     1       0.562   9.030  84.401  1.00  0.00     0.083 C 
HETATM   40  N4  UNL     1       1.168   9.755  83.416  1.00  0.00    -0.373 N 
BRANCH  40  41
HETATM   41  C11 UNL     1       2.212  10.603  83.887  1.00  0.00     0.122 C 
HETATM   42  C12 UNL     1       3.200   9.979  84.800  1.00  0.00     0.027 C 
ENDBRANCH  40  41
BRANCH  40  43
HETATM   43  C13 UNL     1       0.827   9.863  82.091  1.00  0.00     0.063 C 
BRANCH  43  44
HETATM   44  C14 UNL     1      -0.111  10.993  81.760  1.00  0.00     0.044 C 
BRANCH  44  45
HETATM   45  C15 UNL     1      -0.969  10.761  80.545  1.00  0.00     0.001 C 
HETATM   46  C16 UNL     1      -1.348   9.306  80.358  1.00  0.00     0.005 C 
ENDBRANCH  44  45
ENDBRANCH  43  44
ENDBRANCH  40  43
ENDBRANCH  38  39
ENDBRANCH   5  38
TORSDOF 16
ENDMDL
MODEL 5
REMARK VINA RESULT: -7.107876876      1.115      3.089
REMARK  16 active torsions:
REMARK  status: ('A' for Active; 'I' for Inactive)
REMARK    1  A    between atoms: C2_2  and  C3_3 
REMARK    2  A    between atoms: C3_3  and  C4_4 
REMARK    3  A    between atoms: N1_5  and  O1_6 
REMARK    4  A    between atoms: C5_8  and  C6_9 
REMARK    5  A    between atoms: C6_9  and  C7_10 
REMARK    6  A    between atoms: N3_14  and  C9_16 
REMARK    7  A    between atoms: C9_16  and  C10_17 
REMARK    8  A    between atoms: N4_18  and  C11_19 
REMARK    9  A    between atoms: N4_18  and  C13_21 
REMARK   10  A    between atoms: C13_21  and  C14_22 
REMARK   11  A    between atoms: C14_22  and  C15_23 
REMARK   12  A    between atoms: N9_39  and  C23_40 
REMARK   13  A    between atoms: C23_40  and  C24_41 
REMARK   14  A    between atoms: C24_41  and  N10_42 
REMARK   15  A    between atoms: N10_42  and  C25_43 
REMARK   16  A    between atoms: N10_42  and  C27_45 
ROOT
HETATM    1  C7  UNL     1       0.418   5.479  81.156  1.00  0.00     0.139 A 
HETATM    2  N2  UNL     1       0.085   6.406  82.069  1.00  0.00    -0.175 N 
ATOM      3  H2  UNL     1       0.080   7.388  81.795  1.00  0.00     0.186 HD
HETATM    4  C8  UNL     1      -0.241   6.083  83.330  1.00  0.00     0.705 A 
HETATM    5  N3  UNL     1      -0.587   6.896  84.230  1.00  0.00    -0.220 N 
ATOM      6  H3  UNL     1      -0.801   6.481  85.137  1.00  0.00     0.178 HD
HETATM    7  N5  UNL     1      -0.234   4.763  83.719  1.00  0.00     0.077 N 
HETATM    8  C17 UNL     1      -0.562   4.441  84.980  1.00  0.00     0.368 A 
HETATM    9  O2  UNL     1      -0.868   5.327  85.814  1.00  0.00    -0.245 OA
HETATM   10  N6  UNL     1      -0.544   3.125  85.306  1.00  0.00    -0.254 N 
HETATM   11  C18 UNL     1      -0.899   2.721  86.655  1.00  0.00     0.166 C 
HETATM   12  C19 UNL     1      -0.217   2.177  84.415  1.00  0.00     0.346 A 
HETATM   13  O3  UNL     1      -0.207   0.948  84.741  1.00  0.00    -0.246 OA
HETATM   14  N7  UNL     1       0.105   2.520  83.170  1.00  0.00    -0.135 N 
HETATM   15  C20 UNL     1       0.474   1.557  82.133  1.00  0.00     0.180 C 
HETATM   16  C21 UNL     1       0.101   3.840  82.802  1.00  0.00     0.715 A 
HETATM   17  N8  UNL     1       0.420   4.172  81.549  1.00  0.00    -0.174 N 
ATOM     18  H8  UNL     1       0.668   3.442  80.879  1.00  0.00     0.186 HD
ENDROOT
BRANCH   1  19
HETATM   19  C6  UNL     1       0.742   5.785  79.763  1.00  0.00     0.087 C 
BRANCH  19  20
HETATM   20  C5  UNL     1       1.924   6.080  79.304  1.00  0.00     0.136 A 
HETATM   21  N1  UNL     1       3.104   6.090  79.930  1.00  0.00    -0.202 N 
HETATM   22  C4  UNL     1       4.074   6.418  79.040  1.00  0.00     0.139 A 
HETATM   23  N9  UNL     1       3.499   6.621  77.816  1.00  0.00    -0.292 N 
HETATM   24  C22 UNL     1       2.181   6.417  77.981  1.00  0.00     0.279 A 
HETATM   25  O4  UNL     1       1.333   6.526  77.032  1.00  0.00    -0.265 OA
BRANCH  21  26
HETATM   26  O1  UNL     1       3.280   5.808  81.288  1.00  0.00    -0.281 OA
ATOM     27  H1  UNL     1       3.683   6.375  81.936  1.00  0.00     0.245 HD
ENDBRANCH  21  26
BRANCH  22  28
HETATM   28  C3  UNL     1       5.347   6.539  79.306  1.00  0.00     0.050 C 
BRANCH  28  29
HETATM   29  C2  UNL     1       6.359   5.519  79.427  1.00  0.00    -0.006 C 
HETATM   30  C1  UNL     1       6.849   4.902  78.334  1.00  0.00     0.011 C 
ENDBRANCH  28  29
ENDBRANCH  22  28
BRANCH  23  31
HETATM   31  C23 UNL     1       4.132   6.923  76.549  1.00  0.00     0.178 C 
BRANCH  31  32
HETATM   32  C24 UNL     1       4.422   5.743  75.695  1.00  0.00     0.078 C 
BRANCH  32  33
HETATM   33  N10 UNL     1       4.153   5.755  74.327  1.00  0.00    -0.392 N 
BRANCH  33  34
HETATM   34  C25 UNL     1       5.164   5.438  73.394  1.00  0.00     0.117 C 
HETATM   35  C26 UNL     1       6.517   5.165  74.038  1.00  0.00     0.026 C 
ENDBRANCH  33  34
BRANCH  33  36
HETATM   36  C27 UNL     1       3.201   6.729  73.857  1.00  0.00     0.117 C 
HETATM   37  C28 UNL     1       2.549   6.345  72.558  1.00  0.00     0.026 C 
ENDBRANCH  33  36
ENDBRANCH  32  33
ENDBRANCH  31  32
ENDBRANCH  23  31
ENDBRANCH  19  20
ENDBRANCH   1  19
BRANCH   5  38
HETATM   38  C9  UNL     1      -0.723   8.329  84.158  1.00  0.00     0.182 C 
BRANCH  38  39
HETATM   39  C10 UNL     1       0.591   9.026  84.387  1.00  0.00     0.083 C 
HETATM   40  N4  UNL     1       1.189   9.748  83.396  1.00  0.00    -0.373 N 
BRANCH  40  41
HETATM   41  C11 UNL     1       2.241  10.593  83.855  1.00  0.00     0.122 C 
HETATM   42  C12 UNL     1       3.201   9.983  84.806  1.00  0.00     0.027 C 
ENDBRANCH  40  41
BRANCH  40  43
HETATM   43  C13 UNL     1       0.836   9.856  82.073  1.00  0.00     0.063 C 
BRANCH  43  44
HETATM   44  C14 UNL     1      -0.195  10.911  81.769  1.00  0.00     0.044 C 
BRANCH  44  45
HETATM   45  C15 UNL     1      -0.972  10.681  80.501  1.00  0.00     0.001 C 
HETATM   46  C16 UNL     1      -1.407   9.240  80.328  1.00  0.00     0.005 C 
ENDBRANCH  44  45
ENDBRANCH  43  44
ENDBRANCH  40  43
ENDBRANCH  38  39
ENDBRANCH   5  38
TORSDOF 16
ENDMDL
