MODEL 1
REMARK VINA RESULT: -7.167195209      0.000      0.000
REMARK  17 active torsions:
REMARK  status: ('A' for Active; 'I' for Inactive)
REMARK    1  A    between atoms: N1_2  and  C2_3 
REMARK    2  A    between atoms: N1_2  and  C21_41 
REMARK    3  A    between atoms: C2_3  and  C3_4 
REMARK    4  A    between atoms: C3_4  and  O1_5 
REMARK    5  A    between atoms: O1_5  and  N2_6 
REMARK    6  A    between atoms: N2_6  and  C4_8 
REMARK    7  A    between atoms: C4_8  and  N3_9 
REMARK    8  A    between atoms: C7_12  and  N4_13 
REMARK    9  A    between atoms: N5_16  and  C10_17 
REMARK   10  A    between atoms: C13_23  and  N7_24 
REMARK   11  A    between atoms: C16_27  and  C17_28 
REMARK   12  A    between atoms: C17_28  and  N8_29 
REMARK   13  A    between atoms: C20_36  and  N11_37 
REMARK   14  A    between atoms: C21_41  and  C22_42 
REMARK   15  A    between atoms: C22_42  and  O3_43 
REMARK   16  A    between atoms: C22_42  and  C23_45 
REMARK   17  A    between atoms: C23_45  and  N12_46 
ROOT
HETATM    1  N3  UNL     1       1.060   5.649  79.918  1.00  0.00    -0.152 N 
HETATM    2  C5  UNL     1       0.034   4.810  79.776  1.00  0.00     0.119 A 
HETATM    3  C6  UNL     1      -0.526   4.231  80.914  1.00  0.00     0.067 A 
HETATM    4  C7  UNL     1       0.006   4.559  82.144  1.00  0.00     0.120 A 
HETATM    5  N6  UNL     1       1.033   5.402  82.195  1.00  0.00    -0.176 N 
ATOM      6  H6  UNL     1       1.423   5.632  83.108  1.00  0.00     0.186 HD
HETATM    7  C13 UNL     1       1.582   5.963  81.112  1.00  0.00     0.690 A 
ENDROOT
BRANCH   1   8
HETATM    8  C4  UNL     1       1.686   6.210  78.778  1.00  0.00     0.229 C 
BRANCH   8   9
HETATM    9  N2  UNL     1       2.187   5.807  77.832  1.00  0.00    -0.261 N 
ATOM     10  H2  UNL     1       1.432   5.638  77.167  1.00  0.00     0.195 HD
BRANCH   9  11
HETATM   11  O1  UNL     1       3.316   5.456  77.202  1.00  0.00    -0.278 OA
BRANCH  11  12
HETATM   12  C3  UNL     1       3.635   6.450  76.131  1.00  0.00     0.231 C 
BRANCH  12  13
HETATM   13  C2  UNL     1       5.024   6.855  76.572  1.00  0.00     0.300 C 
BRANCH  13  14
HETATM   14  N1  UNL     1       5.943   5.765  76.363  1.00  0.00     0.088 N 
HETATM   15  C1  UNL     1       6.056   5.564  74.916  1.00  0.00     0.310 C 
BRANCH  14  16
HETATM   16  C21 UNL     1       7.164   5.917  77.069  1.00  0.00     0.305 C 
BRANCH  16  17
HETATM   17  C22 UNL     1       7.248   4.671  77.977  1.00  0.00     0.166 C 
BRANCH  17  18
HETATM   18  O3  UNL     1       7.188   5.080  79.310  1.00  0.00    -0.392 OA
ATOM     19  H3  UNL     1       8.053   5.002  79.694  1.00  0.00     0.210 HD
ENDBRANCH  17  18
BRANCH  17  20
HETATM   20  C23 UNL     1       8.551   3.945  77.729  1.00  0.00     0.183 C 
BRANCH  20  21
HETATM   21  N12 UNL     1       8.330   2.594  77.272  1.00  0.00    -0.285 N 
HETATM   22  C24 UNL     1       7.633   2.183  76.187  1.00  0.00     0.130 A 
HETATM   23  C25 UNL     1       7.673   0.759  76.171  1.00  0.00     0.127 A 
HETATM   24  N13 UNL     1       8.387   0.425  77.235  1.00  0.00    -0.296 N 
HETATM   25  N14 UNL     1       8.765   1.500  77.869  1.00  0.00    -0.241 N 
ATOM     26  H13 UNL     1       8.608  -0.530  77.517  1.00  0.00     0.187 HD
ATOM     27  H14 UNL     1       9.327   1.497  78.721  1.00  0.00     0.208 HD
ENDBRANCH  20  21
ENDBRANCH  17  20
ENDBRANCH  16  17
ENDBRANCH  14  16
ENDBRANCH  13  14
ENDBRANCH  12  13
ENDBRANCH  11  12
ENDBRANCH   9  11
ENDBRANCH   8   9
ENDBRANCH   1   8
BRANCH   7  28
HETATM   28  N7  UNL     1       2.708   6.793  81.269  1.00  0.00    -0.187 N 
HETATM   29  C14 UNL     1       2.483   8.147  81.813  1.00  0.00     0.144 C 
HETATM   30  C15 UNL     1       3.833   8.790  81.842  1.00  0.00     0.030 C 
HETATM   31  C16 UNL     1       4.849   7.706  81.763  1.00  0.00     0.058 C 
HETATM   32  C20 UNL     1       4.059   6.593  80.995  1.00  0.00     0.305 C 
BRANCH  31  33
HETATM   33  C17 UNL     1       6.034   8.008  80.900  1.00  0.00     0.158 C 
BRANCH  33  34
HETATM   34  N8  UNL     1       7.273   7.714  81.544  1.00  0.00    -0.287 N 
HETATM   35  C18 UNL     1       7.948   8.728  82.244  1.00  0.00     0.130 A 
HETATM   36  C19 UNL     1       9.059   8.121  82.753  1.00  0.00     0.127 A 
HETATM   37  N9  UNL     1       9.068   6.802  82.391  1.00  0.00    -0.296 N 
HETATM   38  N10 UNL     1       7.984   6.604  81.668  1.00  0.00    -0.241 N 
ATOM     39  H9  UNL     1       9.775   6.108  82.632  1.00  0.00     0.187 HD
ATOM     40  H10 UNL     1       7.724   5.708  81.256  1.00  0.00     0.208 HD
ENDBRANCH  33  34
ENDBRANCH  31  33
BRANCH  32  41
HETATM   41  N11 UNL     1       4.708   5.371  81.338  1.00  0.00    -0.057 N 
ATOM     42 3H11 UNL     1       4.247   4.616  80.830  1.00  0.00     0.276 HD
ATOM     43 2H11 UNL     1       5.635   5.376  80.912  1.00  0.00     0.276 HD
ATOM     44 1H11 UNL     1       4.809   5.082  82.311  1.00  0.00     0.276 HD
ENDBRANCH  32  41
ENDBRANCH   7  28
BRANCH   4  45
HETATM   45  N4  UNL     1      -0.467   3.956  83.385  1.00  0.00    -0.364 N 
HETATM   46  C8  UNL     1       0.000   2.668  83.733  1.00  0.00     0.144 C 
HETATM   47  C9  UNL     1       0.285   2.700  85.256  1.00  0.00     0.145 C 
HETATM   48  N5  UNL     1      -0.992   3.085  85.808  1.00  0.00    -0.356 N 
HETATM   49  C11 UNL     1      -1.409   4.428  85.607  1.00  0.00     0.145 C 
HETATM   50  C12 UNL     1      -1.373   4.791  84.133  1.00  0.00     0.144 C 
BRANCH  48  51
HETATM   51  C10 UNL     1      -1.808   2.153  86.463  1.00  0.00     0.350 C 
HETATM   52  O2  UNL     1      -1.428   1.000  86.850  1.00  0.00    -0.284 OA
ENDBRANCH  48  51
ENDBRANCH   4  45
TORSDOF 17
ENDMDL
MODEL 2
REMARK VINA RESULT: -6.869096892      3.007      6.722
REMARK  17 active torsions:
REMARK  status: ('A' for Active; 'I' for Inactive)
REMARK    1  A    between atoms: N1_2  and  C2_3 
REMARK    2  A    between atoms: N1_2  and  C21_41 
REMARK    3  A    between atoms: C2_3  and  C3_4 
REMARK    4  A    between atoms: C3_4  and  O1_5 
REMARK    5  A    between atoms: O1_5  and  N2_6 
REMARK    6  A    between atoms: N2_6  and  C4_8 
REMARK    7  A    between atoms: C4_8  and  N3_9 
REMARK    8  A    between atoms: C7_12  and  N4_13 
REMARK    9  A    between atoms: N5_16  and  C10_17 
REMARK   10  A    between atoms: C13_23  and  N7_24 
REMARK   11  A    between atoms: C16_27  and  C17_28 
REMARK   12  A    between atoms: C17_28  and  N8_29 
REMARK   13  A    between atoms: C20_36  and  N11_37 
REMARK   14  A    between atoms: C21_41  and  C22_42 
REMARK   15  A    between atoms: C22_42  and  O3_43 
REMARK   16  A    between atoms: C22_42  and  C23_45 
REMARK   17  A    between atoms: C23_45  and  N12_46 
ROOT
HETATM    1  N3  UNL     1       1.981   6.558  80.449  1.00  0.00    -0.152 N 
HETATM    2  C5  UNL     1       2.218   6.908  79.185  1.00  0.00     0.119 A 
HETATM    3  C6  UNL     1       1.264   7.666  78.506  1.00  0.00     0.067 A 
HETATM    4  C7  UNL     1       0.114   8.025  79.179  1.00  0.00     0.120 A 
HETATM    5  N6  UNL     1      -0.044   7.628  80.437  1.00  0.00    -0.176 N 
ATOM      6  H6  UNL     1      -0.900   7.893  80.923  1.00  0.00     0.186 HD
HETATM    7  C13 UNL     1       0.860   6.900  81.101  1.00  0.00     0.690 A 
ENDROOT
BRANCH   1   8
HETATM    8  C4  UNL     1       2.904   5.742  81.148  1.00  0.00     0.229 C 
BRANCH   8   9
HETATM    9  N2  UNL     1       3.993   5.423  81.004  1.00  0.00    -0.261 N 
ATOM     10  H2  UNL     1       4.461   5.618  81.890  1.00  0.00     0.195 HD
BRANCH   9  11
HETATM   11  O1  UNL     1       4.933   4.908  80.199  1.00  0.00    -0.278 OA
BRANCH  11  12
HETATM   12  C3  UNL     1       6.121   5.815  80.153  1.00  0.00     0.231 C 
BRANCH  12  13
HETATM   13  C2  UNL     1       5.950   6.379  78.760  1.00  0.00     0.300 C 
BRANCH  13  14
HETATM   14  N1  UNL     1       6.105   5.331  77.783  1.00  0.00     0.088 N 
HETATM   15  C1  UNL     1       5.110   5.565  76.733  1.00  0.00     0.310 C 
BRANCH  14  16
HETATM   16  C21 UNL     1       7.445   5.164  77.348  1.00  0.00     0.305 C 
BRANCH  16  17
HETATM   17  C22 UNL     1       7.777   3.689  77.662  1.00  0.00     0.166 C 
BRANCH  17  18
HETATM   18  O3  UNL     1       9.126   3.595  78.009  1.00  0.00    -0.392 OA
ATOM     19  H3  UNL     1       9.597   4.313  77.605  1.00  0.00     0.210 HD
ENDBRANCH  17  18
BRANCH  17  20
HETATM   20  C23 UNL     1       7.508   2.834  76.444  1.00  0.00     0.183 C 
BRANCH  20  21
HETATM   21  N12 UNL     1       7.894   1.460  76.660  1.00  0.00    -0.285 N 
HETATM   22  C24 UNL     1       8.317   0.558  75.744  1.00  0.00     0.130 A 
HETATM   23  C25 UNL     1       8.549  -0.668  76.432  1.00  0.00     0.127 A 
HETATM   24  N13 UNL     1       8.253  -0.411  77.697  1.00  0.00    -0.296 N 
HETATM   25  N14 UNL     1       7.873   0.831  77.819  1.00  0.00    -0.241 N 
ATOM     26  H13 UNL     1       8.314  -1.083  78.461  1.00  0.00     0.187 HD
ATOM     27  H14 UNL     1       7.595   1.261  78.702  1.00  0.00     0.208 HD
ENDBRANCH  20  21
ENDBRANCH  17  20
ENDBRANCH  16  17
ENDBRANCH  14  16
ENDBRANCH  13  14
ENDBRANCH  12  13
ENDBRANCH  11  12
ENDBRANCH   9  11
ENDBRANCH   8   9
ENDBRANCH   1   8
BRANCH   7  28
HETATM   28  N7  UNL     1       0.569   6.478  82.412  1.00  0.00    -0.187 N 
HETATM   29  C14 UNL     1       0.164   7.511  83.384  1.00  0.00     0.144 C 
HETATM   30  C15 UNL     1      -0.053   6.780  84.671  1.00  0.00     0.030 C 
HETATM   31  C16 UNL     1      -0.221   5.338  84.345  1.00  0.00     0.058 C 
HETATM   32  C20 UNL     1       0.595   5.222  83.013  1.00  0.00     0.305 C 
BRANCH  31  33
HETATM   33  C17 UNL     1       0.446   4.391  85.293  1.00  0.00     0.158 C 
BRANCH  33  34
HETATM   34  N8  UNL     1      -0.456   3.421  85.826  1.00  0.00    -0.287 N 
HETATM   35  C18 UNL     1      -1.793   3.776  86.067  1.00  0.00     0.130 A 
HETATM   36  C19 UNL     1      -2.377   2.636  86.539  1.00  0.00     0.127 A 
HETATM   37  N9  UNL     1      -1.451   1.631  86.584  1.00  0.00    -0.296 N 
HETATM   38  N10 UNL     1      -0.317   2.145  86.151  1.00  0.00    -0.241 N 
ATOM     39  H9  UNL     1      -1.607   0.671  86.892  1.00  0.00     0.187 HD
ATOM     40  H10 UNL     1       0.557   1.625  86.076  1.00  0.00     0.208 HD
ENDBRANCH  33  34
ENDBRANCH  31  33
BRANCH  32  41
HETATM   41  N11 UNL     1       0.065   4.076  82.351  1.00  0.00    -0.057 N 
ATOM     42 3H11 UNL     1      -0.760   3.768  82.865  1.00  0.00     0.276 HD
ATOM     43 2H11 UNL     1      -0.340   4.382  81.466  1.00  0.00     0.276 HD
ATOM     44 1H11 UNL     1       0.645   3.257  82.167  1.00  0.00     0.276 HD
ENDBRANCH  32  41
ENDBRANCH   7  28
BRANCH   4  45
HETATM   45  N4  UNL     1      -0.970   8.759  78.535  1.00  0.00    -0.364 N 
HETATM   46  C8  UNL     1      -0.697   9.455  77.335  1.00  0.00     0.144 C 
HETATM   47  C9  UNL     1      -1.908   9.212  76.400  1.00  0.00     0.145 C 
HETATM   48  N5  UNL     1      -3.016   9.703  77.183  1.00  0.00    -0.356 N 
HETATM   49  C11 UNL     1      -3.412   8.929  78.306  1.00  0.00     0.145 C 
HETATM   50  C12 UNL     1      -2.233   8.662  79.223  1.00  0.00     0.144 C 
BRANCH  48  51
HETATM   51  C10 UNL     1      -3.632  10.924  76.878  1.00  0.00     0.350 C 
HETATM   52  O2  UNL     1      -3.292  12.052  77.364  1.00  0.00    -0.284 OA
ENDBRANCH  48  51
ENDBRANCH   4  45
TORSDOF 17
ENDMDL
MODEL 3
REMARK VINA RESULT: -6.750657617      3.024      5.654
REMARK  17 active torsions:
REMARK  status: ('A' for Active; 'I' for Inactive)
REMARK    1  A    between atoms: N1_2  and  C2_3 
REMARK    2  A    between atoms: N1_2  and  C21_41 
REMARK    3  A    between atoms: C2_3  and  C3_4 
REMARK    4  A    between atoms: C3_4  and  O1_5 
REMARK    5  A    between atoms: O1_5  and  N2_6 
REMARK    6  A    between atoms: N2_6  and  C4_8 
REMARK    7  A    between atoms: C4_8  and  N3_9 
REMARK    8  A    between atoms: C7_12  and  N4_13 
REMARK    9  A    between atoms: N5_16  and  C10_17 
REMARK   10  A    between atoms: C13_23  and  N7_24 
REMARK   11  A    between atoms: C16_27  and  C17_28 
REMARK   12  A    between atoms: C17_28  and  N8_29 
REMARK   13  A    between atoms: C20_36  and  N11_37 
REMARK   14  A    between atoms: C21_41  and  C22_42 
REMARK   15  A    between atoms: C22_42  and  O3_43 
REMARK   16  A    between atoms: C22_42  and  C23_45 
REMARK   17  A    between atoms: C23_45  and  N12_46 
ROOT
HETATM    1  N3  UNL     1       1.105   5.520  80.033  1.00  0.00    -0.152 N 
HETATM    2  C5  UNL     1       0.095   4.662  79.893  1.00  0.00     0.119 A 
HETATM    3  C6  UNL     1      -0.490   4.116  81.035  1.00  0.00     0.067 A 
HETATM    4  C7  UNL     1       0.004   4.493  82.267  1.00  0.00     0.120 A 
HETATM    5  N6  UNL     1       1.018   5.350  82.316  1.00  0.00    -0.176 N 
ATOM      6  H6  UNL     1       1.380   5.617  83.231  1.00  0.00     0.186 HD
HETATM    7  C13 UNL     1       1.590   5.881  81.230  1.00  0.00     0.690 A 
ENDROOT
BRANCH   1   8
HETATM    8  C4  UNL     1       1.755   6.050  78.892  1.00  0.00     0.229 C 
BRANCH   8   9
HETATM    9  N2  UNL     1       1.487   6.207  77.791  1.00  0.00    -0.261 N 
ATOM     10  H2  UNL     1       0.830   6.987  77.772  1.00  0.00     0.195 HD
BRANCH   9  11
HETATM   11  O1  UNL     1       1.646   5.831  76.515  1.00  0.00    -0.278 OA
BRANCH  11  12
HETATM   12  C3  UNL     1       2.979   6.284  76.010  1.00  0.00     0.231 C 
BRANCH  12  13
HETATM   13  C2  UNL     1       2.543   6.958  74.728  1.00  0.00     0.300 C 
BRANCH  13  14
HETATM   14  N1  UNL     1       2.186   8.330  74.991  1.00  0.00     0.088 N 
HETATM   15  C1  UNL     1       3.328   9.159  74.598  1.00  0.00     0.310 C 
BRANCH  14  16
HETATM   16  C21 UNL     1       0.930   8.697  74.444  1.00  0.00     0.305 C 
BRANCH  16  17
HETATM   17  C22 UNL     1       0.132   9.259  75.641  1.00  0.00     0.166 C 
BRANCH  17  18
HETATM   18  O3  UNL     1      -0.046   8.243  76.580  1.00  0.00    -0.392 OA
ATOM     19  H3  UNL     1      -0.880   7.818  76.418  1.00  0.00     0.210 HD
ENDBRANCH  17  18
BRANCH  17  20
HETATM   20  C23 UNL     1      -1.217   9.754  75.169  1.00  0.00     0.183 C 
BRANCH  20  21
HETATM   21  N12 UNL     1      -2.246   9.518  76.153  1.00  0.00    -0.285 N 
HETATM   22  C24 UNL     1      -2.511  10.231  77.273  1.00  0.00     0.130 A 
HETATM   23  C25 UNL     1      -3.597   9.591  77.936  1.00  0.00     0.127 A 
HETATM   24  N13 UNL     1      -3.903   8.555  77.170  1.00  0.00    -0.296 N 
HETATM   25  N14 UNL     1      -3.111   8.521  76.134  1.00  0.00    -0.241 N 
ATOM     26  H13 UNL     1      -4.647   7.884  77.361  1.00  0.00     0.187 HD
ATOM     27  H14 UNL     1      -3.154   7.813  75.402  1.00  0.00     0.208 HD
ENDBRANCH  20  21
ENDBRANCH  17  20
ENDBRANCH  16  17
ENDBRANCH  14  16
ENDBRANCH  13  14
ENDBRANCH  12  13
ENDBRANCH  11  12
ENDBRANCH   9  11
ENDBRANCH   8   9
ENDBRANCH   1   8
BRANCH   7  28
HETATM   28  N7  UNL     1       2.701   6.732  81.388  1.00  0.00    -0.187 N 
HETATM   29  C14 UNL     1       2.450   8.085  81.921  1.00  0.00     0.144 C 
HETATM   30  C15 UNL     1       3.788   8.752  81.955  1.00  0.00     0.030 C 
HETATM   31  C16 UNL     1       4.822   7.685  81.890  1.00  0.00     0.058 C 
HETATM   32  C20 UNL     1       4.056   6.553  81.125  1.00  0.00     0.305 C 
BRANCH  31  33
HETATM   33  C17 UNL     1       6.008   8.000  81.033  1.00  0.00     0.158 C 
BRANCH  33  34
HETATM   34  N8  UNL     1       7.247   7.731  81.687  1.00  0.00    -0.287 N 
HETATM   35  C18 UNL     1       7.927   8.773  82.339  1.00  0.00     0.130 A 
HETATM   36  C19 UNL     1       9.038   8.185  82.873  1.00  0.00     0.127 A 
HETATM   37  N9  UNL     1       9.040   6.852  82.570  1.00  0.00    -0.296 N 
HETATM   38  N10 UNL     1       7.954   6.625  81.860  1.00  0.00    -0.241 N 
ATOM     39  H9  UNL     1       9.746   6.166  82.841  1.00  0.00     0.187 HD
ATOM     40  H10 UNL     1       7.691   5.712  81.489  1.00  0.00     0.208 HD
ENDBRANCH  33  34
ENDBRANCH  31  33
BRANCH  32  41
HETATM   41  N11 UNL     1       4.724   5.345  81.481  1.00  0.00    -0.057 N 
ATOM     42 3H11 UNL     1       5.432   5.570  82.180  1.00  0.00     0.276 HD
ATOM     43 2H11 UNL     1       4.073   4.771  82.018  1.00  0.00     0.276 HD
ATOM     44 1H11 UNL     1       5.157   4.752  80.773  1.00  0.00     0.276 HD
ENDBRANCH  32  41
ENDBRANCH   7  28
BRANCH   4  45
HETATM   45  N4  UNL     1      -0.496   3.927  83.515  1.00  0.00    -0.364 N 
HETATM   46  C8  UNL     1       0.024   2.687  83.952  1.00  0.00     0.144 C 
HETATM   47  C9  UNL     1       0.231   2.811  85.482  1.00  0.00     0.145 C 
HETATM   48  N5  UNL     1      -1.090   3.150  85.953  1.00  0.00    -0.356 N 
HETATM   49  C11 UNL     1      -1.571   4.455  85.662  1.00  0.00     0.145 C 
HETATM   50  C12 UNL     1      -1.482   4.745  84.175  1.00  0.00     0.144 C 
BRANCH  48  51
HETATM   51  C10 UNL     1      -1.885   2.206  86.618  1.00  0.00     0.350 C 
HETATM   52  O2  UNL     1      -1.527   1.013  86.885  1.00  0.00    -0.284 OA
ENDBRANCH  48  51
ENDBRANCH   4  45
TORSDOF 17
ENDMDL
MODEL 4
REMARK VINA RESULT: -6.733658226      2.774      4.170
REMARK  17 active torsions:
REMARK  status: ('A' for Active; 'I' for Inactive)
REMARK    1  A    between atoms: N1_2  and  C2_3 
REMARK    2  A    between atoms: N1_2  and  C21_41 
REMARK    3  A    between atoms: C2_3  and  C3_4 
REMARK    4  A    between atoms: C3_4  and  O1_5 
REMARK    5  A    between atoms: O1_5  and  N2_6 
REMARK    6  A    between atoms: N2_6  and  C4_8 
REMARK    7  A    between atoms: C4_8  and  N3_9 
REMARK    8  A    between atoms: C7_12  and  N4_13 
REMARK    9  A    between atoms: N5_16  and  C10_17 
REMARK   10  A    between atoms: C13_23  and  N7_24 
REMARK   11  A    between atoms: C16_27  and  C17_28 
REMARK   12  A    between atoms: C17_28  and  N8_29 
REMARK   13  A    between atoms: C20_36  and  N11_37 
REMARK   14  A    between atoms: C21_41  and  C22_42 
REMARK   15  A    between atoms: C22_42  and  O3_43 
REMARK   16  A    between atoms: C22_42  and  C23_45 
REMARK   17  A    between atoms: C23_45  and  N12_46 
ROOT
HETATM    1  N3  UNL     1       0.085   8.530  82.415  1.00  0.00    -0.152 N 
HETATM    2  C5  UNL     1      -1.145   8.513  82.927  1.00  0.00     0.119 A 
HETATM    3  C6  UNL     1      -1.516   7.453  83.754  1.00  0.00     0.067 A 
HETATM    4  C7  UNL     1      -0.587   6.466  84.010  1.00  0.00     0.120 A 
HETATM    5  N6  UNL     1       0.617   6.558  83.454  1.00  0.00    -0.176 N 
ATOM      6  H6  UNL     1       1.294   5.820  83.644  1.00  0.00     0.186 HD
HETATM    7  C13 UNL     1       0.987   7.567  82.658  1.00  0.00     0.690 A 
ENDROOT
BRANCH   1   8
HETATM    8  C4  UNL     1       0.475   9.563  81.528  1.00  0.00     0.229 C 
BRANCH   8   9
HETATM    9  N2  UNL     1       0.225   9.862  80.452  1.00  0.00    -0.261 N 
ATOM     10  H2  UNL     1       0.961  10.508  80.164  1.00  0.00     0.195 HD
BRANCH   9  11
HETATM   11  O1  UNL     1      -0.596   9.748  79.400  1.00  0.00    -0.278 OA
BRANCH  11  12
HETATM   12  C3  UNL     1      -0.270   8.509  78.627  1.00  0.00     0.231 C 
BRANCH  12  13
HETATM   13  C2  UNL     1       0.079   9.132  77.294  1.00  0.00     0.300 C 
BRANCH  13  14
HETATM   14  N1  UNL     1       0.768   8.171  76.469  1.00  0.00     0.088 N 
HETATM   15  C1  UNL     1       0.766   8.694  75.100  1.00  0.00     0.310 C 
BRANCH  14  16
HETATM   16  C21 UNL     1       2.030   7.788  76.990  1.00  0.00     0.305 C 
BRANCH  16  17
HETATM   17  C22 UNL     1       2.235   6.340  76.492  1.00  0.00     0.166 C 
BRANCH  17  18
HETATM   18  O3  UNL     1       1.740   5.459  77.454  1.00  0.00    -0.392 OA
ATOM     19  H3  UNL     1       1.037   4.948  77.069  1.00  0.00     0.210 HD
ENDBRANCH  17  18
BRANCH  17  20
HETATM   20  C23 UNL     1       3.708   6.077  76.276  1.00  0.00     0.183 C 
BRANCH  20  21
HETATM   21  N12 UNL     1       4.012   5.852  74.883  1.00  0.00    -0.285 N 
HETATM   22  C24 UNL     1       3.382   6.362  73.798  1.00  0.00     0.130 A 
HETATM   23  C25 UNL     1       4.024   5.826  72.645  1.00  0.00     0.127 A 
HETATM   24  N13 UNL     1       4.984   5.047  73.119  1.00  0.00    -0.296 N 
HETATM   25  N14 UNL     1       4.969   5.069  74.422  1.00  0.00    -0.241 N 
ATOM     26  H13 UNL     1       5.638   4.510  72.549  1.00  0.00     0.187 HD
ATOM     27  H14 UNL     1       5.616   4.546  75.013  1.00  0.00     0.208 HD
ENDBRANCH  20  21
ENDBRANCH  17  20
ENDBRANCH  16  17
ENDBRANCH  14  16
ENDBRANCH  13  14
ENDBRANCH  12  13
ENDBRANCH  11  12
ENDBRANCH   9  11
ENDBRANCH   8   9
ENDBRANCH   1   8
BRANCH   7  28
HETATM   28  N7  UNL     1       2.265   7.539  82.067  1.00  0.00    -0.187 N 
HETATM   29  C14 UNL     1       3.390   8.075  82.857  1.00  0.00     0.144 C 
HETATM   30  C15 UNL     1       4.592   7.935  81.978  1.00  0.00     0.030 C 
HETATM   31  C16 UNL     1       4.263   6.941  80.922  1.00  0.00     0.058 C 
HETATM   32  C20 UNL     1       2.707   7.094  80.824  1.00  0.00     0.305 C 
BRANCH  31  33
HETATM   33  C17 UNL     1       4.772   7.275  79.555  1.00  0.00     0.158 C 
BRANCH  33  34
HETATM   34  N8  UNL     1       5.981   6.586  79.235  1.00  0.00    -0.287 N 
HETATM   35  C18 UNL     1       7.215   7.232  79.414  1.00  0.00     0.130 A 
HETATM   36  C19 UNL     1       8.150   6.307  79.050  1.00  0.00     0.127 A 
HETATM   37  N9  UNL     1       7.526   5.150  78.670  1.00  0.00    -0.296 N 
HETATM   38  N10 UNL     1       6.232   5.363  78.794  1.00  0.00    -0.241 N 
ATOM     39  H9  UNL     1       7.976   4.292  78.352  1.00  0.00     0.187 HD
ATOM     40  H10 UNL     1       5.513   4.672  78.578  1.00  0.00     0.208 HD
ENDBRANCH  33  34
ENDBRANCH  31  33
BRANCH  32  41
HETATM   41  N11 UNL     1       2.246   5.862  80.274  1.00  0.00    -0.057 N 
ATOM     42 3H11 UNL     1       1.347   5.642  80.703  1.00  0.00     0.276 HD
ATOM     43 2H11 UNL     1       1.980   6.029  79.304  1.00  0.00     0.276 HD
ATOM     44 1H11 UNL     1       2.823   5.021  80.304  1.00  0.00     0.276 HD
ENDBRANCH  32  41
ENDBRANCH   7  28
BRANCH   4  45
HETATM   45  N4  UNL     1      -0.901   5.286  84.807  1.00  0.00    -0.364 N 
HETATM   46  C8  UNL     1      -0.335   4.046  84.433  1.00  0.00     0.144 C 
HETATM   47  C9  UNL     1       0.098   3.346  85.745  1.00  0.00     0.145 C 
HETATM   48  N5  UNL     1      -1.134   3.284  86.493  1.00  0.00    -0.356 N 
HETATM   49  C11 UNL     1      -1.639   4.503  87.019  1.00  0.00     0.145 C 
HETATM   50  C12 UNL     1      -1.770   5.550  85.927  1.00  0.00     0.144 C 
BRANCH  48  51
HETATM   51  C10 UNL     1      -1.831   2.077  86.640  1.00  0.00     0.350 C 
HETATM   52  O2  UNL     1      -1.293   0.921  86.633  1.00  0.00    -0.284 OA
ENDBRANCH  48  51
ENDBRANCH   4  45
TORSDOF 17
ENDMDL
MODEL 5
REMARK VINA RESULT: -6.678482101      1.333      1.523
REMARK  17 active torsions:
REMARK  status: ('A' for Active; 'I' for Inactive)
REMARK    1  A    between atoms: N1_2  and  C2_3 
REMARK    2  A    between atoms: N1_2  and  C21_41 
REMARK    3  A    between atoms: C2_3  and  C3_4 
REMARK    4  A    between atoms: C3_4  and  O1_5 
REMARK    5  A    between atoms: O1_5  and  N2_6 
REMARK    6  A    between atoms: N2_6  and  C4_8 
REMARK    7  A    between atoms: C4_8  and  N3_9 
REMARK    8  A    between atoms: C7_12  and  N4_13 
REMARK    9  A    between atoms: N5_16  and  C10_17 
REMARK   10  A    between atoms: C13_23  and  N7_24 
REMARK   11  A    between atoms: C16_27  and  C17_28 
REMARK   12  A    between atoms: C17_28  and  N8_29 
REMARK   13  A    between atoms: C20_36  and  N11_37 
REMARK   14  A    between atoms: C21_41  and  C22_42 
REMARK   15  A    between atoms: C22_42  and  O3_43 
REMARK   16  A    between atoms: C22_42  and  C23_45 
REMARK   17  A    between atoms: C23_45  and  N12_46 
ROOT
HETATM    1  N3  UNL     1       0.985   5.630  79.985  1.00  0.00    -0.152 N 
HETATM    2  C5  UNL     1      -0.031   4.777  79.864  1.00  0.00     0.119 A 
HETATM    3  C6  UNL     1      -0.576   4.209  81.016  1.00  0.00     0.067 A 
HETATM    4  C7  UNL     1      -0.038   4.563  82.236  1.00  0.00     0.120 A 
HETATM    5  N6  UNL     1       0.979   5.418  82.266  1.00  0.00    -0.176 N 
ATOM      6  H6  UNL     1       1.373   5.667  83.172  1.00  0.00     0.186 HD
HETATM    7  C13 UNL     1       1.513   5.968  81.170  1.00  0.00     0.690 A 
ENDROOT
BRANCH   1   8
HETATM    8  C4  UNL     1       1.596   6.181  78.832  1.00  0.00     0.229 C 
BRANCH   8   9
HETATM    9  N2  UNL     1       2.342   5.819  78.043  1.00  0.00    -0.261 N 
ATOM     10  H2  UNL     1       1.804   5.250  77.390  1.00  0.00     0.195 HD
BRANCH   9  11
HETATM   11  O1  UNL     1       3.602   5.805  77.590  1.00  0.00    -0.278 OA
BRANCH  11  12
HETATM   12  C3  UNL     1       3.626   6.143  76.133  1.00  0.00     0.231 C 
BRANCH  12  13
HETATM   13  C2  UNL     1       4.832   7.056  76.109  1.00  0.00     0.300 C 
BRANCH  13  14
HETATM   14  N1  UNL     1       5.966   6.358  75.556  1.00  0.00     0.088 N 
HETATM   15  C1  UNL     1       7.172   7.028  76.050  1.00  0.00     0.310 C 
BRANCH  14  16
HETATM   16  C21 UNL     1       5.908   4.953  75.749  1.00  0.00     0.305 C 
BRANCH  16  17
HETATM   17  C22 UNL     1       7.194   4.414  75.085  1.00  0.00     0.166 C 
BRANCH  17  18
HETATM   18  O3  UNL     1       6.866   3.877  73.839  1.00  0.00    -0.392 OA
ATOM     19  H3  UNL     1       6.829   4.580  73.203  1.00  0.00     0.210 HD
ENDBRANCH  17  18
BRANCH  17  20
HETATM   20  C23 UNL     1       7.806   3.339  75.954  1.00  0.00     0.183 C 
BRANCH  20  21
HETATM   21  N12 UNL     1       8.360   2.266  75.165  1.00  0.00    -0.285 N 
HETATM   22  C24 UNL     1       9.656   2.049  74.842  1.00  0.00     0.130 A 
HETATM   23  C25 UNL     1       9.701   0.883  74.023  1.00  0.00     0.127 A 
HETATM   24  N13 UNL     1       8.440   0.489  73.920  1.00  0.00    -0.296 N 
HETATM   25  N14 UNL     1       7.668   1.300  74.589  1.00  0.00    -0.241 N 
ATOM     26  H13 UNL     1       8.122  -0.326  73.398  1.00  0.00     0.187 HD
ATOM     27  H14 UNL     1       6.654   1.201  74.658  1.00  0.00     0.208 HD
ENDBRANCH  20  21
ENDBRANCH  17  20
ENDBRANCH  16  17
ENDBRANCH  14  16
ENDBRANCH  13  14
ENDBRANCH  12  13
ENDBRANCH  11  12
ENDBRANCH   9  11
ENDBRANCH   8   9
ENDBRANCH   1   8
BRANCH   7  28
HETATM   28  N7  UNL     1       2.630   6.815  81.306  1.00  0.00    -0.187 N 
HETATM   29  C14 UNL     1       2.384   8.195  81.766  1.00  0.00     0.144 C 
HETATM   30  C15 UNL     1       3.729   8.849  81.790  1.00  0.00     0.030 C 
HETATM   31  C16 UNL     1       4.753   7.770  81.796  1.00  0.00     0.058 C 
HETATM   32  C20 UNL     1       3.987   6.609  81.075  1.00  0.00     0.305 C 
BRANCH  31  33
HETATM   33  C17 UNL     1       5.956   8.030  80.945  1.00  0.00     0.158 C 
BRANCH  33  34
HETATM   34  N8  UNL     1       7.181   7.753  81.623  1.00  0.00    -0.287 N 
HETATM   35  C18 UNL     1       7.850   8.787  82.297  1.00  0.00     0.130 A 
HETATM   36  C19 UNL     1       8.947   8.192  82.850  1.00  0.00     0.127 A 
HETATM   37  N9  UNL     1       8.952   6.861  82.537  1.00  0.00    -0.296 N 
HETATM   38  N10 UNL     1       7.881   6.643  81.802  1.00  0.00    -0.241 N 
ATOM     39  H9  UNL     1       9.650   6.171  82.818  1.00  0.00     0.187 HD
ATOM     40  H10 UNL     1       7.622   5.734  81.418  1.00  0.00     0.208 HD
ENDBRANCH  33  34
ENDBRANCH  31  33
BRANCH  32  41
HETATM   41  N11 UNL     1       4.636   5.414  81.502  1.00  0.00    -0.057 N 
ATOM     42 3H11 UNL     1       5.641   5.584  81.505  1.00  0.00     0.276 HD
ATOM     43 2H11 UNL     1       4.441   5.286  82.495  1.00  0.00     0.276 HD
ATOM     44 1H11 UNL     1       4.468   4.525  81.031  1.00  0.00     0.276 HD
ENDBRANCH  32  41
ENDBRANCH   7  28
BRANCH   4  45
HETATM   45  N4  UNL     1      -0.495   3.974  83.490  1.00  0.00    -0.364 N 
HETATM   46  C8  UNL     1       0.063   2.741  83.902  1.00  0.00     0.144 C 
HETATM   47  C9  UNL     1       0.304   2.855  85.428  1.00  0.00     0.145 C 
HETATM   48  N5  UNL     1      -1.012   3.160  85.934  1.00  0.00    -0.356 N 
HETATM   49  C11 UNL     1      -1.528   4.456  85.668  1.00  0.00     0.145 C 
HETATM   50  C12 UNL     1      -1.482   4.763  84.182  1.00  0.00     0.144 C 
BRANCH  48  51
HETATM   51  C10 UNL     1      -1.769   2.192  86.608  1.00  0.00     0.350 C 
HETATM   52  O2  UNL     1      -1.444   0.965  86.724  1.00  0.00    -0.284 OA
ENDBRANCH  48  51
ENDBRANCH   4  45
TORSDOF 17
ENDMDL
