MODEL 1
REMARK VINA RESULT: -7.523202203      0.000      0.000
REMARK  10 active torsions:
REMARK  status: ('A' for Active; 'I' for Inactive)
REMARK    1  A    between atoms: C4_7  and  C5_8 
REMARK    2  A    between atoms: C5_8  and  C6_9 
REMARK       I    between atoms: C6_9  and  N3_11 
REMARK    3  A    between atoms: N3_11  and  C7_13 
REMARK    4  A    between atoms: C8_16  and  N5_17 
REMARK    5  A    between atoms: N5_17  and  N6_19 
REMARK    6  A    between atoms: N8_28  and  C12_29 
REMARK    7  A    between atoms: C12_29  and  C13_30 
REMARK    8  A    between atoms: C13_30  and  O3_31 
REMARK    9  A    between atoms: C13_30  and  C14_33 
REMARK   10  A    between atoms: C14_33  and  O4_34 
ROOT
HETATM    1  C7  UNL     1      16.944   5.208  12.782  1.00  0.00     0.143 A 
HETATM    2  N4  UNL     1      17.086   5.342  11.455  1.00  0.00    -0.174 N 
ATOM      3  H4  UNL     1      17.149   6.280  11.060  1.00  0.00     0.186 HD
HETATM    4  C8  UNL     1      17.151   4.270  10.614  1.00  0.00     0.699 A 
HETATM    5  N7  UNL     1      17.076   3.010  11.073  1.00  0.00    -0.174 N 
ATOM      6  H7  UNL     1      17.124   2.209  10.444  1.00  0.00     0.186 HD
HETATM    7  C9  UNL     1      16.931   2.854  12.408  1.00  0.00     0.146 A 
HETATM    8  C10 UNL     1      16.863   3.925  13.279  1.00  0.00     0.122 A 
HETATM    9  C11 UNL     1      16.718   3.730  14.653  1.00  0.00     0.269 A 
HETATM   10  O2  UNL     1      16.668   4.743  15.360  1.00  0.00    -0.267 OA
HETATM   11  N8  UNL     1      16.646   2.467  15.094  1.00  0.00    -0.263 N 
HETATM   12  C15 UNL     1      16.710   1.392  14.266  1.00  0.00     0.333 A 
HETATM   13  O5  UNL     1      16.642   0.203  14.698  1.00  0.00    -0.246 OA
HETATM   14  N9  UNL     1      16.850   1.623  12.955  1.00  0.00    -0.288 N 
HETATM   15  C16 UNL     1      16.921   0.497  12.019  1.00  0.00     0.163 C 
ENDROOT
BRANCH   1  16
HETATM   16  N3  UNL     1      16.884   6.173  13.587  1.00  0.00    -0.311 N 
HETATM   17  C6  UNL     1      16.320   7.457  13.401  1.00  0.00     0.227 C 
HETATM   18  O1  UNL     1      15.082   7.558  13.694  1.00  0.00    -0.273 OA
ATOM     19  H3  UNL     1      17.302   6.007  14.503  1.00  0.00     0.170 HD
BRANCH  17  20
HETATM   20  C5  UNL     1      17.030   8.629  12.916  1.00  0.00     0.147 C 
BRANCH  20  21
HETATM   21  C4  UNL     1      18.440   8.780  13.265  1.00  0.00     0.021 A 
HETATM   22  C3  UNL     1      18.834   9.547  14.306  1.00  0.00     0.032 A 
HETATM   23  C2  UNL     1      20.231   9.709  14.664  1.00  0.00     0.108 A 
HETATM   24  N2  UNL     1      21.153   9.115  13.984  1.00  0.00    -0.307 N 
HETATM   25  N1  UNL     1      20.864   8.299  12.887  1.00  0.00    -0.262 N 
ATOM     26  H2  UNL     1      22.127   9.246  14.257  1.00  0.00     0.186 HD
HETATM   27  C1  UNL     1      21.887   7.631  12.115  1.00  0.00     0.181 C 
HETATM   28  C17 UNL     1      19.488   8.116  12.503  1.00  0.00     0.268 A 
HETATM   29  O6  UNL     1      19.277   7.382  11.519  1.00  0.00    -0.266 OA
ENDBRANCH  20  21
ENDBRANCH  17  20
ENDBRANCH   1  16
BRANCH   4  30
HETATM   30  N5  UNL     1      17.285   4.477   9.367  1.00  0.00    -0.138 N 
ATOM     31  H5  UNL     1      17.407   3.658   8.771  1.00  0.00     0.205 HD
BRANCH  30  32
HETATM   32  N6  UNL     1      17.282   5.709   8.751  1.00  0.00    -0.331 N 
ATOM     33  H62 UNL     1      17.678   6.480   9.289  1.00  0.00     0.177 HD
ATOM     34  H61 UNL     1      16.921   5.907   7.818  1.00  0.00     0.177 HD
ENDBRANCH  30  32
ENDBRANCH   4  30
BRANCH  11  35
HETATM   35  C12 UNL     1      16.488   2.217  16.492  1.00  0.00     0.171 C 
BRANCH  35  36
HETATM   36  C13 UNL     1      15.084   2.351  16.982  1.00  0.00     0.160 C 
BRANCH  36  37
HETATM   37  O3  UNL     1      14.994   2.968  18.243  1.00  0.00    -0.392 OA
ATOM     38  H3  UNL     1      14.796   3.895  18.191  1.00  0.00     0.210 HD
ENDBRANCH  36  37
BRANCH  36  39
HETATM   39  C14 UNL     1      14.300   1.078  17.030  1.00  0.00     0.197 C 
BRANCH  39  40
HETATM   40  O4  UNL     1      15.194  -0.003  17.211  1.00  0.00    -0.398 OA
ATOM     41  H4  UNL     1      14.725  -0.725  17.613  1.00  0.00     0.209 HD
ENDBRANCH  39  40
ENDBRANCH  36  39
ENDBRANCH  35  36
ENDBRANCH  11  35
TORSDOF 10
ENDMDL
MODEL 2
REMARK VINA RESULT: -7.478444350      1.122      1.378
REMARK  10 active torsions:
REMARK  status: ('A' for Active; 'I' for Inactive)
REMARK    1  A    between atoms: C4_7  and  C5_8 
REMARK    2  A    between atoms: C5_8  and  C6_9 
REMARK       I    between atoms: C6_9  and  N3_11 
REMARK    3  A    between atoms: N3_11  and  C7_13 
REMARK    4  A    between atoms: C8_16  and  N5_17 
REMARK    5  A    between atoms: N5_17  and  N6_19 
REMARK    6  A    between atoms: N8_28  and  C12_29 
REMARK    7  A    between atoms: C12_29  and  C13_30 
REMARK    8  A    between atoms: C13_30  and  O3_31 
REMARK    9  A    between atoms: C13_30  and  C14_33 
REMARK   10  A    between atoms: C14_33  and  O4_34 
ROOT
HETATM    1  C7  UNL     1      16.986   5.199  12.831  1.00  0.00     0.143 A 
HETATM    2  N4  UNL     1      17.120   5.351  11.504  1.00  0.00    -0.174 N 
ATOM      3  H4  UNL     1      17.192   6.294  11.123  1.00  0.00     0.186 HD
HETATM    4  C8  UNL     1      17.163   4.291  10.648  1.00  0.00     0.699 A 
HETATM    5  N7  UNL     1      17.075   3.025  11.089  1.00  0.00    -0.174 N 
ATOM      6  H7  UNL     1      17.108   2.233  10.447  1.00  0.00     0.186 HD
HETATM    7  C9  UNL     1      16.939   2.851  12.422  1.00  0.00     0.146 A 
HETATM    8  C10 UNL     1      16.892   3.910  13.309  1.00  0.00     0.122 A 
HETATM    9  C11 UNL     1      16.756   3.697  14.682  1.00  0.00     0.269 A 
HETATM   10  O2  UNL     1      16.725   4.700  15.404  1.00  0.00    -0.267 OA
HETATM   11  N8  UNL     1      16.671   2.428  15.105  1.00  0.00    -0.263 N 
HETATM   12  C15 UNL     1      16.713   1.365  14.261  1.00  0.00     0.333 A 
HETATM   13  O5  UNL     1      16.633   0.171  14.675  1.00  0.00    -0.246 OA
HETATM   14  N9  UNL     1      16.846   1.614  12.952  1.00  0.00    -0.288 N 
HETATM   15  C16 UNL     1      16.894   0.501  11.999  1.00  0.00     0.163 C 
ENDROOT
BRANCH   1  16
HETATM   16  N3  UNL     1      16.946   6.153  13.650  1.00  0.00    -0.311 N 
HETATM   17  C6  UNL     1      17.658   7.375  13.633  1.00  0.00     0.227 C 
HETATM   18  O1  UNL     1      17.096   8.327  12.993  1.00  0.00    -0.273 OA
ATOM     19  H3  UNL     1      16.309   6.028  14.437  1.00  0.00     0.170 HD
BRANCH  17  20
HETATM   20  C5  UNL     1      18.941   7.613  14.272  1.00  0.00     0.147 C 
BRANCH  20  21
HETATM   21  C4  UNL     1      20.134   7.675  13.432  1.00  0.00     0.021 A 
HETATM   22  C3  UNL     1      20.827   8.824  13.267  1.00  0.00     0.032 A 
HETATM   23  C2  UNL     1      22.012   8.901  12.434  1.00  0.00     0.108 A 
HETATM   24  N2  UNL     1      22.445   7.855  11.815  1.00  0.00    -0.307 N 
HETATM   25  N1  UNL     1      21.810   6.614  11.909  1.00  0.00    -0.262 N 
ATOM     26  H2  UNL     1      23.281   7.937  11.236  1.00  0.00     0.186 HD
HETATM   27  C1  UNL     1      22.282   5.436  11.218  1.00  0.00     0.181 C 
HETATM   28  C17 UNL     1      20.629   6.500  12.727  1.00  0.00     0.268 A 
HETATM   29  O6  UNL     1      20.095   5.377  12.781  1.00  0.00    -0.266 OA
ENDBRANCH  20  21
ENDBRANCH  17  20
ENDBRANCH   1  16
BRANCH   4  30
HETATM   30  N5  UNL     1      17.290   4.514   9.403  1.00  0.00    -0.138 N 
ATOM     31  H5  UNL     1      17.490   3.712   8.805  1.00  0.00     0.205 HD
BRANCH  30  32
HETATM   32  N6  UNL     1      17.182   5.743   8.791  1.00  0.00    -0.331 N 
ATOM     33  H62 UNL     1      17.380   6.554   9.378  1.00  0.00     0.177 HD
ATOM     34  H61 UNL     1      16.925   5.903   7.817  1.00  0.00     0.177 HD
ENDBRANCH  30  32
ENDBRANCH   4  30
BRANCH  11  35
HETATM   35  C12 UNL     1      16.520   2.160  16.500  1.00  0.00     0.171 C 
BRANCH  35  36
HETATM   36  C13 UNL     1      15.127   2.331  17.009  1.00  0.00     0.160 C 
BRANCH  36  37
HETATM   37  O3  UNL     1      15.072   2.926  18.283  1.00  0.00    -0.392 OA
ATOM     38  H3  UNL     1      14.885   3.856  18.253  1.00  0.00     0.210 HD
ENDBRANCH  36  37
BRANCH  36  39
HETATM   39  C14 UNL     1      14.301   1.086  17.041  1.00  0.00     0.197 C 
BRANCH  39  40
HETATM   40  O4  UNL     1      15.159  -0.029  17.188  1.00  0.00    -0.398 OA
ATOM     41  H4  UNL     1      15.804  -0.015  16.491  1.00  0.00     0.209 HD
ENDBRANCH  39  40
ENDBRANCH  36  39
ENDBRANCH  35  36
ENDBRANCH  11  35
TORSDOF 10
ENDMDL
MODEL 3
REMARK VINA RESULT: -7.377989491      1.166      1.570
REMARK  10 active torsions:
REMARK  status: ('A' for Active; 'I' for Inactive)
REMARK    1  A    between atoms: C4_7  and  C5_8 
REMARK    2  A    between atoms: C5_8  and  C6_9 
REMARK       I    between atoms: C6_9  and  N3_11 
REMARK    3  A    between atoms: N3_11  and  C7_13 
REMARK    4  A    between atoms: C8_16  and  N5_17 
REMARK    5  A    between atoms: N5_17  and  N6_19 
REMARK    6  A    between atoms: N8_28  and  C12_29 
REMARK    7  A    between atoms: C12_29  and  C13_30 
REMARK    8  A    between atoms: C13_30  and  O3_31 
REMARK    9  A    between atoms: C13_30  and  C14_33 
REMARK   10  A    between atoms: C14_33  and  O4_34 
ROOT
HETATM    1  C7  UNL     1      16.694   5.341  12.835  1.00  0.00     0.143 A 
HETATM    2  N4  UNL     1      16.871   5.479  11.511  1.00  0.00    -0.174 N 
ATOM      3  H4  UNL     1      16.878   6.417  11.112  1.00  0.00     0.186 HD
HETATM    4  C8  UNL     1      17.041   4.410  10.681  1.00  0.00     0.699 A 
HETATM    5  N7  UNL     1      17.042   3.150  11.146  1.00  0.00    -0.174 N 
ATOM      6  H7  UNL     1      17.170   2.352  10.525  1.00  0.00     0.186 HD
HETATM    7  C9  UNL     1      16.864   2.990  12.477  1.00  0.00     0.146 A 
HETATM    8  C10 UNL     1      16.690   4.057  13.337  1.00  0.00     0.122 A 
HETATM    9  C11 UNL     1      16.514   3.860  14.707  1.00  0.00     0.269 A 
HETATM   10  O2  UNL     1      16.366   4.870  15.405  1.00  0.00    -0.267 OA
HETATM   11  N8  UNL     1      16.519   2.596  15.155  1.00  0.00    -0.263 N 
HETATM   12  C15 UNL     1      16.688   1.525  14.337  1.00  0.00     0.333 A 
HETATM   13  O5  UNL     1      16.693   0.337  14.775  1.00  0.00    -0.246 OA
HETATM   14  N9  UNL     1      16.855   1.759  13.030  1.00  0.00    -0.288 N 
HETATM   15  C16 UNL     1      17.038   0.637  12.105  1.00  0.00     0.163 C 
ENDROOT
BRANCH   1  16
HETATM   16  N3  UNL     1      16.538   6.303  13.630  1.00  0.00    -0.311 N 
HETATM   17  C6  UNL     1      17.246   7.525  13.703  1.00  0.00     0.227 C 
HETATM   18  O1  UNL     1      16.783   8.470  12.980  1.00  0.00    -0.273 OA
ATOM     19  H3  UNL     1      15.794   6.185  14.319  1.00  0.00     0.170 HD
BRANCH  17  20
HETATM   20  C5  UNL     1      18.425   7.770  14.517  1.00  0.00     0.147 C 
BRANCH  20  21
HETATM   21  C4  UNL     1      19.713   7.924  13.846  1.00  0.00     0.021 A 
HETATM   22  C3  UNL     1      20.128   7.051  12.901  1.00  0.00     0.032 A 
HETATM   23  C2  UNL     1      21.406   7.190  12.227  1.00  0.00     0.108 A 
HETATM   24  N2  UNL     1      22.195   8.168  12.518  1.00  0.00    -0.307 N 
HETATM   25  N1  UNL     1      21.872   9.129  13.479  1.00  0.00    -0.262 N 
ATOM     26  H2  UNL     1      23.088   8.242  12.029  1.00  0.00     0.186 HD
HETATM   27  C1  UNL     1      22.748  10.228  13.816  1.00  0.00     0.181 C 
HETATM   28  C17 UNL     1      20.611   9.023  14.169  1.00  0.00     0.268 A 
HETATM   29  O6  UNL     1      20.365   9.900  15.018  1.00  0.00    -0.266 OA
ENDBRANCH  20  21
ENDBRANCH  17  20
ENDBRANCH   1  16
BRANCH   4  30
HETATM   30  N5  UNL     1      17.202   4.620   9.438  1.00  0.00    -0.138 N 
ATOM     31  H5  UNL     1      17.420   3.812   8.855  1.00  0.00     0.205 HD
BRANCH  30  32
HETATM   32  N6  UNL     1      17.107   5.843   8.810  1.00  0.00    -0.331 N 
ATOM     33  H62 UNL     1      16.891   5.818   7.814  1.00  0.00     0.177 HD
ATOM     34  H61 UNL     1      17.233   6.752   9.255  1.00  0.00     0.177 HD
ENDBRANCH  30  32
ENDBRANCH   4  30
BRANCH  11  35
HETATM   35  C12 UNL     1      16.333   2.343  16.549  1.00  0.00     0.171 C 
BRANCH  35  36
HETATM   36  C13 UNL     1      14.914   2.440  17.003  1.00  0.00     0.160 C 
BRANCH  36  37
HETATM   37  O3  UNL     1      14.776   3.074  18.252  1.00  0.00    -0.392 OA
ATOM     38  H3  UNL     1      14.890   2.482  18.986  1.00  0.00     0.210 HD
ENDBRANCH  36  37
BRANCH  36  39
HETATM   39  C14 UNL     1      14.168   1.146  17.054  1.00  0.00     0.197 C 
BRANCH  39  40
HETATM   40  O4  UNL     1      15.098   0.085  17.165  1.00  0.00    -0.398 OA
ATOM     41  H4  UNL     1      15.308  -0.044  18.082  1.00  0.00     0.209 HD
ENDBRANCH  39  40
ENDBRANCH  36  39
ENDBRANCH  35  36
ENDBRANCH  11  35
TORSDOF 10
ENDMDL
MODEL 4
REMARK VINA RESULT: -7.315549962      1.816      2.487
REMARK  10 active torsions:
REMARK  status: ('A' for Active; 'I' for Inactive)
REMARK    1  A    between atoms: C4_7  and  C5_8 
REMARK    2  A    between atoms: C5_8  and  C6_9 
REMARK       I    between atoms: C6_9  and  N3_11 
REMARK    3  A    between atoms: N3_11  and  C7_13 
REMARK    4  A    between atoms: C8_16  and  N5_17 
REMARK    5  A    between atoms: N5_17  and  N6_19 
REMARK    6  A    between atoms: N8_28  and  C12_29 
REMARK    7  A    between atoms: C12_29  and  C13_30 
REMARK    8  A    between atoms: C13_30  and  O3_31 
REMARK    9  A    between atoms: C13_30  and  C14_33 
REMARK   10  A    between atoms: C14_33  and  O4_34 
ROOT
HETATM    1  C7  UNL     1      16.952   5.141  12.800  1.00  0.00     0.143 A 
HETATM    2  N4  UNL     1      17.095   5.268  11.471  1.00  0.00    -0.174 N 
ATOM      3  H4  UNL     1      17.156   6.204  11.071  1.00  0.00     0.186 HD
HETATM    4  C8  UNL     1      17.162   4.191  10.637  1.00  0.00     0.699 A 
HETATM    5  N7  UNL     1      17.090   2.934  11.103  1.00  0.00    -0.174 N 
ATOM      6  H7  UNL     1      17.141   2.129  10.479  1.00  0.00     0.186 HD
HETATM    7  C9  UNL     1      16.945   2.785  12.439  1.00  0.00     0.146 A 
HETATM    8  C10 UNL     1      16.874   3.861  13.304  1.00  0.00     0.122 A 
HETATM    9  C11 UNL     1      16.730   3.674  14.679  1.00  0.00     0.269 A 
HETATM   10  O2  UNL     1      16.677   4.691  15.380  1.00  0.00    -0.267 OA
HETATM   11  N8  UNL     1      16.661   2.413  15.127  1.00  0.00    -0.263 N 
HETATM   12  C15 UNL     1      16.727   1.334  14.306  1.00  0.00     0.333 A 
HETATM   13  O5  UNL     1      16.662   0.147  14.744  1.00  0.00    -0.246 OA
HETATM   14  N9  UNL     1      16.867   1.557  12.994  1.00  0.00    -0.288 N 
HETATM   15  C16 UNL     1      16.941   0.426  12.064  1.00  0.00     0.163 C 
ENDROOT
BRANCH   1  16
HETATM   16  N3  UNL     1      16.890   6.111  13.598  1.00  0.00    -0.311 N 
HETATM   17  C6  UNL     1      16.312   7.388  13.409  1.00  0.00     0.227 C 
HETATM   18  O1  UNL     1      15.075   7.479  13.712  1.00  0.00    -0.273 OA
ATOM     19  H3  UNL     1      17.317   5.955  14.512  1.00  0.00     0.170 HD
BRANCH  17  20
HETATM   20  C5  UNL     1      17.006   8.564  12.910  1.00  0.00     0.147 C 
BRANCH  20  21
HETATM   21  C4  UNL     1      16.706   9.025  11.558  1.00  0.00     0.021 A 
HETATM   22  C3  UNL     1      15.728   9.927  11.318  1.00  0.00     0.032 A 
HETATM   23  C2  UNL     1      15.417  10.394   9.979  1.00  0.00     0.108 A 
HETATM   24  N2  UNL     1      16.076   9.951   8.963  1.00  0.00    -0.307 N 
HETATM   25  N1  UNL     1      17.106   9.015   9.090  1.00  0.00    -0.262 N 
ATOM     26  H2  UNL     1      15.837  10.295   8.033  1.00  0.00     0.186 HD
HETATM   27  C1  UNL     1      17.850   8.509   7.959  1.00  0.00     0.181 C 
HETATM   28  C17 UNL     1      17.443   8.530  10.404  1.00  0.00     0.268 A 
HETATM   29  O6  UNL     1      18.366   7.696  10.471  1.00  0.00    -0.266 OA
ENDBRANCH  20  21
ENDBRANCH  17  20
ENDBRANCH   1  16
BRANCH   4  30
HETATM   30  N5  UNL     1      17.297   4.390   9.389  1.00  0.00    -0.138 N 
ATOM     31  H5  UNL     1      16.545   4.064   8.783  1.00  0.00     0.205 HD
BRANCH  30  32
HETATM   32  N6  UNL     1      18.370   5.008   8.785  1.00  0.00    -0.331 N 
ATOM     33  H62 UNL     1      19.280   4.575   8.937  1.00  0.00     0.177 HD
ATOM     34  H61 UNL     1      18.325   5.849   8.207  1.00  0.00     0.177 HD
ENDBRANCH  30  32
ENDBRANCH   4  30
BRANCH  11  35
HETATM   35  C12 UNL     1      16.502   2.172  16.527  1.00  0.00     0.171 C 
BRANCH  35  36
HETATM   36  C13 UNL     1      15.103   2.336  17.021  1.00  0.00     0.160 C 
BRANCH  36  37
HETATM   37  O3  UNL     1      15.033   2.934  18.293  1.00  0.00    -0.392 OA
ATOM     38  H3  UNL     1      14.473   2.461  18.897  1.00  0.00     0.210 HD
ENDBRANCH  36  37
BRANCH  36  39
HETATM   39  C14 UNL     1      14.284   1.086  17.050  1.00  0.00     0.197 C 
BRANCH  39  40
HETATM   40  O4  UNL     1      15.148  -0.024  17.202  1.00  0.00    -0.398 OA
ATOM     41  H4  UNL     1      14.841  -0.555  17.927  1.00  0.00     0.209 HD
ENDBRANCH  39  40
ENDBRANCH  36  39
ENDBRANCH  35  36
ENDBRANCH  11  35
TORSDOF 10
ENDMDL
MODEL 5
REMARK VINA RESULT: -7.292747635      1.287      1.504
REMARK  10 active torsions:
REMARK  status: ('A' for Active; 'I' for Inactive)
REMARK    1  A    between atoms: C4_7  and  C5_8 
REMARK    2  A    between atoms: C5_8  and  C6_9 
REMARK       I    between atoms: C6_9  and  N3_11 
REMARK    3  A    between atoms: N3_11  and  C7_13 
REMARK    4  A    between atoms: C8_16  and  N5_17 
REMARK    5  A    between atoms: N5_17  and  N6_19 
REMARK    6  A    between atoms: N8_28  and  C12_29 
REMARK    7  A    between atoms: C12_29  and  C13_30 
REMARK    8  A    between atoms: C13_30  and  O3_31 
REMARK    9  A    between atoms: C13_30  and  C14_33 
REMARK   10  A    between atoms: C14_33  and  O4_34 
ROOT
HETATM    1  C7  UNL     1      16.924   5.246  12.885  1.00  0.00     0.143 A 
HETATM    2  N4  UNL     1      17.044   5.421  11.560  1.00  0.00    -0.174 N 
ATOM      3  H4  UNL     1      17.104   6.371  11.194  1.00  0.00     0.186 HD
HETATM    4  C8  UNL     1      17.089   4.376  10.686  1.00  0.00     0.699 A 
HETATM    5  N7  UNL     1      17.016   3.103  11.106  1.00  0.00    -0.174 N 
ATOM      6  H7  UNL     1      17.050   2.322  10.451  1.00  0.00     0.186 HD
HETATM    7  C9  UNL     1      16.893   2.905  12.437  1.00  0.00     0.146 A 
HETATM    8  C10 UNL     1      16.845   3.948  13.343  1.00  0.00     0.122 A 
HETATM    9  C11 UNL     1      16.724   3.712  14.712  1.00  0.00     0.269 A 
HETATM   10  O2  UNL     1      16.690   4.702  15.452  1.00  0.00    -0.267 OA
HETATM   11  N8  UNL     1      16.654   2.435  15.115  1.00  0.00    -0.263 N 
HETATM   12  C15 UNL     1      16.698   1.387  14.253  1.00  0.00     0.333 A 
HETATM   13  O5  UNL     1      16.633   0.185  14.648  1.00  0.00    -0.246 OA
HETATM   14  N9  UNL     1      16.816   1.658  12.947  1.00  0.00    -0.288 N 
HETATM   15  C16 UNL     1      16.866   0.562  11.976  1.00  0.00     0.163 C 
ENDROOT
BRANCH   1  16
HETATM   16  N3  UNL     1      16.882   6.186  13.720  1.00  0.00    -0.311 N 
HETATM   17  C6  UNL     1      16.196   7.420  13.642  1.00  0.00     0.227 C 
HETATM   18  O1  UNL     1      14.998   7.409  14.083  1.00  0.00    -0.273 OA
ATOM     19  H3  UNL     1      17.420   6.037  14.575  1.00  0.00     0.170 HD
BRANCH  17  20
HETATM   20  C5  UNL     1      16.743   8.658  13.113  1.00  0.00     0.147 C 
BRANCH  20  21
HETATM   21  C4  UNL     1      17.961   9.193  13.716  1.00  0.00     0.021 A 
HETATM   22  C3  UNL     1      18.719   8.454  14.556  1.00  0.00     0.032 A 
HETATM   23  C2  UNL     1      19.931   8.972  15.164  1.00  0.00     0.108 A 
HETATM   24  N2  UNL     1      20.324  10.175  14.915  1.00  0.00    -0.307 N 
HETATM   25  N1  UNL     1      19.620  11.031  14.063  1.00  0.00    -0.262 N 
ATOM     26  H2  UNL     1      21.179  10.515  15.356  1.00  0.00     0.186 HD
HETATM   27  C1  UNL     1      20.048  12.381  13.778  1.00  0.00     0.181 C 
HETATM   28  C17 UNL     1      18.412  10.550  13.442  1.00  0.00     0.268 A 
HETATM   29  O6  UNL     1      17.816  11.346  12.692  1.00  0.00    -0.266 OA
ENDBRANCH  20  21
ENDBRANCH  17  20
ENDBRANCH   1  16
BRANCH   4  30
HETATM   30  N5  UNL     1      17.203   4.621   9.444  1.00  0.00    -0.138 N 
ATOM     31  H5  UNL     1      17.370   3.826   8.827  1.00  0.00     0.205 HD
BRANCH  30  32
HETATM   32  N6  UNL     1      17.119   5.866   8.858  1.00  0.00    -0.331 N 
ATOM     33  H62 UNL     1      16.178   6.202   8.653  1.00  0.00     0.177 HD
ATOM     34  H61 UNL     1      17.909   6.465   8.619  1.00  0.00     0.177 HD
ENDBRANCH  30  32
ENDBRANCH   4  30
BRANCH  11  35
HETATM   35  C12 UNL     1      16.519   2.143  16.507  1.00  0.00     0.171 C 
BRANCH  35  36
HETATM   36  C13 UNL     1      15.130   2.302  17.033  1.00  0.00     0.160 C 
BRANCH  36  37
HETATM   37  O3  UNL     1      15.086   2.912  18.300  1.00  0.00    -0.392 OA
ATOM     38  H3  UNL     1      15.745   2.580  18.898  1.00  0.00     0.210 HD
ENDBRANCH  36  37
BRANCH  36  39
HETATM   39  C14 UNL     1      14.322   1.045  17.093  1.00  0.00     0.197 C 
BRANCH  39  40
HETATM   40  O4  UNL     1      15.199  -0.059  17.198  1.00  0.00    -0.398 OA
ATOM     41  H4  UNL     1      15.873   0.143  17.836  1.00  0.00     0.209 HD
ENDBRANCH  39  40
ENDBRANCH  36  39
ENDBRANCH  35  36
ENDBRANCH  11  35
TORSDOF 10
ENDMDL
