MODEL 1
REMARK VINA RESULT: -7.873592988      0.000      0.000
REMARK  12 active torsions:
REMARK  status: ('A' for Active; 'I' for Inactive)
REMARK    1  A    between atoms: C2_2  and  O2_4 
REMARK    2  A    between atoms: O2_4  and  C3_5 
REMARK    3  A    between atoms: C3_5  and  N1_6 
REMARK    4  A    between atoms: C6_10  and  N2_11 
REMARK    5  A    between atoms: N2_11  and  C7_13 
REMARK    6  A    between atoms: C8_16  and  C9_17 
REMARK    7  A    between atoms: C9_17  and  N4_18 
REMARK    8  A    between atoms: N4_18  and  C10_20 
REMARK    9  A    between atoms: C10_20  and  O4_21 
REMARK   10  A    between atoms: C10_20  and  C11_23 
REMARK   11  A    between atoms: C14_29  and  C15_30 
REMARK   12  A    between atoms: C15_30  and  O6_31 
ROOT
HETATM    1  C7  UNL     1      17.747   4.677  11.357  1.00  0.00     0.696 A 
HETATM    2  N3  UNL     1      17.365   4.697  10.018  1.00  0.00    -0.176 N 
ATOM      3  H3  UNL     1      16.412   4.586   9.671  1.00  0.00     0.185 HD
HETATM    4  C8  UNL     1      18.447   4.884   9.268  1.00  0.00     0.130 A 
HETATM    5  N7  UNL     1      19.473   4.979  10.104  1.00  0.00    -0.271 N 
ATOM      6  H7  UNL     1      20.441   5.126   9.816  1.00  0.00     0.189 HD
HETATM    7  N8  UNL     1      19.070   4.855  11.378  1.00  0.00    -0.127 N 
HETATM    8  C16 UNL     1      19.965   4.914  12.542  1.00  0.00     0.197 C 
ENDROOT
BRANCH   4   9
HETATM    9  C9  UNL     1      18.468   4.968   7.759  1.00  0.00     0.200 C 
BRANCH   9  10
HETATM   10  N4  UNL     1      19.645   5.674   7.335  1.00  0.00    -0.362 N 
ATOM     11  H4  UNL     1      19.799   6.640   7.624  1.00  0.00     0.162 HD
BRANCH  10  12
HETATM   12  C10 UNL     1      20.592   5.013   6.510  1.00  0.00     0.165 C 
BRANCH  12  13
HETATM   13  O4  UNL     1      20.369   4.784   5.162  1.00  0.00    -0.345 OA
ATOM     14  H4  UNL     1      20.514   5.451   4.501  1.00  0.00     0.219 HD
ENDBRANCH  12  13
BRANCH  12  15
HETATM   15  C11 UNL     1      21.734   4.596   7.028  1.00  0.00     0.099 A 
HETATM   16  C12 UNL     1      22.356   5.289   8.044  1.00  0.00     0.125 A 
HETATM   17  N5  UNL     1      23.514   4.846   8.553  1.00  0.00    -0.329 N 
HETATM   18  C13 UNL     1      24.088   3.709   8.073  1.00  0.00     0.274 A 
ATOM     19  H5  UNL     1      23.969   5.365   9.304  1.00  0.00     0.168 HD
HETATM   20  O5  UNL     1      25.169   3.346   8.587  1.00  0.00    -0.266 OA
HETATM   21  C14 UNL     1      23.467   3.016   7.058  1.00  0.00     0.123 A 
HETATM   22  N6  UNL     1      22.309   3.480   6.565  1.00  0.00    -0.346 N 
ATOM     23  H6  UNL     1      21.852   2.965   5.812  1.00  0.00     0.166 HD
BRANCH  21  24
HETATM   24  C15 UNL     1      24.013   1.904   6.577  1.00  0.00     0.166 C 
BRANCH  24  25
HETATM   25  O6  UNL     1      23.386   0.685   6.726  1.00  0.00    -0.370 OA
ATOM     26  H6  UNL     1      23.126   0.371   7.584  1.00  0.00     0.216 HD
ENDBRANCH  24  25
ENDBRANCH  21  24
ENDBRANCH  12  15
ENDBRANCH  10  12
ENDBRANCH   9  10
ENDBRANCH   4   9
BRANCH   1  27
HETATM   27  N2  UNL     1      16.901   4.511  12.284  1.00  0.00    -0.211 N 
ATOM     28  H2  UNL     1      16.554   5.389  12.669  1.00  0.00     0.178 HD
BRANCH  27  29
HETATM   29  C6  UNL     1      16.346   3.397  12.888  1.00  0.00     0.201 C 
HETATM   30  C5  UNL     1      16.487   2.148  12.025  1.00  0.00     0.139 C 
HETATM   31  C4  UNL     1      16.883   1.075  12.952  1.00  0.00     0.230 C 
HETATM   32  N1  UNL     1      16.923   1.606  14.271  1.00  0.00    -0.264 N 
HETATM   33  O3  UNL     1      17.129  -0.102  12.568  1.00  0.00    -0.273 OA
HETATM   34  C17 UNL     1      17.109   3.002  14.138  1.00  0.00     0.252 C 
HETATM   35  O7  UNL     1      17.739   3.804  14.838  1.00  0.00    -0.271 OA
BRANCH  32  36
HETATM   36  C3  UNL     1      16.826   0.828  15.502  1.00  0.00     0.315 C 
BRANCH  36  37
HETATM   37  O2  UNL     1      15.528   0.634  15.920  1.00  0.00    -0.301 OA
BRANCH  37  38
HETATM   38  C2  UNL     1      14.796   1.315  16.837  1.00  0.00     0.256 C 
HETATM   39  C1  UNL     1      15.406   2.161  17.913  1.00  0.00     0.126 C 
HETATM   40  O1  UNL     1      13.548   1.236  16.787  1.00  0.00    -0.266 OA
ENDBRANCH  37  38
ENDBRANCH  36  37
ENDBRANCH  32  36
ENDBRANCH  27  29
ENDBRANCH   1  27
TORSDOF 12
ENDMDL
MODEL 2
REMARK VINA RESULT: -7.824391322      4.182      5.571
REMARK  12 active torsions:
REMARK  status: ('A' for Active; 'I' for Inactive)
REMARK    1  A    between atoms: C2_2  and  O2_4 
REMARK    2  A    between atoms: O2_4  and  C3_5 
REMARK    3  A    between atoms: C3_5  and  N1_6 
REMARK    4  A    between atoms: C6_10  and  N2_11 
REMARK    5  A    between atoms: N2_11  and  C7_13 
REMARK    6  A    between atoms: C8_16  and  C9_17 
REMARK    7  A    between atoms: C9_17  and  N4_18 
REMARK    8  A    between atoms: N4_18  and  C10_20 
REMARK    9  A    between atoms: C10_20  and  O4_21 
REMARK   10  A    between atoms: C10_20  and  C11_23 
REMARK   11  A    between atoms: C14_29  and  C15_30 
REMARK   12  A    between atoms: C15_30  and  O6_31 
ROOT
HETATM    1  C7  UNL     1      16.521   9.196  13.394  1.00  0.00     0.696 A 
HETATM    2  N3  UNL     1      15.972   8.718  12.209  1.00  0.00    -0.176 N 
ATOM      3  H3  UNL     1      15.288   7.965  12.132  1.00  0.00     0.185 HD
HETATM    4  C8  UNL     1      16.486   9.405  11.192  1.00  0.00     0.130 A 
HETATM    5  N7  UNL     1      17.328  10.283  11.719  1.00  0.00    -0.271 N 
ATOM      6  H7  UNL     1      17.876  10.954  11.180  1.00  0.00     0.189 HD
HETATM    7  N8  UNL     1      17.366  10.174  13.056  1.00  0.00    -0.127 N 
HETATM    8  C16 UNL     1      18.201  11.003  13.935  1.00  0.00     0.197 C 
ENDROOT
BRANCH   4   9
HETATM    9  C9  UNL     1      16.152   9.199   9.732  1.00  0.00     0.200 C 
BRANCH   9  10
HETATM   10  N4  UNL     1      16.645   7.920   9.304  1.00  0.00    -0.362 N 
ATOM     11  H4  UNL     1      17.427   7.861   8.651  1.00  0.00     0.162 HD
BRANCH  10  12
HETATM   12  C10 UNL     1      16.034   6.738   9.799  1.00  0.00     0.165 C 
BRANCH  12  13
HETATM   13  O4  UNL     1      14.667   6.524   9.725  1.00  0.00    -0.345 OA
ATOM     14  H4  UNL     1      14.287   5.846   9.178  1.00  0.00     0.219 HD
ENDBRANCH  12  13
BRANCH  12  15
HETATM   15  C11 UNL     1      16.779   5.797  10.351  1.00  0.00     0.099 A 
HETATM   16  C12 UNL     1      18.069   6.054  10.763  1.00  0.00     0.125 A 
HETATM   17  N5  UNL     1      18.807   5.083  11.319  1.00  0.00    -0.329 N 
HETATM   18  C13 UNL     1      18.290   3.834  11.485  1.00  0.00     0.274 A 
ATOM     19  H5  UNL     1      19.760   5.280  11.621  1.00  0.00     0.168 HD
HETATM   20  O5  UNL     1      19.026   2.971  12.010  1.00  0.00    -0.266 OA
HETATM   21  C14 UNL     1      17.001   3.578  11.074  1.00  0.00     0.123 A 
HETATM   22  N6  UNL     1      16.284   4.566  10.519  1.00  0.00    -0.346 N 
ATOM     23  H6  UNL     1      15.330   4.372  10.214  1.00  0.00     0.166 HD
BRANCH  21  24
HETATM   24  C15 UNL     1      16.480   2.364  11.228  1.00  0.00     0.166 C 
BRANCH  24  25
HETATM   25  O6  UNL     1      16.286   1.831  12.485  1.00  0.00    -0.370 OA
ATOM     26  H6  UNL     1      17.023   1.608  13.041  1.00  0.00     0.216 HD
ENDBRANCH  24  25
ENDBRANCH  21  24
ENDBRANCH  12  15
ENDBRANCH  10  12
ENDBRANCH   9  10
ENDBRANCH   4   9
BRANCH   1  27
HETATM   27  N2  UNL     1      16.199   8.709  14.517  1.00  0.00    -0.211 N 
ATOM     28  H2  UNL     1      15.819   9.404  15.160  1.00  0.00     0.178 HD
BRANCH  27  29
HETATM   29  C6  UNL     1      16.250   7.438  15.062  1.00  0.00     0.201 C 
HETATM   30  C5  UNL     1      15.138   6.541  14.529  1.00  0.00     0.139 C 
HETATM   31  C4  UNL     1      15.778   5.243  14.260  1.00  0.00     0.230 C 
HETATM   32  N1  UNL     1      17.144   5.321  14.648  1.00  0.00    -0.264 N 
HETATM   33  O3  UNL     1      15.154   4.264  13.765  1.00  0.00    -0.273 OA
HETATM   34  C17 UNL     1      17.494   6.691  14.620  1.00  0.00     0.252 C 
HETATM   35  O7  UNL     1      18.555   7.249  14.314  1.00  0.00    -0.271 OA
BRANCH  32  36
HETATM   36  C3  UNL     1      18.001   4.184  14.969  1.00  0.00     0.315 C 
BRANCH  36  37
HETATM   37  O2  UNL     1      17.340   2.976  14.918  1.00  0.00    -0.301 OA
BRANCH  37  38
HETATM   38  C2  UNL     1      17.005   2.122  15.918  1.00  0.00     0.256 C 
HETATM   39  C1  UNL     1      15.770   2.275  16.751  1.00  0.00     0.126 C 
HETATM   40  O1  UNL     1      17.763   1.156  16.162  1.00  0.00    -0.266 OA
ENDBRANCH  37  38
ENDBRANCH  36  37
ENDBRANCH  32  36
ENDBRANCH  27  29
ENDBRANCH   1  27
TORSDOF 12
ENDMDL
MODEL 3
REMARK VINA RESULT: -7.774406336      1.649      2.412
REMARK  12 active torsions:
REMARK  status: ('A' for Active; 'I' for Inactive)
REMARK    1  A    between atoms: C2_2  and  O2_4 
REMARK    2  A    between atoms: O2_4  and  C3_5 
REMARK    3  A    between atoms: C3_5  and  N1_6 
REMARK    4  A    between atoms: C6_10  and  N2_11 
REMARK    5  A    between atoms: N2_11  and  C7_13 
REMARK    6  A    between atoms: C8_16  and  C9_17 
REMARK    7  A    between atoms: C9_17  and  N4_18 
REMARK    8  A    between atoms: N4_18  and  C10_20 
REMARK    9  A    between atoms: C10_20  and  O4_21 
REMARK   10  A    between atoms: C10_20  and  C11_23 
REMARK   11  A    between atoms: C14_29  and  C15_30 
REMARK   12  A    between atoms: C15_30  and  O6_31 
ROOT
HETATM    1  C7  UNL     1      18.017   4.841  11.996  1.00  0.00     0.696 A 
HETATM    2  N3  UNL     1      19.330   4.476  12.281  1.00  0.00    -0.176 N 
ATOM      3  H3  UNL     1      19.645   4.004  13.128  1.00  0.00     0.185 HD
HETATM    4  C8  UNL     1      20.105   4.846  11.265  1.00  0.00     0.130 A 
HETATM    5  N7  UNL     1      19.309   5.422  10.374  1.00  0.00    -0.271 N 
ATOM      6  H7  UNL     1      19.623   5.808   9.483  1.00  0.00     0.189 HD
HETATM    7  N8  UNL     1      18.036   5.430  10.798  1.00  0.00    -0.127 N 
HETATM    8  C16 UNL     1      16.912   5.997  10.041  1.00  0.00     0.197 C 
ENDROOT
BRANCH   4   9
HETATM    9  C9  UNL     1      21.599   4.634  11.176  1.00  0.00     0.200 C 
BRANCH   9  10
HETATM   10  N4  UNL     1      22.041   4.900   9.836  1.00  0.00    -0.362 N 
ATOM     11  H4  UNL     1      21.413   5.343   9.164  1.00  0.00     0.162 HD
BRANCH  10  12
HETATM   12  C10 UNL     1      23.360   4.541   9.454  1.00  0.00     0.165 C 
BRANCH  12  13
HETATM   13  O4  UNL     1      24.439   4.654  10.317  1.00  0.00    -0.345 OA
ATOM     14  H4  UNL     1      25.200   5.184  10.112  1.00  0.00     0.219 HD
ENDBRANCH  12  13
BRANCH  12  15
HETATM   15  C11 UNL     1      23.587   4.078   8.237  1.00  0.00     0.099 A 
HETATM   16  C12 UNL     1      23.601   4.917   7.143  1.00  0.00     0.125 A 
HETATM   17  N5  UNL     1      23.832   4.424   5.918  1.00  0.00    -0.329 N 
HETATM   18  C13 UNL     1      24.054   3.093   5.741  1.00  0.00     0.274 A 
ATOM     19  H5  UNL     1      23.841   5.050   5.113  1.00  0.00     0.168 HD
HETATM   20  O5  UNL     1      24.264   2.693   4.575  1.00  0.00    -0.266 OA
HETATM   21  C14 UNL     1      24.041   2.255   6.834  1.00  0.00     0.123 A 
HETATM   22  N6  UNL     1      23.807   2.772   8.049  1.00  0.00    -0.346 N 
ATOM     23  H6  UNL     1      23.795   2.148   8.856  1.00  0.00     0.166 HD
BRANCH  21  24
HETATM   24  C15 UNL     1      24.257   0.953   6.680  1.00  0.00     0.166 C 
BRANCH  24  25
HETATM   25  O6  UNL     1      23.296   0.029   7.032  1.00  0.00    -0.370 OA
ATOM     26  H6  UNL     1      22.619  -0.230   6.418  1.00  0.00     0.216 HD
ENDBRANCH  24  25
ENDBRANCH  21  24
ENDBRANCH  12  15
ENDBRANCH  10  12
ENDBRANCH   9  10
ENDBRANCH   4   9
BRANCH   1  27
HETATM   27  N2  UNL     1      17.074   4.603  12.806  1.00  0.00    -0.211 N 
ATOM     28  H2  UNL     1      16.654   5.450  13.190  1.00  0.00     0.178 HD
BRANCH  27  29
HETATM   29  C6  UNL     1      16.489   3.444  13.284  1.00  0.00     0.201 C 
HETATM   30  C5  UNL     1      16.480   2.334  12.239  1.00  0.00     0.139 C 
HETATM   31  C4  UNL     1      16.868   1.112  12.963  1.00  0.00     0.230 C 
HETATM   32  N1  UNL     1      17.041   1.434  14.338  1.00  0.00    -0.264 N 
HETATM   33  O3  UNL     1      17.005  -0.005  12.392  1.00  0.00    -0.273 OA
HETATM   34  C17 UNL     1      17.312   2.821  14.396  1.00  0.00     0.252 C 
HETATM   35  O7  UNL     1      18.045   3.471  15.152  1.00  0.00    -0.271 OA
BRANCH  32  36
HETATM   36  C3  UNL     1      16.980   0.486  15.445  1.00  0.00     0.315 C 
BRANCH  36  37
HETATM   37  O2  UNL     1      15.736   0.417  16.033  1.00  0.00    -0.301 OA
BRANCH  37  38
HETATM   38  C2  UNL     1      15.203   1.161  17.034  1.00  0.00     0.256 C 
HETATM   39  C1  UNL     1      13.924   1.930  16.897  1.00  0.00     0.126 C 
HETATM   40  O1  UNL     1      15.804   1.212  18.131  1.00  0.00    -0.266 OA
ENDBRANCH  37  38
ENDBRANCH  36  37
ENDBRANCH  32  36
ENDBRANCH  27  29
ENDBRANCH   1  27
TORSDOF 12
ENDMDL
MODEL 4
REMARK VINA RESULT: -7.744881532      2.148      9.313
REMARK  12 active torsions:
REMARK  status: ('A' for Active; 'I' for Inactive)
REMARK    1  A    between atoms: C2_2  and  O2_4 
REMARK    2  A    between atoms: O2_4  and  C3_5 
REMARK    3  A    between atoms: C3_5  and  N1_6 
REMARK    4  A    between atoms: C6_10  and  N2_11 
REMARK    5  A    between atoms: N2_11  and  C7_13 
REMARK    6  A    between atoms: C8_16  and  C9_17 
REMARK    7  A    between atoms: C9_17  and  N4_18 
REMARK    8  A    between atoms: N4_18  and  C10_20 
REMARK    9  A    between atoms: C10_20  and  O4_21 
REMARK   10  A    between atoms: C10_20  and  C11_23 
REMARK   11  A    between atoms: C14_29  and  C15_30 
REMARK   12  A    between atoms: C15_30  and  O6_31 
ROOT
HETATM    1  C7  UNL     1      21.269   6.115  12.285  1.00  0.00     0.696 A 
HETATM    2  N3  UNL     1      20.288   5.454  13.018  1.00  0.00    -0.176 N 
ATOM      3  H3  UNL     1      20.263   4.453  13.210  1.00  0.00     0.185 HD
HETATM    4  C8  UNL     1      19.388   6.345  13.428  1.00  0.00     0.130 A 
HETATM    5  N7  UNL     1      19.789   7.523  12.969  1.00  0.00    -0.271 N 
ATOM      6  H7  UNL     1      19.296   8.402  13.125  1.00  0.00     0.189 HD
HETATM    7  N8  UNL     1      20.929   7.407  12.271  1.00  0.00    -0.127 N 
HETATM    8  C16 UNL     1      21.631   8.528  11.631  1.00  0.00     0.197 C 
ENDROOT
BRANCH   4   9
HETATM    9  C9  UNL     1      18.161   6.040  14.255  1.00  0.00     0.200 C 
BRANCH   9  10
HETATM   10  N4  UNL     1      17.094   5.619  13.391  1.00  0.00    -0.362 N 
ATOM     11  H4  UNL     1      17.098   5.878  12.404  1.00  0.00     0.162 HD
BRANCH  10  12
HETATM   12  C10 UNL     1      16.033   4.842  13.924  1.00  0.00     0.165 C 
BRANCH  12  13
HETATM   13  O4  UNL     1      14.763   5.358  14.125  1.00  0.00    -0.345 OA
ATOM     14  H4  UNL     1      14.159   4.991  14.760  1.00  0.00     0.219 HD
ENDBRANCH  12  13
BRANCH  12  15
HETATM   15  C11 UNL     1      16.245   3.577  14.244  1.00  0.00     0.099 A 
HETATM   16  C12 UNL     1      16.823   2.699  13.353  1.00  0.00     0.125 A 
HETATM   17  N5  UNL     1      17.027   1.420  13.700  1.00  0.00    -0.329 N 
HETATM   18  C13 UNL     1      16.666   0.976  14.935  1.00  0.00     0.274 A 
ATOM     19  H5  UNL     1      17.455   0.777  13.036  1.00  0.00     0.168 HD
HETATM   20  O5  UNL     1      16.882  -0.227  15.202  1.00  0.00    -0.266 OA
HETATM   21  C14 UNL     1      16.089   1.853  15.826  1.00  0.00     0.123 A 
HETATM   22  N6  UNL     1      15.894   3.127  15.455  1.00  0.00    -0.346 N 
ATOM     23  H6  UNL     1      15.465   3.774  16.117  1.00  0.00     0.166 HD
BRANCH  21  24
HETATM   24  C15 UNL     1      15.731   1.437  17.037  1.00  0.00     0.166 C 
BRANCH  24  25
HETATM   25  O6  UNL     1      15.137   0.205  17.215  1.00  0.00    -0.370 OA
ATOM     26  H6  UNL     1      14.811  -0.061  18.067  1.00  0.00     0.216 HD
ENDBRANCH  24  25
ENDBRANCH  21  24
ENDBRANCH  12  15
ENDBRANCH  10  12
ENDBRANCH   9  10
ENDBRANCH   4   9
BRANCH   1  27
HETATM   27  N2  UNL     1      22.247   5.492  11.777  1.00  0.00    -0.211 N 
ATOM     28  H2  UNL     1      23.129   5.680  12.252  1.00  0.00     0.178 HD
BRANCH  27  29
HETATM   29  C6  UNL     1      22.379   4.613  10.716  1.00  0.00     0.201 C 
HETATM   30  C5  UNL     1      21.528   5.028   9.521  1.00  0.00     0.139 C 
HETATM   31  C4  UNL     1      22.388   4.832   8.342  1.00  0.00     0.230 C 
HETATM   32  N1  UNL     1      23.632   4.291   8.773  1.00  0.00    -0.264 N 
HETATM   33  O3  UNL     1      22.017   5.118   7.170  1.00  0.00    -0.273 OA
HETATM   34  C17 UNL     1      23.778   4.649  10.133  1.00  0.00     0.252 C 
HETATM   35  O7  UNL     1      24.785   4.944  10.788  1.00  0.00    -0.271 OA
BRANCH  32  36
HETATM   36  C3  UNL     1      24.568   3.547   7.936  1.00  0.00     0.315 C 
BRANCH  36  37
HETATM   37  O2  UNL     1      24.614   2.204   8.236  1.00  0.00    -0.301 OA
BRANCH  37  38
HETATM   38  C2  UNL     1      24.400   1.125   7.441  1.00  0.00     0.256 C 
HETATM   39  C1  UNL     1      24.411  -0.285   7.947  1.00  0.00     0.126 C 
HETATM   40  O1  UNL     1      24.182   1.311   6.222  1.00  0.00    -0.266 OA
ENDBRANCH  37  38
ENDBRANCH  36  37
ENDBRANCH  32  36
ENDBRANCH  27  29
ENDBRANCH   1  27
TORSDOF 12
ENDMDL
MODEL 5
REMARK VINA RESULT: -7.674798365      1.478      2.696
REMARK  12 active torsions:
REMARK  status: ('A' for Active; 'I' for Inactive)
REMARK    1  A    between atoms: C2_2  and  O2_4 
REMARK    2  A    between atoms: O2_4  and  C3_5 
REMARK    3  A    between atoms: C3_5  and  N1_6 
REMARK    4  A    between atoms: C6_10  and  N2_11 
REMARK    5  A    between atoms: N2_11  and  C7_13 
REMARK    6  A    between atoms: C8_16  and  C9_17 
REMARK    7  A    between atoms: C9_17  and  N4_18 
REMARK    8  A    between atoms: N4_18  and  C10_20 
REMARK    9  A    between atoms: C10_20  and  O4_21 
REMARK   10  A    between atoms: C10_20  and  C11_23 
REMARK   11  A    between atoms: C14_29  and  C15_30 
REMARK   12  A    between atoms: C15_30  and  O6_31 
ROOT
HETATM    1  C7  UNL     1      17.899   5.112  12.209  1.00  0.00     0.696 A 
HETATM    2  N3  UNL     1      19.245   4.940  12.514  1.00  0.00    -0.176 N 
ATOM      3  H3  UNL     1      19.613   4.567  13.389  1.00  0.00     0.185 HD
HETATM    4  C8  UNL     1      19.974   5.342  11.476  1.00  0.00     0.130 A 
HETATM    5  N7  UNL     1      19.116   5.752  10.551  1.00  0.00    -0.271 N 
ATOM      6  H7  UNL     1      19.384   6.119   9.637  1.00  0.00     0.189 HD
HETATM    7  N8  UNL     1      17.850   5.622  10.975  1.00  0.00    -0.127 N 
HETATM    8  C16 UNL     1      16.666   5.989  10.186  1.00  0.00     0.197 C 
ENDROOT
BRANCH   4   9
HETATM    9  C9  UNL     1      21.483   5.321  11.399  1.00  0.00     0.200 C 
BRANCH   9  10
HETATM   10  N4  UNL     1      21.903   4.265  10.522  1.00  0.00    -0.362 N 
ATOM     11  H4  UNL     1      21.288   3.471  10.340  1.00  0.00     0.162 HD
BRANCH  10  12
HETATM   12  C10 UNL     1      23.183   4.334   9.912  1.00  0.00     0.165 C 
BRANCH  12  13
HETATM   13  O4  UNL     1      24.318   4.710  10.612  1.00  0.00    -0.345 OA
ATOM     14  H4  UNL     1      24.644   4.216  11.355  1.00  0.00     0.219 HD
ENDBRANCH  12  13
BRANCH  12  15
HETATM   15  C11 UNL     1      23.316   4.032   8.633  1.00  0.00     0.099 A 
HETATM   16  C12 UNL     1      24.284   3.152   8.201  1.00  0.00     0.125 A 
HETATM   17  N5  UNL     1      24.400   2.862   6.897  1.00  0.00    -0.329 N 
HETATM   18  C13 UNL     1      23.564   3.433   5.987  1.00  0.00     0.274 A 
ATOM     19  H5  UNL     1      25.119   2.210   6.585  1.00  0.00     0.168 HD
HETATM   20  O5  UNL     1      23.721   3.123   4.786  1.00  0.00    -0.266 OA
HETATM   21  C14 UNL     1      22.596   4.312   6.419  1.00  0.00     0.123 A 
HETATM   22  N6  UNL     1      22.501   4.587   7.728  1.00  0.00    -0.346 N 
ATOM     23  H6  UNL     1      21.784   5.240   8.044  1.00  0.00     0.166 HD
BRANCH  21  24
HETATM   24  C15 UNL     1      21.771   4.878   5.544  1.00  0.00     0.166 C 
BRANCH  24  25
HETATM   25  O6  UNL     1      21.045   4.113   4.656  1.00  0.00    -0.370 OA
ATOM     26  H6  UNL     1      20.692   4.492   3.859  1.00  0.00     0.216 HD
ENDBRANCH  24  25
ENDBRANCH  21  24
ENDBRANCH  12  15
ENDBRANCH  10  12
ENDBRANCH   9  10
ENDBRANCH   4   9
BRANCH   1  27
HETATM   27  N2  UNL     1      16.989   4.805  13.033  1.00  0.00    -0.211 N 
ATOM     28  H2  UNL     1      16.591   5.615  13.509  1.00  0.00     0.178 HD
BRANCH  27  29
HETATM   29  C6  UNL     1      16.416   3.609  13.429  1.00  0.00     0.201 C 
HETATM   30  C5  UNL     1      16.426   2.572  12.312  1.00  0.00     0.139 C 
HETATM   31  C4  UNL     1      16.826   1.309  12.954  1.00  0.00     0.230 C 
HETATM   32  N1  UNL     1      16.989   1.540  14.348  1.00  0.00    -0.264 N 
HETATM   33  O3  UNL     1      16.979   0.235  12.310  1.00  0.00    -0.273 OA
HETATM   34  C17 UNL     1      17.242   2.923  14.501  1.00  0.00     0.252 C 
HETATM   35  O7  UNL     1      17.964   3.530  15.302  1.00  0.00    -0.271 OA
BRANCH  32  36
HETATM   36  C3  UNL     1      16.936   0.519  15.389  1.00  0.00     0.315 C 
BRANCH  36  37
HETATM   37  O2  UNL     1      16.550   1.014  16.615  1.00  0.00    -0.301 OA
BRANCH  37  38
HETATM   38  C2  UNL     1      15.309   1.278  17.097  1.00  0.00     0.256 C 
HETATM   39  C1  UNL     1      15.019   2.393  18.055  1.00  0.00     0.126 C 
HETATM   40  O1  UNL     1      14.355   0.558  16.727  1.00  0.00    -0.266 OA
ENDBRANCH  37  38
ENDBRANCH  36  37
ENDBRANCH  32  36
ENDBRANCH  27  29
ENDBRANCH   1  27
TORSDOF 12
ENDMDL
