MODEL 1
REMARK VINA RESULT: -7.944295634      0.000      0.000
REMARK  8 active torsions:
REMARK  status: ('A' for Active; 'I' for Inactive)
REMARK    1  A    between atoms: N1_4  and  C4_5 
REMARK    2  A    between atoms: N5_12  and  C5_13 
REMARK    3  A    between atoms: C7_15  and  N6_16 
REMARK    4  A    between atoms: N7_19  and  C10_20 
REMARK    5  A    between atoms: C10_20  and  C11_21 
REMARK    6  A    between atoms: C11_21  and  O1_22 
REMARK    7  A    between atoms: C14_28  and  N9_29 
REMARK    8  A    between atoms: N12_38  and  S1_39 
ROOT
HETATM    1  C4  UNL     1      -4.092   1.160  12.573  1.00  0.00     0.727 A 
HETATM    2  N2  UNL     1      -4.346  -0.211  12.509  1.00  0.00    -0.114 N 
ATOM      3  H2  UNL     1      -5.048  -0.728  13.039  1.00  0.00     0.207 HD
HETATM    4  N3  UNL     1      -3.500  -0.704  11.632  1.00  0.00    -0.213 N 
ATOM      5  H3  UNL     1      -3.428  -1.683  11.354  1.00  0.00     0.210 HD
HETATM    6  N4  UNL     1      -2.767   0.279  11.176  1.00  0.00    -0.205 N 
ATOM      7  H4  UNL     1      -2.029   0.174  10.480  1.00  0.00     0.211 HD
HETATM    8  N5  UNL     1      -3.110   1.431  11.736  1.00  0.00    -0.052 N 
ENDROOT
BRANCH   8   9
HETATM    9  C5  UNL     1      -2.471   2.660  11.423  1.00  0.00     0.166 A 
HETATM   10  C6  UNL     1      -2.936   3.411  10.330  1.00  0.00     0.100 A 
HETATM   11  C7  UNL     1      -2.374   4.602   9.950  1.00  0.00     0.122 A 
HETATM   12  N8  UNL     1      -1.335   5.074  10.656  1.00  0.00    -0.177 N 
HETATM   13  C14 UNL     1      -0.875   4.355  11.719  1.00  0.00     0.679 A 
ATOM     14  H8  UNL     1      -0.895   5.958  10.400  1.00  0.00     0.185 HD
HETATM   15  N10 UNL     1      -1.440   3.192  12.069  1.00  0.00    -0.174 N 
ATOM     16  H10 UNL     1      -1.059   2.690  12.871  1.00  0.00     0.186 HD
BRANCH  11  17
HETATM   17  N6  UNL     1      -2.900   5.284   8.809  1.00  0.00    -0.363 N 
HETATM   18  C8  UNL     1      -2.093   5.940   7.837  1.00  0.00     0.154 C 
HETATM   19  C9  UNL     1      -2.652   5.659   6.440  1.00  0.00     0.292 C 
HETATM   20  N7  UNL     1      -4.058   5.760   6.371  1.00  0.00     0.093 N 
HETATM   21  C12 UNL     1      -4.705   4.855   7.270  1.00  0.00     0.292 C 
HETATM   22  C13 UNL     1      -4.366   5.276   8.697  1.00  0.00     0.154 C 
BRANCH  20  23
HETATM   23  C10 UNL     1      -4.660   7.033   6.400  1.00  0.00     0.298 C 
BRANCH  23  24
HETATM   24  C11 UNL     1      -4.587   7.833   5.132  1.00  0.00     0.194 C 
BRANCH  24  25
HETATM   25  O1  UNL     1      -5.811   8.197   4.616  1.00  0.00    -0.399 OA
ATOM     26  H1  UNL     1      -6.112   9.056   4.886  1.00  0.00     0.209 HD
ENDBRANCH  24  25
ENDBRANCH  23  24
ENDBRANCH  20  23
ENDBRANCH  11  17
BRANCH  13  27
HETATM   27  N9  UNL     1       0.109   4.836  12.363  1.00  0.00    -0.234 N 
ATOM     28  H92 UNL     1       0.386   5.812  12.262  1.00  0.00     0.174 HD
ATOM     29  H91 UNL     1       0.613   4.204  12.984  1.00  0.00     0.174 HD
ENDBRANCH  13  27
ENDBRANCH   8   9
BRANCH   1  30
HETATM   30  N1  UNL     1      -4.816   2.003  13.428  1.00  0.00    -0.145 N 
HETATM   31  C3  UNL     1      -5.734   2.915  12.723  1.00  0.00     0.172 C 
HETATM   32  C2  UNL     1      -5.125   4.337  12.902  1.00  0.00     0.111 C 
HETATM   33  C1  UNL     1      -6.246   5.335  12.883  1.00  0.00     0.031 C 
HETATM   34  N12 UNL     1      -4.490   4.334  14.175  1.00  0.00    -0.099 NA
HETATM   35  N11 UNL     1      -5.376   4.319  15.243  1.00  0.00    -0.139 NA
HETATM   36  C16 UNL     1      -5.285   2.967  15.837  1.00  0.00     0.233 C 
HETATM   37  C15 UNL     1      -4.641   2.039  14.825  1.00  0.00     0.254 C 
HETATM   38  O2  UNL     1      -3.852   1.208  15.321  1.00  0.00    -0.271 OA
BRANCH  34  39
HETATM   39  S1  UNL     1      -3.219   5.427  14.394  1.00  0.00     0.201 S 
HETATM   40  O3  UNL     1      -2.897   6.110  13.100  1.00  0.00    -0.581 OA
HETATM   41  O4  UNL     1      -3.605   6.521  15.388  1.00  0.00    -0.581 OA
HETATM   42  O5  UNL     1      -1.829   4.680  14.975  1.00  0.00    -0.581 OA
ENDBRANCH  34  39
ENDBRANCH   1  30
TORSDOF 8
ENDMDL
MODEL 2
REMARK VINA RESULT: -7.618687630      0.738      1.117
REMARK  8 active torsions:
REMARK  status: ('A' for Active; 'I' for Inactive)
REMARK    1  A    between atoms: N1_4  and  C4_5 
REMARK    2  A    between atoms: N5_12  and  C5_13 
REMARK    3  A    between atoms: C7_15  and  N6_16 
REMARK    4  A    between atoms: N7_19  and  C10_20 
REMARK    5  A    between atoms: C10_20  and  C11_21 
REMARK    6  A    between atoms: C11_21  and  O1_22 
REMARK    7  A    between atoms: C14_28  and  N9_29 
REMARK    8  A    between atoms: N12_38  and  S1_39 
ROOT
HETATM    1  C4  UNL     1      -4.050   1.309  12.449  1.00  0.00     0.727 A 
HETATM    2  N2  UNL     1      -4.339  -0.053  12.343  1.00  0.00    -0.114 N 
ATOM      3  H2  UNL     1      -5.073  -0.561  12.837  1.00  0.00     0.207 HD
HETATM    4  N3  UNL     1      -3.479  -0.548  11.483  1.00  0.00    -0.213 N 
ATOM      5  H3  UNL     1      -3.424  -1.522  11.183  1.00  0.00     0.210 HD
HETATM    6  N4  UNL     1      -2.704   0.425  11.076  1.00  0.00    -0.205 N 
ATOM      7  H4  UNL     1      -1.945   0.315  10.402  1.00  0.00     0.211 HD
HETATM    8  N5  UNL     1      -3.033   1.572  11.652  1.00  0.00    -0.052 N 
ENDROOT
BRANCH   8   9
HETATM    9  C5  UNL     1      -2.351   2.789  11.391  1.00  0.00     0.166 A 
HETATM   10  C6  UNL     1      -2.839   3.644  10.389  1.00  0.00     0.100 A 
HETATM   11  C7  UNL     1      -2.240   4.832  10.063  1.00  0.00     0.122 A 
HETATM   12  N8  UNL     1      -1.137   5.198  10.734  1.00  0.00    -0.177 N 
HETATM   13  C14 UNL     1      -0.652   4.377  11.709  1.00  0.00     0.679 A 
ATOM     14  H8  UNL     1      -0.667   6.077  10.517  1.00  0.00     0.185 HD
HETATM   15  N10 UNL     1      -1.255   3.219  12.008  1.00  0.00    -0.174 N 
ATOM     16  H10 UNL     1      -0.855   2.640  12.745  1.00  0.00     0.186 HD
BRANCH  11  17
HETATM   17  N6  UNL     1      -2.796   5.625   9.012  1.00  0.00    -0.363 N 
HETATM   18  C8  UNL     1      -3.978   6.408   9.148  1.00  0.00     0.154 C 
HETATM   19  C9  UNL     1      -3.779   7.752   8.444  1.00  0.00     0.292 C 
HETATM   20  N7  UNL     1      -3.155   7.637   7.185  1.00  0.00     0.093 N 
HETATM   21  C12 UNL     1      -1.867   7.021   7.279  1.00  0.00     0.292 C 
HETATM   22  C13 UNL     1      -2.060   5.579   7.739  1.00  0.00     0.154 C 
BRANCH  20  23
HETATM   23  C10 UNL     1      -3.889   7.128   6.095  1.00  0.00     0.298 C 
BRANCH  23  24
HETATM   24  C11 UNL     1      -5.259   7.705   5.890  1.00  0.00     0.194 C 
BRANCH  24  25
HETATM   25  O1  UNL     1      -5.620   7.864   4.570  1.00  0.00    -0.399 OA
ATOM     26  H1  UNL     1      -5.265   8.643   4.157  1.00  0.00     0.209 HD
ENDBRANCH  24  25
ENDBRANCH  23  24
ENDBRANCH  20  23
ENDBRANCH  11  17
BRANCH  13  27
HETATM   27  N9  UNL     1       0.393   4.760  12.323  1.00  0.00    -0.234 N 
ATOM     28  H92 UNL     1       1.011   5.470  11.931  1.00  0.00     0.174 HD
ATOM     29  H91 UNL     1       0.589   4.325  13.224  1.00  0.00     0.174 HD
ENDBRANCH  13  27
ENDBRANCH   8   9
BRANCH   1  30
HETATM   30  N1  UNL     1      -4.778   2.152  13.301  1.00  0.00    -0.145 N 
HETATM   31  C3  UNL     1      -5.691   3.065  12.591  1.00  0.00     0.172 C 
HETATM   32  C2  UNL     1      -5.083   4.486  12.776  1.00  0.00     0.111 C 
HETATM   33  C1  UNL     1      -6.203   5.486  12.751  1.00  0.00     0.031 C 
HETATM   34  N12 UNL     1      -4.455   4.481  14.052  1.00  0.00    -0.099 NA
HETATM   35  N11 UNL     1      -5.348   4.466  15.115  1.00  0.00    -0.139 NA
HETATM   36  C16 UNL     1      -5.262   3.114  15.708  1.00  0.00     0.233 C 
HETATM   37  C15 UNL     1      -4.612   2.186  14.699  1.00  0.00     0.254 C 
HETATM   38  O2  UNL     1      -3.827   1.354  15.199  1.00  0.00    -0.271 OA
BRANCH  34  39
HETATM   39  S1  UNL     1      -3.185   5.574  14.281  1.00  0.00     0.201 S 
HETATM   40  O3  UNL     1      -2.932   6.342  13.019  1.00  0.00    -0.581 OA
HETATM   41  O4  UNL     1      -3.533   6.598  15.360  1.00  0.00    -0.581 OA
HETATM   42  O5  UNL     1      -1.762   4.807  14.746  1.00  0.00    -0.581 OA
ENDBRANCH  34  39
ENDBRANCH   1  30
TORSDOF 8
ENDMDL
MODEL 3
REMARK VINA RESULT: -7.576424523      2.397      4.014
REMARK  8 active torsions:
REMARK  status: ('A' for Active; 'I' for Inactive)
REMARK    1  A    between atoms: N1_4  and  C4_5 
REMARK    2  A    between atoms: N5_12  and  C5_13 
REMARK    3  A    between atoms: C7_15  and  N6_16 
REMARK    4  A    between atoms: N7_19  and  C10_20 
REMARK    5  A    between atoms: C10_20  and  C11_21 
REMARK    6  A    between atoms: C11_21  and  O1_22 
REMARK    7  A    between atoms: C14_28  and  N9_29 
REMARK    8  A    between atoms: N12_38  and  S1_39 
ROOT
HETATM    1  C4  UNL     1      -2.048   4.185  12.233  1.00  0.00     0.727 A 
HETATM    2  N2  UNL     1      -1.371   4.344  13.443  1.00  0.00    -0.114 N 
ATOM      3  H2  UNL     1      -1.596   3.898  14.333  1.00  0.00     0.207 HD
HETATM    4  N3  UNL     1      -0.387   5.183  13.210  1.00  0.00    -0.213 N 
ATOM      5  H3  UNL     1       0.298   5.509  13.893  1.00  0.00     0.210 HD
HETATM    6  N4  UNL     1      -0.437   5.529  11.949  1.00  0.00    -0.205 N 
ATOM      7  H4  UNL     1       0.214   6.174  11.501  1.00  0.00     0.211 HD
HETATM    8  N5  UNL     1      -1.445   4.931  11.329  1.00  0.00    -0.052 N 
ENDROOT
BRANCH   8   9
HETATM    9  C5  UNL     1      -1.730   5.132   9.952  1.00  0.00     0.166 A 
HETATM   10  C6  UNL     1      -2.987   5.640   9.584  1.00  0.00     0.100 A 
HETATM   11  C7  UNL     1      -3.352   5.856   8.281  1.00  0.00     0.122 A 
HETATM   12  N8  UNL     1      -2.468   5.572   7.313  1.00  0.00    -0.177 N 
HETATM   13  C14 UNL     1      -1.244   5.077   7.657  1.00  0.00     0.679 A 
ATOM     14  H8  UNL     1      -2.707   5.722   6.333  1.00  0.00     0.185 HD
HETATM   15  N10 UNL     1      -0.912   4.873   8.938  1.00  0.00    -0.174 N 
ATOM     16  H10 UNL     1       0.014   4.501   9.146  1.00  0.00     0.186 HD
BRANCH  11  17
HETATM   17  N6  UNL     1      -4.662   6.354   8.000  1.00  0.00    -0.363 N 
HETATM   18  C8  UNL     1      -5.492   5.858   6.955  1.00  0.00     0.154 C 
HETATM   19  C9  UNL     1      -6.934   5.754   7.458  1.00  0.00     0.292 C 
HETATM   20  N7  UNL     1      -7.345   6.874   8.210  1.00  0.00     0.093 N 
HETATM   21  C12 UNL     1      -6.516   7.084   9.358  1.00  0.00     0.292 C 
HETATM   22  C13 UNL     1      -5.115   7.447   8.874  1.00  0.00     0.154 C 
BRANCH  20  23
HETATM   23  C10 UNL     1      -7.621   8.087   7.547  1.00  0.00     0.298 C 
BRANCH  23  24
HETATM   24  C11 UNL     1      -8.751   8.904   8.101  1.00  0.00     0.194 C 
BRANCH  24  25
HETATM   25  O1  UNL     1      -9.896   8.187   8.370  1.00  0.00    -0.399 OA
ATOM     26  H1  UNL     1     -10.066   7.476   7.764  1.00  0.00     0.209 HD
ENDBRANCH  24  25
ENDBRANCH  23  24
ENDBRANCH  20  23
ENDBRANCH  11  17
BRANCH  13  27
HETATM   27  N9  UNL     1      -0.434   4.822   6.712  1.00  0.00    -0.234 N 
ATOM     28  H92 UNL     1      -0.478   3.945   6.194  1.00  0.00     0.174 HD
ATOM     29  H91 UNL     1       0.264   5.532   6.493  1.00  0.00     0.174 HD
ENDBRANCH  13  27
ENDBRANCH   8   9
BRANCH   1  30
HETATM   30  N1  UNL     1      -3.172   3.354  12.122  1.00  0.00    -0.145 N 
HETATM   31  C3  UNL     1      -4.453   4.068  12.267  1.00  0.00     0.172 C 
HETATM   32  C2  UNL     1      -5.043   3.588  13.626  1.00  0.00     0.111 C 
HETATM   33  C1  UNL     1      -6.541   3.655  13.539  1.00  0.00     0.031 C 
HETATM   34  N12 UNL     1      -4.619   2.240  13.784  1.00  0.00    -0.099 NA
HETATM   35  N11 UNL     1      -5.249   1.350  12.924  1.00  0.00    -0.139 NA
HETATM   36  C16 UNL     1      -4.232   0.948  11.929  1.00  0.00     0.233 C 
HETATM   37  C15 UNL     1      -3.100   1.957  11.961  1.00  0.00     0.254 C 
HETATM   38  O2  UNL     1      -1.964   1.457  11.827  1.00  0.00    -0.271 OA
BRANCH  34  39
HETATM   39  S1  UNL     1      -4.512   1.656  15.367  1.00  0.00     0.201 S 
HETATM   40  O3  UNL     1      -3.196   2.042  15.972  1.00  0.00    -0.581 OA
HETATM   41  O4  UNL     1      -5.600   2.266  16.249  1.00  0.00    -0.581 OA
HETATM   42  O5  UNL     1      -4.676  -0.016  15.441  1.00  0.00    -0.581 OA
ENDBRANCH  34  39
ENDBRANCH   1  30
TORSDOF 8
ENDMDL
MODEL 4
REMARK VINA RESULT: -7.393745319      3.105      5.078
REMARK  8 active torsions:
REMARK  status: ('A' for Active; 'I' for Inactive)
REMARK    1  A    between atoms: N1_4  and  C4_5 
REMARK    2  A    between atoms: N5_12  and  C5_13 
REMARK    3  A    between atoms: C7_15  and  N6_16 
REMARK    4  A    between atoms: N7_19  and  C10_20 
REMARK    5  A    between atoms: C10_20  and  C11_21 
REMARK    6  A    between atoms: C11_21  and  O1_22 
REMARK    7  A    between atoms: C14_28  and  N9_29 
REMARK    8  A    between atoms: N12_38  and  S1_39 
ROOT
HETATM    1  C4  UNL     1      -4.648   2.624  15.306  1.00  0.00     0.727 A 
HETATM    2  N2  UNL     1      -4.913   2.173  16.600  1.00  0.00    -0.114 N 
ATOM      3  H2  UNL     1      -5.189   2.743  17.400  1.00  0.00     0.207 HD
HETATM    4  N3  UNL     1      -4.737   0.871  16.583  1.00  0.00    -0.213 N 
ATOM      5  H3  UNL     1      -4.853   0.241  17.377  1.00  0.00     0.210 HD
HETATM    6  N4  UNL     1      -4.386   0.524  15.371  1.00  0.00    -0.205 N 
ATOM      7  H4  UNL     1      -4.186  -0.433  15.080  1.00  0.00     0.211 HD
HETATM    8  N5  UNL     1      -4.325   1.578  14.570  1.00  0.00    -0.052 N 
ENDROOT
BRANCH   8   9
HETATM    9  C5  UNL     1      -3.965   1.485  13.200  1.00  0.00     0.166 A 
HETATM   10  C6  UNL     1      -2.791   2.118  12.758  1.00  0.00     0.100 A 
HETATM   11  C7  UNL     1      -2.372   2.087  11.454  1.00  0.00     0.122 A 
HETATM   12  N8  UNL     1      -3.116   1.422  10.557  1.00  0.00    -0.177 N 
HETATM   13  C14 UNL     1      -4.258   0.804  10.973  1.00  0.00     0.679 A 
ATOM     14  H8  UNL     1      -2.832   1.379   9.579  1.00  0.00     0.185 HD
HETATM   15  N10 UNL     1      -4.647   0.849  12.254  1.00  0.00    -0.174 N 
ATOM     16  H10 UNL     1      -5.509   0.371  12.516  1.00  0.00     0.186 HD
BRANCH  11  17
HETATM   17  N6  UNL     1      -1.175   2.781  11.093  1.00  0.00    -0.363 N 
HETATM   18  C8  UNL     1      -0.649   2.820   9.770  1.00  0.00     0.154 C 
HETATM   19  C9  UNL     1      -0.142   4.232   9.467  1.00  0.00     0.292 C 
HETATM   20  N7  UNL     1       0.588   4.804  10.531  1.00  0.00     0.093 N 
HETATM   21  C12 UNL     1      -0.189   4.887  11.730  1.00  0.00     0.292 C 
HETATM   22  C13 UNL     1      -0.494   3.468  12.200  1.00  0.00     0.154 C 
BRANCH  20  23
HETATM   23  C10 UNL     1       1.894   4.347  10.794  1.00  0.00     0.298 C 
BRANCH  23  24
HETATM   24  C11 UNL     1       2.748   5.234  11.652  1.00  0.00     0.194 C 
BRANCH  24  25
HETATM   25  O1  UNL     1       3.568   4.560  12.531  1.00  0.00    -0.399 OA
ATOM     26  H1  UNL     1       4.065   5.122  13.113  1.00  0.00     0.209 HD
ENDBRANCH  24  25
ENDBRANCH  23  24
ENDBRANCH  20  23
ENDBRANCH  11  17
BRANCH  13  27
HETATM   27  N9  UNL     1      -4.934   0.182  10.095  1.00  0.00    -0.234 N 
ATOM     28  H92 UNL     1      -4.482  -0.311   9.325  1.00  0.00     0.174 HD
ATOM     29  H91 UNL     1      -5.949   0.197  10.191  1.00  0.00     0.174 HD
ENDBRANCH  13  27
ENDBRANCH   8   9
BRANCH   1  30
HETATM   30  N1  UNL     1      -4.732   3.982  14.967  1.00  0.00    -0.145 N 
HETATM   31  C3  UNL     1      -6.113   4.493  14.910  1.00  0.00     0.172 C 
HETATM   32  C2  UNL     1      -6.390   4.772  13.403  1.00  0.00     0.111 C 
HETATM   33  C1  UNL     1      -7.386   5.891  13.306  1.00  0.00     0.031 C 
HETATM   34  N12 UNL     1      -5.145   5.170  12.843  1.00  0.00    -0.099 NA
HETATM   35  N11 UNL     1      -4.728   6.432  13.245  1.00  0.00    -0.139 NA
HETATM   36  C16 UNL     1      -3.590   6.218  14.164  1.00  0.00     0.233 C 
HETATM   37  C15 UNL     1      -3.618   4.777  14.639  1.00  0.00     0.254 C 
HETATM   38  O2  UNL     1      -2.491   4.249  14.741  1.00  0.00    -0.271 OA
BRANCH  34  39
HETATM   39  S1  UNL     1      -4.938   4.909  11.185  1.00  0.00     0.201 S 
HETATM   40  O3  UNL     1      -3.495   5.070  10.814  1.00  0.00    -0.581 OA
HETATM   41  O4  UNL     1      -5.337   3.485  10.802  1.00  0.00    -0.581 OA
HETATM   42  O5  UNL     1      -5.861   5.963  10.255  1.00  0.00    -0.581 OA
ENDBRANCH  34  39
ENDBRANCH   1  30
TORSDOF 8
ENDMDL
MODEL 5
REMARK VINA RESULT: -7.321028112      2.473      3.427
REMARK  8 active torsions:
REMARK  status: ('A' for Active; 'I' for Inactive)
REMARK    1  A    between atoms: N1_4  and  C4_5 
REMARK    2  A    between atoms: N5_12  and  C5_13 
REMARK    3  A    between atoms: C7_15  and  N6_16 
REMARK    4  A    between atoms: N7_19  and  C10_20 
REMARK    5  A    between atoms: C10_20  and  C11_21 
REMARK    6  A    between atoms: C11_21  and  O1_22 
REMARK    7  A    between atoms: C14_28  and  N9_29 
REMARK    8  A    between atoms: N12_38  and  S1_39 
ROOT
HETATM    1  C4  UNL     1      -2.768   2.727  11.587  1.00  0.00     0.727 A 
HETATM    2  N2  UNL     1      -2.327   1.431  11.862  1.00  0.00    -0.114 N 
ATOM      3  H2  UNL     1      -2.694   0.799  12.573  1.00  0.00     0.207 HD
HETATM    4  N3  UNL     1      -1.346   1.187  11.023  1.00  0.00    -0.213 N 
ATOM      5  H3  UNL     1      -0.809   0.322  10.964  1.00  0.00     0.210 HD
HETATM    6  N4  UNL     1      -1.178   2.248  10.274  1.00  0.00    -0.205 N 
ATOM      7  H4  UNL     1      -0.478   2.329   9.537  1.00  0.00     0.211 HD
HETATM    8  N5  UNL     1      -2.036   3.204  10.600  1.00  0.00    -0.052 N 
ENDROOT
BRANCH   8   9
HETATM    9  C5  UNL     1      -2.069   4.465   9.947  1.00  0.00     0.166 A 
HETATM   10  C6  UNL     1      -3.299   4.959   9.481  1.00  0.00     0.100 A 
HETATM   11  C7  UNL     1      -3.423   6.159   8.832  1.00  0.00     0.122 A 
HETATM   12  N8  UNL     1      -2.321   6.898   8.634  1.00  0.00    -0.177 N 
HETATM   13  C14 UNL     1      -1.121   6.429   9.081  1.00  0.00     0.679 A 
ATOM     14  H8  UNL     1      -2.379   7.796   8.156  1.00  0.00     0.185 HD
HETATM   15  N10 UNL     1      -1.025   5.251   9.712  1.00  0.00    -0.174 N 
ATOM     16  H10 UNL     1      -0.106   4.943  10.027  1.00  0.00     0.186 HD
BRANCH  11  17
HETATM   17  N6  UNL     1      -4.714   6.569   8.372  1.00  0.00    -0.363 N 
HETATM   18  C8  UNL     1      -5.335   6.062   7.196  1.00  0.00     0.154 C 
HETATM   19  C9  UNL     1      -6.822   5.825   7.470  1.00  0.00     0.292 C 
HETATM   20  N7  UNL     1      -7.431   6.874   8.189  1.00  0.00     0.093 N 
HETATM   21  C12 UNL     1      -6.804   7.092   9.456  1.00  0.00     0.292 C 
HETATM   22  C13 UNL     1      -5.380   7.582   9.205  1.00  0.00     0.154 C 
BRANCH  20  23
HETATM   23  C10 UNL     1      -7.704   8.092   7.534  1.00  0.00     0.298 C 
BRANCH  23  24
HETATM   24  C11 UNL     1      -8.808   8.926   8.114  1.00  0.00     0.194 C 
BRANCH  24  25
HETATM   25  O1  UNL     1      -9.994   8.250   8.303  1.00  0.00    -0.399 OA
ATOM     26  H1  UNL     1     -10.109   7.493   7.740  1.00  0.00     0.209 HD
ENDBRANCH  24  25
ENDBRANCH  23  24
ENDBRANCH  20  23
ENDBRANCH  11  17
BRANCH  13  27
HETATM   27  N9  UNL     1      -0.100   7.158   8.877  1.00  0.00    -0.234 N 
ATOM     28  H92 UNL     1      -0.185   8.164   8.732  1.00  0.00     0.174 HD
ATOM     29  H91 UNL     1       0.807   6.695   8.862  1.00  0.00     0.174 HD
ENDBRANCH  13  27
ENDBRANCH   8   9
BRANCH   1  30
HETATM   30  N1  UNL     1      -3.811   3.318  12.313  1.00  0.00    -0.145 N 
HETATM   31  C3  UNL     1      -3.391   4.480  13.115  1.00  0.00     0.172 C 
HETATM   32  C2  UNL     1      -3.495   4.020  14.599  1.00  0.00     0.111 C 
HETATM   33  C1  UNL     1      -3.792   5.223  15.446  1.00  0.00     0.031 C 
HETATM   34  N12 UNL     1      -4.579   3.101  14.649  1.00  0.00    -0.099 NA
HETATM   35  N11 UNL     1      -5.824   3.696  14.498  1.00  0.00    -0.139 NA
HETATM   36  C16 UNL     1      -6.309   3.305  13.157  1.00  0.00     0.233 C 
HETATM   37  C15 UNL     1      -5.127   2.818  12.340  1.00  0.00     0.254 C 
HETATM   38  O2  UNL     1      -5.380   1.840  11.606  1.00  0.00    -0.271 OA
BRANCH  34  39
HETATM   39  S1  UNL     1      -4.548   1.954  15.891  1.00  0.00     0.201 S 
HETATM   40  O3  UNL     1      -3.165   1.843  16.456  1.00  0.00    -0.581 OA
HETATM   41  O4  UNL     1      -5.464   2.370  17.041  1.00  0.00    -0.581 OA
HETATM   42  O5  UNL     1      -5.047   0.436  15.367  1.00  0.00    -0.581 OA
ENDBRANCH  34  39
ENDBRANCH   1  30
TORSDOF 8
ENDMDL
