MODEL 1
REMARK VINA RESULT: -8.057818239      0.000      0.000
REMARK  8 active torsions:
REMARK  status: ('A' for Active; 'I' for Inactive)
REMARK       I    between atoms: C2_4  and  N3_6 
REMARK    1  A    between atoms: N3_6  and  C3_8 
REMARK    2  A    between atoms: N5_13  and  C5_14 
REMARK    3  A    between atoms: C5_14  and  C6_15 
REMARK    4  A    between atoms: C6_15  and  C7_16 
REMARK    5  A    between atoms: C7_16  and  C8_17 
REMARK       I    between atoms: C8_17  and  N6_19 
REMARK    6  A    between atoms: C12_26  and  N8_27 
REMARK    7  A    between atoms: N8_27  and  N9_29 
REMARK    8  A    between atoms: N9_29  and  C13_31 
ROOT
HETATM    1  C3  UNL     1      -0.038   3.302  85.207  1.00  0.00     0.703 A 
HETATM    2  N4  UNL     1      -1.214   3.386  84.556  1.00  0.00    -0.140 N 
ATOM      3  H4  UNL     1      -1.897   2.632  84.631  1.00  0.00     0.189 HD
HETATM    4  C4  UNL     1      -1.482   4.466  83.811  1.00  0.00     0.355 A 
HETATM    5  O1  UNL     1      -2.578   4.538  83.209  1.00  0.00    -0.245 OA
HETATM    6  N5  UNL     1      -0.564   5.492  83.703  1.00  0.00    -0.130 N 
HETATM    7  C12 UNL     1       0.605   5.434  84.336  1.00  0.00     0.717 A 
HETATM    8  N13 UNL     1       0.838   4.296  85.096  1.00  0.00    -0.020 N 
ATOM      9  H13 UNL     1       1.725   4.218  85.594  1.00  0.00     0.203 HD
ENDROOT
BRANCH   7  10
HETATM   10  N8  UNL     1       1.478   6.320  84.296  1.00  0.00    -0.130 N 
ATOM     11  H8  UNL     1       1.142   7.119  84.834  1.00  0.00     0.205 HD
BRANCH  10  12
HETATM   12  N9  UNL     1       2.663   6.618  83.826  1.00  0.00    -0.270 N 
ATOM     13  H9  UNL     1       3.156   7.412  84.234  1.00  0.00     0.189 HD
BRANCH  12  14
HETATM   14  C13 UNL     1       3.316   5.885  82.763  1.00  0.00     0.137 A 
HETATM   15  C14 UNL     1       3.861   6.514  81.665  1.00  0.00     0.070 A 
HETATM   16  C15 UNL     1       4.474   5.757  80.685  1.00  0.00     0.112 A 
HETATM   17  N10 UNL     1       4.545   4.421  80.790  1.00  0.00    -0.297 N 
HETATM   18  N11 UNL     1       4.015   3.848  81.852  1.00  0.00    -0.242 N 
ATOM     19  H10 UNL     1       4.998   3.863  80.066  1.00  0.00     0.187 HD
HETATM   20  N12 UNL     1       3.424   4.551  82.801  1.00  0.00    -0.270 N 
ATOM     21  H11 UNL     1       4.063   2.834  81.945  1.00  0.00     0.208 HD
ATOM     22  H12 UNL     1       3.031   4.054  83.600  1.00  0.00     0.190 HD
ENDBRANCH  12  14
ENDBRANCH  10  12
ENDBRANCH   7  10
BRANCH   6  23
HETATM   23  C5  UNL     1      -1.017   6.590  82.850  1.00  0.00     0.153 C 
BRANCH  23  24
HETATM   24  C6  UNL     1      -0.238   6.671  81.586  1.00  0.00     0.030 C 
BRANCH  24  25
HETATM   25  C7  UNL     1      -0.409   5.583  80.603  1.00  0.00     0.105 C 
BRANCH  25  26
HETATM   26  C8  UNL     1       0.765   4.970  80.009  1.00  0.00     0.236 C 
HETATM   27  O2  UNL     1       1.463   4.074  80.523  1.00  0.00    -0.272 OA
HETATM   28  N6  UNL     1       1.147   5.453  78.699  1.00  0.00    -0.183 N 
HETATM   29  C9  UNL     1       0.679   6.415  77.760  1.00  0.00     0.343 A 
HETATM   30  C11 UNL     1       2.192   5.143  77.785  1.00  0.00     0.343 A 
HETATM   31  O3  UNL     1      -0.299   7.234  77.750  1.00  0.00    -0.246 OA
HETATM   32  N7  UNL     1       1.720   6.106  76.852  1.00  0.00    -0.255 N 
HETATM   33  C10 UNL     1       2.086   6.605  75.537  1.00  0.00     0.166 C 
HETATM   34  O4  UNL     1       3.172   4.344  77.762  1.00  0.00    -0.246 OA
ENDBRANCH  25  26
ENDBRANCH  24  25
ENDBRANCH  23  24
ENDBRANCH   6  23
BRANCH   1  35
HETATM   35  N3  UNL     1       0.263   2.281  85.934  1.00  0.00    -0.163 N 
HETATM   36  C2  UNL     1      -0.537   1.120  86.015  1.00  0.00     0.202 C 
HETATM   37  N1  UNL     1      -1.416   0.992  86.938  1.00  0.00    -0.368 N 
HETATM   38  N2  UNL     1      -0.370   0.080  85.069  1.00  0.00    -0.063 NA
HETATM   39  C1  UNL     1      -1.600   2.041  87.911  1.00  0.00     0.148 C 
ATOM     40  H1  UNL     1      -1.986   0.147  86.984  1.00  0.00     0.161 HD
ATOM     41  H3  UNL     1       1.124   2.314  86.480  1.00  0.00     0.187 HD
ENDBRANCH   1  35
TORSDOF 8
ENDMDL
MODEL 2
REMARK VINA RESULT: -7.834855371      0.807      1.529
REMARK  8 active torsions:
REMARK  status: ('A' for Active; 'I' for Inactive)
REMARK       I    between atoms: C2_4  and  N3_6 
REMARK    1  A    between atoms: N3_6  and  C3_8 
REMARK    2  A    between atoms: N5_13  and  C5_14 
REMARK    3  A    between atoms: C5_14  and  C6_15 
REMARK    4  A    between atoms: C6_15  and  C7_16 
REMARK    5  A    between atoms: C7_16  and  C8_17 
REMARK       I    between atoms: C8_17  and  N6_19 
REMARK    6  A    between atoms: C12_26  and  N8_27 
REMARK    7  A    between atoms: N8_27  and  N9_29 
REMARK    8  A    between atoms: N9_29  and  C13_31 
ROOT
HETATM    1  C3  UNL     1      -0.030   3.320  85.211  1.00  0.00     0.703 A 
HETATM    2  N4  UNL     1      -1.201   3.419  84.553  1.00  0.00    -0.140 N 
ATOM      3  H4  UNL     1      -1.879   2.659  84.595  1.00  0.00     0.189 HD
HETATM    4  C4  UNL     1      -1.468   4.522  83.844  1.00  0.00     0.355 A 
HETATM    5  O1  UNL     1      -2.559   4.608  83.234  1.00  0.00    -0.245 OA
HETATM    6  N5  UNL     1      -0.556   5.557  83.780  1.00  0.00    -0.130 N 
HETATM    7  C12 UNL     1       0.608   5.484  84.421  1.00  0.00     0.717 A 
HETATM    8  N13 UNL     1       0.841   4.321  85.144  1.00  0.00    -0.020 N 
ATOM      9  H13 UNL     1       1.724   4.232  85.647  1.00  0.00     0.203 HD
ENDROOT
BRANCH   7  10
HETATM   10  N8  UNL     1       1.475   6.376  84.420  1.00  0.00    -0.130 N 
ATOM     11  H8  UNL     1       1.289   6.998  85.206  1.00  0.00     0.205 HD
BRANCH  10  12
HETATM   12  N9  UNL     1       2.536   6.821  83.794  1.00  0.00    -0.270 N 
ATOM     13  H9  UNL     1       2.800   7.796  83.929  1.00  0.00     0.189 HD
BRANCH  12  14
HETATM   14  C13 UNL     1       3.355   6.008  82.921  1.00  0.00     0.137 A 
HETATM   15  C14 UNL     1       4.292   6.557  82.073  1.00  0.00     0.070 A 
HETATM   16  C15 UNL     1       5.046   5.725  81.267  1.00  0.00     0.112 A 
HETATM   17  N10 UNL     1       4.878   4.395  81.301  1.00  0.00    -0.297 N 
HETATM   18  N11 UNL     1       3.974   3.899  82.123  1.00  0.00    -0.242 N 
ATOM     19  H10 UNL     1       5.435   3.782  80.705  1.00  0.00     0.187 HD
HETATM   20  N12 UNL     1       3.242   4.674  82.902  1.00  0.00    -0.270 N 
ATOM     21  H11 UNL     1       3.837   2.889  82.159  1.00  0.00     0.208 HD
ATOM     22  H12 UNL     1       2.558   4.235  83.518  1.00  0.00     0.190 HD
ENDBRANCH  12  14
ENDBRANCH  10  12
ENDBRANCH   7  10
BRANCH   6  23
HETATM   23  C5  UNL     1      -1.008   6.681  82.961  1.00  0.00     0.153 C 
BRANCH  23  24
HETATM   24  C6  UNL     1      -0.265   6.768  81.676  1.00  0.00     0.030 C 
BRANCH  24  25
HETATM   25  C7  UNL     1      -0.757   5.961  80.542  1.00  0.00     0.105 C 
BRANCH  25  26
HETATM   26  C8  UNL     1      -0.521   6.421  79.185  1.00  0.00     0.236 C 
HETATM   27  O2  UNL     1      -1.271   7.163  78.523  1.00  0.00    -0.272 OA
HETATM   28  N6  UNL     1       0.700   5.965  78.558  1.00  0.00    -0.183 N 
HETATM   29  C9  UNL     1       1.813   5.146  78.902  1.00  0.00     0.343 A 
HETATM   30  C11 UNL     1       1.305   6.164  77.286  1.00  0.00     0.343 A 
HETATM   31  O3  UNL     1       2.135   4.491  79.948  1.00  0.00    -0.246 OA
HETATM   32  N7  UNL     1       2.413   5.346  77.636  1.00  0.00    -0.255 N 
HETATM   33  C10 UNL     1       3.646   4.877  77.025  1.00  0.00     0.166 C 
HETATM   34  O4  UNL     1       1.017   6.802  76.232  1.00  0.00    -0.246 OA
ENDBRANCH  25  26
ENDBRANCH  24  25
ENDBRANCH  23  24
ENDBRANCH   6  23
BRANCH   1  35
HETATM   35  N3  UNL     1       0.271   2.276  85.906  1.00  0.00    -0.163 N 
HETATM   36  C2  UNL     1      -0.529   1.114  85.950  1.00  0.00     0.202 C 
HETATM   37  N1  UNL     1      -1.408   0.956  86.869  1.00  0.00    -0.368 N 
HETATM   38  N2  UNL     1      -0.363   0.104  84.972  1.00  0.00    -0.063 NA
HETATM   39  C1  UNL     1      -1.591   1.974  87.875  1.00  0.00     0.148 C 
ATOM     40  H1  UNL     1      -1.978   0.111  86.889  1.00  0.00     0.161 HD
ATOM     41  H3  UNL     1       1.132   2.291  86.452  1.00  0.00     0.187 HD
ENDBRANCH   1  35
TORSDOF 8
ENDMDL
MODEL 3
REMARK VINA RESULT: -7.800236923      2.279      7.363
REMARK  8 active torsions:
REMARK  status: ('A' for Active; 'I' for Inactive)
REMARK       I    between atoms: C2_4  and  N3_6 
REMARK    1  A    between atoms: N3_6  and  C3_8 
REMARK    2  A    between atoms: N5_13  and  C5_14 
REMARK    3  A    between atoms: C5_14  and  C6_15 
REMARK    4  A    between atoms: C6_15  and  C7_16 
REMARK    5  A    between atoms: C7_16  and  C8_17 
REMARK       I    between atoms: C8_17  and  N6_19 
REMARK    6  A    between atoms: C12_26  and  N8_27 
REMARK    7  A    between atoms: N8_27  and  N9_29 
REMARK    8  A    between atoms: N9_29  and  C13_31 
ROOT
HETATM    1  C3  UNL     1       4.947   4.751  80.255  1.00  0.00     0.703 A 
HETATM    2  N4  UNL     1       4.058   5.115  79.311  1.00  0.00    -0.140 N 
ATOM      3  H4  UNL     1       4.367   5.283  78.353  1.00  0.00     0.189 HD
HETATM    4  C4  UNL     1       2.768   5.255  79.637  1.00  0.00     0.355 A 
HETATM    5  O1  UNL     1       1.947   5.593  78.754  1.00  0.00    -0.245 OA
HETATM    6  N5  UNL     1       2.340   5.030  80.931  1.00  0.00    -0.130 N 
HETATM    7  C12 UNL     1       3.197   4.670  81.882  1.00  0.00     0.717 A 
HETATM    8  N13 UNL     1       4.525   4.537  81.498  1.00  0.00    -0.020 N 
ATOM      9  H13 UNL     1       5.210   4.263  82.202  1.00  0.00     0.203 HD
ENDROOT
BRANCH   7  10
HETATM   10  N8  UNL     1       2.889   4.441  83.066  1.00  0.00    -0.130 N 
ATOM     11  H8  UNL     1       2.761   3.434  83.169  1.00  0.00     0.205 HD
BRANCH  10  12
HETATM   12  N9  UNL     1       2.665   4.999  84.229  1.00  0.00    -0.270 N 
ATOM     13  H9  UNL     1       3.158   4.631  85.041  1.00  0.00     0.189 HD
BRANCH  12  14
HETATM   14  C13 UNL     1       1.758   6.109  84.428  1.00  0.00     0.137 A 
HETATM   15  C14 UNL     1       2.146   7.417  84.237  1.00  0.00     0.070 A 
HETATM   16  C15 UNL     1       1.230   8.432  84.440  1.00  0.00     0.112 A 
HETATM   17  N10 UNL     1      -0.027   8.160  84.819  1.00  0.00    -0.297 N 
HETATM   18  N11 UNL     1      -0.369   6.898  84.994  1.00  0.00    -0.242 N 
ATOM     19  H10 UNL     1      -0.702   8.910  84.970  1.00  0.00     0.187 HD
HETATM   20  N12 UNL     1       0.489   5.912  84.806  1.00  0.00    -0.270 N 
ATOM     21  H11 UNL     1      -1.322   6.677  85.281  1.00  0.00     0.208 HD
ATOM     22  H12 UNL     1       0.169   4.956  84.956  1.00  0.00     0.190 HD
ENDBRANCH  12  14
ENDBRANCH  10  12
ENDBRANCH   7  10
BRANCH   6  23
HETATM   23  C5  UNL     1       0.902   5.230  81.112  1.00  0.00     0.153 C 
BRANCH  23  24
HETATM   24  C6  UNL     1       0.155   3.945  81.095  1.00  0.00     0.030 C 
BRANCH  24  25
HETATM   25  C7  UNL     1      -0.580   3.562  82.315  1.00  0.00     0.105 C 
BRANCH  25  26
HETATM   26  C8  UNL     1      -0.052   2.510  83.165  1.00  0.00     0.236 C 
HETATM   27  O2  UNL     1       0.761   1.630  82.821  1.00  0.00    -0.272 OA
HETATM   28  N6  UNL     1      -0.523   2.493  84.532  1.00  0.00    -0.183 N 
HETATM   29  C9  UNL     1      -1.409   3.256  85.345  1.00  0.00     0.343 A 
HETATM   30  C11 UNL     1      -0.276   1.668  85.665  1.00  0.00     0.343 A 
HETATM   31  O3  UNL     1      -2.139   4.281  85.132  1.00  0.00    -0.246 OA
HETATM   32  N7  UNL     1      -1.162   2.434  86.470  1.00  0.00    -0.255 N 
HETATM   33  C10 UNL     1      -1.648   2.436  87.840  1.00  0.00     0.166 C 
HETATM   34  O4  UNL     1       0.435   0.652  85.911  1.00  0.00    -0.246 OA
ENDBRANCH  25  26
ENDBRANCH  24  25
ENDBRANCH  23  24
ENDBRANCH   6  23
BRANCH   1  35
HETATM   35  N3  UNL     1       6.200   4.606  79.987  1.00  0.00    -0.163 N 
HETATM   36  C2  UNL     1       7.216   5.398  80.563  1.00  0.00     0.202 C 
HETATM   37  N1  UNL     1       7.642   6.451  79.972  1.00  0.00    -0.368 N 
HETATM   38  N2  UNL     1       7.779   5.029  81.809  1.00  0.00    -0.063 NA
HETATM   39  C1  UNL     1       7.081   6.843  78.702  1.00  0.00     0.148 C 
ATOM     40  H1  UNL     1       8.377   7.014  80.400  1.00  0.00     0.161 HD
ATOM     41  H3  UNL     1       6.470   3.879  79.323  1.00  0.00     0.187 HD
ENDBRANCH   1  35
TORSDOF 8
ENDMDL
MODEL 4
REMARK VINA RESULT: -7.790008697      2.116      3.089
REMARK  8 active torsions:
REMARK  status: ('A' for Active; 'I' for Inactive)
REMARK       I    between atoms: C2_4  and  N3_6 
REMARK    1  A    between atoms: N3_6  and  C3_8 
REMARK    2  A    between atoms: N5_13  and  C5_14 
REMARK    3  A    between atoms: C5_14  and  C6_15 
REMARK    4  A    between atoms: C6_15  and  C7_16 
REMARK    5  A    between atoms: C7_16  and  C8_17 
REMARK       I    between atoms: C8_17  and  N6_19 
REMARK    6  A    between atoms: C12_26  and  N8_27 
REMARK    7  A    between atoms: N8_27  and  N9_29 
REMARK    8  A    between atoms: N9_29  and  C13_31 
ROOT
HETATM    1  C3  UNL     1      -0.226   3.575  85.431  1.00  0.00     0.703 A 
HETATM    2  N4  UNL     1      -1.373   3.648  84.728  1.00  0.00    -0.140 N 
ATOM      3  H4  UNL     1      -2.068   2.906  84.802  1.00  0.00     0.189 HD
HETATM    4  C4  UNL     1      -1.593   4.701  83.931  1.00  0.00     0.355 A 
HETATM    5  O1  UNL     1      -2.661   4.763  83.280  1.00  0.00    -0.245 OA
HETATM    6  N5  UNL     1      -0.658   5.711  83.824  1.00  0.00    -0.130 N 
HETATM    7  C12 UNL     1       0.483   5.664  84.507  1.00  0.00     0.717 A 
HETATM    8  N13 UNL     1       0.668   4.553  85.320  1.00  0.00    -0.020 N 
ATOM      9  H13 UNL     1       1.532   4.484  85.858  1.00  0.00     0.203 HD
ENDROOT
BRANCH   7  10
HETATM   10  N8  UNL     1       1.368   6.537  84.471  1.00  0.00    -0.130 N 
ATOM     11  H8  UNL     1       0.996   7.382  84.903  1.00  0.00     0.205 HD
BRANCH  10  12
HETATM   12  N9  UNL     1       2.596   6.784  84.090  1.00  0.00    -0.270 N 
ATOM     13  H9  UNL     1       3.087   7.564  84.526  1.00  0.00     0.189 HD
BRANCH  12  14
HETATM   14  C13 UNL     1       3.298   6.014  83.086  1.00  0.00     0.137 A 
HETATM   15  C14 UNL     1       4.001   6.610  82.062  1.00  0.00     0.070 A 
HETATM   16  C15 UNL     1       4.654   5.818  81.136  1.00  0.00     0.112 A 
HETATM   17  N10 UNL     1       4.611   4.480  81.223  1.00  0.00    -0.297 N 
HETATM   18  N11 UNL     1       3.931   3.938  82.214  1.00  0.00    -0.242 N 
ATOM     19  H10 UNL     1       5.093   3.896  80.539  1.00  0.00     0.187 HD
HETATM   20  N12 UNL     1       3.299   4.675  83.109  1.00  0.00    -0.270 N 
ATOM     21  H11 UNL     1       3.891   2.923  82.292  1.00  0.00     0.208 HD
ATOM     22  H12 UNL     1       2.789   4.202  83.854  1.00  0.00     0.190 HD
ENDBRANCH  12  14
ENDBRANCH  10  12
ENDBRANCH   7  10
BRANCH   6  23
HETATM   23  C5  UNL     1      -1.059   6.781  82.910  1.00  0.00     0.153 C 
BRANCH  23  24
HETATM   24  C6  UNL     1      -0.148   6.884  81.739  1.00  0.00     0.030 C 
BRANCH  24  25
HETATM   25  C7  UNL     1       0.453   5.638  81.225  1.00  0.00     0.105 C 
BRANCH  25  26
HETATM   26  C8  UNL     1      -0.374   4.701  80.486  1.00  0.00     0.236 C 
HETATM   27  O2  UNL     1      -1.110   4.978  79.520  1.00  0.00    -0.272 OA
HETATM   28  N6  UNL     1      -0.329   3.323  80.925  1.00  0.00    -0.183 N 
HETATM   29  C9  UNL     1       0.332   2.566  81.933  1.00  0.00     0.343 A 
HETATM   30  C11 UNL     1      -0.957   2.118  80.503  1.00  0.00     0.343 A 
HETATM   31  O3  UNL     1       1.164   2.860  82.855  1.00  0.00    -0.246 OA
HETATM   32  N7  UNL     1      -0.294   1.368  81.512  1.00  0.00    -0.255 N 
HETATM   33  C10 UNL     1      -0.234  -0.010  81.969  1.00  0.00     0.166 C 
HETATM   34  O4  UNL     1      -1.780   1.790  79.601  1.00  0.00    -0.246 OA
ENDBRANCH  25  26
ENDBRANCH  24  25
ENDBRANCH  23  24
ENDBRANCH   6  23
BRANCH   1  35
HETATM   35  N3  UNL     1       0.029   2.580  86.209  1.00  0.00    -0.163 N 
HETATM   36  C2  UNL     1      -0.778   1.424  86.285  1.00  0.00     0.202 C 
HETATM   37  N1  UNL     1      -1.707   1.329  87.160  1.00  0.00    -0.368 N 
HETATM   38  N2  UNL     1      -0.562   0.351  85.387  1.00  0.00    -0.063 NA
HETATM   39  C1  UNL     1      -1.942   2.412  88.085  1.00  0.00     0.148 C 
ATOM     40  H1  UNL     1      -2.282   0.488  87.204  1.00  0.00     0.161 HD
ATOM     41  H3  UNL     1       0.859   2.630  86.801  1.00  0.00     0.187 HD
ENDBRANCH   1  35
TORSDOF 8
ENDMDL
MODEL 5
REMARK VINA RESULT: -7.479198322      2.554      3.212
REMARK  8 active torsions:
REMARK  status: ('A' for Active; 'I' for Inactive)
REMARK       I    between atoms: C2_4  and  N3_6 
REMARK    1  A    between atoms: N3_6  and  C3_8 
REMARK    2  A    between atoms: N5_13  and  C5_14 
REMARK    3  A    between atoms: C5_14  and  C6_15 
REMARK    4  A    between atoms: C6_15  and  C7_16 
REMARK    5  A    between atoms: C7_16  and  C8_17 
REMARK       I    between atoms: C8_17  and  N6_19 
REMARK    6  A    between atoms: C12_26  and  N8_27 
REMARK    7  A    between atoms: N8_27  and  N9_29 
REMARK    8  A    between atoms: N9_29  and  C13_31 
ROOT
HETATM    1  C3  UNL     1      -0.044   3.272  85.250  1.00  0.00     0.703 A 
HETATM    2  N4  UNL     1      -1.211   3.357  84.583  1.00  0.00    -0.140 N 
ATOM      3  H4  UNL     1      -1.881   2.588  84.621  1.00  0.00     0.189 HD
HETATM    4  C4  UNL     1      -1.486   4.456  83.870  1.00  0.00     0.355 A 
HETATM    5  O1  UNL     1      -2.573   4.528  83.252  1.00  0.00    -0.245 OA
HETATM    6  N5  UNL     1      -0.586   5.501  83.812  1.00  0.00    -0.130 N 
HETATM    7  C12 UNL     1       0.573   5.443  84.462  1.00  0.00     0.717 A 
HETATM    8  N13 UNL     1       0.815   4.284  85.188  1.00  0.00    -0.020 N 
ATOM      9  H13 UNL     1       1.695   4.205  85.698  1.00  0.00     0.203 HD
ENDROOT
BRANCH   7  10
HETATM   10  N8  UNL     1       1.430   6.345  84.467  1.00  0.00    -0.130 N 
ATOM     11  H8  UNL     1       1.150   7.043  85.155  1.00  0.00     0.205 HD
BRANCH  10  12
HETATM   12  N9  UNL     1       2.555   6.740  83.924  1.00  0.00    -0.270 N 
ATOM     13  H9  UNL     1       2.918   7.656  84.186  1.00  0.00     0.189 HD
BRANCH  12  14
HETATM   14  C13 UNL     1       3.312   5.952  82.976  1.00  0.00     0.137 A 
HETATM   15  C14 UNL     1       4.081   6.531  81.991  1.00  0.00     0.070 A 
HETATM   16  C15 UNL     1       4.784   5.722  81.118  1.00  0.00     0.112 A 
HETATM   17  N10 UNL     1       4.726   4.386  81.218  1.00  0.00    -0.297 N 
HETATM   18  N11 UNL     1       3.981   3.862  82.172  1.00  0.00    -0.242 N 
ATOM     19  H10 UNL     1       5.245   3.790  80.573  1.00  0.00     0.187 HD
HETATM   20  N12 UNL     1       3.301   4.614  83.016  1.00  0.00    -0.270 N 
ATOM     21  H11 UNL     1       3.929   2.847  82.259  1.00  0.00     0.208 HD
ATOM     22  H12 UNL     1       2.741   4.154  83.734  1.00  0.00     0.190 HD
ENDBRANCH  12  14
ENDBRANCH  10  12
ENDBRANCH   7  10
BRANCH   6  23
HETATM   23  C5  UNL     1      -1.045   6.619  82.988  1.00  0.00     0.153 C 
BRANCH  23  24
HETATM   24  C6  UNL     1      -0.278   6.726  81.719  1.00  0.00     0.030 C 
BRANCH  24  25
HETATM   25  C7  UNL     1      -0.617   7.832  80.802  1.00  0.00     0.105 C 
BRANCH  25  26
HETATM   26  C8  UNL     1      -1.687   7.654  79.837  1.00  0.00     0.236 C 
HETATM   27  O2  UNL     1      -2.177   6.566  79.479  1.00  0.00    -0.272 OA
HETATM   28  N6  UNL     1      -2.222   8.861  79.245  1.00  0.00    -0.183 N 
HETATM   29  C9  UNL     1      -1.995  10.263  79.337  1.00  0.00     0.343 A 
HETATM   30  C11 UNL     1      -3.238   9.139  78.288  1.00  0.00     0.343 A 
HETATM   31  O3  UNL     1      -1.190  10.983  80.015  1.00  0.00    -0.246 OA
HETATM   32  N7  UNL     1      -3.006  10.538  78.385  1.00  0.00    -0.255 N 
HETATM   33  C10 UNL     1      -3.530  11.762  77.802  1.00  0.00     0.166 C 
HETATM   34  O4  UNL     1      -4.050   8.456  77.600  1.00  0.00    -0.246 OA
ENDBRANCH  25  26
ENDBRANCH  24  25
ENDBRANCH  23  24
ENDBRANCH   6  23
BRANCH   1  35
HETATM   35  N3  UNL     1       0.263   2.233  85.949  1.00  0.00    -0.163 N 
HETATM   36  C2  UNL     1      -0.529   1.065  85.997  1.00  0.00     0.202 C 
HETATM   37  N1  UNL     1      -1.406   0.905  86.916  1.00  0.00    -0.368 N 
HETATM   38  N2  UNL     1      -0.356   0.053  85.022  1.00  0.00    -0.063 NA
HETATM   39  C1  UNL     1      -1.596   1.925  87.919  1.00  0.00     0.148 C 
ATOM     40  H1  UNL     1      -1.971   0.056  86.940  1.00  0.00     0.161 HD
ATOM     41  H3  UNL     1       1.125   2.255  86.495  1.00  0.00     0.187 HD
ENDBRANCH   1  35
TORSDOF 8
ENDMDL
