MODEL 1
REMARK VINA RESULT: -7.389211766      0.000      0.000
REMARK  12 active torsions:
REMARK  status: ('A' for Active; 'I' for Inactive)
REMARK    1  A    between atoms: C3_3  and  C4_4 
REMARK    2  A    between atoms: C4_4  and  N1_5 
REMARK    3  A    between atoms: N1_5  and  N2_6 
REMARK    4  A    between atoms: N1_5  and  N3_9 
REMARK    5  A    between atoms: C9_16  and  C10_17 
REMARK    6  A    between atoms: C10_17  and  O1_19 
REMARK    7  A    between atoms: C12_21  and  C13_22 
REMARK    8  A    between atoms: C13_22  and  O2_23 
REMARK    9  A    between atoms: O2_23  and  C14_24 
REMARK   10  A    between atoms: C16_27  and  C17_28 
REMARK   11  A    between atoms: C17_28  and  O5_30 
REMARK   12  A    between atoms: C20_34  and  N6_35 
ROOT
HETATM    1  N3  UNL     1       2.338   9.792  84.793  1.00  0.00    -0.216 N 
ATOM      2  H3  UNL     1       2.535   9.870  85.792  1.00  0.00     0.201 HD
HETATM    3  C5  UNL     1       2.782   8.648  84.090  1.00  0.00     0.199 C 
HETATM    4  N4  UNL     1       3.155   7.719  83.509  1.00  0.00    -0.170 NA
ENDROOT
BRANCH   1   5
HETATM    5  N1  UNL     1       1.644  10.807  84.161  1.00  0.00    -0.205 N 
BRANCH   5   6
HETATM    6  C4  UNL     1       0.344  10.679  83.700  1.00  0.00     0.149 C 
BRANCH   6   7
HETATM    7  C3  UNL     1      -0.201  10.050  82.692  1.00  0.00    -0.001 A 
HETATM    8  C2  UNL     1      -0.792   8.810  82.922  1.00  0.00    -0.020 A 
HETATM    9  C1  UNL     1      -0.885   8.364  84.135  1.00  0.00     0.025 C 
HETATM   10  C12 UNL     1      -1.362   8.029  81.878  1.00  0.00     0.010 A 
HETATM   11  C9  UNL     1      -1.346   8.496  80.585  1.00  0.00     0.025 A 
HETATM   12  C8  UNL     1      -0.749   9.748  80.377  1.00  0.00     0.024 A 
HETATM   13  C6  UNL     1      -0.204  10.480  81.401  1.00  0.00    -0.049 A 
HETATM   14  C7  UNL     1       0.390  11.793  81.027  1.00  0.00     0.049 C 
BRANCH  10  15
HETATM   15  C13 UNL     1      -1.850   6.869  82.185  1.00  0.00     0.151 C 
BRANCH  15  16
HETATM   16  O2  UNL     1      -1.501   5.579  81.971  1.00  0.00    -0.328 OA
BRANCH  16  17
HETATM   17  C14 UNL     1      -0.839   4.810  82.981  1.00  0.00     0.308 C 
HETATM   18  O3  UNL     1      -1.710   4.598  84.072  1.00  0.00    -0.328 OA
HETATM   19  C15 UNL     1      -1.400   3.682  85.052  1.00  0.00     0.159 C 
HETATM   20  C16 UNL     1      -0.692   2.615  84.763  1.00  0.00     0.109 C 
HETATM   21  C19 UNL     1      -0.256   2.441  83.395  1.00  0.00     0.202 C 
HETATM   22  O6  UNL     1       0.186   1.324  83.039  1.00  0.00    -0.290 OA
HETATM   23  C20 UNL     1      -0.310   3.531  82.392  1.00  0.00     0.313 C 
BRANCH  20  24
HETATM   24  C17 UNL     1      -0.343   1.614  85.793  1.00  0.00     0.298 C 
HETATM   25  O4  UNL     1       0.808   1.625  86.279  1.00  0.00    -0.259 OA
BRANCH  24  26
HETATM   26  O5  UNL     1      -1.254   0.688  86.216  1.00  0.00    -0.322 OA
HETATM   27  C18 UNL     1      -2.361   1.102  87.023  1.00  0.00     0.213 C 
ENDBRANCH  24  26
ENDBRANCH  20  24
BRANCH  23  28
HETATM   28  N6  UNL     1       1.020   3.688  81.840  1.00  0.00    -0.063 N 
ATOM     29  H63 UNL     1       1.129   4.599  81.392  1.00  0.00     0.275 HD
ATOM     30  H62 UNL     1       1.717   3.787  82.579  1.00  0.00     0.275 HD
ATOM     31  H61 UNL     1       1.267   2.933  81.201  1.00  0.00     0.275 HD
ENDBRANCH  23  28
ENDBRANCH  16  17
ENDBRANCH  15  16
ENDBRANCH  10  15
BRANCH  11  32
HETATM   32  C10 UNL     1      -1.806   7.940  79.501  1.00  0.00     0.162 C 
HETATM   33  N5  UNL     1      -1.341   7.098  78.504  1.00  0.00    -0.074 NA
BRANCH  32  34
HETATM   34  O1  UNL     1      -3.192   8.260  79.205  1.00  0.00    -0.342 OA
HETATM   35  C11 UNL     1      -3.461   8.944  77.993  1.00  0.00     0.211 C 
ENDBRANCH  32  34
ENDBRANCH  11  32
ENDBRANCH   6   7
ENDBRANCH   5   6
BRANCH   5  36
HETATM   36  N2  UNL     1       2.284  12.070  84.052  1.00  0.00    -0.324 N 
ATOM     37  H22 UNL     1       1.795  12.804  83.539  1.00  0.00     0.178 HD
ATOM     38  H21 UNL     1       3.222  12.179  84.440  1.00  0.00     0.178 HD
ENDBRANCH   5  36
ENDBRANCH   1   5
TORSDOF 12
ENDMDL
MODEL 2
REMARK VINA RESULT: -7.356956333      1.177      1.783
REMARK  12 active torsions:
REMARK  status: ('A' for Active; 'I' for Inactive)
REMARK    1  A    between atoms: C3_3  and  C4_4 
REMARK    2  A    between atoms: C4_4  and  N1_5 
REMARK    3  A    between atoms: N1_5  and  N2_6 
REMARK    4  A    between atoms: N1_5  and  N3_9 
REMARK    5  A    between atoms: C9_16  and  C10_17 
REMARK    6  A    between atoms: C10_17  and  O1_19 
REMARK    7  A    between atoms: C12_21  and  C13_22 
REMARK    8  A    between atoms: C13_22  and  O2_23 
REMARK    9  A    between atoms: O2_23  and  C14_24 
REMARK   10  A    between atoms: C16_27  and  C17_28 
REMARK   11  A    between atoms: C17_28  and  O5_30 
REMARK   12  A    between atoms: C20_34  and  N6_35 
ROOT
HETATM    1  N3  UNL     1       2.904  11.116  84.513  1.00  0.00    -0.216 N 
ATOM      2  H3  UNL     1       3.568  11.039  85.284  1.00  0.00     0.201 HD
HETATM    3  C5  UNL     1       2.912  12.280  83.710  1.00  0.00     0.199 C 
HETATM    4  N4  UNL     1       2.908  13.238  83.058  1.00  0.00    -0.170 NA
ENDROOT
BRANCH   1   5
HETATM    5  N1  UNL     1       2.020  10.080  84.278  1.00  0.00    -0.205 N 
BRANCH   5   6
HETATM    6  C4  UNL     1       0.739  10.259  83.783  1.00  0.00     0.149 C 
BRANCH   6   7
HETATM    7  C3  UNL     1       0.029   9.655  82.867  1.00  0.00    -0.001 A 
HETATM    8  C2  UNL     1      -0.907   8.706  83.269  1.00  0.00    -0.020 A 
HETATM    9  C1  UNL     1      -1.129   8.526  84.533  1.00  0.00     0.025 C 
HETATM   10  C12 UNL     1      -1.686   7.959  82.342  1.00  0.00     0.010 A 
HETATM   11  C9  UNL     1      -1.532   8.168  80.992  1.00  0.00     0.025 A 
HETATM   12  C8  UNL     1      -0.587   9.130  80.610  1.00  0.00     0.024 A 
HETATM   13  C6  UNL     1       0.154   9.835  81.524  1.00  0.00    -0.049 A 
HETATM   14  C7  UNL     1       1.115  10.826  80.968  1.00  0.00     0.049 C 
BRANCH  10  15
HETATM   15  C13 UNL     1      -2.501   7.067  82.812  1.00  0.00     0.151 C 
BRANCH  15  16
HETATM   16  O2  UNL     1      -2.534   5.716  82.873  1.00  0.00    -0.328 OA
BRANCH  16  17
HETATM   17  C14 UNL     1      -1.626   4.986  83.707  1.00  0.00     0.308 C 
HETATM   18  O3  UNL     1      -2.318   4.442  84.811  1.00  0.00    -0.328 OA
HETATM   19  C15 UNL     1      -1.725   3.497  85.616  1.00  0.00     0.159 C 
HETATM   20  C16 UNL     1      -0.841   2.662  85.120  1.00  0.00     0.109 C 
HETATM   21  C19 UNL     1      -0.519   2.773  83.715  1.00  0.00     0.202 C 
HETATM   22  O6  UNL     1       0.110   1.841  83.164  1.00  0.00    -0.290 OA
HETATM   23  C20 UNL     1      -0.902   3.947  82.895  1.00  0.00     0.313 C 
BRANCH  20  24
HETATM   24  C17 UNL     1      -0.188   1.637  85.960  1.00  0.00     0.298 C 
HETATM   25  O4  UNL     1       1.004   1.804  86.299  1.00  0.00    -0.259 OA
BRANCH  24  26
HETATM   26  O5  UNL     1      -0.862   0.520  86.365  1.00  0.00    -0.322 OA
HETATM   27  C18 UNL     1      -1.862   0.628  87.383  1.00  0.00     0.213 C 
ENDBRANCH  24  26
ENDBRANCH  20  24
BRANCH  23  28
HETATM   28  N6  UNL     1       0.303   4.469  82.282  1.00  0.00    -0.063 N 
ATOM     29  H63 UNL     1       0.132   4.752  81.317  1.00  0.00     0.275 HD
ATOM     30  H62 UNL     1       0.553   5.377  82.675  1.00  0.00     0.275 HD
ATOM     31  H61 UNL     1       1.082   3.815  82.341  1.00  0.00     0.275 HD
ENDBRANCH  23  28
ENDBRANCH  16  17
ENDBRANCH  15  16
ENDBRANCH  10  15
BRANCH  11  32
HETATM   32  C10 UNL     1      -2.139   7.592  79.993  1.00  0.00     0.162 C 
HETATM   33  N5  UNL     1      -3.182   7.875  79.127  1.00  0.00    -0.074 NA
BRANCH  32  34
HETATM   34  O1  UNL     1      -1.616   6.281  79.650  1.00  0.00    -0.342 OA
HETATM   35  C11 UNL     1      -0.279   6.212  79.184  1.00  0.00     0.211 C 
ENDBRANCH  32  34
ENDBRANCH  11  32
ENDBRANCH   6   7
ENDBRANCH   5   6
BRANCH   5  36
HETATM   36  N2  UNL     1       2.489   8.756  84.490  1.00  0.00    -0.324 N 
ATOM     37  H22 UNL     1       1.873   8.111  84.984  1.00  0.00     0.178 HD
ATOM     38  H21 UNL     1       3.436   8.519  84.192  1.00  0.00     0.178 HD
ENDBRANCH   5  36
ENDBRANCH   1   5
TORSDOF 12
ENDMDL
MODEL 3
REMARK VINA RESULT: -7.087543628      3.169      3.966
REMARK  12 active torsions:
REMARK  status: ('A' for Active; 'I' for Inactive)
REMARK    1  A    between atoms: C3_3  and  C4_4 
REMARK    2  A    between atoms: C4_4  and  N1_5 
REMARK    3  A    between atoms: N1_5  and  N2_6 
REMARK    4  A    between atoms: N1_5  and  N3_9 
REMARK    5  A    between atoms: C9_16  and  C10_17 
REMARK    6  A    between atoms: C10_17  and  O1_19 
REMARK    7  A    between atoms: C12_21  and  C13_22 
REMARK    8  A    between atoms: C13_22  and  O2_23 
REMARK    9  A    between atoms: O2_23  and  C14_24 
REMARK   10  A    between atoms: C16_27  and  C17_28 
REMARK   11  A    between atoms: C17_28  and  O5_30 
REMARK   12  A    between atoms: C20_34  and  N6_35 
ROOT
HETATM    1  N3  UNL     1       5.916   6.247  80.273  1.00  0.00    -0.216 N 
ATOM      2  H3  UNL     1       6.345   7.004  79.741  1.00  0.00     0.201 HD
HETATM    3  C5  UNL     1       5.700   4.998  79.645  1.00  0.00     0.199 C 
HETATM    4  N4  UNL     1       5.510   3.979  79.129  1.00  0.00    -0.170 NA
ENDROOT
BRANCH   1   5
HETATM    5  N1  UNL     1       5.562   6.465  81.592  1.00  0.00    -0.205 N 
BRANCH   5   6
HETATM    6  C4  UNL     1       4.251   6.553  82.032  1.00  0.00     0.149 C 
BRANCH   6   7
HETATM    7  C3  UNL     1       3.096   6.617  81.426  1.00  0.00    -0.001 A 
HETATM    8  C2  UNL     1       2.351   5.449  81.284  1.00  0.00    -0.020 A 
HETATM    9  C1  UNL     1       2.766   4.358  81.846  1.00  0.00     0.025 C 
HETATM   10  C12 UNL     1       1.108   5.413  80.593  1.00  0.00     0.010 A 
HETATM   11  C9  UNL     1       0.598   6.563  80.039  1.00  0.00     0.025 A 
HETATM   12  C8  UNL     1       1.361   7.728  80.197  1.00  0.00     0.024 A 
HETATM   13  C6  UNL     1       2.559   7.735  80.866  1.00  0.00    -0.049 A 
HETATM   14  C7  UNL     1       3.253   9.049  80.956  1.00  0.00     0.049 C 
BRANCH  10  15
HETATM   15  C13 UNL     1       0.511   4.268  80.476  1.00  0.00     0.151 C 
BRANCH  15  16
HETATM   16  O2  UNL     1      -0.739   3.797  80.692  1.00  0.00    -0.328 OA
BRANCH  16  17
HETATM   17  C14 UNL     1      -1.069   3.085  81.889  1.00  0.00     0.308 C 
HETATM   18  O3  UNL     1      -0.219   1.967  82.035  1.00  0.00    -0.328 OA
HETATM   19  C15 UNL     1      -0.168   1.273  83.223  1.00  0.00     0.159 C 
HETATM   20  C16 UNL     1      -0.383   1.889  84.362  1.00  0.00     0.109 C 
HETATM   21  C19 UNL     1      -0.673   3.305  84.322  1.00  0.00     0.202 C 
HETATM   22  O6  UNL     1      -0.623   3.962  85.387  1.00  0.00    -0.290 OA
HETATM   23  C20 UNL     1      -1.027   4.015  83.070  1.00  0.00     0.313 C 
BRANCH  20  24
HETATM   24  C17 UNL     1      -0.335   1.171  85.652  1.00  0.00     0.298 C 
HETATM   25  O4  UNL     1       0.741   1.141  86.287  1.00  0.00    -0.259 OA
BRANCH  24  26
HETATM   26  O5  UNL     1      -1.441   0.544  86.154  1.00  0.00    -0.322 OA
HETATM   27  C18 UNL     1      -2.433   1.307  86.847  1.00  0.00     0.213 C 
ENDBRANCH  24  26
ENDBRANCH  20  24
BRANCH  23  28
HETATM   28  N6  UNL     1      -2.294   4.686  83.287  1.00  0.00    -0.063 N 
ATOM     29  H63 UNL     1      -2.159   5.587  83.747  1.00  0.00     0.275 HD
ATOM     30  H62 UNL     1      -2.694   5.012  82.407  1.00  0.00     0.275 HD
ATOM     31  H61 UNL     1      -2.957   4.106  83.800  1.00  0.00     0.275 HD
ENDBRANCH  23  28
ENDBRANCH  16  17
ENDBRANCH  15  16
ENDBRANCH  10  15
BRANCH  11  32
HETATM   32  C10 UNL     1      -0.508   6.738  79.372  1.00  0.00     0.162 C 
HETATM   33  N5  UNL     1      -1.865   6.814  79.640  1.00  0.00    -0.074 NA
BRANCH  32  34
HETATM   34  O1  UNL     1      -0.324   6.903  77.941  1.00  0.00    -0.342 OA
HETATM   35  C11 UNL     1      -0.891   8.053  77.337  1.00  0.00     0.211 C 
ENDBRANCH  32  34
ENDBRANCH  11  32
ENDBRANCH   6   7
ENDBRANCH   5   6
BRANCH   5  36
HETATM   36  N2  UNL     1       6.608   6.528  82.550  1.00  0.00    -0.324 N 
ATOM     37  H22 UNL     1       6.524   7.219  83.296  1.00  0.00     0.178 HD
ATOM     38  H21 UNL     1       7.422   5.924  82.427  1.00  0.00     0.178 HD
ENDBRANCH   5  36
ENDBRANCH   1   5
TORSDOF 12
ENDMDL
MODEL 4
REMARK VINA RESULT: -7.038598496      1.875      4.478
REMARK  12 active torsions:
REMARK  status: ('A' for Active; 'I' for Inactive)
REMARK    1  A    between atoms: C3_3  and  C4_4 
REMARK    2  A    between atoms: C4_4  and  N1_5 
REMARK    3  A    between atoms: N1_5  and  N2_6 
REMARK    4  A    between atoms: N1_5  and  N3_9 
REMARK    5  A    between atoms: C9_16  and  C10_17 
REMARK    6  A    between atoms: C10_17  and  O1_19 
REMARK    7  A    between atoms: C12_21  and  C13_22 
REMARK    8  A    between atoms: C13_22  and  O2_23 
REMARK    9  A    between atoms: O2_23  and  C14_24 
REMARK   10  A    between atoms: C16_27  and  C17_28 
REMARK   11  A    between atoms: C17_28  and  O5_30 
REMARK   12  A    between atoms: C20_34  and  N6_35 
ROOT
HETATM    1  N3  UNL     1      -3.801  10.552  77.306  1.00  0.00    -0.216 N 
ATOM      2  H3  UNL     1      -4.541  11.193  77.020  1.00  0.00     0.201 HD
HETATM    3  C5  UNL     1      -3.591   9.367  76.563  1.00  0.00     0.199 C 
HETATM    4  N4  UNL     1      -3.425   8.389  75.965  1.00  0.00    -0.170 NA
ENDROOT
BRANCH   1   5
HETATM    5  N1  UNL     1      -3.027  10.863  78.408  1.00  0.00    -0.205 N 
BRANCH   5   6
HETATM    6  C4  UNL     1      -1.868  10.186  78.750  1.00  0.00     0.149 C 
BRANCH   6   7
HETATM    7  C3  UNL     1      -1.370   9.757  79.880  1.00  0.00    -0.001 A 
HETATM    8  C2  UNL     1      -1.766   8.507  80.350  1.00  0.00    -0.020 A 
HETATM    9  C1  UNL     1      -2.525   7.761  79.611  1.00  0.00     0.025 C 
HETATM   10  C12 UNL     1      -1.320   7.981  81.594  1.00  0.00     0.010 A 
HETATM   11  C9  UNL     1      -0.458   8.711  82.378  1.00  0.00     0.025 A 
HETATM   12  C8  UNL     1      -0.070   9.965  81.884  1.00  0.00     0.024 A 
HETATM   13  C6  UNL     1      -0.517  10.450  80.682  1.00  0.00    -0.049 A 
HETATM   14  C7  UNL     1      -0.014  11.795  80.288  1.00  0.00     0.049 C 
BRANCH  10  15
HETATM   15  C13 UNL     1      -1.779   6.828  81.966  1.00  0.00     0.151 C 
BRANCH  15  16
HETATM   16  O2  UNL     1      -1.409   5.536  81.806  1.00  0.00    -0.328 OA
BRANCH  16  17
HETATM   17  C14 UNL     1      -0.802   4.799  82.874  1.00  0.00     0.308 C 
HETATM   18  O3  UNL     1      -1.746   4.570  83.899  1.00  0.00    -0.328 OA
HETATM   19  C15 UNL     1      -1.483   3.675  84.911  1.00  0.00     0.159 C 
HETATM   20  C16 UNL     1      -0.722   2.628  84.690  1.00  0.00     0.109 C 
HETATM   21  C19 UNL     1      -0.178   2.454  83.361  1.00  0.00     0.202 C 
HETATM   22  O6  UNL     1       0.324   1.349  83.054  1.00  0.00    -0.290 OA
HETATM   23  C20 UNL     1      -0.190   3.532  82.343  1.00  0.00     0.313 C 
BRANCH  20  24
HETATM   24  C17 UNL     1      -0.421   1.651  85.756  1.00  0.00     0.298 C 
HETATM   25  O4  UNL     1       0.700   1.685  86.308  1.00  0.00    -0.259 OA
BRANCH  24  26
HETATM   26  O5  UNL     1      -1.344   0.719  86.141  1.00  0.00    -0.322 OA
HETATM   27  C18 UNL     1      -2.379   1.086  87.058  1.00  0.00     0.213 C 
ENDBRANCH  24  26
ENDBRANCH  20  24
BRANCH  23  28
HETATM   28  N6  UNL     1       1.173   3.726  81.891  1.00  0.00    -0.063 N 
ATOM     29  H63 UNL     1       1.198   4.065  80.929  1.00  0.00     0.275 HD
ATOM     30  H62 UNL     1       1.605   4.526  82.356  1.00  0.00     0.275 HD
ATOM     31  H61 UNL     1       1.741   2.887  82.000  1.00  0.00     0.275 HD
ENDBRANCH  23  28
ENDBRANCH  16  17
ENDBRANCH  15  16
ENDBRANCH  10  15
BRANCH  11  32
HETATM   32  C10 UNL     1       0.058   8.413  83.536  1.00  0.00     0.162 C 
HETATM   33  N5  UNL     1       1.274   7.975  84.034  1.00  0.00    -0.074 NA
BRANCH  32  34
HETATM   34  O1  UNL     1      -0.856   8.563  84.655  1.00  0.00    -0.342 OA
HETATM   35  C11 UNL     1      -0.969   7.475  85.558  1.00  0.00     0.211 C 
ENDBRANCH  32  34
ENDBRANCH  11  32
ENDBRANCH   6   7
ENDBRANCH   5   6
BRANCH   5  36
HETATM   36  N2  UNL     1      -3.412  11.990  79.183  1.00  0.00    -0.324 N 
ATOM     37  H22 UNL     1      -3.008  12.893  78.934  1.00  0.00     0.178 HD
ATOM     38  H21 UNL     1      -4.028  11.846  79.984  1.00  0.00     0.178 HD
ENDBRANCH   5  36
ENDBRANCH   1   5
TORSDOF 12
ENDMDL
MODEL 5
REMARK VINA RESULT: -6.999314852      2.464      4.626
REMARK  12 active torsions:
REMARK  status: ('A' for Active; 'I' for Inactive)
REMARK    1  A    between atoms: C3_3  and  C4_4 
REMARK    2  A    between atoms: C4_4  and  N1_5 
REMARK    3  A    between atoms: N1_5  and  N2_6 
REMARK    4  A    between atoms: N1_5  and  N3_9 
REMARK    5  A    between atoms: C9_16  and  C10_17 
REMARK    6  A    between atoms: C10_17  and  O1_19 
REMARK    7  A    between atoms: C12_21  and  C13_22 
REMARK    8  A    between atoms: C13_22  and  O2_23 
REMARK    9  A    between atoms: O2_23  and  C14_24 
REMARK   10  A    between atoms: C16_27  and  C17_28 
REMARK   11  A    between atoms: C17_28  and  O5_30 
REMARK   12  A    between atoms: C20_34  and  N6_35 
ROOT
HETATM    1  N3  UNL     1      -3.296  12.286  79.228  1.00  0.00    -0.216 N 
ATOM      2  H3  UNL     1      -3.006  12.369  80.203  1.00  0.00     0.201 HD
HETATM    3  C5  UNL     1      -4.108  13.295  78.661  1.00  0.00     0.199 C 
HETATM    4  N4  UNL     1      -4.784  14.114  78.198  1.00  0.00    -0.170 NA
ENDROOT
BRANCH   1   5
HETATM    5  N1  UNL     1      -2.884  11.190  78.493  1.00  0.00    -0.205 N 
BRANCH   5   6
HETATM    6  C4  UNL     1      -1.822  10.376  78.855  1.00  0.00     0.149 C 
BRANCH   6   7
HETATM    7  C3  UNL     1      -1.396   9.898  79.993  1.00  0.00    -0.001 A 
HETATM    8  C2  UNL     1      -1.824   8.632  80.386  1.00  0.00    -0.020 A 
HETATM    9  C1  UNL     1      -2.539   7.921  79.573  1.00  0.00     0.025 C 
HETATM   10  C12 UNL     1      -1.455   8.052  81.632  1.00  0.00     0.010 A 
HETATM   11  C9  UNL     1      -0.641   8.744  82.497  1.00  0.00     0.025 A 
HETATM   12  C8  UNL     1      -0.219  10.015  82.080  1.00  0.00     0.024 A 
HETATM   13  C6  UNL     1      -0.591  10.552  80.874  1.00  0.00    -0.049 A 
HETATM   14  C7  UNL     1      -0.061  11.909  80.568  1.00  0.00     0.049 C 
BRANCH  10  15
HETATM   15  C13 UNL     1      -1.940   6.887  81.927  1.00  0.00     0.151 C 
BRANCH  15  16
HETATM   16  O2  UNL     1      -1.555   5.601  81.754  1.00  0.00    -0.328 OA
BRANCH  16  17
HETATM   17  C14 UNL     1      -0.886   4.879  82.795  1.00  0.00     0.308 C 
HETATM   18  O3  UNL     1      -1.786   4.610  83.849  1.00  0.00    -0.328 OA
HETATM   19  C15 UNL     1      -1.456   3.717  84.844  1.00  0.00     0.159 C 
HETATM   20  C16 UNL     1      -0.667   2.700  84.589  1.00  0.00     0.109 C 
HETATM   21  C19 UNL     1      -0.163   2.554  83.241  1.00  0.00     0.202 C 
HETATM   22  O6  UNL     1       0.367   1.470  82.907  1.00  0.00    -0.290 OA
HETATM   23  C20 UNL     1      -0.249   3.638  82.233  1.00  0.00     0.313 C 
BRANCH  20  24
HETATM   24  C17 UNL     1      -0.296   1.726  85.636  1.00  0.00     0.298 C 
HETATM   25  O4  UNL     1       0.825   1.824  86.182  1.00  0.00    -0.259 OA
BRANCH  24  26
HETATM   26  O5  UNL     1      -1.152   0.730  86.011  1.00  0.00    -0.322 OA
HETATM   27  C18 UNL     1      -1.783   0.785  87.294  1.00  0.00     0.213 C 
ENDBRANCH  24  26
ENDBRANCH  20  24
BRANCH  23  28
HETATM   28  N6  UNL     1       1.091   3.884  81.736  1.00  0.00    -0.063 N 
ATOM     29  H63 UNL     1       1.113   4.703  81.128  1.00  0.00     0.275 HD
ATOM     30  H62 UNL     1       1.704   4.217  82.480  1.00  0.00     0.275 HD
ATOM     31  H61 UNL     1       1.487   3.068  81.270  1.00  0.00     0.275 HD
ENDBRANCH  23  28
ENDBRANCH  16  17
ENDBRANCH  15  16
ENDBRANCH  10  15
BRANCH  11  32
HETATM   32  C10 UNL     1      -0.197   8.395  83.671  1.00  0.00     0.162 C 
HETATM   33  N5  UNL     1      -0.719   8.132  84.927  1.00  0.00    -0.074 NA
BRANCH  32  34
HETATM   34  O1  UNL     1       1.243   8.221  83.739  1.00  0.00    -0.342 OA
HETATM   35  C11 UNL     1       1.730   6.991  84.250  1.00  0.00     0.211 C 
ENDBRANCH  32  34
ENDBRANCH  11  32
ENDBRANCH   6   7
ENDBRANCH   5   6
BRANCH   5  36
HETATM   36  N2  UNL     1      -3.646  10.845  77.345  1.00  0.00    -0.324 N 
ATOM     37  H22 UNL     1      -3.291  11.144  76.437  1.00  0.00     0.178 HD
ATOM     38  H21 UNL     1      -4.537  10.366  77.475  1.00  0.00     0.178 HD
ENDBRANCH   5  36
ENDBRANCH   1   5
TORSDOF 12
ENDMDL
