MODEL 1
REMARK VINA RESULT: -5.976581193      0.000      0.000
REMARK  3 active torsions:
REMARK  status: ('A' for Active; 'I' for Inactive)
REMARK    1  A    between atoms: C2_2  and  N1_5 
REMARK       I    between atoms: N1_5  and  C5_7 
REMARK       I    between atoms: C5_7  and  N2_9 
REMARK    2  A    between atoms: C7_11  and  C8_12 
REMARK    3  A    between atoms: C10_16  and  C11_17 
ROOT
HETATM    1  N1  UNL     1     -25.147  47.452   8.349  1.00  0.00    -0.335 N 
ATOM      2  H1  UNL     1     -24.333  46.886   8.109  1.00  0.00     0.165 HD
HETATM    3  C5  UNL     1     -25.832  47.119   9.529  1.00  0.00     0.319 C 
HETATM    4  O1  UNL     1     -26.839  47.793   9.861  1.00  0.00    -0.247 OA
HETATM    5  N2  UNL     1     -25.448  46.049  10.380  1.00  0.00    -0.319 N 
HETATM    6  C6  UNL     1     -24.286  45.195  10.091  1.00  0.00     0.144 C 
HETATM    7  C7  UNL     1     -24.466  44.015  10.991  1.00  0.00     0.107 C 
HETATM    8  C9  UNL     1     -25.072  44.653  12.220  1.00  0.00     0.053 C 
HETATM    9  C10 UNL     1     -26.062  45.616  11.600  1.00  0.00     0.190 C 
ENDROOT
BRANCH   9  10
HETATM   10  C11 UNL     1     -27.374  44.960  11.360  1.00  0.00     0.197 C 
HETATM   11  O4  UNL     1     -28.138  44.799  12.348  1.00  0.00    -0.646 OA
HETATM   12  O5  UNL     1     -27.697  44.561  10.089  1.00  0.00    -0.646 OA
ENDBRANCH   9  10
BRANCH   1  13
HETATM   13  C2  UNL     1     -25.485  48.510   7.457  1.00  0.00     0.023 C 
HETATM   14  C1  UNL     1     -24.308  48.806   6.517  1.00  0.00     0.037 C 
HETATM   15  C3  UNL     1     -26.626  48.084   6.586  1.00  0.00     0.037 C 
HETATM   16  C4  UNL     1     -25.768  49.808   8.186  1.00  0.00     0.037 C 
ENDBRANCH   1  13
BRANCH   7  17
HETATM   17  C8  UNL     1     -23.161  43.401  11.244  1.00  0.00     0.178 C 
HETATM   18  O2  UNL     1     -23.079  42.363  11.932  1.00  0.00    -0.648 OA
HETATM   19  O3  UNL     1     -22.031  43.990  10.709  1.00  0.00    -0.648 OA
ENDBRANCH   7  17
TORSDOF 3
ENDMDL
MODEL 2
REMARK VINA RESULT: -5.715389457      2.702      5.622
REMARK  3 active torsions:
REMARK  status: ('A' for Active; 'I' for Inactive)
REMARK    1  A    between atoms: C2_2  and  N1_5 
REMARK       I    between atoms: N1_5  and  C5_7 
REMARK       I    between atoms: C5_7  and  N2_9 
REMARK    2  A    between atoms: C7_11  and  C8_12 
REMARK    3  A    between atoms: C10_16  and  C11_17 
ROOT
HETATM    1  N1  UNL     1     -28.531  43.908  13.667  1.00  0.00    -0.335 N 
ATOM      2  H1  UNL     1     -27.726  43.431  14.072  1.00  0.00     0.165 HD
HETATM    3  C5  UNL     1     -28.318  44.620  12.474  1.00  0.00     0.319 C 
HETATM    4  O1  UNL     1     -29.283  45.221  11.940  1.00  0.00    -0.247 OA
HETATM    5  N2  UNL     1     -27.056  44.700  11.827  1.00  0.00    -0.319 N 
HETATM    6  C6  UNL     1     -25.857  44.036  12.361  1.00  0.00     0.144 C 
HETATM    7  C7  UNL     1     -24.726  44.672  11.619  1.00  0.00     0.107 C 
HETATM    8  C9  UNL     1     -25.335  44.889  10.253  1.00  0.00     0.053 C 
HETATM    9  C10 UNL     1     -26.717  45.390  10.618  1.00  0.00     0.190 C 
ENDROOT
BRANCH   9  10
HETATM   10  C11 UNL     1     -26.725  46.865  10.797  1.00  0.00     0.197 C 
HETATM   11  O4  UNL     1     -26.470  47.578   9.791  1.00  0.00    -0.646 OA
HETATM   12  O5  UNL     1     -27.006  47.385  12.033  1.00  0.00    -0.646 OA
ENDBRANCH   9  10
BRANCH   1  13
HETATM   13  C2  UNL     1     -29.770  43.793  14.359  1.00  0.00     0.023 C 
HETATM   14  C1  UNL     1     -29.586  42.963  15.638  1.00  0.00     0.037 C 
HETATM   15  C3  UNL     1     -30.226  45.150  14.797  1.00  0.00     0.037 C 
HETATM   16  C4  UNL     1     -30.820  43.066  13.543  1.00  0.00     0.037 C 
ENDBRANCH   1  13
BRANCH   7  17
HETATM   17  C8  UNL     1     -23.587  43.752  11.602  1.00  0.00     0.178 C 
HETATM   18  O2  UNL     1     -23.665  42.645  12.174  1.00  0.00    -0.648 OA
HETATM   19  O3  UNL     1     -22.431  44.130  10.944  1.00  0.00    -0.648 OA
ENDBRANCH   7  17
TORSDOF 3
ENDMDL
MODEL 3
REMARK VINA RESULT: -5.568688485      2.670      5.600
REMARK  3 active torsions:
REMARK  status: ('A' for Active; 'I' for Inactive)
REMARK    1  A    between atoms: C2_2  and  N1_5 
REMARK       I    between atoms: N1_5  and  C5_7 
REMARK       I    between atoms: C5_7  and  N2_9 
REMARK    2  A    between atoms: C7_11  and  C8_12 
REMARK    3  A    between atoms: C10_16  and  C11_17 
ROOT
HETATM    1  N1  UNL     1     -28.512  43.820  13.590  1.00  0.00    -0.335 N 
ATOM      2  H1  UNL     1     -27.704  43.357  14.007  1.00  0.00     0.165 HD
HETATM    3  C5  UNL     1     -28.292  44.545  12.407  1.00  0.00     0.319 C 
HETATM    4  O1  UNL     1     -29.259  45.130  11.860  1.00  0.00    -0.247 OA
HETATM    5  N2  UNL     1     -27.020  44.658  11.784  1.00  0.00    -0.319 N 
HETATM    6  C6  UNL     1     -25.817  44.015  12.335  1.00  0.00     0.144 C 
HETATM    7  C7  UNL     1     -24.686  44.680  11.618  1.00  0.00     0.107 C 
HETATM    8  C9  UNL     1     -25.275  44.895  10.243  1.00  0.00     0.053 C 
HETATM    9  C10 UNL     1     -26.673  45.364  10.587  1.00  0.00     0.190 C 
ENDROOT
BRANCH   9  10
HETATM   10  C11 UNL     1     -26.716  46.837  10.777  1.00  0.00     0.197 C 
HETATM   11  O4  UNL     1     -26.513  47.564   9.768  1.00  0.00    -0.646 OA
HETATM   12  O5  UNL     1     -26.972  47.341  12.025  1.00  0.00    -0.646 OA
ENDBRANCH   9  10
BRANCH   1  13
HETATM   13  C2  UNL     1     -29.760  43.673  14.259  1.00  0.00     0.023 C 
HETATM   14  C1  UNL     1     -30.400  45.050  14.492  1.00  0.00     0.037 C 
HETATM   15  C3  UNL     1     -30.707  42.908  13.387  1.00  0.00     0.037 C 
HETATM   16  C4  UNL     1     -29.607  43.051  15.632  1.00  0.00     0.037 C 
ENDBRANCH   1  13
BRANCH   7  17
HETATM   17  C8  UNL     1     -23.528  43.784  11.615  1.00  0.00     0.178 C 
HETATM   18  O2  UNL     1     -22.504  44.084  10.967  1.00  0.00    -0.648 OA
HETATM   19  O3  UNL     1     -23.590  42.609  12.340  1.00  0.00    -0.648 OA
ENDBRANCH   7  17
TORSDOF 3
ENDMDL
MODEL 4
REMARK VINA RESULT: -5.127616582      2.459      5.105
REMARK  3 active torsions:
REMARK  status: ('A' for Active; 'I' for Inactive)
REMARK    1  A    between atoms: C2_2  and  N1_5 
REMARK       I    between atoms: N1_5  and  C5_7 
REMARK       I    between atoms: C5_7  and  N2_9 
REMARK    2  A    between atoms: C7_11  and  C8_12 
REMARK    3  A    between atoms: C10_16  and  C11_17 
ROOT
HETATM    1  N1  UNL     1     -22.065  45.198   9.269  1.00  0.00    -0.335 N 
ATOM      2  H1  UNL     1     -22.359  46.038   8.771  1.00  0.00     0.165 HD
HETATM    3  C5  UNL     1     -23.042  44.527  10.023  1.00  0.00     0.319 C 
HETATM    4  O1  UNL     1     -22.723  43.486  10.650  1.00  0.00    -0.247 OA
HETATM    5  N2  UNL     1     -24.391  44.963  10.119  1.00  0.00    -0.319 N 
HETATM    6  C6  UNL     1     -24.877  46.166   9.426  1.00  0.00     0.144 C 
HETATM    7  C7  UNL     1     -26.189  46.459  10.081  1.00  0.00     0.107 C 
HETATM    8  C9  UNL     1     -26.716  45.069  10.354  1.00  0.00     0.053 C 
HETATM    9  C10 UNL     1     -25.470  44.368  10.850  1.00  0.00     0.190 C 
ENDROOT
BRANCH   9  10
HETATM   10  C11 UNL     1     -25.306  44.535  12.318  1.00  0.00     0.197 C 
HETATM   11  O4  UNL     1     -25.023  43.512  12.995  1.00  0.00    -0.646 OA
HETATM   12  O5  UNL     1     -25.467  45.779  12.869  1.00  0.00    -0.646 OA
ENDBRANCH   9  10
BRANCH   1  13
HETATM   13  C2  UNL     1     -20.701  44.809   9.136  1.00  0.00     0.023 C 
HETATM   14  C1  UNL     1     -20.218  45.055   7.699  1.00  0.00     0.037 C 
HETATM   15  C3  UNL     1     -19.849  45.665  10.021  1.00  0.00     0.037 C 
HETATM   16  C4  UNL     1     -20.497  43.330   9.393  1.00  0.00     0.037 C 
ENDBRANCH   1  13
BRANCH   7  17
HETATM   17  C8  UNL     1     -27.027  47.223   9.155  1.00  0.00     0.178 C 
HETATM   18  O2  UNL     1     -26.599  48.279   8.645  1.00  0.00    -0.648 OA
HETATM   19  O3  UNL     1     -28.293  46.754   8.857  1.00  0.00    -0.648 OA
ENDBRANCH   7  17
TORSDOF 3
ENDMDL
MODEL 5
REMARK VINA RESULT: -5.101600635      3.710      5.832
REMARK  3 active torsions:
REMARK  status: ('A' for Active; 'I' for Inactive)
REMARK    1  A    between atoms: C2_2  and  N1_5 
REMARK       I    between atoms: N1_5  and  C5_7 
REMARK       I    between atoms: C5_7  and  N2_9 
REMARK    2  A    between atoms: C7_11  and  C8_12 
REMARK    3  A    between atoms: C10_16  and  C11_17 
ROOT
HETATM    1  N1  UNL     1     -27.557  45.391  10.450  1.00  0.00    -0.335 N 
ATOM      2  H1  UNL     1     -27.605  45.541   9.442  1.00  0.00     0.165 HD
HETATM    3  C5  UNL     1     -28.278  44.304  10.970  1.00  0.00     0.319 C 
HETATM    4  O1  UNL     1     -28.245  44.084  12.206  1.00  0.00    -0.247 OA
HETATM    5  N2  UNL     1     -29.055  43.426  10.168  1.00  0.00    -0.319 N 
HETATM    6  C6  UNL     1     -29.165  43.587   8.710  1.00  0.00     0.144 C 
HETATM    7  C7  UNL     1     -30.331  42.728   8.335  1.00  0.00     0.107 C 
HETATM    8  C9  UNL     1     -30.185  41.571   9.297  1.00  0.00     0.053 C 
HETATM    9  C10 UNL     1     -29.828  42.292  10.579  1.00  0.00     0.190 C 
ENDROOT
BRANCH   9  10
HETATM   10  C11 UNL     1     -31.047  42.692  11.330  1.00  0.00     0.197 C 
HETATM   11  O4  UNL     1     -31.602  41.822  12.052  1.00  0.00    -0.646 OA
HETATM   12  O5  UNL     1     -31.513  43.975  11.209  1.00  0.00    -0.646 OA
ENDBRANCH   9  10
BRANCH   1  13
HETATM   13  C2  UNL     1     -26.764  46.304  11.203  1.00  0.00     0.023 C 
HETATM   14  C1  UNL     1     -26.111  47.333  10.269  1.00  0.00     0.037 C 
HETATM   15  C3  UNL     1     -27.643  47.078  12.136  1.00  0.00     0.037 C 
HETATM   16  C4  UNL     1     -25.622  45.615  11.922  1.00  0.00     0.037 C 
ENDBRANCH   1  13
BRANCH   7  17
HETATM   17  C8  UNL     1     -30.201  42.331   6.932  1.00  0.00     0.178 C 
HETATM   18  O2  UNL     1     -31.200  42.336   6.183  1.00  0.00    -0.648 OA
HETATM   19  O3  UNL     1     -28.960  41.954   6.455  1.00  0.00    -0.648 OA
ENDBRANCH   7  17
TORSDOF 3
ENDMDL
