MODEL 1
REMARK VINA RESULT: -7.503795132      0.000      0.000
REMARK  7 active torsions:
REMARK  status: ('A' for Active; 'I' for Inactive)
REMARK    1  A    between atoms: C4_6  and  C5_7 
REMARK    2  A    between atoms: C5_7  and  N2_8 
REMARK    3  A    between atoms: N2_8  and  C6_9 
REMARK    4  A    between atoms: N2_8  and  C7_11 
REMARK    5  A    between atoms: C8_14  and  N4_15 
REMARK    6  A    between atoms: C12_25  and  C13_26 
REMARK    7  A    between atoms: C13_26  and  O1_27 
ROOT
HETATM    1  C7  UNL     1      -9.048 -28.948 -19.487  1.00  0.00     0.688 A 
HETATM    2  N3  UNL     1     -10.210 -29.625 -19.622  1.00  0.00    -0.175 N 
ATOM      3  H3  UNL     1     -10.201 -30.629 -19.450  1.00  0.00     0.186 HD
HETATM    4  C8  UNL     1     -11.379 -29.055 -19.969  1.00  0.00     0.139 A 
HETATM    5  C9  UNL     1     -11.429 -27.698 -20.209  1.00  0.00     0.130 A 
HETATM    6  C10 UNL     1     -12.640 -27.024 -20.583  1.00  0.00     0.106 C 
HETATM    7  N5  UNL     1     -13.611 -26.471 -20.899  1.00  0.00    -0.191 NA
HETATM    8  C11 UNL     1     -10.250 -26.999 -20.075  1.00  0.00     0.156 A 
HETATM    9  N6  UNL     1     -10.291 -25.606 -20.320  1.00  0.00    -0.080 NA
HETATM   10  N7  UNL     1      -9.091 -27.628 -19.720  1.00  0.00    -0.177 N 
ATOM     11  H7  UNL     1      -8.236 -27.079 -19.630  1.00  0.00     0.185 HD
ENDROOT
BRANCH   4  12
HETATM   12  N4  UNL     1     -12.458 -29.748 -20.083  1.00  0.00    -0.384 N 
ATOM     13  H42 UNL     1     -12.449 -30.583 -20.670  1.00  0.00     0.157 HD
ATOM     14  H41 UNL     1     -13.317 -29.481 -19.601  1.00  0.00     0.157 HD
ENDBRANCH   4  12
BRANCH   1  15
HETATM   15  N2  UNL     1      -7.862 -29.655 -19.112  1.00  0.00    -0.178 N 
BRANCH  15  16
HETATM   16  C5  UNL     1      -6.943 -29.221 -18.112  1.00  0.00     0.205 C 
BRANCH  16  17
HETATM   17  C4  UNL     1      -6.193 -30.276 -17.421  1.00  0.00     0.040 A 
HETATM   18  N1  UNL     1      -6.766 -31.242 -16.698  1.00  0.00    -0.367 N 
HETATM   19  C3  UNL     1      -5.982 -32.171 -16.081  1.00  0.00     0.099 A 
ATOM     20  H1  UNL     1      -7.781 -31.284 -16.609  1.00  0.00     0.165 HD
HETATM   21  C2  UNL     1      -4.618 -32.174 -16.160  1.00  0.00     0.004 A 
HETATM   22  C1  UNL     1      -3.765 -33.189 -15.486  1.00  0.00     0.054 C 
HETATM   23  C14 UNL     1      -4.008 -31.186 -16.901  1.00  0.00     0.189 A 
HETATM   24  C12 UNL     1      -4.799 -30.245 -17.526  1.00  0.00     0.040 A 
HETATM   25  O2  UNL     1      -2.752 -31.129 -17.016  1.00  0.00    -0.287 OA
BRANCH  24  26
HETATM   26  C13 UNL     1      -4.202 -29.160 -18.336  1.00  0.00     0.209 C 
BRANCH  26  27
HETATM   27  O1  UNL     1      -3.665 -28.177 -17.492  1.00  0.00    -0.396 OA
ATOM     28  H1  UNL     1      -3.267 -27.489 -18.012  1.00  0.00     0.209 HD
ENDBRANCH  26  27
ENDBRANCH  24  26
ENDBRANCH  16  17
ENDBRANCH  15  16
BRANCH  15  29
HETATM   29  C6  UNL     1      -7.584 -30.876 -19.781  1.00  0.00     0.191 C 
HETATM   30  S1  UNL     1      -6.674 -30.932 -21.119  1.00  0.00    -0.073 SA
ENDBRANCH  15  29
ENDBRANCH   1  15
TORSDOF 7
ENDMDL
MODEL 2
REMARK VINA RESULT: -7.309630594      0.218      1.663
REMARK  7 active torsions:
REMARK  status: ('A' for Active; 'I' for Inactive)
REMARK    1  A    between atoms: C4_6  and  C5_7 
REMARK    2  A    between atoms: C5_7  and  N2_8 
REMARK    3  A    between atoms: N2_8  and  C6_9 
REMARK    4  A    between atoms: N2_8  and  C7_11 
REMARK    5  A    between atoms: C8_14  and  N4_15 
REMARK    6  A    between atoms: C12_25  and  C13_26 
REMARK    7  A    between atoms: C13_26  and  O1_27 
ROOT
HETATM    1  C7  UNL     1      -9.055 -29.217 -19.596  1.00  0.00     0.688 A 
HETATM    2  N3  UNL     1      -9.127 -27.878 -19.765  1.00  0.00    -0.175 N 
ATOM      3  H3  UNL     1      -8.270 -27.335 -19.652  1.00  0.00     0.186 HD
HETATM    4  C8  UNL     1     -10.257 -27.215 -20.072  1.00  0.00     0.139 A 
HETATM    5  C9  UNL     1     -11.434 -27.916 -20.232  1.00  0.00     0.130 A 
HETATM    6  C10 UNL     1     -12.676 -27.276 -20.559  1.00  0.00     0.106 C 
HETATM    7  N5  UNL     1     -13.689 -26.766 -20.811  1.00  0.00    -0.191 NA
HETATM    8  C11 UNL     1     -11.372 -29.281 -20.061  1.00  0.00     0.156 A 
HETATM    9  N6  UNL     1     -12.575 -30.009 -20.223  1.00  0.00    -0.080 NA
HETATM   10  N7  UNL     1     -10.197 -29.903 -19.749  1.00  0.00    -0.177 N 
ATOM     11  H7  UNL     1     -10.187 -30.916 -19.630  1.00  0.00     0.185 HD
ENDROOT
BRANCH   4  12
HETATM   12  N4  UNL     1     -10.267 -25.936 -20.222  1.00  0.00    -0.384 N 
ATOM     13  H42 UNL     1     -10.041 -25.545 -21.137  1.00  0.00     0.157 HD
ATOM     14  H41 UNL     1     -10.496 -25.311 -19.449  1.00  0.00     0.157 HD
ENDBRANCH   4  12
BRANCH   1  15
HETATM   15  N2  UNL     1      -7.798 -29.819 -19.271  1.00  0.00    -0.178 N 
BRANCH  15  16
HETATM   16  C5  UNL     1      -6.909 -29.345 -18.263  1.00  0.00     0.205 C 
BRANCH  16  17
HETATM   17  C4  UNL     1      -6.165 -30.369 -17.522  1.00  0.00     0.040 A 
HETATM   18  N1  UNL     1      -6.746 -31.341 -16.814  1.00  0.00    -0.367 N 
HETATM   19  C3  UNL     1      -5.968 -32.241 -16.147  1.00  0.00     0.099 A 
ATOM     20  H1  UNL     1      -7.762 -31.411 -16.773  1.00  0.00     0.165 HD
HETATM   21  C2  UNL     1      -4.601 -32.206 -16.160  1.00  0.00     0.004 A 
HETATM   22  C1  UNL     1      -3.755 -33.188 -15.432  1.00  0.00     0.054 C 
HETATM   23  C14 UNL     1      -3.984 -31.211 -16.885  1.00  0.00     0.189 A 
HETATM   24  C12 UNL     1      -4.769 -30.300 -17.560  1.00  0.00     0.040 A 
HETATM   25  O2  UNL     1      -2.725 -31.120 -16.940  1.00  0.00    -0.287 OA
BRANCH  24  26
HETATM   26  C13 UNL     1      -4.163 -29.210 -18.355  1.00  0.00     0.209 C 
BRANCH  26  27
HETATM   27  O1  UNL     1      -3.673 -28.213 -17.500  1.00  0.00    -0.396 OA
ATOM     28  H1  UNL     1      -3.262 -27.525 -18.009  1.00  0.00     0.209 HD
ENDBRANCH  26  27
ENDBRANCH  24  26
ENDBRANCH  16  17
ENDBRANCH  15  16
BRANCH  15  29
HETATM   29  C6  UNL     1      -7.413 -30.973 -20.004  1.00  0.00     0.191 C 
HETATM   30  S1  UNL     1      -6.407 -30.889 -21.269  1.00  0.00    -0.073 SA
ENDBRANCH  15  29
ENDBRANCH   1  15
TORSDOF 7
ENDMDL
MODEL 3
REMARK VINA RESULT: -7.197466425      1.589      2.119
REMARK  7 active torsions:
REMARK  status: ('A' for Active; 'I' for Inactive)
REMARK    1  A    between atoms: C4_6  and  C5_7 
REMARK    2  A    between atoms: C5_7  and  N2_8 
REMARK    3  A    between atoms: N2_8  and  C6_9 
REMARK    4  A    between atoms: N2_8  and  C7_11 
REMARK    5  A    between atoms: C8_14  and  N4_15 
REMARK    6  A    between atoms: C12_25  and  C13_26 
REMARK    7  A    between atoms: C13_26  and  O1_27 
ROOT
HETATM    1  C7  UNL     1      -9.427 -28.453 -19.509  1.00  0.00     0.688 A 
HETATM    2  N3  UNL     1     -10.506 -29.266 -19.544  1.00  0.00    -0.175 N 
ATOM      3  H3  UNL     1     -10.371 -30.248 -19.307  1.00  0.00     0.186 HD
HETATM    4  C8  UNL     1     -11.745 -28.860 -19.874  1.00  0.00     0.139 A 
HETATM    5  C9  UNL     1     -11.964 -27.539 -20.201  1.00  0.00     0.130 A 
HETATM    6  C10 UNL     1     -13.259 -27.036 -20.563  1.00  0.00     0.106 C 
HETATM    7  N5  UNL     1     -14.300 -26.623 -20.869  1.00  0.00    -0.191 NA
HETATM    8  C11 UNL     1     -10.871 -26.702 -20.168  1.00  0.00     0.156 A 
HETATM    9  N6  UNL     1     -11.085 -25.343 -20.504  1.00  0.00    -0.080 NA
HETATM   10  N7  UNL     1      -9.634 -27.166 -19.827  1.00  0.00    -0.177 N 
ATOM     11  H7  UNL     1      -8.846 -26.518 -19.813  1.00  0.00     0.185 HD
ENDROOT
BRANCH   4  12
HETATM   12  N4  UNL     1     -12.739 -29.679 -19.891  1.00  0.00    -0.384 N 
ATOM     13  H42 UNL     1     -12.698 -30.493 -20.506  1.00  0.00     0.157 HD
ATOM     14  H41 UNL     1     -13.562 -29.532 -19.306  1.00  0.00     0.157 HD
ENDBRANCH   4  12
BRANCH   1  15
HETATM   15  N2  UNL     1      -8.152 -28.990 -19.142  1.00  0.00    -0.178 N 
BRANCH  15  16
HETATM   16  C5  UNL     1      -7.696 -29.152 -17.802  1.00  0.00     0.205 C 
BRANCH  16  17
HETATM   17  C4  UNL     1      -6.290 -29.533 -17.638  1.00  0.00     0.040 A 
HETATM   18  N1  UNL     1      -5.277 -28.662 -17.662  1.00  0.00    -0.367 N 
HETATM   19  C3  UNL     1      -3.999 -29.116 -17.514  1.00  0.00     0.099 A 
ATOM     20  H1  UNL     1      -5.457 -27.667 -17.790  1.00  0.00     0.165 HD
HETATM   21  C2  UNL     1      -3.686 -30.435 -17.338  1.00  0.00     0.004 A 
HETATM   22  C1  UNL     1      -2.293 -30.927 -17.177  1.00  0.00     0.054 C 
HETATM   23  C14 UNL     1      -4.718 -31.348 -17.310  1.00  0.00     0.189 A 
HETATM   24  C12 UNL     1      -6.010 -30.892 -17.460  1.00  0.00     0.040 A 
HETATM   25  O2  UNL     1      -4.500 -32.582 -17.151  1.00  0.00    -0.287 OA
BRANCH  24  26
HETATM   26  C13 UNL     1      -7.158 -31.825 -17.438  1.00  0.00     0.209 C 
BRANCH  26  27
HETATM   27  O1  UNL     1      -7.225 -32.525 -18.651  1.00  0.00    -0.396 OA
ATOM     28  H1  UNL     1      -7.908 -32.157 -19.198  1.00  0.00     0.209 HD
ENDBRANCH  26  27
ENDBRANCH  24  26
ENDBRANCH  16  17
ENDBRANCH  15  16
BRANCH  15  29
HETATM   29  C6  UNL     1      -7.282 -29.394 -20.190  1.00  0.00     0.191 C 
HETATM   30  S1  UNL     1      -7.804 -30.269 -21.448  1.00  0.00    -0.073 SA
ENDBRANCH  15  29
ENDBRANCH   1  15
TORSDOF 7
ENDMDL
MODEL 4
REMARK VINA RESULT: -7.127387454      3.783      7.809
REMARK  7 active torsions:
REMARK  status: ('A' for Active; 'I' for Inactive)
REMARK    1  A    between atoms: C4_6  and  C5_7 
REMARK    2  A    between atoms: C5_7  and  N2_8 
REMARK    3  A    between atoms: N2_8  and  C6_9 
REMARK    4  A    between atoms: N2_8  and  C7_11 
REMARK    5  A    between atoms: C8_14  and  N4_15 
REMARK    6  A    between atoms: C12_25  and  C13_26 
REMARK    7  A    between atoms: C13_26  and  O1_27 
ROOT
HETATM    1  C7  UNL     1      -8.408 -29.266 -19.338  1.00  0.00     0.688 A 
HETATM    2  N3  UNL     1      -8.515 -30.597 -19.553  1.00  0.00    -0.175 N 
ATOM      3  H3  UNL     1      -9.242 -30.921 -20.189  1.00  0.00     0.186 HD
HETATM    4  C8  UNL     1      -7.721 -31.519 -18.979  1.00  0.00     0.139 A 
HETATM    5  C9  UNL     1      -6.726 -31.116 -18.112  1.00  0.00     0.130 A 
HETATM    6  C10 UNL     1      -5.844 -32.044 -17.464  1.00  0.00     0.106 C 
HETATM    7  N5  UNL     1      -5.133 -32.788 -16.924  1.00  0.00    -0.191 NA
HETATM    8  C11 UNL     1      -6.610 -29.763 -17.887  1.00  0.00     0.156 A 
HETATM    9  N6  UNL     1      -5.593 -29.339 -16.998  1.00  0.00    -0.080 NA
HETATM   10  N7  UNL     1      -7.443 -28.869 -18.496  1.00  0.00    -0.177 N 
ATOM     11  H7  UNL     1      -7.329 -27.873 -18.306  1.00  0.00     0.185 HD
ENDROOT
BRANCH   4  12
HETATM   12  N4  UNL     1      -7.866 -32.776 -19.219  1.00  0.00    -0.384 N 
ATOM     13  H42 UNL     1      -7.232 -33.229 -19.879  1.00  0.00     0.157 HD
ATOM     14  H41 UNL     1      -8.599 -33.324 -18.768  1.00  0.00     0.157 HD
ENDBRANCH   4  12
BRANCH   1  15
HETATM   15  N2  UNL     1      -9.306 -28.372 -20.004  1.00  0.00    -0.178 N 
BRANCH  15  16
HETATM   16  C5  UNL     1     -10.375 -27.676 -19.368  1.00  0.00     0.205 C 
BRANCH  16  17
HETATM   17  C4  UNL     1     -11.728 -28.159 -19.663  1.00  0.00     0.040 A 
HETATM   18  N1  UNL     1     -12.056 -29.452 -19.733  1.00  0.00    -0.367 N 
HETATM   19  C3  UNL     1     -13.341 -29.802 -20.028  1.00  0.00     0.099 A 
ATOM     20  H1  UNL     1     -11.352 -30.170 -19.568  1.00  0.00     0.165 HD
HETATM   21  C2  UNL     1     -14.333 -28.891 -20.260  1.00  0.00     0.004 A 
HETATM   22  C1  UNL     1     -15.733 -29.276 -20.581  1.00  0.00     0.054 C 
HETATM   23  C14 UNL     1     -14.014 -27.553 -20.192  1.00  0.00     0.189 A 
HETATM   24  C12 UNL     1     -12.716 -27.196 -19.894  1.00  0.00     0.040 A 
HETATM   25  O2  UNL     1     -14.882 -26.658 -20.395  1.00  0.00    -0.287 OA
BRANCH  24  26
HETATM   26  C13 UNL     1     -12.314 -25.775 -19.807  1.00  0.00     0.209 C 
BRANCH  26  27
HETATM   27  O1  UNL     1     -12.633 -25.116 -21.003  1.00  0.00    -0.396 OA
ATOM     28  H1  UNL     1     -13.004 -24.263 -20.812  1.00  0.00     0.209 HD
ENDBRANCH  26  27
ENDBRANCH  24  26
ENDBRANCH  16  17
ENDBRANCH  15  16
BRANCH  15  29
HETATM   29  C6  UNL     1      -9.115 -28.163 -21.395  1.00  0.00     0.191 C 
HETATM   30  S1  UNL     1      -9.262 -26.699 -22.070  1.00  0.00    -0.073 SA
ENDBRANCH  15  29
ENDBRANCH   1  15
TORSDOF 7
ENDMDL
MODEL 5
REMARK VINA RESULT: -7.026526236      2.883      7.092
REMARK  7 active torsions:
REMARK  status: ('A' for Active; 'I' for Inactive)
REMARK    1  A    between atoms: C4_6  and  C5_7 
REMARK    2  A    between atoms: C5_7  and  N2_8 
REMARK    3  A    between atoms: N2_8  and  C6_9 
REMARK    4  A    between atoms: N2_8  and  C7_11 
REMARK    5  A    between atoms: C8_14  and  N4_15 
REMARK    6  A    between atoms: C12_25  and  C13_26 
REMARK    7  A    between atoms: C13_26  and  O1_27 
ROOT
HETATM    1  C7  UNL     1      -7.463 -31.307 -19.540  1.00  0.00     0.688 A 
HETATM    2  N3  UNL     1      -6.725 -30.265 -19.982  1.00  0.00    -0.175 N 
ATOM      3  H3  UNL     1      -7.094 -29.713 -20.756  1.00  0.00     0.186 HD
HETATM    4  C8  UNL     1      -5.535 -29.910 -19.465  1.00  0.00     0.139 A 
HETATM    5  C9  UNL     1      -5.006 -30.633 -18.416  1.00  0.00     0.130 A 
HETATM    6  C10 UNL     1      -3.742 -30.312 -17.816  1.00  0.00     0.106 C 
HETATM    7  N5  UNL     1      -2.715 -30.069 -17.332  1.00  0.00    -0.191 NA
HETATM    8  C11 UNL     1      -5.750 -31.697 -17.959  1.00  0.00     0.156 A 
HETATM    9  N6  UNL     1      -5.215 -32.447 -16.884  1.00  0.00    -0.080 NA
HETATM   10  N7  UNL     1      -6.953 -32.015 -18.521  1.00  0.00    -0.177 N 
ATOM     11  H7  UNL     1      -7.478 -32.810 -18.157  1.00  0.00     0.185 HD
ENDROOT
BRANCH   4  12
HETATM   12  N4  UNL     1      -4.874 -28.905 -19.925  1.00  0.00    -0.384 N 
ATOM     13  H42 UNL     1      -5.054 -27.977 -19.540  1.00  0.00     0.157 HD
ATOM     14  H41 UNL     1      -4.178 -29.018 -20.663  1.00  0.00     0.157 HD
ENDBRANCH   4  12
BRANCH   1  15
HETATM   15  N2  UNL     1      -8.719 -31.595 -20.163  1.00  0.00    -0.178 N 
BRANCH  15  16
HETATM   16  C5  UNL     1      -9.342 -30.774 -21.147  1.00  0.00     0.205 C 
BRANCH  16  17
HETATM   17  C4  UNL     1      -9.925 -29.517 -20.667  1.00  0.00     0.040 A 
HETATM   18  N1  UNL     1     -10.837 -29.445 -19.693  1.00  0.00    -0.367 N 
HETATM   19  C3  UNL     1     -11.330 -28.229 -19.325  1.00  0.00     0.099 A 
ATOM     20  H1  UNL     1     -11.161 -30.294 -19.230  1.00  0.00     0.165 HD
HETATM   21  C2  UNL     1     -10.939 -27.054 -19.904  1.00  0.00     0.004 A 
HETATM   22  C1  UNL     1     -11.478 -25.728 -19.501  1.00  0.00     0.054 C 
HETATM   23  C14 UNL     1      -9.999 -27.107 -20.910  1.00  0.00     0.189 A 
HETATM   24  C12 UNL     1      -9.499 -28.336 -21.284  1.00  0.00     0.040 A 
HETATM   25  O2  UNL     1      -9.594 -26.059 -21.488  1.00  0.00    -0.287 OA
BRANCH  24  26
HETATM   26  C13 UNL     1      -8.488 -28.456 -22.357  1.00  0.00     0.209 C 
BRANCH  26  27
HETATM   27  O1  UNL     1      -7.251 -27.980 -21.900  1.00  0.00    -0.396 OA
ATOM     28  H1  UNL     1      -7.102 -27.102 -22.229  1.00  0.00     0.209 HD
ENDBRANCH  26  27
ENDBRANCH  24  26
ENDBRANCH  16  17
ENDBRANCH  15  16
BRANCH  15  29
HETATM   29  C6  UNL     1      -9.388 -32.786 -19.775  1.00  0.00     0.191 C 
HETATM   30  S1  UNL     1     -10.883 -33.135 -20.288  1.00  0.00    -0.073 SA
ENDBRANCH  15  29
ENDBRANCH   1  15
TORSDOF 7
ENDMDL
