MODEL 1
REMARK VINA RESULT: -5.671231846      0.000      0.000
REMARK  2 active torsions:
REMARK  status: ('A' for Active; 'I' for Inactive)
REMARK    1  A    between atoms: C3_6  and  N2_7 
REMARK    2  A    between atoms: N2_7  and  N3_9 
ROOT
HETATM    1  N2  UNL     1      -2.265   9.662   7.305  1.00  0.00    -0.271 N 
ATOM      2  H2  UNL     1      -1.421   9.421   6.784  1.00  0.00     0.190 HD
ENDROOT
BRANCH   1   3
HETATM    3  C3  UNL     1      -3.128   8.639   7.789  1.00  0.00     0.197 A 
HETATM    4  N1  UNL     1      -3.646   7.737   7.027  1.00  0.00    -0.352 N 
HETATM    5  C2  UNL     1      -4.479   6.825   7.770  1.00  0.00     0.225 A 
ATOM      6  H1  UNL     1      -3.486   7.676   6.022  1.00  0.00     0.163 HD
HETATM    7  C1  UNL     1      -4.401   7.312   9.165  1.00  0.00     0.242 A 
HETATM    8  O1  UNL     1      -4.977   6.825  10.197  1.00  0.00    -0.271 OA
HETATM    9  N5  UNL     1      -3.548   8.447   9.134  1.00  0.00    -0.296 N 
ATOM     10  H5  UNL     1      -3.283   9.022   9.934  1.00  0.00     0.172 HD
ENDBRANCH   1   3
BRANCH   1  11
HETATM   11  N3  UNL     1      -2.584  10.991   7.549  1.00  0.00    -0.304 N 
HETATM   12  C4  UNL     1      -1.881  11.927   7.042  1.00  0.00     0.031 C 
HETATM   13  C5  UNL     1      -0.692  11.759   6.169  1.00  0.00     0.083 C 
HETATM   14  C7  UNL     1      -2.063  13.397   7.186  1.00  0.00     0.286 C 
HETATM   15  C6  UNL     1      -0.298  13.179   5.808  1.00  0.00     0.238 C 
HETATM   16  N4  UNL     1      -1.578  13.863   5.882  1.00  0.00    -0.070 N 
ATOM     17  H42 UNL     1      -1.542  14.876   5.762  1.00  0.00     0.277 HD
ATOM     18  H41 UNL     1      -2.208  13.705   5.096  1.00  0.00     0.277 HD
ATOM     19  H3  UNL     1      -3.386  11.221   8.137  1.00  0.00     0.186 HD
ENDBRANCH   1  11
TORSDOF 2
ENDMDL
MODEL 2
REMARK VINA RESULT: -5.578705017      1.038      1.352
REMARK  2 active torsions:
REMARK  status: ('A' for Active; 'I' for Inactive)
REMARK    1  A    between atoms: C3_6  and  N2_7 
REMARK    2  A    between atoms: N2_7  and  N3_9 
ROOT
HETATM    1  N2  UNL     1      -2.655  10.454   8.004  1.00  0.00    -0.271 N 
ATOM      2  H2  UNL     1      -2.738  11.211   8.683  1.00  0.00     0.190 HD
ENDROOT
BRANCH   1   3
HETATM    3  C3  UNL     1      -3.311   9.211   8.229  1.00  0.00     0.197 A 
HETATM    4  N1  UNL     1      -3.512   8.343   7.297  1.00  0.00    -0.352 N 
HETATM    5  C2  UNL     1      -4.196   7.175   7.793  1.00  0.00     0.225 A 
ATOM      6  H1  UNL     1      -3.223   8.468   6.327  1.00  0.00     0.163 HD
HETATM    7  C1  UNL     1      -4.400   7.454   9.231  1.00  0.00     0.242 A 
HETATM    8  O1  UNL     1      -4.967   6.709  10.101  1.00  0.00    -0.271 OA
HETATM    9  N5  UNL     1      -3.833   8.736   9.463  1.00  0.00    -0.296 N 
ATOM     10  H5  UNL     1      -3.805   9.228  10.356  1.00  0.00     0.172 HD
ENDBRANCH   1   3
BRANCH   1  11
HETATM   11  N3  UNL     1      -1.900  10.624   6.851  1.00  0.00    -0.304 N 
HETATM   12  C4  UNL     1      -1.199  11.678   6.689  1.00  0.00     0.031 C 
HETATM   13  C5  UNL     1      -1.083  12.812   7.640  1.00  0.00     0.083 C 
HETATM   14  C7  UNL     1      -0.334  12.039   5.534  1.00  0.00     0.286 C 
HETATM   15  C6  UNL     1      -0.083  13.742   6.981  1.00  0.00     0.238 C 
HETATM   16  N4  UNL     1       0.718  12.809   6.208  1.00  0.00    -0.070 N 
ATOM     17  H42 UNL     1       1.416  13.230   5.595  1.00  0.00     0.277 HD
ATOM     18  H41 UNL     1       1.391  12.259   6.743  1.00  0.00     0.277 HD
ATOM     19  H3  UNL     1      -1.906   9.903   6.130  1.00  0.00     0.186 HD
ENDBRANCH   1  11
TORSDOF 2
ENDMDL
MODEL 3
REMARK VINA RESULT: -5.478651436      4.892      8.636
REMARK  2 active torsions:
REMARK  status: ('A' for Active; 'I' for Inactive)
REMARK    1  A    between atoms: C3_6  and  N2_7 
REMARK    2  A    between atoms: N2_7  and  N3_9 
ROOT
HETATM    1  N2  UNL     1      -6.308   5.827  10.500  1.00  0.00    -0.271 N 
ATOM      2  H2  UNL     1      -6.608   6.345  11.326  1.00  0.00     0.190 HD
ENDROOT
BRANCH   1   3
HETATM    3  C3  UNL     1      -5.797   6.517   9.364  1.00  0.00     0.197 A 
HETATM    4  N1  UNL     1      -6.493   7.360   8.681  1.00  0.00    -0.352 N 
HETATM    5  C2  UNL     1      -5.737   7.914   7.587  1.00  0.00     0.225 A 
ATOM      6  H1  UNL     1      -7.460   7.605   8.890  1.00  0.00     0.163 HD
HETATM    7  C1  UNL     1      -4.412   7.264   7.691  1.00  0.00     0.242 A 
HETATM    8  O1  UNL     1      -3.395   7.434   6.937  1.00  0.00    -0.271 OA
HETATM    9  N5  UNL     1      -4.491   6.399   8.815  1.00  0.00    -0.296 N 
ATOM     10  H5  UNL     1      -3.744   5.799   9.165  1.00  0.00     0.172 HD
ENDBRANCH   1   3
BRANCH   1  11
HETATM   11  N3  UNL     1      -6.394   4.441  10.469  1.00  0.00    -0.304 N 
HETATM   12  C4  UNL     1      -7.530   3.867  10.389  1.00  0.00     0.031 C 
HETATM   13  C5  UNL     1      -8.852   4.540  10.319  1.00  0.00     0.083 C 
HETATM   14  C7  UNL     1      -7.825   2.410  10.345  1.00  0.00     0.286 C 
HETATM   15  C6  UNL     1      -9.838   3.397  10.170  1.00  0.00     0.238 C 
HETATM   16  N4  UNL     1      -9.025   2.397   9.501  1.00  0.00    -0.070 N 
ATOM     17  H42 UNL     1      -9.465   1.484   9.375  1.00  0.00     0.277 HD
ATOM     18  H41 UNL     1      -8.865   2.554   8.506  1.00  0.00     0.277 HD
ATOM     19  H3  UNL     1      -5.544   3.879  10.511  1.00  0.00     0.186 HD
ENDBRANCH   1  11
TORSDOF 2
ENDMDL
MODEL 4
REMARK VINA RESULT: -5.389866520      3.318      6.124
REMARK  2 active torsions:
REMARK  status: ('A' for Active; 'I' for Inactive)
REMARK    1  A    between atoms: C3_6  and  N2_7 
REMARK    2  A    between atoms: N2_7  and  N3_9 
ROOT
HETATM    1  N2  UNL     1      -1.890  10.869   7.069  1.00  0.00    -0.271 N 
ATOM      2  H2  UNL     1      -2.137  11.521   7.813  1.00  0.00     0.190 HD
ENDROOT
BRANCH   1   3
HETATM    3  C3  UNL     1      -1.166  11.320   5.929  1.00  0.00     0.197 A 
HETATM    4  N1  UNL     1       0.107  11.523   5.939  1.00  0.00    -0.352 N 
HETATM    5  C2  UNL     1       0.586  11.975   4.657  1.00  0.00     0.225 A 
ATOM      6  H1  UNL     1       0.702  11.381   6.754  1.00  0.00     0.163 HD
HETATM    7  C1  UNL     1      -0.627  12.026   3.811  1.00  0.00     0.242 A 
HETATM    8  O1  UNL     1      -0.711  12.371   2.584  1.00  0.00    -0.271 OA
HETATM    9  N5  UNL     1      -1.699  11.609   4.643  1.00  0.00    -0.296 N 
ATOM     10  H5  UNL     1      -2.679  11.532   4.368  1.00  0.00     0.172 HD
ENDBRANCH   1   3
BRANCH   1  11
HETATM   11  N3  UNL     1      -2.255   9.532   7.156  1.00  0.00    -0.304 N 
HETATM   12  C4  UNL     1      -3.050   9.139   8.073  1.00  0.00     0.031 C 
HETATM   13  C5  UNL     1      -3.671   9.988   9.122  1.00  0.00     0.083 C 
HETATM   14  C7  UNL     1      -3.553   7.763   8.328  1.00  0.00     0.286 C 
HETATM   15  C6  UNL     1      -4.563   9.030   9.888  1.00  0.00     0.238 C 
HETATM   16  N4  UNL     1      -4.888   8.052   8.864  1.00  0.00    -0.070 N 
ATOM     17  H42 UNL     1      -5.420   7.242   9.183  1.00  0.00     0.277 HD
ATOM     18  H41 UNL     1      -5.583   8.348   8.178  1.00  0.00     0.277 HD
ATOM     19  H3  UNL     1      -1.886   8.861   6.483  1.00  0.00     0.186 HD
ENDBRANCH   1  11
TORSDOF 2
ENDMDL
MODEL 5
REMARK VINA RESULT: -5.318804746      4.312      6.431
REMARK  2 active torsions:
REMARK  status: ('A' for Active; 'I' for Inactive)
REMARK    1  A    between atoms: C3_6  and  N2_7 
REMARK    2  A    between atoms: N2_7  and  N3_9 
ROOT
HETATM    1  N2  UNL     1      -5.922   5.580  10.353  1.00  0.00    -0.271 N 
ATOM      2  H2  UNL     1      -5.232   5.992  10.982  1.00  0.00     0.190 HD
ENDROOT
BRANCH   1   3
HETATM    3  C3  UNL     1      -6.892   4.664  10.851  1.00  0.00     0.197 A 
HETATM    4  N1  UNL     1      -7.566   4.871  11.930  1.00  0.00    -0.352 N 
HETATM    5  C2  UNL     1      -8.477   3.789  12.205  1.00  0.00     0.225 A 
ATOM      6  H1  UNL     1      -7.467   5.699  12.517  1.00  0.00     0.163 HD
HETATM    7  C1  UNL     1      -8.263   2.838  11.093  1.00  0.00     0.242 A 
HETATM    8  O1  UNL     1      -8.845   1.717  10.898  1.00  0.00    -0.271 OA
HETATM    9  N5  UNL     1      -7.264   3.422  10.269  1.00  0.00    -0.296 N 
ATOM     10  H5  UNL     1      -6.882   3.021   9.412  1.00  0.00     0.172 HD
ENDBRANCH   1   3
BRANCH   1  11
HETATM   11  N3  UNL     1      -5.927   5.907   9.004  1.00  0.00    -0.304 N 
HETATM   12  C4  UNL     1      -5.158   6.822   8.559  1.00  0.00     0.031 C 
HETATM   13  C5  UNL     1      -4.199   7.629   9.355  1.00  0.00     0.083 C 
HETATM   14  C7  UNL     1      -5.021   7.310   7.160  1.00  0.00     0.286 C 
HETATM   15  C6  UNL     1      -3.511   8.504   8.325  1.00  0.00     0.238 C 
HETATM   16  N4  UNL     1      -3.600   7.675   7.135  1.00  0.00    -0.070 N 
ATOM     17  H42 UNL     1      -3.272   8.110   6.271  1.00  0.00     0.277 HD
ATOM     18  H41 UNL     1      -2.945   6.894   7.093  1.00  0.00     0.277 HD
ATOM     19  H3  UNL     1      -6.549   5.412   8.364  1.00  0.00     0.186 HD
ENDBRANCH   1  11
TORSDOF 2
ENDMDL
