MODEL 1
REMARK VINA RESULT: -5.442722033      0.000      0.000
REMARK  3 active torsions:
REMARK  status: ('A' for Active; 'I' for Inactive)
REMARK    1  A    between atoms: C2_5  and  N3_6 
REMARK    2  A    between atoms: C2_5  and  C3_11 
REMARK    3  A    between atoms: N3_6  and  N4_8 
ROOT
HETATM    1  N1  UNL     1      -6.434   4.924  10.705  1.00  0.00    -0.172 NA
HETATM    2  C1  UNL     1      -5.978   5.927  10.349  1.00  0.00     0.183 C 
HETATM    3  N2  UNL     1      -5.416   7.129   9.937  1.00  0.00    -0.276 N 
ATOM      4  H2  UNL     1      -5.613   7.964  10.488  1.00  0.00     0.179 HD
HETATM    5  C2  UNL     1      -4.662   7.251   8.902  1.00  0.00     0.157 C 
ENDROOT
BRANCH   5   6
HETATM    6  N3  UNL     1      -4.383   6.092   8.129  1.00  0.00    -0.290 N 
ATOM      7  H3  UNL     1      -3.865   5.303   8.514  1.00  0.00     0.188 HD
BRANCH   6   8
HETATM    8  N4  UNL     1      -4.857   6.088   6.805  1.00  0.00    -0.344 N 
ATOM      9  H42 UNL     1      -4.247   6.356   6.032  1.00  0.00     0.176 HD
ATOM     10  H41 UNL     1      -5.827   5.806   6.667  1.00  0.00     0.176 HD
ENDBRANCH   6   8
ENDBRANCH   5   6
BRANCH   5  11
HETATM   11  C3  UNL     1      -4.082   8.505   8.483  1.00  0.00     0.094 A 
HETATM   12  C4  UNL     1      -2.867   8.505   7.836  1.00  0.00     0.124 A 
HETATM   13  N5  UNL     1      -2.377   9.704   7.470  1.00  0.00    -0.330 N 
HETATM   14  C5  UNL     1      -3.007  10.861   7.706  1.00  0.00     0.260 A 
ATOM     15  H5  UNL     1      -1.478   9.733   6.988  1.00  0.00     0.168 HD
HETATM   16  O1  UNL     1      -2.490  11.954   7.335  1.00  0.00    -0.267 OA
HETATM   17  C6  UNL     1      -4.235  10.846   8.361  1.00  0.00     0.163 A 
HETATM   18  N6  UNL     1      -4.730   9.671   8.727  1.00  0.00    -0.357 N 
ATOM     19  H6  UNL     1      -5.629   9.643   9.209  1.00  0.00     0.165 HD
ENDBRANCH   5  11
TORSDOF 3
ENDMDL
MODEL 2
REMARK VINA RESULT: -5.150345593      1.783      2.635
REMARK  3 active torsions:
REMARK  status: ('A' for Active; 'I' for Inactive)
REMARK    1  A    between atoms: C2_5  and  N3_6 
REMARK    2  A    between atoms: C2_5  and  C3_11 
REMARK    3  A    between atoms: N3_6  and  N4_8 
ROOT
HETATM    1  N1  UNL     1      -7.995   3.689  11.317  1.00  0.00    -0.172 NA
HETATM    2  C1  UNL     1      -7.161   4.364  10.883  1.00  0.00     0.183 C 
HETATM    3  N2  UNL     1      -6.153   5.158  10.350  1.00  0.00    -0.276 N 
ATOM      4  H2  UNL     1      -5.193   4.973  10.639  1.00  0.00     0.179 HD
HETATM    5  C2  UNL     1      -6.360   6.113   9.513  1.00  0.00     0.157 C 
ENDROOT
BRANCH   5   6
HETATM    6  N3  UNL     1      -7.695   6.378   9.106  1.00  0.00    -0.290 N 
ATOM      7  H3  UNL     1      -8.349   5.625   8.891  1.00  0.00     0.188 HD
BRANCH   6   8
HETATM    8  N4  UNL     1      -8.070   7.730   9.012  1.00  0.00    -0.344 N 
ATOM      9  H42 UNL     1      -8.786   8.116   9.628  1.00  0.00     0.176 HD
ATOM     10  H41 UNL     1      -7.592   8.289   8.307  1.00  0.00     0.176 HD
ENDBRANCH   6   8
ENDBRANCH   5   6
BRANCH   5  11
HETATM   11  C3  UNL     1      -5.305   6.932   8.963  1.00  0.00     0.094 A 
HETATM   12  C4  UNL     1      -4.945   6.776   7.644  1.00  0.00     0.124 A 
HETATM   13  N5  UNL     1      -3.956   7.566   7.189  1.00  0.00    -0.330 N 
HETATM   14  C5  UNL     1      -3.327   8.471   7.949  1.00  0.00     0.260 A 
ATOM     15  H5  UNL     1      -3.671   7.471   6.214  1.00  0.00     0.168 HD
HETATM   16  O1  UNL     1      -2.405   9.183   7.457  1.00  0.00    -0.267 OA
HETATM   17  C6  UNL     1      -3.701   8.618   9.281  1.00  0.00     0.163 A 
HETATM   18  N6  UNL     1      -4.675   7.846   9.743  1.00  0.00    -0.357 N 
ATOM     19  H6  UNL     1      -4.961   7.942  10.717  1.00  0.00     0.165 HD
ENDBRANCH   5  11
TORSDOF 3
ENDMDL
MODEL 3
REMARK VINA RESULT: -5.070975809      3.225      4.445
REMARK  3 active torsions:
REMARK  status: ('A' for Active; 'I' for Inactive)
REMARK    1  A    between atoms: C2_5  and  N3_6 
REMARK    2  A    between atoms: C2_5  and  C3_11 
REMARK    3  A    between atoms: N3_6  and  N4_8 
ROOT
HETATM    1  N1  UNL     1      -2.652  11.019  11.454  1.00  0.00    -0.172 NA
HETATM    2  C1  UNL     1      -3.491  10.748  10.703  1.00  0.00     0.183 C 
HETATM    3  N2  UNL     1      -4.498  10.442   9.796  1.00  0.00    -0.276 N 
ATOM      4  H2  UNL     1      -5.438  10.785   9.990  1.00  0.00     0.179 HD
HETATM    5  C2  UNL     1      -4.314   9.752   8.727  1.00  0.00     0.157 C 
ENDROOT
BRANCH   5   6
HETATM    6  N3  UNL     1      -3.006   9.269   8.450  1.00  0.00    -0.290 N 
ATOM      7  H3  UNL     1      -2.577   8.533   9.010  1.00  0.00     0.188 HD
BRANCH   6   8
HETATM    8  N4  UNL     1      -2.334   9.858   7.364  1.00  0.00    -0.344 N 
ATOM      9  H42 UNL     1      -2.724   9.814   6.423  1.00  0.00     0.176 HD
ATOM     10  H41 UNL     1      -1.450  10.322   7.571  1.00  0.00     0.176 HD
ENDBRANCH   6   8
ENDBRANCH   5   6
BRANCH   5  11
HETATM   11  C3  UNL     1      -5.368   9.440   7.789  1.00  0.00     0.094 A 
HETATM   12  C4  UNL     1      -5.554   8.136   7.391  1.00  0.00     0.124 A 
HETATM   13  N5  UNL     1      -6.551   7.908   6.516  1.00  0.00    -0.330 N 
HETATM   14  C5  UNL     1      -7.342   8.873   6.032  1.00  0.00     0.260 A 
ATOM     15  H5  UNL     1      -6.711   6.950   6.205  1.00  0.00     0.168 HD
HETATM   16  O1  UNL     1      -8.262   8.588   5.212  1.00  0.00    -0.267 OA
HETATM   17  C6  UNL     1      -7.142  10.187   6.444  1.00  0.00     0.163 A 
HETATM   18  N6  UNL     1      -6.163  10.426   7.306  1.00  0.00    -0.357 N 
ATOM     19  H6  UNL     1      -6.004  11.385   7.617  1.00  0.00     0.165 HD
ENDBRANCH   5  11
TORSDOF 3
ENDMDL
MODEL 4
REMARK VINA RESULT: -5.014515901      3.269      5.620
REMARK  3 active torsions:
REMARK  status: ('A' for Active; 'I' for Inactive)
REMARK    1  A    between atoms: C2_5  and  N3_6 
REMARK    2  A    between atoms: C2_5  and  C3_11 
REMARK    3  A    between atoms: N3_6  and  N4_8 
ROOT
HETATM    1  N1  UNL     1      -2.646   9.084   7.798  1.00  0.00    -0.172 NA
HETATM    2  C1  UNL     1      -3.546   8.644   8.379  1.00  0.00     0.183 C 
HETATM    3  N2  UNL     1      -4.639   8.128   9.064  1.00  0.00    -0.276 N 
ATOM      4  H2  UNL     1      -5.128   8.740   9.718  1.00  0.00     0.179 HD
HETATM    5  C2  UNL     1      -5.071   6.925   8.923  1.00  0.00     0.157 C 
ENDROOT
BRANCH   5   6
HETATM    6  N3  UNL     1      -4.395   6.066   8.015  1.00  0.00    -0.290 N 
ATOM      7  H3  UNL     1      -3.606   5.492   8.309  1.00  0.00     0.188 HD
BRANCH   6   8
HETATM    8  N4  UNL     1      -4.870   6.048   6.692  1.00  0.00    -0.344 N 
ATOM      9  H42 UNL     1      -5.579   5.375   6.401  1.00  0.00     0.176 HD
ATOM     10  H41 UNL     1      -4.471   6.736   6.053  1.00  0.00     0.176 HD
ENDBRANCH   6   8
ENDBRANCH   5   6
BRANCH   5  11
HETATM   11  C3  UNL     1      -6.210   6.399   9.640  1.00  0.00     0.094 A 
HETATM   12  C4  UNL     1      -7.397   7.096   9.628  1.00  0.00     0.124 A 
HETATM   13  N5  UNL     1      -8.421   6.556  10.314  1.00  0.00    -0.330 N 
HETATM   14  C5  UNL     1      -8.331   5.403  10.987  1.00  0.00     0.260 A 
ATOM     15  H5  UNL     1      -9.313   7.052  10.321  1.00  0.00     0.168 HD
HETATM   16  O1  UNL     1      -9.335   4.951  11.610  1.00  0.00    -0.267 OA
HETATM   17  C6  UNL     1      -7.125   4.709  10.989  1.00  0.00     0.163 A 
HETATM   18  N6  UNL     1      -6.107   5.229  10.317  1.00  0.00    -0.357 N 
ATOM     19  H6  UNL     1      -5.216   4.732  10.310  1.00  0.00     0.165 HD
ENDBRANCH   5  11
TORSDOF 3
ENDMDL
MODEL 5
REMARK VINA RESULT: -5.001139113      2.460      2.766
REMARK  3 active torsions:
REMARK  status: ('A' for Active; 'I' for Inactive)
REMARK    1  A    between atoms: C2_5  and  N3_6 
REMARK    2  A    between atoms: C2_5  and  C3_11 
REMARK    3  A    between atoms: N3_6  and  N4_8 
ROOT
HETATM    1  N1  UNL     1      -6.556   4.610  11.117  1.00  0.00    -0.172 NA
HETATM    2  C1  UNL     1      -6.746   5.510  10.414  1.00  0.00     0.183 C 
HETATM    3  N2  UNL     1      -6.978   6.603   9.588  1.00  0.00    -0.276 N 
ATOM      4  H2  UNL     1      -7.942   6.909   9.457  1.00  0.00     0.179 HD
HETATM    5  C2  UNL     1      -6.050   7.251   8.978  1.00  0.00     0.157 C 
ENDROOT
BRANCH   5   6
HETATM    6  N3  UNL     1      -4.704   6.830   9.154  1.00  0.00    -0.290 N 
ATOM      7  H3  UNL     1      -4.183   7.045  10.004  1.00  0.00     0.188 HD
BRANCH   6   8
HETATM    8  N4  UNL     1      -4.127   6.103   8.099  1.00  0.00    -0.344 N 
ATOM      9  H42 UNL     1      -3.113   6.037   8.003  1.00  0.00     0.176 HD
ATOM     10  H41 UNL     1      -4.770   5.654   7.447  1.00  0.00     0.176 HD
ENDBRANCH   6   8
ENDBRANCH   5   6
BRANCH   5  11
HETATM   11  C3  UNL     1      -6.302   8.386   8.122  1.00  0.00     0.094 A 
HETATM   12  C4  UNL     1      -5.350   9.375   8.013  1.00  0.00     0.124 A 
HETATM   13  N5  UNL     1      -5.642  10.408   7.201  1.00  0.00    -0.330 N 
HETATM   14  C5  UNL     1      -6.787  10.507   6.517  1.00  0.00     0.260 A 
ATOM     15  H5  UNL     1      -4.953  11.154   7.102  1.00  0.00     0.168 HD
HETATM   16  O1  UNL     1      -6.997  11.506   5.770  1.00  0.00    -0.267 OA
HETATM   17  C6  UNL     1      -7.740   9.500   6.636  1.00  0.00     0.163 A 
HETATM   18  N6  UNL     1      -7.466   8.475   7.433  1.00  0.00    -0.357 N 
ATOM     19  H6  UNL     1      -8.155   7.729   7.531  1.00  0.00     0.165 HD
ENDBRANCH   5  11
TORSDOF 3
ENDMDL
