MODEL 1
REMARK VINA RESULT: -6.572557495      0.000      0.000
REMARK  10 active torsions:
REMARK  status: ('A' for Active; 'I' for Inactive)
REMARK    1  A    between atoms: C3_3  and  N1_4 
REMARK    2  A    between atoms: N1_4  and  N2_5 
REMARK    3  A    between atoms: C4_8  and  C5_9 
REMARK    4  A    between atoms: C6_10  and  C7_11 
REMARK    5  A    between atoms: C8_12  and  C9_13 
REMARK    6  A    between atoms: C9_13  and  C11_15 
REMARK    7  A    between atoms: C11_15  and  N3_16 
REMARK       I    between atoms: N3_16  and  C12_17 
REMARK    8  A    between atoms: C12_17  and  C13_19 
REMARK    9  A    between atoms: C13_19  and  C14_20 
REMARK   10  A    between atoms: C20_31  and  N6_32 
REMARK       I    between atoms: N6_32  and  C21_34 
ROOT
HETATM    1  C5  UNL     1      89.201  97.561 -45.382  1.00  0.00    -0.015 C 
HETATM    2  C6  UNL     1      90.032  96.740 -45.994  1.00  0.00    -0.004 C 
ENDROOT
BRANCH   1   3
HETATM    3  C4  UNL     1      88.504  98.668 -46.068  1.00  0.00     0.076 C 
HETATM    4  C3  UNL     1      88.217  99.803 -45.175  1.00  0.00     0.123 C 
HETATM    5  C2  UNL     1      86.940 100.018 -44.528  1.00  0.00    -0.005 C 
HETATM    6  C1  UNL     1      86.706 101.140 -43.822  1.00  0.00     0.024 C 
HETATM    7  C20 UNL     1      85.872  99.008 -44.631  1.00  0.00     0.123 C 
HETATM    8  C18 UNL     1      86.320  97.843 -45.446  1.00  0.00     0.010 C 
HETATM    9  C17 UNL     1      87.155  98.225 -46.640  1.00  0.00     0.022 C 
HETATM   10  C19 UNL     1      85.199  96.959 -45.900  1.00  0.00     0.012 C 
BRANCH   4  11
HETATM   11  N1  UNL     1      89.146 100.638 -44.965  1.00  0.00    -0.336 NA
BRANCH  11  12
HETATM   12  N2  UNL     1      90.213 101.228 -44.729  1.00  0.00    -0.280 N 
ATOM     13  H22 UNL     1      90.385 101.368 -45.724  1.00  0.00     0.191 HD
ATOM     14  H21 UNL     1      91.034 101.671 -44.317  1.00  0.00     0.191 HD
ENDBRANCH  11  12
ENDBRANCH   4  11
BRANCH   7  15
HETATM   15  N6  UNL     1      84.622  99.568 -45.070  1.00  0.00    -0.352 N 
HETATM   16  C21 UNL     1      83.498  99.711 -44.220  1.00  0.00     0.214 C 
HETATM   17  C22 UNL     1      82.226 100.288 -44.689  1.00  0.00     0.117 C 
HETATM   18  O3  UNL     1      83.629  99.316 -43.015  1.00  0.00    -0.274 OA
ATOM     19  H6  UNL     1      84.542  99.878 -46.039  1.00  0.00     0.163 HD
ENDBRANCH   7  15
ENDBRANCH   1   3
BRANCH   2  20
HETATM   20  C7  UNL     1      90.702  95.666 -45.302  1.00  0.00    -0.004 C 
HETATM   21  C8  UNL     1      91.160  94.638 -45.980  1.00  0.00    -0.016 C 
BRANCH  21  22
HETATM   22  C9  UNL     1      91.860  93.483 -45.372  1.00  0.00     0.056 C 
HETATM   23  C10 UNL     1      91.697  92.313 -46.338  1.00  0.00     0.021 C 
BRANCH  22  24
HETATM   24  C11 UNL     1      91.247  93.075 -44.066  1.00  0.00     0.167 C 
BRANCH  24  25
HETATM   25  N3  UNL     1      91.694  93.323 -42.997  1.00  0.00    -0.387 NA
HETATM   26  C12 UNL     1      92.202  93.692 -41.842  1.00  0.00     0.296 C 
HETATM   27  O1  UNL     1      93.350  93.243 -41.464  1.00  0.00    -0.257 OA
BRANCH  26  28
HETATM   28  C13 UNL     1      91.495  94.632 -40.924  1.00  0.00     0.177 C 
BRANCH  28  29
HETATM   29  C14 UNL     1      91.640  96.036 -41.314  1.00  0.00     0.039 A 
HETATM   30  C15 UNL     1      92.300  96.985 -40.551  1.00  0.00     0.118 A 
HETATM   31  N4  UNL     1      92.251  98.169 -41.196  1.00  0.00    -0.317 N 
HETATM   32  C16 UNL     1      91.585  98.004 -42.336  1.00  0.00     0.324 A 
ATOM     33  H4  UNL     1      92.656  99.044 -40.865  1.00  0.00     0.170 HD
HETATM   34  O2  UNL     1      91.359  98.915 -43.175  1.00  0.00    -0.247 OA
HETATM   35  N5  UNL     1      91.216  96.707 -42.404  1.00  0.00    -0.311 N 
ATOM     36  H5  UNL     1      90.690  96.292 -43.172  1.00  0.00     0.170 HD
ENDBRANCH  28  29
ENDBRANCH  26  28
ENDBRANCH  24  25
ENDBRANCH  22  24
ENDBRANCH  21  22
ENDBRANCH   2  20
TORSDOF 10
ENDMDL
MODEL 2
REMARK VINA RESULT: -6.259846670      2.597      3.510
REMARK  10 active torsions:
REMARK  status: ('A' for Active; 'I' for Inactive)
REMARK    1  A    between atoms: C3_3  and  N1_4 
REMARK    2  A    between atoms: N1_4  and  N2_5 
REMARK    3  A    between atoms: C4_8  and  C5_9 
REMARK    4  A    between atoms: C6_10  and  C7_11 
REMARK    5  A    between atoms: C8_12  and  C9_13 
REMARK    6  A    between atoms: C9_13  and  C11_15 
REMARK    7  A    between atoms: C11_15  and  N3_16 
REMARK       I    between atoms: N3_16  and  C12_17 
REMARK    8  A    between atoms: C12_17  and  C13_19 
REMARK    9  A    between atoms: C13_19  and  C14_20 
REMARK   10  A    between atoms: C20_31  and  N6_32 
REMARK       I    between atoms: N6_32  and  C21_34 
ROOT
HETATM    1  C5  UNL     1      89.238  97.234 -46.193  1.00  0.00    -0.015 C 
HETATM    2  C6  UNL     1      90.372  96.734 -45.739  1.00  0.00    -0.004 C 
ENDROOT
BRANCH   1   3
HETATM    3  C4  UNL     1      88.997  98.683 -46.349  1.00  0.00     0.076 C 
HETATM    4  C3  UNL     1      90.234  99.478 -46.285  1.00  0.00     0.123 C 
HETATM    5  C2  UNL     1      90.699 100.155 -45.093  1.00  0.00    -0.005 C 
HETATM    6  C1  UNL     1      91.774 100.965 -45.137  1.00  0.00     0.024 C 
HETATM    7  C20 UNL     1      90.002  99.967 -43.809  1.00  0.00     0.123 C 
HETATM    8  C18 UNL     1      88.847  99.038 -43.964  1.00  0.00     0.010 C 
HETATM    9  C17 UNL     1      88.084  99.229 -45.248  1.00  0.00     0.022 C 
HETATM   10  C19 UNL     1      87.884  99.079 -42.816  1.00  0.00     0.012 C 
BRANCH   4  11
HETATM   11  N1  UNL     1      90.929  99.573 -47.341  1.00  0.00    -0.336 NA
BRANCH  11  12
HETATM   12  N2  UNL     1      91.502  99.922 -48.386  1.00  0.00    -0.280 N 
ATOM     13  H22 UNL     1      90.611 100.002 -48.877  1.00  0.00     0.191 HD
ATOM     14  H21 UNL     1      92.161 100.186 -49.118  1.00  0.00     0.191 HD
ENDBRANCH  11  12
ENDBRANCH   4  11
BRANCH   7  15
HETATM   15  N6  UNL     1      89.656 101.213 -43.181  1.00  0.00    -0.352 N 
HETATM   16  C21 UNL     1      90.238 101.654 -41.967  1.00  0.00     0.214 C 
HETATM   17  C22 UNL     1      89.870 102.936 -41.338  1.00  0.00     0.117 C 
HETATM   18  O3  UNL     1      91.106 100.891 -41.429  1.00  0.00    -0.274 OA
ATOM     19  H6  UNL     1      88.960 101.808 -43.630  1.00  0.00     0.163 HD
ENDBRANCH   7  15
ENDBRANCH   1   3
BRANCH   2  20
HETATM   20  C7  UNL     1      90.584  95.315 -45.595  1.00  0.00    -0.004 C 
HETATM   21  C8  UNL     1      91.807  94.834 -45.595  1.00  0.00    -0.016 C 
BRANCH  21  22
HETATM   22  C9  UNL     1      92.138  93.398 -45.456  1.00  0.00     0.056 C 
HETATM   23  C10 UNL     1      91.521  92.686 -46.657  1.00  0.00     0.021 C 
BRANCH  22  24
HETATM   24  C11 UNL     1      91.536  92.797 -44.221  1.00  0.00     0.167 C 
BRANCH  24  25
HETATM   25  N3  UNL     1      91.816  93.099 -43.110  1.00  0.00    -0.387 NA
HETATM   26  C12 UNL     1      92.135  93.529 -41.909  1.00  0.00     0.296 C 
HETATM   27  O1  UNL     1      93.265  93.207 -41.381  1.00  0.00    -0.257 OA
BRANCH  26  28
HETATM   28  C13 UNL     1      91.224  94.398 -41.107  1.00  0.00     0.177 C 
BRANCH  28  29
HETATM   29  C14 UNL     1      91.648  95.800 -41.072  1.00  0.00     0.039 A 
HETATM   30  C15 UNL     1      91.414  96.702 -42.095  1.00  0.00     0.118 A 
HETATM   31  N4  UNL     1      91.931  97.898 -41.744  1.00  0.00    -0.317 N 
HETATM   32  C16 UNL     1      92.483  97.784 -40.538  1.00  0.00     0.324 A 
ATOM     33  H4  UNL     1      91.904  98.747 -42.308  1.00  0.00     0.170 HD
HETATM   34  O2  UNL     1      93.055  98.718 -39.918  1.00  0.00    -0.247 OA
HETATM   35  N5  UNL     1      92.309  96.508 -40.134  1.00  0.00    -0.311 N 
ATOM     36  H5  UNL     1      92.631  96.131 -39.243  1.00  0.00     0.170 HD
ENDBRANCH  28  29
ENDBRANCH  26  28
ENDBRANCH  24  25
ENDBRANCH  22  24
ENDBRANCH  21  22
ENDBRANCH   2  20
TORSDOF 10
ENDMDL
MODEL 3
REMARK VINA RESULT: -6.047268289      5.511      8.233
REMARK  10 active torsions:
REMARK  status: ('A' for Active; 'I' for Inactive)
REMARK    1  A    between atoms: C3_3  and  N1_4 
REMARK    2  A    between atoms: N1_4  and  N2_5 
REMARK    3  A    between atoms: C4_8  and  C5_9 
REMARK    4  A    between atoms: C6_10  and  C7_11 
REMARK    5  A    between atoms: C8_12  and  C9_13 
REMARK    6  A    between atoms: C9_13  and  C11_15 
REMARK    7  A    between atoms: C11_15  and  N3_16 
REMARK       I    between atoms: N3_16  and  C12_17 
REMARK    8  A    between atoms: C12_17  and  C13_19 
REMARK    9  A    between atoms: C13_19  and  C14_20 
REMARK   10  A    between atoms: C20_31  and  N6_32 
REMARK       I    between atoms: N6_32  and  C21_34 
ROOT
HETATM    1  C5  UNL     1      90.760  91.689 -48.943  1.00  0.00    -0.015 C 
HETATM    2  C6  UNL     1      91.630  91.567 -47.958  1.00  0.00    -0.004 C 
ENDROOT
BRANCH   1   3
HETATM    3  C4  UNL     1      90.867  90.945 -50.214  1.00  0.00     0.076 C 
HETATM    4  C3  UNL     1      90.446  91.741 -51.378  1.00  0.00     0.123 C 
HETATM    5  C2  UNL     1      89.131  91.660 -51.979  1.00  0.00    -0.005 C 
HETATM    6  C1  UNL     1      88.852  92.325 -53.116  1.00  0.00     0.024 C 
HETATM    7  C20 UNL     1      88.074  90.845 -51.354  1.00  0.00     0.123 C 
HETATM    8  C18 UNL     1      88.574  90.193 -50.110  1.00  0.00     0.010 C 
HETATM    9  C17 UNL     1      89.989  89.691 -50.216  1.00  0.00     0.022 C 
HETATM   10  C19 UNL     1      87.698  89.080 -49.622  1.00  0.00     0.012 C 
BRANCH   4  11
HETATM   11  N1  UNL     1      91.288  92.543 -51.881  1.00  0.00    -0.336 NA
BRANCH  11  12
HETATM   12  N2  UNL     1      92.287  93.111 -52.353  1.00  0.00    -0.280 N 
ATOM     13  H22 UNL     1      92.913  92.476 -51.859  1.00  0.00     0.191 HD
ATOM     14  H21 UNL     1      92.951  93.710 -52.844  1.00  0.00     0.191 HD
ENDBRANCH  11  12
ENDBRANCH   4  11
BRANCH   7  15
HETATM   15  N6  UNL     1      87.464  89.928 -52.278  1.00  0.00    -0.352 N 
HETATM   16  C21 UNL     1      86.093  89.985 -52.631  1.00  0.00     0.214 C 
HETATM   17  C22 UNL     1      85.486  89.034 -53.580  1.00  0.00     0.117 C 
HETATM   18  O3  UNL     1      85.393  90.901 -52.090  1.00  0.00    -0.274 OA
ATOM     19  H6  UNL     1      88.045  89.203 -52.699  1.00  0.00     0.163 HD
ENDBRANCH   7  15
ENDBRANCH   1   3
BRANCH   2  20
HETATM   20  C7  UNL     1      91.504  92.305 -46.725  1.00  0.00    -0.004 C 
HETATM   21  C8  UNL     1      91.655  93.610 -46.726  1.00  0.00    -0.016 C 
BRANCH  21  22
HETATM   22  C9  UNL     1      91.549  94.464 -45.521  1.00  0.00     0.056 C 
HETATM   23  C10 UNL     1      91.280  93.530 -44.344  1.00  0.00     0.021 C 
BRANCH  22  24
HETATM   24  C11 UNL     1      90.397  95.419 -45.606  1.00  0.00     0.167 C 
BRANCH  24  25
HETATM   25  N3  UNL     1      90.487  96.600 -45.562  1.00  0.00    -0.387 NA
HETATM   26  C12 UNL     1      90.487  97.913 -45.502  1.00  0.00     0.296 C 
HETATM   27  O1  UNL     1      90.793  98.612 -46.541  1.00  0.00    -0.257 OA
BRANCH  26  28
HETATM   28  C13 UNL     1      90.140  98.654 -44.253  1.00  0.00     0.177 C 
BRANCH  28  29
HETATM   29  C14 UNL     1      90.918  98.219 -43.091  1.00  0.00     0.039 A 
HETATM   30  C15 UNL     1      91.692  99.068 -42.320  1.00  0.00     0.118 A 
HETATM   31  N4  UNL     1      92.272  98.350 -41.334  1.00  0.00    -0.317 N 
HETATM   32  C16 UNL     1      91.892  97.081 -41.456  1.00  0.00     0.324 A 
ATOM     33  H4  UNL     1      92.896  98.720 -40.617  1.00  0.00     0.170 HD
HETATM   34  O2  UNL     1      92.255  96.147 -40.693  1.00  0.00    -0.247 OA
HETATM   35  N5  UNL     1      91.070  97.006 -42.524  1.00  0.00    -0.311 N 
ATOM     36  H5  UNL     1      90.626  96.150 -42.855  1.00  0.00     0.170 HD
ENDBRANCH  28  29
ENDBRANCH  26  28
ENDBRANCH  24  25
ENDBRANCH  22  24
ENDBRANCH  21  22
ENDBRANCH   2  20
TORSDOF 10
ENDMDL
MODEL 4
REMARK VINA RESULT: -5.985889108      4.562      7.041
REMARK  10 active torsions:
REMARK  status: ('A' for Active; 'I' for Inactive)
REMARK    1  A    between atoms: C3_3  and  N1_4 
REMARK    2  A    between atoms: N1_4  and  N2_5 
REMARK    3  A    between atoms: C4_8  and  C5_9 
REMARK    4  A    between atoms: C6_10  and  C7_11 
REMARK    5  A    between atoms: C8_12  and  C9_13 
REMARK    6  A    between atoms: C9_13  and  C11_15 
REMARK    7  A    between atoms: C11_15  and  N3_16 
REMARK       I    between atoms: N3_16  and  C12_17 
REMARK    8  A    between atoms: C12_17  and  C13_19 
REMARK    9  A    between atoms: C13_19  and  C14_20 
REMARK   10  A    between atoms: C20_31  and  N6_32 
REMARK       I    between atoms: N6_32  and  C21_34 
ROOT
HETATM    1  C5  UNL     1      90.786  96.129 -44.888  1.00  0.00    -0.015 C 
HETATM    2  C6  UNL     1      91.458  95.382 -45.743  1.00  0.00    -0.004 C 
ENDROOT
BRANCH   1   3
HETATM    3  C4  UNL     1      90.757  97.604 -44.951  1.00  0.00     0.076 C 
HETATM    4  C3  UNL     1      90.217  98.217 -43.726  1.00  0.00     0.123 C 
HETATM    5  C2  UNL     1      88.846  98.659 -43.581  1.00  0.00    -0.005 C 
HETATM    6  C1  UNL     1      88.450  99.323 -42.478  1.00  0.00     0.024 C 
HETATM    7  C20 UNL     1      87.859  98.389 -44.641  1.00  0.00     0.123 C 
HETATM    8  C18 UNL     1      88.485  97.647 -45.772  1.00  0.00     0.010 C 
HETATM    9  C17 UNL     1      89.880  98.108 -46.101  1.00  0.00     0.022 C 
HETATM   10  C19 UNL     1      87.663  97.654 -47.025  1.00  0.00     0.012 C 
BRANCH   4  11
HETATM   11  N1  UNL     1      91.003  98.365 -42.744  1.00  0.00    -0.336 NA
BRANCH  11  12
HETATM   12  N2  UNL     1      91.970  98.441 -41.968  1.00  0.00    -0.280 N 
ATOM     13  H22 UNL     1      92.001  97.427 -41.866  1.00  0.00     0.191 HD
ATOM     14  H21 UNL     1      92.742  98.729 -41.366  1.00  0.00     0.191 HD
ENDBRANCH  11  12
ENDBRANCH   4  11
BRANCH   7  15
HETATM   15  N6  UNL     1      87.152  99.572 -45.053  1.00  0.00    -0.352 N 
HETATM   16  C21 UNL     1      85.787  99.801 -44.750  1.00  0.00     0.214 C 
HETATM   17  C22 UNL     1      85.081 101.021 -45.181  1.00  0.00     0.117 C 
HETATM   18  O3  UNL     1      85.183  98.901 -44.081  1.00  0.00    -0.274 OA
ATOM     19  H6  UNL     1      87.657 100.279 -45.587  1.00  0.00     0.163 HD
ENDBRANCH   7  15
ENDBRANCH   1   3
BRANCH   2  20
HETATM   20  C7  UNL     1      91.472  93.942 -45.661  1.00  0.00    -0.004 C 
HETATM   21  C8  UNL     1      91.426  93.224 -46.761  1.00  0.00    -0.016 C 
BRANCH  21  22
HETATM   22  C9  UNL     1      91.434  91.744 -46.792  1.00  0.00     0.056 C 
HETATM   23  C10 UNL     1      92.531  91.291 -45.832  1.00  0.00     0.021 C 
BRANCH  22  24
HETATM   24  C11 UNL     1      91.779  91.211 -48.150  1.00  0.00     0.167 C 
BRANCH  24  25
HETATM   25  N3  UNL     1      91.037  91.167 -49.073  1.00  0.00    -0.387 NA
HETATM   26  C12 UNL     1      90.237  91.022 -50.106  1.00  0.00     0.296 C 
HETATM   27  O1  UNL     1      90.510  91.598 -51.226  1.00  0.00    -0.257 OA
BRANCH  26  28
HETATM   28  C13 UNL     1      88.994  90.198 -50.042  1.00  0.00     0.177 C 
BRANCH  28  29
HETATM   29  C14 UNL     1      89.258  88.772 -49.834  1.00  0.00     0.039 A 
HETATM   30  C15 UNL     1      88.362  87.767 -50.151  1.00  0.00     0.118 A 
HETATM   31  N4  UNL     1      88.916  86.577 -49.836  1.00  0.00    -0.317 N 
HETATM   32  C16 UNL     1      90.128  86.795 -49.332  1.00  0.00     0.324 A 
ATOM     33  H4  UNL     1      88.479  85.665 -49.963  1.00  0.00     0.170 HD
HETATM   34  O2  UNL     1      90.914  85.894 -48.936  1.00  0.00    -0.247 OA
HETATM   35  N5  UNL     1      90.332  88.129 -49.333  1.00  0.00    -0.311 N 
ATOM     36  H5  UNL     1      91.180  88.587 -49.000  1.00  0.00     0.170 HD
ENDBRANCH  28  29
ENDBRANCH  26  28
ENDBRANCH  24  25
ENDBRANCH  22  24
ENDBRANCH  21  22
ENDBRANCH   2  20
TORSDOF 10
ENDMDL
MODEL 5
REMARK VINA RESULT: -5.935987466      2.015      2.847
REMARK  10 active torsions:
REMARK  status: ('A' for Active; 'I' for Inactive)
REMARK    1  A    between atoms: C3_3  and  N1_4 
REMARK    2  A    between atoms: N1_4  and  N2_5 
REMARK    3  A    between atoms: C4_8  and  C5_9 
REMARK    4  A    between atoms: C6_10  and  C7_11 
REMARK    5  A    between atoms: C8_12  and  C9_13 
REMARK    6  A    between atoms: C9_13  and  C11_15 
REMARK    7  A    between atoms: C11_15  and  N3_16 
REMARK       I    between atoms: N3_16  and  C12_17 
REMARK    8  A    between atoms: C12_17  and  C13_19 
REMARK    9  A    between atoms: C13_19  and  C14_20 
REMARK   10  A    between atoms: C20_31  and  N6_32 
REMARK       I    between atoms: N6_32  and  C21_34 
ROOT
HETATM    1  C5  UNL     1      89.878  96.853 -45.670  1.00  0.00    -0.015 C 
HETATM    2  C6  UNL     1      90.540  95.725 -45.849  1.00  0.00    -0.004 C 
ENDROOT
BRANCH   1   3
HETATM    3  C4  UNL     1      88.925  97.399 -46.658  1.00  0.00     0.076 C 
HETATM    4  C3  UNL     1      89.116  98.838 -46.900  1.00  0.00     0.123 C 
HETATM    5  C2  UNL     1      88.332  99.875 -46.263  1.00  0.00    -0.005 C 
HETATM    6  C1  UNL     1      88.476 101.165 -46.621  1.00  0.00     0.024 C 
HETATM    7  C20 UNL     1      87.361  99.534 -45.208  1.00  0.00     0.123 C 
HETATM    8  C18 UNL     1      87.349  98.066 -44.953  1.00  0.00     0.010 C 
HETATM    9  C17 UNL     1      87.474  97.233 -46.201  1.00  0.00     0.022 C 
HETATM   10  C19 UNL     1      86.157  97.600 -44.175  1.00  0.00     0.012 C 
BRANCH   4  11
HETATM   11  N1  UNL     1      90.021  99.185 -47.716  1.00  0.00    -0.336 NA
BRANCH  11  12
HETATM   12  N2  UNL     1      90.692  99.578 -48.684  1.00  0.00    -0.280 N 
ATOM     13  H22 UNL     1      89.978 100.262 -48.934  1.00  0.00     0.191 HD
ATOM     14  H21 UNL     1      91.392  99.743 -49.408  1.00  0.00     0.191 HD
ENDBRANCH  11  12
ENDBRANCH   4  11
BRANCH   7  15
HETATM   15  N6  UNL     1      86.056 100.083 -45.460  1.00  0.00    -0.352 N 
HETATM   16  C21 UNL     1      85.430 101.015 -44.597  1.00  0.00     0.214 C 
HETATM   17  C22 UNL     1      84.091 101.567 -44.873  1.00  0.00     0.117 C 
HETATM   18  O3  UNL     1      86.077 101.367 -43.557  1.00  0.00    -0.274 OA
ATOM     19  H6  UNL     1      85.558  99.787 -46.300  1.00  0.00     0.163 HD
ENDBRANCH   7  15
ENDBRANCH   1   3
BRANCH   2  20
HETATM   20  C7  UNL     1      91.466  95.212 -44.869  1.00  0.00    -0.004 C 
HETATM   21  C8  UNL     1      91.052  94.354 -43.966  1.00  0.00    -0.016 C 
BRANCH  21  22
HETATM   22  C9  UNL     1      91.915  93.766 -42.916  1.00  0.00     0.056 C 
HETATM   23  C10 UNL     1      91.436  92.332 -42.705  1.00  0.00     0.021 C 
BRANCH  22  24
HETATM   24  C11 UNL     1      91.777  94.482 -41.606  1.00  0.00     0.167 C 
BRANCH  24  25
HETATM   25  N3  UNL     1      91.769  95.659 -41.471  1.00  0.00    -0.387 NA
HETATM   26  C12 UNL     1      91.806  96.972 -41.409  1.00  0.00     0.296 C 
HETATM   27  O1  UNL     1      92.537  97.561 -40.527  1.00  0.00    -0.257 OA
BRANCH  26  28
HETATM   28  C13 UNL     1      91.021  97.836 -42.340  1.00  0.00     0.177 C 
BRANCH  28  29
HETATM   29  C14 UNL     1      91.769  99.006 -42.808  1.00  0.00     0.039 A 
HETATM   30  C15 UNL     1      92.329  99.109 -44.069  1.00  0.00     0.118 A 
HETATM   31  N4  UNL     1      92.943 100.307 -44.174  1.00  0.00    -0.317 N 
HETATM   32  C16 UNL     1      92.790 100.962 -43.026  1.00  0.00     0.324 A 
ATOM     33  H4  UNL     1      93.439 100.652 -44.995  1.00  0.00     0.170 HD
HETATM   34  O2  UNL     1      93.243 102.113 -42.790  1.00  0.00    -0.247 OA
HETATM   35  N5  UNL     1      92.077 100.169 -42.200  1.00  0.00    -0.311 N 
ATOM     36  H5  UNL     1      91.808 100.414 -41.247  1.00  0.00     0.170 HD
ENDBRANCH  28  29
ENDBRANCH  26  28
ENDBRANCH  24  25
ENDBRANCH  22  24
ENDBRANCH  21  22
ENDBRANCH   2  20
TORSDOF 10
ENDMDL
