MODEL 1
REMARK VINA RESULT: -5.801612991      0.000      0.000
REMARK  8 active torsions:
REMARK  status: ('A' for Active; 'I' for Inactive)
REMARK    1  A    between atoms: C2_2  and  C3_3 
REMARK    2  A    between atoms: C3_3  and  N1_4 
REMARK       I    between atoms: N1_4  and  C4_6 
REMARK       I    between atoms: C4_6  and  N2_8 
REMARK    3  A    between atoms: N2_8  and  C5_10 
REMARK    4  A    between atoms: C7_14  and  C8_15 
REMARK    5  A    between atoms: C8_15  and  C9_16 
REMARK    6  A    between atoms: C16_25  and  C18_27 
REMARK    7  A    between atoms: C18_27  and  N5_28 
REMARK    8  A    between atoms: N5_28  and  C21_31 
ROOT
HETATM    1  C5  UNL     1      90.402  98.635 -44.306  1.00  0.00     0.186 C 
HETATM    2  C6  UNL     1      91.247  97.481 -43.821  1.00  0.00     0.244 C 
HETATM    3  O2  UNL     1      92.035  97.741 -42.884  1.00  0.00    -0.271 OA
HETATM    4  N3  UNL     1      91.152  96.187 -44.390  1.00  0.00    -0.338 N 
HETATM    5  C7  UNL     1      91.691  94.883 -44.596  1.00  0.00     0.090 C 
HETATM    6  C12 UNL     1      90.916  94.842 -45.912  1.00  0.00     0.053 C 
HETATM    7  C13 UNL     1      89.996  95.789 -45.219  1.00  0.00     0.120 C 
HETATM    8  C14 UNL     1      89.695  97.017 -46.028  1.00  0.00     0.074 A 
HETATM    9  N4  UNL     1      89.355  96.831 -47.351  1.00  0.00    -0.401 N 
ATOM     10  H4  UNL     1      89.662  96.536 -48.277  1.00  0.00     0.154 HD
HETATM   11  C15 UNL     1      88.308  97.317 -46.569  1.00  0.00     0.118 A 
HETATM   12  C16 UNL     1      88.535  98.765 -46.106  1.00  0.00     0.011 C 
HETATM   13  C17 UNL     1      89.482  99.523 -46.992  1.00  0.00     0.020 C 
HETATM   14  C23 UNL     1      89.288  98.043 -45.038  1.00  0.00     0.061 C 
ENDROOT
BRANCH   1  15
HETATM   15  N2  UNL     1      89.905  99.276 -43.102  1.00  0.00    -0.329 N 
HETATM   16  C4  UNL     1      90.390 100.491 -42.601  1.00  0.00     0.317 C 
HETATM   17  N1  UNL     1      89.881 101.089 -41.421  1.00  0.00    -0.340 N 
HETATM   18  O1  UNL     1      91.312 101.068 -43.228  1.00  0.00    -0.247 OA
ATOM     19  H1  UNL     1      89.131 100.605 -40.928  1.00  0.00     0.164 HD
ATOM     20  H2  UNL     1      89.156  98.812 -42.588  1.00  0.00     0.165 HD
BRANCH  17  21
HETATM   21  C3  UNL     1      90.351 102.334 -40.871  1.00  0.00     0.150 C 
BRANCH  21  22
HETATM   22  C2  UNL     1      91.242 102.071 -39.682  1.00  0.00    -0.018 C 
HETATM   23  C1  UNL     1      92.456 101.583 -39.843  1.00  0.00     0.008 C 
ENDBRANCH  21  22
ENDBRANCH  17  21
ENDBRANCH   1  15
BRANCH  12  24
HETATM   24  C18 UNL     1      87.383  99.481 -45.538  1.00  0.00     0.248 C 
BRANCH  24  25
HETATM   25  N5  UNL     1      86.084  99.193 -45.951  1.00  0.00    -0.074 N 
HETATM   26  C19 UNL     1      85.164 100.275 -45.546  1.00  0.00     0.272 C 
HETATM   27  C20 UNL     1      86.036  99.280 -47.427  1.00  0.00     0.272 C 
BRANCH  25  28
HETATM   28  C21 UNL     1      85.479  97.970 -45.588  1.00  0.00     0.232 C 
HETATM   29  C22 UNL     1      85.527  97.720 -44.071  1.00  0.00     0.034 C 
ENDBRANCH  25  28
ENDBRANCH  24  25
ENDBRANCH  12  24
BRANCH   5  30
HETATM   30  C8  UNL     1      91.155  93.907 -43.595  1.00  0.00     0.029 C 
BRANCH  30  31
HETATM   31  C9  UNL     1      92.104  93.945 -42.390  1.00  0.00    -0.021 C 
HETATM   32  C10 UNL     1      91.370  94.611 -41.266  1.00  0.00     0.009 C 
HETATM   33  C11 UNL     1      92.492  92.521 -42.089  1.00  0.00     0.009 C 
ENDBRANCH  30  31
ENDBRANCH   5  30
TORSDOF 8
ENDMDL
MODEL 2
REMARK VINA RESULT: -5.546625470      2.742      6.431
REMARK  8 active torsions:
REMARK  status: ('A' for Active; 'I' for Inactive)
REMARK    1  A    between atoms: C2_2  and  C3_3 
REMARK    2  A    between atoms: C3_3  and  N1_4 
REMARK       I    between atoms: N1_4  and  C4_6 
REMARK       I    between atoms: C4_6  and  N2_8 
REMARK    3  A    between atoms: N2_8  and  C5_10 
REMARK    4  A    between atoms: C7_14  and  C8_15 
REMARK    5  A    between atoms: C8_15  and  C9_16 
REMARK    6  A    between atoms: C16_25  and  C18_27 
REMARK    7  A    between atoms: C18_27  and  N5_28 
REMARK    8  A    between atoms: N5_28  and  C21_31 
ROOT
HETATM    1  C5  UNL     1      90.662  98.448 -45.050  1.00  0.00     0.186 C 
HETATM    2  C6  UNL     1      91.794  99.339 -45.505  1.00  0.00     0.244 C 
HETATM    3  O2  UNL     1      92.897  98.772 -45.674  1.00  0.00    -0.271 OA
HETATM    4  N3  UNL     1      91.617 100.727 -45.726  1.00  0.00    -0.338 N 
HETATM    5  C7  UNL     1      92.165 102.033 -45.896  1.00  0.00     0.090 C 
HETATM    6  C12 UNL     1      90.852 102.584 -45.341  1.00  0.00     0.053 C 
HETATM    7  C13 UNL     1      90.274 101.321 -45.883  1.00  0.00     0.120 C 
HETATM    8  C14 UNL     1      89.435 100.580 -44.882  1.00  0.00     0.074 A 
HETATM    9  N4  UNL     1      88.511 101.315 -44.170  1.00  0.00    -0.401 N 
ATOM     10  H4  UNL     1      88.354 102.040 -43.471  1.00  0.00     0.154 HD
HETATM   11  C15 UNL     1      87.936 100.400 -45.050  1.00  0.00     0.118 A 
HETATM   12  C16 UNL     1      88.151  98.942 -44.615  1.00  0.00     0.011 C 
HETATM   13  C17 UNL     1      88.408  98.800 -43.142  1.00  0.00     0.020 C 
HETATM   14  C23 UNL     1      89.432  99.172 -45.346  1.00  0.00     0.061 C 
ENDROOT
BRANCH   1  15
HETATM   15  N2  UNL     1      90.746  97.268 -45.891  1.00  0.00    -0.329 N 
HETATM   16  C4  UNL     1      91.004  95.978 -45.412  1.00  0.00     0.317 C 
HETATM   17  N1  UNL     1      91.078  94.846 -46.262  1.00  0.00    -0.340 N 
HETATM   18  O1  UNL     1      91.177  95.824 -44.177  1.00  0.00    -0.247 OA
ATOM     19  H1  UNL     1      90.933  94.992 -47.261  1.00  0.00     0.164 HD
ATOM     20  H2  UNL     1      90.607  97.386 -46.895  1.00  0.00     0.165 HD
BRANCH  17  21
HETATM   21  C3  UNL     1      91.344  93.505 -45.812  1.00  0.00     0.150 C 
BRANCH  21  22
HETATM   22  C2  UNL     1      91.466  92.575 -46.994  1.00  0.00    -0.018 C 
HETATM   23  C1  UNL     1      91.910  91.343 -46.840  1.00  0.00     0.008 C 
ENDBRANCH  21  22
ENDBRANCH  17  21
ENDBRANCH   1  15
BRANCH  12  24
HETATM   24  C18 UNL     1      87.345  97.911 -45.287  1.00  0.00     0.248 C 
BRANCH  24  25
HETATM   25  N5  UNL     1      85.956  97.903 -45.182  1.00  0.00    -0.074 N 
HETATM   26  C19 UNL     1      85.377  99.031 -45.939  1.00  0.00     0.272 C 
HETATM   27  C20 UNL     1      85.441  96.733 -45.925  1.00  0.00     0.272 C 
BRANCH  25  28
HETATM   28  C21 UNL     1      85.341  97.891 -43.911  1.00  0.00     0.232 C 
HETATM   29  C22 UNL     1      83.971  98.592 -43.917  1.00  0.00     0.034 C 
ENDBRANCH  25  28
ENDBRANCH  24  25
ENDBRANCH  12  24
BRANCH   5  30
HETATM   30  C8  UNL     1      92.347 102.362 -47.345  1.00  0.00     0.029 C 
BRANCH  30  31
HETATM   31  C9  UNL     1      93.639 101.666 -47.796  1.00  0.00    -0.021 C 
HETATM   32  C10 UNL     1      93.267 100.686 -48.867  1.00  0.00     0.009 C 
HETATM   33  C11 UNL     1      94.577 102.744 -48.273  1.00  0.00     0.009 C 
ENDBRANCH  30  31
ENDBRANCH   5  30
TORSDOF 8
ENDMDL
MODEL 3
REMARK VINA RESULT: -5.492169051      2.935      6.673
REMARK  8 active torsions:
REMARK  status: ('A' for Active; 'I' for Inactive)
REMARK    1  A    between atoms: C2_2  and  C3_3 
REMARK    2  A    between atoms: C3_3  and  N1_4 
REMARK       I    between atoms: N1_4  and  C4_6 
REMARK       I    between atoms: C4_6  and  N2_8 
REMARK    3  A    between atoms: N2_8  and  C5_10 
REMARK    4  A    between atoms: C7_14  and  C8_15 
REMARK    5  A    between atoms: C8_15  and  C9_16 
REMARK    6  A    between atoms: C16_25  and  C18_27 
REMARK    7  A    between atoms: C18_27  and  N5_28 
REMARK    8  A    between atoms: N5_28  and  C21_31 
ROOT
HETATM    1  C5  UNL     1      91.037  98.712 -44.524  1.00  0.00     0.186 C 
HETATM    2  C6  UNL     1      92.185  99.651 -44.813  1.00  0.00     0.244 C 
HETATM    3  O2  UNL     1      93.312  99.115 -44.914  1.00  0.00    -0.271 OA
HETATM    4  N3  UNL     1      91.997 101.047 -44.962  1.00  0.00    -0.338 N 
HETATM    5  C7  UNL     1      92.528 102.370 -44.997  1.00  0.00     0.090 C 
HETATM    6  C12 UNL     1      91.157 102.862 -44.535  1.00  0.00     0.053 C 
HETATM    7  C13 UNL     1      90.661 101.627 -45.207  1.00  0.00     0.120 C 
HETATM    8  C14 UNL     1      89.750 100.808 -44.338  1.00  0.00     0.074 A 
HETATM    9  N4  UNL     1      88.748 101.479 -43.671  1.00  0.00    -0.401 N 
ATOM     10  H4  UNL     1      88.510 102.154 -42.945  1.00  0.00     0.154 HD
HETATM   11  C15 UNL     1      88.278 100.614 -44.657  1.00  0.00     0.118 A 
HETATM   12  C16 UNL     1      88.485  99.134 -44.297  1.00  0.00     0.011 C 
HETATM   13  C17 UNL     1      88.608  98.901 -42.818  1.00  0.00     0.020 C 
HETATM   14  C23 UNL     1      89.823  99.433 -44.888  1.00  0.00     0.061 C 
ENDROOT
BRANCH   1  15
HETATM   15  N2  UNL     1      91.225  97.591 -45.426  1.00  0.00    -0.329 N 
HETATM   16  C4  UNL     1      91.241  96.251 -45.022  1.00  0.00     0.317 C 
HETATM   17  N1  UNL     1      91.427  95.179 -45.931  1.00  0.00    -0.340 N 
HETATM   18  O1  UNL     1      91.082  95.995 -43.803  1.00  0.00    -0.247 OA
ATOM     19  H1  UNL     1      91.551  95.408 -46.917  1.00  0.00     0.164 HD
ATOM     20  H2  UNL     1      91.355  97.792 -46.418  1.00  0.00     0.165 HD
BRANCH  17  21
HETATM   21  C3  UNL     1      91.451  93.789 -45.557  1.00  0.00     0.150 C 
BRANCH  21  22
HETATM   22  C2  UNL     1      91.396  92.920 -46.789  1.00  0.00    -0.018 C 
HETATM   23  C1  UNL     1      91.758  91.653 -46.737  1.00  0.00     0.008 C 
ENDBRANCH  21  22
ENDBRANCH  17  21
ENDBRANCH   1  15
BRANCH  12  24
HETATM   24  C18 UNL     1      87.770  98.135 -45.105  1.00  0.00     0.248 C 
BRANCH  24  25
HETATM   25  N5  UNL     1      86.398  98.239 -45.325  1.00  0.00    -0.074 N 
HETATM   26  C19 UNL     1      86.134  98.860 -46.639  1.00  0.00     0.272 C 
HETATM   27  C20 UNL     1      85.854  96.876 -45.512  1.00  0.00     0.272 C 
BRANCH  25  28
HETATM   28  C21 UNL     1      85.575  98.889 -44.381  1.00  0.00     0.232 C 
HETATM   29  C22 UNL     1      84.339  98.052 -44.007  1.00  0.00     0.034 C 
ENDBRANCH  25  28
ENDBRANCH  24  25
ENDBRANCH  12  24
BRANCH   5  30
HETATM   30  C8  UNL     1      92.836 102.795 -46.399  1.00  0.00     0.029 C 
BRANCH  30  31
HETATM   31  C9  UNL     1      92.970 104.324 -46.377  1.00  0.00    -0.021 C 
HETATM   32  C10 UNL     1      94.415 104.642 -46.140  1.00  0.00     0.009 C 
HETATM   33  C11 UNL     1      92.456 104.832 -47.699  1.00  0.00     0.009 C 
ENDBRANCH  30  31
ENDBRANCH   5  30
TORSDOF 8
ENDMDL
MODEL 4
REMARK VINA RESULT: -5.477522004      3.681      6.334
REMARK  8 active torsions:
REMARK  status: ('A' for Active; 'I' for Inactive)
REMARK    1  A    between atoms: C2_2  and  C3_3 
REMARK    2  A    between atoms: C3_3  and  N1_4 
REMARK       I    between atoms: N1_4  and  C4_6 
REMARK       I    between atoms: C4_6  and  N2_8 
REMARK    3  A    between atoms: N2_8  and  C5_10 
REMARK    4  A    between atoms: C7_14  and  C8_15 
REMARK    5  A    between atoms: C8_15  and  C9_16 
REMARK    6  A    between atoms: C16_25  and  C18_27 
REMARK    7  A    between atoms: C18_27  and  N5_28 
REMARK    8  A    between atoms: N5_28  and  C21_31 
ROOT
HETATM    1  C5  UNL     1      91.814 100.903 -45.409  1.00  0.00     0.186 C 
HETATM    2  C6  UNL     1      91.509  99.560 -46.029  1.00  0.00     0.244 C 
HETATM    3  O2  UNL     1      91.549  99.518 -47.279  1.00  0.00    -0.271 OA
HETATM    4  N3  UNL     1      91.198  98.421 -45.246  1.00  0.00    -0.338 N 
HETATM    5  C7  UNL     1      90.658  97.107 -45.133  1.00  0.00     0.090 C 
HETATM    6  C12 UNL     1      90.354  97.427 -43.670  1.00  0.00     0.053 C 
HETATM    7  C13 UNL     1      91.503  98.369 -43.801  1.00  0.00     0.120 C 
HETATM    8  C14 UNL     1      91.187  99.755 -43.318  1.00  0.00     0.074 A 
HETATM    9  N4  UNL     1      90.555  99.866 -42.097  1.00  0.00    -0.401 N 
ATOM     10  H4  UNL     1      89.707  99.697 -41.557  1.00  0.00     0.154 HD
HETATM   11  C15 UNL     1      91.857 100.365 -42.099  1.00  0.00     0.118 A 
HETATM   12  C16 UNL     1      91.998 101.651 -42.929  1.00  0.00     0.011 C 
HETATM   13  C17 UNL     1      90.703 102.394 -43.087  1.00  0.00     0.020 C 
HETATM   14  C23 UNL     1      92.152 100.638 -44.015  1.00  0.00     0.061 C 
ENDROOT
BRANCH   1  15
HETATM   15  N2  UNL     1      92.988 101.388 -46.110  1.00  0.00    -0.329 N 
HETATM   16  C4  UNL     1      93.174 102.718 -46.505  1.00  0.00     0.317 C 
HETATM   17  N1  UNL     1      94.335 103.159 -47.189  1.00  0.00    -0.340 N 
HETATM   18  O1  UNL     1      92.271 103.550 -46.240  1.00  0.00    -0.247 OA
ATOM     19  H1  UNL     1      95.057 102.468 -47.392  1.00  0.00     0.164 HD
ATOM     20  H2  UNL     1      93.726 100.718 -46.328  1.00  0.00     0.165 HD
BRANCH  17  21
HETATM   21  C3  UNL     1      94.564 104.515 -47.614  1.00  0.00     0.150 C 
BRANCH  21  22
HETATM   22  C2  UNL     1      95.632 105.153 -46.760  1.00  0.00    -0.018 C 
HETATM   23  C1  UNL     1      95.362 105.561 -45.536  1.00  0.00     0.008 C 
ENDBRANCH  21  22
ENDBRANCH  17  21
ENDBRANCH   1  15
BRANCH  12  24
HETATM   24  C18 UNL     1      93.236 102.429 -42.763  1.00  0.00     0.248 C 
BRANCH  24  25
HETATM   25  N5  UNL     1      93.531 103.059 -41.557  1.00  0.00    -0.074 N 
HETATM   26  C19 UNL     1      94.710 102.433 -40.925  1.00  0.00     0.272 C 
HETATM   27  C20 UNL     1      94.025 104.421 -41.854  1.00  0.00     0.272 C 
BRANCH  25  28
HETATM   28  C21 UNL     1      92.539 103.186 -40.561  1.00  0.00     0.232 C 
HETATM   29  C22 UNL     1      92.931 102.482 -39.250  1.00  0.00     0.034 C 
ENDBRANCH  25  28
ENDBRANCH  24  25
ENDBRANCH  12  24
BRANCH   5  30
HETATM   30  C8  UNL     1      91.725  96.066 -45.272  1.00  0.00     0.029 C 
BRANCH  30  31
HETATM   31  C9  UNL     1      91.037  94.704 -45.104  1.00  0.00    -0.021 C 
HETATM   32  C10 UNL     1      91.260  93.933 -46.369  1.00  0.00     0.009 C 
HETATM   33  C11 UNL     1      91.646  94.049 -43.891  1.00  0.00     0.009 C 
ENDBRANCH  30  31
ENDBRANCH   5  30
TORSDOF 8
ENDMDL
MODEL 5
REMARK VINA RESULT: -5.439273779      2.445      7.279
REMARK  8 active torsions:
REMARK  status: ('A' for Active; 'I' for Inactive)
REMARK    1  A    between atoms: C2_2  and  C3_3 
REMARK    2  A    between atoms: C3_3  and  N1_4 
REMARK       I    between atoms: N1_4  and  C4_6 
REMARK       I    between atoms: C4_6  and  N2_8 
REMARK    3  A    between atoms: N2_8  and  C5_10 
REMARK    4  A    between atoms: C7_14  and  C8_15 
REMARK    5  A    between atoms: C8_15  and  C9_16 
REMARK    6  A    between atoms: C16_25  and  C18_27 
REMARK    7  A    between atoms: C18_27  and  N5_28 
REMARK    8  A    between atoms: N5_28  and  C21_31 
ROOT
HETATM    1  C5  UNL     1      89.542  99.427 -43.541  1.00  0.00     0.186 C 
HETATM    2  C6  UNL     1      88.148  99.258 -44.096  1.00  0.00     0.244 C 
HETATM    3  O2  UNL     1      87.815  98.085 -44.381  1.00  0.00    -0.271 OA
HETATM    4  N3  UNL     1      87.273 100.355 -44.282  1.00  0.00    -0.338 N 
HETATM    5  C7  UNL     1      86.105 100.921 -44.874  1.00  0.00     0.090 C 
HETATM    6  C12 UNL     1      86.791 102.283 -44.768  1.00  0.00     0.053 C 
HETATM    7  C13 UNL     1      87.511 101.656 -43.623  1.00  0.00     0.120 C 
HETATM    8  C14 UNL     1      89.001 101.828 -43.698  1.00  0.00     0.074 A 
HETATM    9  N4  UNL     1      89.474 103.090 -43.985  1.00  0.00    -0.401 N 
ATOM     10  H4  UNL     1      89.551 103.835 -44.677  1.00  0.00     0.154 HD
HETATM   11  C15 UNL     1      89.776 102.663 -42.694  1.00  0.00     0.118 A 
HETATM   12  C16 UNL     1      90.806 101.522 -42.671  1.00  0.00     0.011 C 
HETATM   13  C17 UNL     1      91.664 101.480 -43.904  1.00  0.00     0.020 C 
HETATM   14  C23 UNL     1      89.560 100.726 -42.879  1.00  0.00     0.061 C 
ENDROOT
BRANCH   1  15
HETATM   15  N2  UNL     1      89.689  98.375 -42.551  1.00  0.00    -0.329 N 
HETATM   16  C4  UNL     1      90.846  97.603 -42.390  1.00  0.00     0.317 C 
HETATM   17  N1  UNL     1      90.955  96.583 -41.411  1.00  0.00    -0.340 N 
HETATM   18  O1  UNL     1      91.823  97.830 -43.145  1.00  0.00    -0.247 OA
ATOM     19  H1  UNL     1      90.151  96.417 -40.806  1.00  0.00     0.164 HD
ATOM     20  H2  UNL     1      88.898  98.186 -41.934  1.00  0.00     0.165 HD
BRANCH  17  21
HETATM   21  C3  UNL     1      92.124  95.766 -41.213  1.00  0.00     0.150 C 
BRANCH  21  22
HETATM   22  C2  UNL     1      91.775  94.310 -41.398  1.00  0.00    -0.018 C 
HETATM   23  C1  UNL     1      92.719  93.390 -41.436  1.00  0.00     0.008 C 
ENDBRANCH  21  22
ENDBRANCH  17  21
ENDBRANCH   1  15
BRANCH  12  24
HETATM   24  C18 UNL     1      91.424 101.195 -41.377  1.00  0.00     0.248 C 
BRANCH  24  25
HETATM   25  N5  UNL     1      92.212 102.125 -40.703  1.00  0.00    -0.074 N 
HETATM   26  C19 UNL     1      91.416 102.826 -39.676  1.00  0.00     0.272 C 
HETATM   27  C20 UNL     1      93.198 101.388 -39.883  1.00  0.00     0.272 C 
BRANCH  25  28
HETATM   28  C21 UNL     1      92.924 103.107 -41.424  1.00  0.00     0.232 C 
HETATM   29  C22 UNL     1      94.385 102.698 -41.686  1.00  0.00     0.034 C 
ENDBRANCH  25  28
ENDBRANCH  24  25
ENDBRANCH  12  24
BRANCH   5  30
HETATM   30  C8  UNL     1      84.924 100.812 -43.960  1.00  0.00     0.029 C 
BRANCH  30  31
HETATM   31  C9  UNL     1      84.013  99.725 -44.546  1.00  0.00    -0.021 C 
HETATM   32  C10 UNL     1      84.251  98.473 -43.758  1.00  0.00     0.009 C 
HETATM   33  C11 UNL     1      82.598 100.233 -44.445  1.00  0.00     0.009 C 
ENDBRANCH  30  31
ENDBRANCH   5  30
TORSDOF 8
ENDMDL
