MODEL 1
REMARK VINA RESULT: -7.263731609      0.000      0.000
REMARK  6 active torsions:
REMARK  status: ('A' for Active; 'I' for Inactive)
REMARK    1  A    between atoms: C2_2  and  N1_3 
REMARK    2  A    between atoms: N1_3  and  C3_4 
REMARK    3  A    between atoms: N1_3  and  C14_26 
REMARK    4  A    between atoms: C3_4  and  O1_5 
REMARK    5  A    between atoms: C3_4  and  C4_7 
REMARK    6  A    between atoms: C7_10  and  N2_11 
REMARK       I    between atoms: N2_11  and  C8_12 
REMARK       I    between atoms: N2_11  and  C10_15 
REMARK       I    between atoms: C10_15  and  N3_17 
REMARK       I    between atoms: N3_17  and  C11_19 
ROOT
HETATM    1  C4  UNL     1     -29.203  44.833  13.365  1.00  0.00     0.015 A 
HETATM    2  C5  UNL     1     -29.045  44.109  12.227  1.00  0.00     0.018 A 
HETATM    3  C6  UNL     1     -27.863  44.212  11.495  1.00  0.00     0.031 A 
HETATM    4  C7  UNL     1     -26.833  45.024  11.876  1.00  0.00     0.047 A 
HETATM    5  C12 UNL     1     -27.013  45.742  13.023  1.00  0.00     0.031 A 
HETATM    6  C13 UNL     1     -28.165  45.662  13.764  1.00  0.00     0.018 A 
ENDROOT
BRANCH   4   7
HETATM    7  N2  UNL     1     -25.605  45.110  11.088  1.00  0.00    -0.234 N 
HETATM    8  C8  UNL     1     -25.572  46.066  10.047  1.00  0.00     0.228 C 
HETATM    9  C9  UNL     1     -26.769  46.936   9.760  1.00  0.00     0.118 C 
HETATM   10  O2  UNL     1     -24.557  46.224   9.330  1.00  0.00    -0.273 OA
HETATM   11  C10 UNL     1     -24.553  44.231  11.398  1.00  0.00     0.336 C 
HETATM   12  O3  UNL     1     -24.745  43.404  12.365  1.00  0.00    -0.246 OA
HETATM   13  N3  UNL     1     -23.306  44.145  10.769  1.00  0.00    -0.282 N 
HETATM   14  C11 UNL     1     -22.309  43.192  11.174  1.00  0.00     0.189 C 
ATOM     15  H3  UNL     1     -23.098  44.780   9.999  1.00  0.00     0.173 HD
HETATM   16  N4  UNL     1     -21.190  43.129  10.591  1.00  0.00    -0.373 N 
HETATM   17  N5  UNL     1     -22.573  42.291  12.242  1.00  0.00    -0.064 NA
ATOM     18  H42 UNL     1     -21.000  43.775   9.825  1.00  0.00     0.158 HD
ATOM     19  H41 UNL     1     -20.481  42.453  10.878  1.00  0.00     0.158 HD
ENDBRANCH   4   7
BRANCH   1  20
HETATM   20  C3  UNL     1     -30.406  44.818  14.183  1.00  0.00     0.153 C 
BRANCH  20  21
HETATM   21  N1  UNL     1     -30.625  45.069  15.525  1.00  0.00    -0.328 N 
BRANCH  21  22
HETATM   22  C2  UNL     1     -31.276  46.110  16.236  1.00  0.00     0.127 C 
HETATM   23  C1  UNL     1     -30.779  47.501  15.889  1.00  0.00     0.027 C 
ENDBRANCH  21  22
BRANCH  21  24
HETATM   24  C14 UNL     1     -30.052  44.046  16.424  1.00  0.00     0.036 A 
HETATM   25  C15 UNL     1     -29.797  42.780  16.032  1.00  0.00     0.029 A 
HETATM   26  C16 UNL     1     -29.271  41.864  16.949  1.00  0.00     0.002 A 
HETATM   27  C17 UNL     1     -29.007  42.243  18.255  1.00  0.00     0.000 A 
HETATM   28  C18 UNL     1     -29.271  43.543  18.645  1.00  0.00     0.002 A 
HETATM   29  C19 UNL     1     -29.798  44.441  17.715  1.00  0.00     0.029 A 
ENDBRANCH  21  24
ENDBRANCH  20  21
BRANCH  20  30
HETATM   30  O1  UNL     1     -31.500  44.505  13.529  1.00  0.00    -0.345 OA
ATOM     31  H1  UNL     1     -32.128  44.026  14.057  1.00  0.00     0.219 HD
ENDBRANCH  20  30
ENDBRANCH   1  20
TORSDOF 6
ENDMDL
MODEL 2
REMARK VINA RESULT: -7.242505075      0.999      1.954
REMARK  6 active torsions:
REMARK  status: ('A' for Active; 'I' for Inactive)
REMARK    1  A    between atoms: C2_2  and  N1_3 
REMARK    2  A    between atoms: N1_3  and  C3_4 
REMARK    3  A    between atoms: N1_3  and  C14_26 
REMARK    4  A    between atoms: C3_4  and  O1_5 
REMARK    5  A    between atoms: C3_4  and  C4_7 
REMARK    6  A    between atoms: C7_10  and  N2_11 
REMARK       I    between atoms: N2_11  and  C8_12 
REMARK       I    between atoms: N2_11  and  C10_15 
REMARK       I    between atoms: C10_15  and  N3_17 
REMARK       I    between atoms: N3_17  and  C11_19 
ROOT
HETATM    1  C4  UNL     1     -29.351  44.832  13.304  1.00  0.00     0.015 A 
HETATM    2  C5  UNL     1     -28.350  45.649  13.721  1.00  0.00     0.018 A 
HETATM    3  C6  UNL     1     -27.167  45.731  12.989  1.00  0.00     0.031 A 
HETATM    4  C7  UNL     1     -26.962  45.014  11.844  1.00  0.00     0.047 A 
HETATM    5  C12 UNL     1     -27.981  44.200  11.443  1.00  0.00     0.031 A 
HETATM    6  C13 UNL     1     -29.156  44.098  12.144  1.00  0.00     0.018 A 
ENDROOT
BRANCH   4   7
HETATM    7  N2  UNL     1     -25.710  45.122  11.097  1.00  0.00    -0.234 N 
HETATM    8  C8  UNL     1     -25.650  46.104  10.080  1.00  0.00     0.228 C 
HETATM    9  C9  UNL     1     -26.842  46.975   9.778  1.00  0.00     0.118 C 
HETATM   10  O2  UNL     1     -24.614  46.282   9.398  1.00  0.00    -0.273 OA
HETATM   11  C10 UNL     1     -24.665  44.240  11.417  1.00  0.00     0.336 C 
HETATM   12  O3  UNL     1     -24.883  43.390  12.358  1.00  0.00    -0.246 OA
HETATM   13  N3  UNL     1     -23.399  44.174  10.826  1.00  0.00    -0.282 N 
HETATM   14  C11 UNL     1     -22.410  43.216  11.238  1.00  0.00     0.189 C 
ATOM     15  H3  UNL     1     -23.170  44.828  10.077  1.00  0.00     0.173 HD
HETATM   16  N4  UNL     1     -21.273  43.171  10.689  1.00  0.00    -0.373 N 
HETATM   17  N5  UNL     1     -22.703  42.289  12.276  1.00  0.00    -0.064 NA
ATOM     18  H42 UNL     1     -21.063  43.836   9.944  1.00  0.00     0.158 HD
ATOM     19  H41 UNL     1     -20.571  42.491  10.980  1.00  0.00     0.158 HD
ENDBRANCH   4   7
BRANCH   1  20
HETATM   20  C3  UNL     1     -30.610  44.655  14.011  1.00  0.00     0.153 C 
BRANCH  20  21
HETATM   21  N1  UNL     1     -31.121  43.611  14.759  1.00  0.00    -0.328 N 
BRANCH  21  22
HETATM   22  C2  UNL     1     -32.218  42.727  14.590  1.00  0.00     0.127 C 
HETATM   23  C1  UNL     1     -32.358  42.176  13.183  1.00  0.00     0.027 C 
ENDBRANCH  21  22
BRANCH  21  24
HETATM   24  C14 UNL     1     -30.384  43.359  16.014  1.00  0.00     0.036 A 
HETATM   25  C15 UNL     1     -30.311  44.258  17.019  1.00  0.00     0.029 A 
HETATM   26  C16 UNL     1     -29.576  43.951  18.169  1.00  0.00     0.002 A 
HETATM   27  C17 UNL     1     -28.924  42.736  18.289  1.00  0.00     0.000 A 
HETATM   28  C18 UNL     1     -29.007  41.823  17.254  1.00  0.00     0.002 A 
HETATM   29  C19 UNL     1     -29.743  42.148  16.114  1.00  0.00     0.029 A 
ENDBRANCH  21  24
ENDBRANCH  20  21
BRANCH  20  30
HETATM   30  O1  UNL     1     -31.426  45.679  13.926  1.00  0.00    -0.345 OA
ATOM     31  H1  UNL     1     -32.134  45.544  13.307  1.00  0.00     0.219 HD
ENDBRANCH  20  30
ENDBRANCH   1  20
TORSDOF 6
ENDMDL
MODEL 3
REMARK VINA RESULT: -7.241460122      2.523      7.827
REMARK  6 active torsions:
REMARK  status: ('A' for Active; 'I' for Inactive)
REMARK    1  A    between atoms: C2_2  and  N1_3 
REMARK    2  A    between atoms: N1_3  and  C3_4 
REMARK    3  A    between atoms: N1_3  and  C14_26 
REMARK    4  A    between atoms: C3_4  and  O1_5 
REMARK    5  A    between atoms: C3_4  and  C4_7 
REMARK    6  A    between atoms: C7_10  and  N2_11 
REMARK       I    between atoms: N2_11  and  C8_12 
REMARK       I    between atoms: N2_11  and  C10_15 
REMARK       I    between atoms: C10_15  and  N3_17 
REMARK       I    between atoms: N3_17  and  C11_19 
ROOT
HETATM    1  C4  UNL     1     -27.660  45.183  12.802  1.00  0.00     0.015 A 
HETATM    2  C5  UNL     1     -28.269  44.129  12.202  1.00  0.00     0.018 A 
HETATM    3  C6  UNL     1     -29.424  43.582  12.759  1.00  0.00     0.031 A 
HETATM    4  C7  UNL     1     -29.985  44.068  13.906  1.00  0.00     0.047 A 
HETATM    5  C12 UNL     1     -29.357  45.128  14.492  1.00  0.00     0.031 A 
HETATM    6  C13 UNL     1     -28.219  45.687  13.967  1.00  0.00     0.018 A 
ENDROOT
BRANCH   4   7
HETATM    7  N2  UNL     1     -31.198  43.474  14.465  1.00  0.00    -0.234 N 
HETATM    8  C8  UNL     1     -32.429  43.853  13.880  1.00  0.00     0.228 C 
HETATM    9  C9  UNL     1     -32.473  44.845  12.747  1.00  0.00     0.118 C 
HETATM   10  O2  UNL     1     -33.520  43.383  14.281  1.00  0.00    -0.273 OA
HETATM   11  C10 UNL     1     -31.068  42.591  15.549  1.00  0.00     0.336 C 
HETATM   12  O3  UNL     1     -29.877  42.362  15.979  1.00  0.00    -0.246 OA
HETATM   13  N3  UNL     1     -32.093  41.924  16.229  1.00  0.00    -0.282 N 
HETATM   14  C11 UNL     1     -31.833  41.046  17.337  1.00  0.00     0.189 C 
ATOM     15  H3  UNL     1     -33.057  42.065  15.927  1.00  0.00     0.173 HD
HETATM   16  N4  UNL     1     -32.773  40.455  17.938  1.00  0.00    -0.373 N 
HETATM   17  N5  UNL     1     -30.498  40.833  17.782  1.00  0.00    -0.064 NA
ATOM     18  H42 UNL     1     -33.729  40.607  17.619  1.00  0.00     0.158 HD
ATOM     19  H41 UNL     1     -32.589  39.831  18.725  1.00  0.00     0.158 HD
ENDBRANCH   4   7
BRANCH   1  20
HETATM   20  C3  UNL     1     -26.438  45.807  12.317  1.00  0.00     0.153 C 
BRANCH  20  21
HETATM   21  N1  UNL     1     -25.845  45.851  11.069  1.00  0.00    -0.328 N 
BRANCH  21  22
HETATM   22  C2  UNL     1     -26.051  46.646   9.911  1.00  0.00     0.127 C 
HETATM   23  C1  UNL     1     -26.477  48.072  10.208  1.00  0.00     0.027 C 
ENDBRANCH  21  22
BRANCH  21  24
HETATM   24  C14 UNL     1     -24.772  44.853  10.882  1.00  0.00     0.036 A 
HETATM   25  C15 UNL     1     -24.507  43.880  11.779  1.00  0.00     0.029 A 
HETATM   26  C16 UNL     1     -23.461  42.983  11.538  1.00  0.00     0.002 A 
HETATM   27  C17 UNL     1     -22.695  43.082  10.389  1.00  0.00     0.000 A 
HETATM   28  C18 UNL     1     -22.976  44.082   9.477  1.00  0.00     0.002 A 
HETATM   29  C19 UNL     1     -24.023  44.968   9.736  1.00  0.00     0.029 A 
ENDBRANCH  21  24
ENDBRANCH  20  21
BRANCH  20  30
HETATM   30  O1  UNL     1     -25.760  46.453  13.236  1.00  0.00    -0.345 OA
ATOM     31  H1  UNL     1     -24.969  46.000  13.507  1.00  0.00     0.219 HD
ENDBRANCH  20  30
ENDBRANCH   1  20
TORSDOF 6
ENDMDL
MODEL 4
REMARK VINA RESULT: -7.197096679      0.986      1.447
REMARK  6 active torsions:
REMARK  status: ('A' for Active; 'I' for Inactive)
REMARK    1  A    between atoms: C2_2  and  N1_3 
REMARK    2  A    between atoms: N1_3  and  C3_4 
REMARK    3  A    between atoms: N1_3  and  C14_26 
REMARK    4  A    between atoms: C3_4  and  O1_5 
REMARK    5  A    between atoms: C3_4  and  C4_7 
REMARK    6  A    between atoms: C7_10  and  N2_11 
REMARK       I    between atoms: N2_11  and  C8_12 
REMARK       I    between atoms: N2_11  and  C10_15 
REMARK       I    between atoms: C10_15  and  N3_17 
REMARK       I    between atoms: N3_17  and  C11_19 
ROOT
HETATM    1  C4  UNL     1     -29.345  44.792  13.290  1.00  0.00     0.015 A 
HETATM    2  C5  UNL     1     -29.146  44.067  12.159  1.00  0.00     0.018 A 
HETATM    3  C6  UNL     1     -27.947  44.183  11.459  1.00  0.00     0.031 A 
HETATM    4  C7  UNL     1     -26.938  45.009  11.865  1.00  0.00     0.047 A 
HETATM    5  C12 UNL     1     -27.158  45.727  13.004  1.00  0.00     0.031 A 
HETATM    6  C13 UNL     1     -28.328  45.634  13.715  1.00  0.00     0.018 A 
ENDROOT
BRANCH   4   7
HETATM    7  N2  UNL     1     -25.690  45.108  11.110  1.00  0.00    -0.234 N 
HETATM    8  C8  UNL     1     -25.633  46.080  10.084  1.00  0.00     0.228 C 
HETATM    9  C9  UNL     1     -26.824  46.951   9.780  1.00  0.00     0.118 C 
HETATM   10  O2  UNL     1     -24.600  46.249   9.395  1.00  0.00    -0.273 OA
HETATM   11  C10 UNL     1     -24.645  44.227  11.434  1.00  0.00     0.336 C 
HETATM   12  O3  UNL     1     -24.860  43.386  12.384  1.00  0.00    -0.246 OA
HETATM   13  N3  UNL     1     -23.382  44.152  10.837  1.00  0.00    -0.282 N 
HETATM   14  C11 UNL     1     -22.393  43.195  11.252  1.00  0.00     0.189 C 
ATOM     15  H3  UNL     1     -23.156  44.799  10.081  1.00  0.00     0.173 HD
HETATM   16  N4  UNL     1     -21.260  43.143  10.698  1.00  0.00    -0.373 N 
HETATM   17  N5  UNL     1     -22.683  42.279  12.301  1.00  0.00    -0.064 NA
ATOM     18  H42 UNL     1     -21.052  43.800   9.947  1.00  0.00     0.158 HD
ATOM     19  H41 UNL     1     -20.557  42.464  10.993  1.00  0.00     0.158 HD
ENDBRANCH   4   7
BRANCH   1  20
HETATM   20  C3  UNL     1     -30.569  44.763  14.076  1.00  0.00     0.153 C 
BRANCH  20  21
HETATM   21  N1  UNL     1     -31.162  43.779  14.845  1.00  0.00    -0.328 N 
BRANCH  21  22
HETATM   22  C2  UNL     1     -32.397  43.084  14.769  1.00  0.00     0.127 C 
HETATM   23  C1  UNL     1     -32.563  42.253  13.511  1.00  0.00     0.027 C 
ENDBRANCH  21  22
BRANCH  21  24
HETATM   24  C14 UNL     1     -30.351  43.360  16.007  1.00  0.00     0.036 A 
HETATM   25  C15 UNL     1     -29.732  42.163  16.080  1.00  0.00     0.029 A 
HETATM   26  C16 UNL     1     -28.997  41.833  17.223  1.00  0.00     0.002 A 
HETATM   27  C17 UNL     1     -28.897  42.722  18.281  1.00  0.00     0.000 A 
HETATM   28  C18 UNL     1     -29.534  43.945  18.194  1.00  0.00     0.002 A 
HETATM   29  C19 UNL     1     -30.264  44.255  17.045  1.00  0.00     0.029 A 
ENDBRANCH  21  24
ENDBRANCH  20  21
BRANCH  20  30
HETATM   30  O1  UNL     1     -31.250  45.884  14.055  1.00  0.00    -0.345 OA
ATOM     31  H1  UNL     1     -31.371  46.233  13.179  1.00  0.00     0.219 HD
ENDBRANCH  20  30
ENDBRANCH   1  20
TORSDOF 6
ENDMDL
MODEL 5
REMARK VINA RESULT: -7.153758067      0.264      1.309
REMARK  6 active torsions:
REMARK  status: ('A' for Active; 'I' for Inactive)
REMARK    1  A    between atoms: C2_2  and  N1_3 
REMARK    2  A    between atoms: N1_3  and  C3_4 
REMARK    3  A    between atoms: N1_3  and  C14_26 
REMARK    4  A    between atoms: C3_4  and  O1_5 
REMARK    5  A    between atoms: C3_4  and  C4_7 
REMARK    6  A    between atoms: C7_10  and  N2_11 
REMARK       I    between atoms: N2_11  and  C8_12 
REMARK       I    between atoms: N2_11  and  C10_15 
REMARK       I    between atoms: C10_15  and  N3_17 
REMARK       I    between atoms: N3_17  and  C11_19 
ROOT
HETATM    1  C4  UNL     1     -29.303  44.802  13.349  1.00  0.00     0.015 A 
HETATM    2  C5  UNL     1     -28.308  45.637  13.745  1.00  0.00     0.018 A 
HETATM    3  C6  UNL     1     -27.133  45.723  13.001  1.00  0.00     0.031 A 
HETATM    4  C7  UNL     1     -26.930  44.991  11.865  1.00  0.00     0.047 A 
HETATM    5  C12 UNL     1     -27.943  44.159  11.485  1.00  0.00     0.031 A 
HETATM    6  C13 UNL     1     -29.110  44.053  12.197  1.00  0.00     0.018 A 
ENDROOT
BRANCH   4   7
HETATM    7  N2  UNL     1     -25.687  45.104  11.104  1.00  0.00    -0.234 N 
HETATM    8  C8  UNL     1     -25.643  46.082  10.083  1.00  0.00     0.228 C 
HETATM    9  C9  UNL     1     -26.843  46.945   9.789  1.00  0.00     0.118 C 
HETATM   10  O2  UNL     1     -24.615  46.263   9.390  1.00  0.00    -0.273 OA
HETATM   11  C10 UNL     1     -24.633  44.229  11.417  1.00  0.00     0.336 C 
HETATM   12  O3  UNL     1     -24.837  43.381  12.363  1.00  0.00    -0.246 OA
HETATM   13  N3  UNL     1     -23.373  44.168  10.813  1.00  0.00    -0.282 N 
HETATM   14  C11 UNL     1     -22.374  43.217  11.218  1.00  0.00     0.189 C 
ATOM     15  H3  UNL     1     -23.155  44.821  10.060  1.00  0.00     0.173 HD
HETATM   16  N4  UNL     1     -21.243  43.176  10.658  1.00  0.00    -0.373 N 
HETATM   17  N5  UNL     1     -22.651  42.292  12.263  1.00  0.00    -0.064 NA
ATOM     18  H42 UNL     1     -21.045  43.840   9.909  1.00  0.00     0.158 HD
ATOM     19  H41 UNL     1     -20.534  42.502  10.945  1.00  0.00     0.158 HD
ENDBRANCH   4   7
BRANCH   1  20
HETATM   20  C3  UNL     1     -30.554  44.619  14.070  1.00  0.00     0.153 C 
BRANCH  20  21
HETATM   21  N1  UNL     1     -30.909  44.829  15.390  1.00  0.00    -0.328 N 
BRANCH  21  22
HETATM   22  C2  UNL     1     -31.786  45.737  16.038  1.00  0.00     0.127 C 
HETATM   23  C1  UNL     1     -31.416  47.196  15.849  1.00  0.00     0.027 C 
ENDBRANCH  21  22
BRANCH  21  24
HETATM   24  C14 UNL     1     -30.227  43.928  16.341  1.00  0.00     0.036 A 
HETATM   25  C15 UNL     1     -29.832  44.319  17.572  1.00  0.00     0.029 A 
HETATM   26  C16 UNL     1     -29.174  43.411  18.408  1.00  0.00     0.002 A 
HETATM   27  C17 UNL     1     -28.925  42.115  17.988  1.00  0.00     0.000 A 
HETATM   28  C18 UNL     1     -29.335  41.726  16.726  1.00  0.00     0.002 A 
HETATM   29  C19 UNL     1     -29.988  42.647  15.907  1.00  0.00     0.029 A 
ENDBRANCH  21  24
ENDBRANCH  20  21
BRANCH  20  30
HETATM   30  O1  UNL     1     -31.541  44.167  13.333  1.00  0.00    -0.345 OA
ATOM     31  H1  UNL     1     -31.588  44.577  12.478  1.00  0.00     0.219 HD
ENDBRANCH  20  30
ENDBRANCH   1  20
TORSDOF 6
ENDMDL
