MODEL 1
REMARK VINA RESULT: -8.019130115      0.000      0.000
REMARK  6 active torsions:
REMARK  status: ('A' for Active; 'I' for Inactive)
REMARK    1  A    between atoms: C2_2  and  C3_3 
REMARK    2  A    between atoms: C3_3  and  C4_4 
REMARK       I    between atoms: C4_4  and  N1_6 
REMARK    3  A    between atoms: N1_6  and  C5_8 
REMARK    4  A    between atoms: C5_8  and  C6_9 
REMARK    5  A    between atoms: N2_18  and  C14_20 
REMARK    6  A    between atoms: C14_20  and  O2_21 
ROOT
HETATM    1  C3  UNL     1      23.632  54.403  15.730  1.00  0.00     0.079 C 
HETATM    2  C7  UNL     1      24.009  55.464  16.728  1.00  0.00     0.026 C 
HETATM    3  C8  UNL     1      23.578  56.837  16.303  1.00  0.00     0.011 C 
HETATM    4  C9  UNL     1      24.032  57.260  14.964  1.00  0.00    -0.043 C 
HETATM    5  C10 UNL     1      25.204  58.239  15.147  1.00  0.00     0.015 C 
HETATM    6  C11 UNL     1      22.924  58.130  14.346  1.00  0.00     0.015 C 
HETATM    7  C12 UNL     1      24.458  56.214  14.023  1.00  0.00     0.062 C 
HETATM    8  C13 UNL     1      24.215  54.824  14.435  1.00  0.00     0.003 C 
HETATM    9  N2  UNL     1      24.530  53.898  13.609  1.00  0.00    -0.364 N 
ATOM     10  H2  UNL     1      24.363  52.931  13.889  1.00  0.00     0.162 HD
ENDROOT
BRANCH   1  11
HETATM   11  C2  UNL     1      22.131  54.322  15.538  1.00  0.00     0.021 C 
HETATM   12  C1  UNL     1      21.486  53.589  16.665  1.00  0.00     0.006 C 
ENDBRANCH   1  11
BRANCH   1  13
HETATM   13  C4  UNL     1      24.193  53.120  16.211  1.00  0.00     0.232 C 
HETATM   14  O1  UNL     1      24.737  52.280  15.446  1.00  0.00    -0.272 OA
HETATM   15  N1  UNL     1      24.133  52.786  17.585  1.00  0.00    -0.359 N 
ATOM     16  H1  UNL     1      23.696  53.457  18.217  1.00  0.00     0.162 HD
BRANCH  15  17
HETATM   17  C5  UNL     1      24.646  51.570  18.151  1.00  0.00     0.133 C 
BRANCH  17  18
HETATM   18  C6  UNL     1      24.089  51.203  19.487  1.00  0.00     0.105 C 
HETATM   19  S1  UNL     1      25.457  50.912  20.672  1.00  0.00    -0.096 SA
ENDBRANCH  17  18
ENDBRANCH  15  17
ENDBRANCH   1  13
BRANCH   9  20
HETATM   20  C14 UNL     1      25.100  54.132  12.323  1.00  0.00     0.131 A 
HETATM   21  C15 UNL     1      24.057  54.364  11.234  1.00  0.00     0.066 A 
HETATM   22  C16 UNL     1      24.888  53.132  11.236  1.00  0.00     0.066 A 
BRANCH  20  23
HETATM   23  O2  UNL     1      26.176  55.007  12.280  1.00  0.00    -0.371 OA
ATOM     24  H2  UNL     1      26.839  54.891  12.951  1.00  0.00     0.212 HD
ENDBRANCH  20  23
ENDBRANCH   9  20
TORSDOF 6
ENDMDL
MODEL 2
REMARK VINA RESULT: -7.652903066      4.891      7.388
REMARK  6 active torsions:
REMARK  status: ('A' for Active; 'I' for Inactive)
REMARK    1  A    between atoms: C2_2  and  C3_3 
REMARK    2  A    between atoms: C3_3  and  C4_4 
REMARK       I    between atoms: C4_4  and  N1_6 
REMARK    3  A    between atoms: N1_6  and  C5_8 
REMARK    4  A    between atoms: C5_8  and  C6_9 
REMARK    5  A    between atoms: N2_18  and  C14_20 
REMARK    6  A    between atoms: C14_20  and  O2_21 
ROOT
HETATM    1  C3  UNL     1      24.192  49.686  20.521  1.00  0.00     0.079 C 
HETATM    2  C7  UNL     1      25.364  49.811  21.458  1.00  0.00     0.026 C 
HETATM    3  C8  UNL     1      25.025  50.569  22.709  1.00  0.00     0.011 C 
HETATM    4  C9  UNL     1      24.435  51.906  22.502  1.00  0.00    -0.043 C 
HETATM    5  C10 UNL     1      25.528  52.954  22.771  1.00  0.00     0.015 C 
HETATM    6  C11 UNL     1      23.415  52.147  23.626  1.00  0.00     0.015 C 
HETATM    7  C12 UNL     1      23.842  52.197  21.189  1.00  0.00     0.062 C 
HETATM    8  C13 UNL     1      23.720  51.064  20.260  1.00  0.00     0.003 C 
HETATM    9  N2  UNL     1      23.158  51.284  19.130  1.00  0.00    -0.364 N 
ATOM     10  H2  UNL     1      23.070  50.501  18.481  1.00  0.00     0.162 HD
ENDROOT
BRANCH   1  11
HETATM   11  C2  UNL     1      23.042  48.934  21.160  1.00  0.00     0.021 C 
HETATM   12  C1  UNL     1      23.491  47.613  21.686  1.00  0.00     0.006 C 
ENDBRANCH   1  11
BRANCH   1  13
HETATM   13  C4  UNL     1      24.674  49.011  19.295  1.00  0.00     0.232 C 
HETATM   14  O1  UNL     1      24.160  49.203  18.161  1.00  0.00    -0.272 OA
HETATM   15  N1  UNL     1      25.757  48.103  19.360  1.00  0.00    -0.359 N 
ATOM     16  H1  UNL     1      26.184  47.937  20.271  1.00  0.00     0.162 HD
BRANCH  15  17
HETATM   17  C5  UNL     1      26.297  47.398  18.231  1.00  0.00     0.133 C 
BRANCH  17  18
HETATM   18  C6  UNL     1      27.568  46.658  18.488  1.00  0.00     0.105 C 
HETATM   19  S1  UNL     1      28.661  46.769  17.021  1.00  0.00    -0.096 SA
ENDBRANCH  17  18
ENDBRANCH  15  17
ENDBRANCH   1  13
BRANCH   9  20
HETATM   20  C14 UNL     1      22.649  52.551  18.721  1.00  0.00     0.131 A 
HETATM   21  C15 UNL     1      21.167  52.517  18.359  1.00  0.00     0.066 A 
HETATM   22  C16 UNL     1      22.197  52.737  17.311  1.00  0.00     0.066 A 
BRANCH  20  23
HETATM   23  O2  UNL     1      23.024  53.641  19.494  1.00  0.00    -0.371 OA
ATOM     24  H2  UNL     1      22.364  53.981  20.087  1.00  0.00     0.212 HD
ENDBRANCH  20  23
ENDBRANCH   9  20
TORSDOF 6
ENDMDL
MODEL 3
REMARK VINA RESULT: -7.328684910      6.106      8.866
REMARK  6 active torsions:
REMARK  status: ('A' for Active; 'I' for Inactive)
REMARK    1  A    between atoms: C2_2  and  C3_3 
REMARK    2  A    between atoms: C3_3  and  C4_4 
REMARK       I    between atoms: C4_4  and  N1_6 
REMARK    3  A    between atoms: N1_6  and  C5_8 
REMARK    4  A    between atoms: C5_8  and  C6_9 
REMARK    5  A    between atoms: N2_18  and  C14_20 
REMARK    6  A    between atoms: C14_20  and  O2_21 
ROOT
HETATM    1  C3  UNL     1      24.970  48.747  20.838  1.00  0.00     0.079 C 
HETATM    2  C7  UNL     1      23.927  48.436  19.798  1.00  0.00     0.026 C 
HETATM    3  C8  UNL     1      23.917  49.431  18.674  1.00  0.00     0.011 C 
HETATM    4  C9  UNL     1      23.782  50.845  19.077  1.00  0.00    -0.043 C 
HETATM    5  C10 UNL     1      22.334  51.281  18.800  1.00  0.00     0.015 C 
HETATM    6  C11 UNL     1      24.612  51.692  18.099  1.00  0.00     0.015 C 
HETATM    7  C12 UNL     1      24.102  51.194  20.469  1.00  0.00     0.062 C 
HETATM    8  C13 UNL     1      24.710  50.134  21.287  1.00  0.00     0.003 C 
HETATM    9  N2  UNL     1      25.045  50.431  22.486  1.00  0.00    -0.364 N 
ATOM     10  H2  UNL     1      25.469  49.700  23.058  1.00  0.00     0.162 HD
ENDROOT
BRANCH   1  11
HETATM   11  C2  UNL     1      26.369  48.722  20.253  1.00  0.00     0.021 C 
HETATM   12  C1  UNL     1      26.564  47.528  19.382  1.00  0.00     0.006 C 
ENDBRANCH   1  11
BRANCH   1  13
HETATM   13  C4  UNL     1      24.816  47.761  21.931  1.00  0.00     0.232 C 
HETATM   14  O1  UNL     1      23.696  47.433  22.404  1.00  0.00    -0.272 OA
HETATM   15  N1  UNL     1      25.954  47.139  22.496  1.00  0.00    -0.359 N 
ATOM     16  H1  UNL     1      26.869  47.393  22.123  1.00  0.00     0.162 HD
BRANCH  15  17
HETATM   17  C5  UNL     1      25.912  46.172  23.558  1.00  0.00     0.133 C 
BRANCH  17  18
HETATM   18  C6  UNL     1      26.548  46.602  24.838  1.00  0.00     0.105 C 
HETATM   19  S1  UNL     1      25.574  47.960  25.592  1.00  0.00    -0.096 SA
ENDBRANCH  17  18
ENDBRANCH  15  17
ENDBRANCH   1  13
BRANCH   9  20
HETATM   20  C14 UNL     1      24.864  51.717  23.073  1.00  0.00     0.131 A 
HETATM   21  C15 UNL     1      24.312  51.659  24.495  1.00  0.00     0.066 A 
HETATM   22  C16 UNL     1      23.484  52.193  23.382  1.00  0.00     0.066 A 
BRANCH  20  23
HETATM   23  O2  UNL     1      25.902  52.622  22.900  1.00  0.00    -0.371 OA
ATOM     24  H2  UNL     1      26.251  53.018  23.690  1.00  0.00     0.212 HD
ENDBRANCH  20  23
ENDBRANCH   9  20
TORSDOF 6
ENDMDL
MODEL 4
REMARK VINA RESULT: -7.248269323      3.850      8.311
REMARK  6 active torsions:
REMARK  status: ('A' for Active; 'I' for Inactive)
REMARK    1  A    between atoms: C2_2  and  C3_3 
REMARK    2  A    between atoms: C3_3  and  C4_4 
REMARK       I    between atoms: C4_4  and  N1_6 
REMARK    3  A    between atoms: N1_6  and  C5_8 
REMARK    4  A    between atoms: C5_8  and  C6_9 
REMARK    5  A    between atoms: N2_18  and  C14_20 
REMARK    6  A    between atoms: C14_20  and  O2_21 
ROOT
HETATM    1  C3  UNL     1      23.494  51.125  19.447  1.00  0.00     0.079 C 
HETATM    2  C7  UNL     1      24.441  50.316  18.603  1.00  0.00     0.026 C 
HETATM    3  C8  UNL     1      24.708  48.954  19.177  1.00  0.00     0.011 C 
HETATM    4  C9  UNL     1      25.178  48.934  20.575  1.00  0.00    -0.043 C 
HETATM    5  C10 UNL     1      26.693  48.666  20.562  1.00  0.00     0.015 C 
HETATM    6  C11 UNL     1      24.593  47.682  21.249  1.00  0.00     0.015 C 
HETATM    7  C12 UNL     1      24.938  50.129  21.396  1.00  0.00     0.062 C 
HETATM    8  C13 UNL     1      24.079  51.167  20.806  1.00  0.00     0.003 C 
HETATM    9  N2  UNL     1      23.813  52.193  21.524  1.00  0.00    -0.364 N 
ATOM     10  H2  UNL     1      23.218  52.916  21.121  1.00  0.00     0.162 HD
ENDROOT
BRANCH   1  11
HETATM   11  C2  UNL     1      22.139  50.456  19.566  1.00  0.00     0.021 C 
HETATM   12  C1  UNL     1      21.400  50.508  18.271  1.00  0.00     0.006 C 
ENDBRANCH   1  11
BRANCH   1  13
HETATM   13  C4  UNL     1      23.390  52.468  18.835  1.00  0.00     0.232 C 
HETATM   14  O1  UNL     1      22.707  53.399  19.338  1.00  0.00    -0.272 OA
HETATM   15  N1  UNL     1      24.072  52.757  17.629  1.00  0.00    -0.359 N 
ATOM     16  H1  UNL     1      24.630  52.014  17.209  1.00  0.00     0.162 HD
BRANCH  15  17
HETATM   17  C5  UNL     1      24.035  54.026  16.956  1.00  0.00     0.133 C 
BRANCH  17  18
HETATM   18  C6  UNL     1      22.995  54.154  15.892  1.00  0.00     0.105 C 
HETATM   19  S1  UNL     1      23.729  54.909  14.392  1.00  0.00    -0.096 SA
ENDBRANCH  17  18
ENDBRANCH  15  17
ENDBRANCH   1  13
BRANCH   9  20
HETATM   20  C14 UNL     1      24.296  52.390  22.851  1.00  0.00     0.131 A 
HETATM   21  C15 UNL     1      23.603  51.504  23.883  1.00  0.00     0.066 A 
HETATM   22  C16 UNL     1      23.389  52.975  23.881  1.00  0.00     0.066 A 
BRANCH  20  23
HETATM   23  O2  UNL     1      25.674  52.465  22.997  1.00  0.00    -0.371 OA
ATOM     24  H2  UNL     1      26.049  53.338  23.002  1.00  0.00     0.212 HD
ENDBRANCH  20  23
ENDBRANCH   9  20
TORSDOF 6
ENDMDL
MODEL 5
REMARK VINA RESULT: -7.152884860      6.007      8.823
REMARK  6 active torsions:
REMARK  status: ('A' for Active; 'I' for Inactive)
REMARK    1  A    between atoms: C2_2  and  C3_3 
REMARK    2  A    between atoms: C3_3  and  C4_4 
REMARK       I    between atoms: C4_4  and  N1_6 
REMARK    3  A    between atoms: N1_6  and  C5_8 
REMARK    4  A    between atoms: C5_8  and  C6_9 
REMARK    5  A    between atoms: N2_18  and  C14_20 
REMARK    6  A    between atoms: C14_20  and  O2_21 
ROOT
HETATM    1  C3  UNL     1      24.779  49.111  21.188  1.00  0.00     0.079 C 
HETATM    2  C7  UNL     1      23.818  48.507  20.200  1.00  0.00     0.026 C 
HETATM    3  C8  UNL     1      23.738  49.287  18.920  1.00  0.00     0.011 C 
HETATM    4  C9  UNL     1      23.430  50.723  19.069  1.00  0.00    -0.043 C 
HETATM    5  C10 UNL     1      21.953  50.933  18.694  1.00  0.00     0.015 C 
HETATM    6  C11 UNL     1      24.195  51.483  17.972  1.00  0.00     0.015 C 
HETATM    7  C12 UNL     1      23.655  51.339  20.384  1.00  0.00     0.062 C 
HETATM    8  C13 UNL     1      24.348  50.514  21.384  1.00  0.00     0.003 C 
HETATM    9  N2  UNL     1      24.601  51.049  22.519  1.00  0.00    -0.364 N 
ATOM     10  H2  UNL     1      25.082  50.481  23.218  1.00  0.00     0.162 HD
ENDROOT
BRANCH   1  11
HETATM   11  C2  UNL     1      26.193  49.152  20.642  1.00  0.00     0.021 C 
HETATM   12  C1  UNL     1      26.600  47.820  20.110  1.00  0.00     0.006 C 
ENDBRANCH   1  11
BRANCH   1  13
HETATM   13  C4  UNL     1      24.696  48.315  22.433  1.00  0.00     0.232 C 
HETATM   14  O1  UNL     1      24.656  48.837  23.578  1.00  0.00    -0.272 OA
HETATM   15  N1  UNL     1      24.658  46.902  22.375  1.00  0.00    -0.359 N 
ATOM     16  H1  UNL     1      24.690  46.464  21.454  1.00  0.00     0.162 HD
BRANCH  15  17
HETATM   17  C5  UNL     1      24.579  46.040  23.522  1.00  0.00     0.133 C 
BRANCH  17  18
HETATM   18  C6  UNL     1      25.780  46.047  24.410  1.00  0.00     0.105 C 
HETATM   19  S1  UNL     1      27.302  45.902  23.399  1.00  0.00    -0.096 SA
ENDBRANCH  17  18
ENDBRANCH  15  17
ENDBRANCH   1  13
BRANCH   9  20
HETATM   20  C14 UNL     1      24.254  52.386  22.871  1.00  0.00     0.131 A 
HETATM   21  C15 UNL     1      24.247  52.632  24.377  1.00  0.00     0.066 A 
HETATM   22  C16 UNL     1      22.979  52.642  23.602  1.00  0.00     0.066 A 
BRANCH  20  23
HETATM   23  O2  UNL     1      24.860  53.391  22.130  1.00  0.00    -0.371 OA
ATOM     24  H2  UNL     1      25.066  54.192  22.599  1.00  0.00     0.212 HD
ENDBRANCH  20  23
ENDBRANCH   9  20
TORSDOF 6
ENDMDL
