MODEL 1
REMARK VINA RESULT: -7.939405837      0.000      0.000
REMARK  7 active torsions:
REMARK  status: ('A' for Active; 'I' for Inactive)
REMARK    1  A    between atoms: C1_2  and  C2_3 
REMARK       I    between atoms: C1_2  and  N3_20 
REMARK    2  A    between atoms: C2_3  and  C3_4 
REMARK    3  A    between atoms: C3_4  and  N1_5 
REMARK    4  A    between atoms: N1_5  and  C4_7 
REMARK    5  A    between atoms: C9_12  and  C10_13 
REMARK    6  A    between atoms: C10_13  and  O2_14 
REMARK    7  A    between atoms: N2_16  and  O3_18 
ROOT
HETATM    1  C4  UNL     1      24.601  50.203  22.278  1.00  0.00     0.088 C 
HETATM    2  C5  UNL     1      23.405  50.645  23.076  1.00  0.00     0.025 C 
HETATM    3  C6  UNL     1      23.987  51.308  24.315  1.00  0.00     0.002 C 
HETATM    4  C7  UNL     1      24.515  52.662  23.828  1.00  0.00     0.001 C 
HETATM    5  C8  UNL     1      25.480  52.532  22.714  1.00  0.00     0.015 C 
HETATM    6  C9  UNL     1      25.208  51.476  21.711  1.00  0.00     0.084 C 
ENDROOT
BRANCH   1   7
HETATM    7  N1  UNL     1      24.260  49.336  21.184  1.00  0.00    -0.416 N 
ATOM      8  H1  UNL     1      23.536  49.572  20.506  1.00  0.00     0.153 HD
BRANCH   7   9
HETATM    9  C3  UNL     1      25.001  48.130  21.112  1.00  0.00     0.123 C 
BRANCH   9  10
HETATM   10  C2  UNL     1      26.169  48.162  20.154  1.00  0.00     0.122 C 
BRANCH  10  11
HETATM   11  C1  UNL     1      25.697  47.895  18.748  1.00  0.00     0.221 C 
HETATM   12  O1  UNL     1      24.704  48.527  18.307  1.00  0.00    -0.273 OA
HETATM   13  N3  UNL     1      26.334  46.958  17.913  1.00  0.00    -0.352 N 
HETATM   14  C11 UNL     1      27.492  46.204  18.381  1.00  0.00     0.125 C 
HETATM   15  C15 UNL     1      25.837  46.740  16.581  1.00  0.00     0.125 C 
HETATM   16  C12 UNL     1      28.670  46.653  17.540  1.00  0.00     0.020 C 
HETATM   17  C13 UNL     1      28.241  47.401  16.306  1.00  0.00     0.003 C 
HETATM   18  C14 UNL     1      27.030  46.789  15.628  1.00  0.00     0.020 C 
ENDBRANCH  10  11
ENDBRANCH   9  10
ENDBRANCH   7   9
ENDBRANCH   1   7
BRANCH   6  19
HETATM   19  C10 UNL     1      24.461  51.953  20.526  1.00  0.00     0.141 C 
HETATM   20  N2  UNL     1      23.605  52.908  20.622  1.00  0.00    -0.251 N 
ATOM     21  H2  UNL     1      23.445  53.338  21.533  1.00  0.00     0.196 HD
BRANCH  19  22
HETATM   22  O2  UNL     1      24.663  51.383  19.285  1.00  0.00    -0.348 OA
ATOM     23  H2  UNL     1      25.446  51.574  18.782  1.00  0.00     0.219 HD
ENDBRANCH  19  22
BRANCH  20  24
HETATM   24  O3  UNL     1      22.902  53.366  19.543  1.00  0.00    -0.288 OA
ATOM     25  H3  UNL     1      22.651  54.278  19.452  1.00  0.00     0.244 HD
ENDBRANCH  20  24
ENDBRANCH   6  19
TORSDOF 7
ENDMDL
MODEL 2
REMARK VINA RESULT: -7.386845538      4.162      6.572
REMARK  7 active torsions:
REMARK  status: ('A' for Active; 'I' for Inactive)
REMARK    1  A    between atoms: C1_2  and  C2_3 
REMARK       I    between atoms: C1_2  and  N3_20 
REMARK    2  A    between atoms: C2_3  and  C3_4 
REMARK    3  A    between atoms: C3_4  and  N1_5 
REMARK    4  A    between atoms: N1_5  and  C4_7 
REMARK    5  A    between atoms: C9_12  and  C10_13 
REMARK    6  A    between atoms: C10_13  and  O2_14 
REMARK    7  A    between atoms: N2_16  and  O3_18 
ROOT
HETATM    1  C4  UNL     1      23.175  53.282  16.212  1.00  0.00     0.088 C 
HETATM    2  C5  UNL     1      24.573  52.755  16.385  1.00  0.00     0.025 C 
HETATM    3  C6  UNL     1      24.969  52.245  15.008  1.00  0.00     0.002 C 
HETATM    4  C7  UNL     1      25.245  53.506  14.183  1.00  0.00     0.001 C 
HETATM    5  C8  UNL     1      24.098  54.440  14.164  1.00  0.00     0.015 C 
HETATM    6  C9  UNL     1      23.318  54.570  15.417  1.00  0.00     0.084 C 
ENDROOT
BRANCH   1   7
HETATM    7  N1  UNL     1      22.529  53.588  17.459  1.00  0.00    -0.416 N 
ATOM      8  H1  UNL     1      22.805  54.383  18.035  1.00  0.00     0.153 HD
BRANCH   7   9
HETATM    9  C3  UNL     1      21.481  52.709  17.832  1.00  0.00     0.123 C 
BRANCH   9  10
HETATM   10  C2  UNL     1      21.933  51.447  18.528  1.00  0.00     0.122 C 
BRANCH  10  11
HETATM   11  C1  UNL     1      23.007  51.765  19.537  1.00  0.00     0.221 C 
HETATM   12  O1  UNL     1      22.957  52.857  20.158  1.00  0.00    -0.273 OA
HETATM   13  N3  UNL     1      24.064  50.876  19.805  1.00  0.00    -0.352 N 
HETATM   14  C11 UNL     1      24.161  49.596  19.112  1.00  0.00     0.125 C 
HETATM   15  C15 UNL     1      25.065  51.234  20.775  1.00  0.00     0.125 C 
HETATM   16  C12 UNL     1      23.966  48.520  20.160  1.00  0.00     0.020 C 
HETATM   17  C13 UNL     1      24.111  49.052  21.560  1.00  0.00     0.003 C 
HETATM   18  C14 UNL     1      25.252  50.040  21.709  1.00  0.00     0.020 C 
ENDBRANCH  10  11
ENDBRANCH   9  10
ENDBRANCH   7   9
ENDBRANCH   1   7
BRANCH   6  19
HETATM   19  C10 UNL     1      23.749  55.694  16.277  1.00  0.00     0.141 C 
HETATM   20  N2  UNL     1      23.352  56.896  16.045  1.00  0.00    -0.251 N 
ATOM     21  H2  UNL     1      22.731  57.066  15.254  1.00  0.00     0.196 HD
BRANCH  19  22
HETATM   22  O2  UNL     1      24.590  55.484  17.351  1.00  0.00    -0.348 OA
ATOM     23  H2  UNL     1      24.257  55.493  18.240  1.00  0.00     0.219 HD
ENDBRANCH  19  22
BRANCH  20  24
HETATM   24  O3  UNL     1      23.735  57.952  16.824  1.00  0.00    -0.288 OA
ATOM     25  H3  UNL     1      23.184  58.296  17.517  1.00  0.00     0.244 HD
ENDBRANCH  20  24
ENDBRANCH   6  19
TORSDOF 7
ENDMDL
MODEL 3
REMARK VINA RESULT: -7.329459767      4.637      6.948
REMARK  7 active torsions:
REMARK  status: ('A' for Active; 'I' for Inactive)
REMARK    1  A    between atoms: C1_2  and  C2_3 
REMARK       I    between atoms: C1_2  and  N3_20 
REMARK    2  A    between atoms: C2_3  and  C3_4 
REMARK    3  A    between atoms: C3_4  and  N1_5 
REMARK    4  A    between atoms: N1_5  and  C4_7 
REMARK    5  A    between atoms: C9_12  and  C10_13 
REMARK    6  A    between atoms: C10_13  and  O2_14 
REMARK    7  A    between atoms: N2_16  and  O3_18 
ROOT
HETATM    1  C4  UNL     1      24.186  51.407  19.161  1.00  0.00     0.088 C 
HETATM    2  C5  UNL     1      23.249  50.235  19.268  1.00  0.00     0.025 C 
HETATM    3  C6  UNL     1      24.116  49.017  18.993  1.00  0.00     0.002 C 
HETATM    4  C7  UNL     1      24.949  48.827  20.265  1.00  0.00     0.001 C 
HETATM    5  C8  UNL     1      25.720  50.036  20.630  1.00  0.00     0.015 C 
HETATM    6  C9  UNL     1      25.063  51.344  20.401  1.00  0.00     0.084 C 
ENDROOT
BRANCH   1   7
HETATM    7  N1  UNL     1      23.507  52.673  19.149  1.00  0.00    -0.416 N 
ATOM      8  H1  UNL     1      23.362  53.222  19.995  1.00  0.00     0.153 HD
BRANCH   7   9
HETATM    9  C3  UNL     1      23.053  53.106  17.877  1.00  0.00     0.123 C 
BRANCH   9  10
HETATM   10  C2  UNL     1      24.123  53.704  16.995  1.00  0.00     0.122 C 
BRANCH  10  11
HETATM   11  C1  UNL     1      23.870  55.177  16.794  1.00  0.00     0.221 C 
HETATM   12  O1  UNL     1      24.172  55.979  17.713  1.00  0.00    -0.273 OA
HETATM   13  N3  UNL     1      23.306  55.680  15.607  1.00  0.00    -0.352 N 
HETATM   14  C11 UNL     1      22.944  54.787  14.512  1.00  0.00     0.125 C 
HETATM   15  C15 UNL     1      23.082  57.095  15.472  1.00  0.00     0.125 C 
HETATM   16  C12 UNL     1      23.858  55.129  13.353  1.00  0.00     0.020 C 
HETATM   17  C13 UNL     1      24.547  56.454  13.540  1.00  0.00     0.003 C 
HETATM   18  C14 UNL     1      23.640  57.524  14.116  1.00  0.00     0.020 C 
ENDBRANCH  10  11
ENDBRANCH   9  10
ENDBRANCH   7   9
ENDBRANCH   1   7
BRANCH   6  19
HETATM   19  C10 UNL     1      24.362  51.879  21.590  1.00  0.00     0.141 C 
HETATM   20  N2  UNL     1      23.856  51.091  22.471  1.00  0.00    -0.251 N 
ATOM     21  H2  UNL     1      23.944  50.083  22.340  1.00  0.00     0.196 HD
BRANCH  19  22
HETATM   22  O2  UNL     1      24.232  53.239  21.783  1.00  0.00    -0.348 OA
ATOM     23  H2  UNL     1      24.774  53.854  21.304  1.00  0.00     0.219 HD
ENDBRANCH  19  22
BRANCH  20  24
HETATM   24  O3  UNL     1      23.203  51.558  23.577  1.00  0.00    -0.288 OA
ATOM     25  H3  UNL     1      23.635  52.097  24.230  1.00  0.00     0.244 HD
ENDBRANCH  20  24
ENDBRANCH   6  19
TORSDOF 7
ENDMDL
MODEL 4
REMARK VINA RESULT: -7.324535160      8.198     10.625
REMARK  7 active torsions:
REMARK  status: ('A' for Active; 'I' for Inactive)
REMARK    1  A    between atoms: C1_2  and  C2_3 
REMARK       I    between atoms: C1_2  and  N3_20 
REMARK    2  A    between atoms: C2_3  and  C3_4 
REMARK    3  A    between atoms: C3_4  and  N1_5 
REMARK    4  A    between atoms: N1_5  and  C4_7 
REMARK    5  A    between atoms: C9_12  and  C10_13 
REMARK    6  A    between atoms: C10_13  and  O2_14 
REMARK    7  A    between atoms: N2_16  and  O3_18 
ROOT
HETATM    1  C4  UNL     1      23.547  56.452  12.941  1.00  0.00     0.088 C 
HETATM    2  C5  UNL     1      24.939  55.918  12.738  1.00  0.00     0.025 C 
HETATM    3  C6  UNL     1      24.746  54.455  12.375  1.00  0.00     0.002 C 
HETATM    4  C7  UNL     1      24.238  54.468  10.930  1.00  0.00     0.001 C 
HETATM    5  C8  UNL     1      23.019  55.289  10.759  1.00  0.00     0.015 C 
HETATM    6  C9  UNL     1      22.936  56.539  11.552  1.00  0.00     0.084 C 
ENDROOT
BRANCH   1   7
HETATM    7  N1  UNL     1      23.525  57.762  13.530  1.00  0.00    -0.416 N 
ATOM      8  H1  UNL     1      23.184  58.581  13.025  1.00  0.00     0.153 HD
BRANCH   7   9
HETATM    9  C3  UNL     1      24.008  57.839  14.860  1.00  0.00     0.123 C 
BRANCH   9  10
HETATM   10  C2  UNL     1      23.139  57.154  15.888  1.00  0.00     0.122 C 
BRANCH  10  11
HETATM   11  C1  UNL     1      23.881  56.001  16.514  1.00  0.00     0.221 C 
HETATM   12  O1  UNL     1      24.846  56.242  17.283  1.00  0.00    -0.273 OA
HETATM   13  N3  UNL     1      23.527  54.663  16.262  1.00  0.00    -0.352 N 
HETATM   14  C11 UNL     1      22.412  54.336  15.380  1.00  0.00     0.125 C 
HETATM   15  C15 UNL     1      24.275  53.601  16.883  1.00  0.00     0.125 C 
HETATM   16  C12 UNL     1      21.352  53.683  16.243  1.00  0.00     0.020 C 
HETATM   17  C13 UNL     1      21.891  53.248  17.579  1.00  0.00     0.003 C 
HETATM   18  C14 UNL     1      23.271  52.624  17.493  1.00  0.00     0.020 C 
ENDBRANCH  10  11
ENDBRANCH   9  10
ENDBRANCH   7   9
ENDBRANCH   1   7
BRANCH   6  19
HETATM   19  C10 UNL     1      23.404  57.741  10.827  1.00  0.00     0.141 C 
HETATM   20  N2  UNL     1      24.323  57.658   9.930  1.00  0.00    -0.251 N 
ATOM     21  H2  UNL     1      24.729  56.745   9.722  1.00  0.00     0.196 HD
BRANCH  19  22
HETATM   22  O2  UNL     1      22.869  58.984  11.095  1.00  0.00    -0.348 OA
ATOM     23  H2  UNL     1      23.255  59.771  10.729  1.00  0.00     0.219 HD
ENDBRANCH  19  22
BRANCH  20  24
HETATM   24  O3  UNL     1      24.774  58.752   9.246  1.00  0.00    -0.288 OA
ATOM     25  H3  UNL     1      24.697  58.827   8.303  1.00  0.00     0.244 HD
ENDBRANCH  20  24
ENDBRANCH   6  19
TORSDOF 7
ENDMDL
MODEL 5
REMARK VINA RESULT: -7.275424361      3.831      6.997
REMARK  7 active torsions:
REMARK  status: ('A' for Active; 'I' for Inactive)
REMARK    1  A    between atoms: C1_2  and  C2_3 
REMARK       I    between atoms: C1_2  and  N3_20 
REMARK    2  A    between atoms: C2_3  and  C3_4 
REMARK    3  A    between atoms: C3_4  and  N1_5 
REMARK    4  A    between atoms: N1_5  and  C4_7 
REMARK    5  A    between atoms: C9_12  and  C10_13 
REMARK    6  A    between atoms: C10_13  and  O2_14 
REMARK    7  A    between atoms: N2_16  and  O3_18 
ROOT
HETATM    1  C4  UNL     1      23.566  52.675  16.428  1.00  0.00     0.088 C 
HETATM    2  C5  UNL     1      25.019  52.623  16.043  1.00  0.00     0.025 C 
HETATM    3  C6  UNL     1      25.021  52.636  14.523  1.00  0.00     0.002 C 
HETATM    4  C7  UNL     1      24.681  54.079  14.138  1.00  0.00     0.001 C 
HETATM    5  C8  UNL     1      23.411  54.547  14.736  1.00  0.00     0.015 C 
HETATM    6  C9  UNL     1      23.110  54.092  16.113  1.00  0.00     0.084 C 
ENDROOT
BRANCH   1   7
HETATM    7  N1  UNL     1      23.342  52.426  17.825  1.00  0.00    -0.416 N 
ATOM      8  H1  UNL     1      22.670  52.963  18.374  1.00  0.00     0.153 HD
BRANCH   7   9
HETATM    9  C3  UNL     1      24.120  51.384  18.388  1.00  0.00     0.123 C 
BRANCH   9  10
HETATM   10  C2  UNL     1      23.610  50.860  19.710  1.00  0.00     0.122 C 
BRANCH  10  11
HETATM   11  C1  UNL     1      23.638  51.952  20.749  1.00  0.00     0.221 C 
HETATM   12  O1  UNL     1      22.975  53.002  20.548  1.00  0.00    -0.273 OA
HETATM   13  N3  UNL     1      24.382  51.832  21.937  1.00  0.00    -0.352 N 
HETATM   14  C11 UNL     1      25.162  50.631  22.214  1.00  0.00     0.125 C 
HETATM   15  C15 UNL     1      24.376  52.909  22.891  1.00  0.00     0.125 C 
HETATM   16  C12 UNL     1      24.523  49.967  23.416  1.00  0.00     0.020 C 
HETATM   17  C13 UNL     1      23.583  50.888  24.146  1.00  0.00     0.003 C 
HETATM   18  C14 UNL     1      24.109  52.305  24.269  1.00  0.00     0.020 C 
ENDBRANCH  10  11
ENDBRANCH   9  10
ENDBRANCH   7   9
ENDBRANCH   1   7
BRANCH   6  19
HETATM   19  C10 UNL     1      23.531  55.044  17.165  1.00  0.00     0.141 C 
HETATM   20  N2  UNL     1      23.938  56.227  16.864  1.00  0.00    -0.251 N 
ATOM     21  H2  UNL     1      23.967  56.503  15.882  1.00  0.00     0.196 HD
BRANCH  19  22
HETATM   22  O2  UNL     1      23.500  54.687  18.498  1.00  0.00    -0.348 OA
ATOM     23  H2  UNL     1      24.300  54.629  19.006  1.00  0.00     0.219 HD
ENDBRANCH  19  22
BRANCH  20  24
HETATM   24  O3  UNL     1      24.333  57.125  17.815  1.00  0.00    -0.288 OA
ATOM     25  H3  UNL     1      24.870  57.879  17.607  1.00  0.00     0.244 HD
ENDBRANCH  20  24
ENDBRANCH   6  19
TORSDOF 7
ENDMDL
