MODEL 1
REMARK VINA RESULT: -5.771803334      0.000      0.000
REMARK  1 active torsions:
REMARK  status: ('A' for Active; 'I' for Inactive)
REMARK       I    between atoms: C2_2  and  N1_4 
REMARK    1  A    between atoms: C3_5  and  O2_6 
ROOT
HETATM    1  C1  UNL     1      37.896  44.271   7.274  1.00  0.00     0.118 C 
HETATM    2  C2  UNL     1      37.200  45.283   8.096  1.00  0.00     0.232 C 
HETATM    3  O1  UNL     1      37.908  46.250   8.593  1.00  0.00    -0.273 OA
HETATM    4  N1  UNL     1      35.826  45.212   8.338  1.00  0.00    -0.203 N 
HETATM    5  C3  UNL     1      35.412  46.339   9.213  1.00  0.00     0.315 C 
HETATM    6  S1  UNL     1      35.232  47.859   8.252  1.00  0.00    -0.031 SA
HETATM    7  S2  UNL     1      33.136  48.130   7.855  1.00  0.00    -0.015 SA
HETATM    8  S3  UNL     1      32.494  46.513   6.658  1.00  0.00    -0.043 SA
HETATM    9  C4  UNL     1      32.346  44.991   7.658  1.00  0.00     0.060 A 
HETATM   10  C5  UNL     1      33.249  44.040   8.004  1.00  0.00     0.106 A 
HETATM   11  C6  UNL     1      32.803  43.013   8.777  1.00  0.00     0.077 A 
HETATM   12  S4  UNL     1      31.158  43.376   9.011  1.00  0.00    -0.091 SA
HETATM   13  C7  UNL     1      31.075  44.825   8.120  1.00  0.00     0.070 A 
HETATM   14 BR1  UNL     1      29.549  45.972   7.826  1.00  0.00    -0.042 Br
HETATM   15  S5  UNL     1      35.001  43.917   7.590  1.00  0.00     0.272 S 
HETATM   16  O3  UNL     1      35.117  44.073   6.093  1.00  0.00    -0.200 OA
HETATM   17  O4  UNL     1      35.458  42.570   7.966  1.00  0.00    -0.200 OA
ENDROOT
BRANCH   5  18
HETATM   18  O2  UNL     1      36.304  46.452  10.248  1.00  0.00    -0.366 OA
ATOM     19  H2  UNL     1      36.108  47.240  10.741  1.00  0.00     0.213 HD
ENDBRANCH   5  18
TORSDOF 1
ENDMDL
MODEL 2
REMARK VINA RESULT: -5.749831085      2.175      2.599
REMARK  1 active torsions:
REMARK  status: ('A' for Active; 'I' for Inactive)
REMARK       I    between atoms: C2_2  and  N1_4 
REMARK    1  A    between atoms: C3_5  and  O2_6 
ROOT
HETATM    1  C1  UNL     1      35.139  43.250   9.187  1.00  0.00     0.118 C 
HETATM    2  C2  UNL     1      35.060  44.713   9.379  1.00  0.00     0.232 C 
HETATM    3  O1  UNL     1      36.139  45.335   9.744  1.00  0.00    -0.273 OA
HETATM    4  N1  UNL     1      33.869  45.415   9.179  1.00  0.00    -0.203 N 
HETATM    5  C3  UNL     1      34.081  46.856   9.473  1.00  0.00     0.315 C 
HETATM    6  S1  UNL     1      34.879  47.680   8.076  1.00  0.00    -0.031 SA
HETATM    7  S2  UNL     1      33.349  48.704   6.967  1.00  0.00    -0.015 SA
HETATM    8  S3  UNL     1      32.024  47.248   6.203  1.00  0.00    -0.043 SA
HETATM    9  C4  UNL     1      30.952  46.595   7.531  1.00  0.00     0.060 A 
HETATM   10  C5  UNL     1      31.125  45.593   8.428  1.00  0.00     0.106 A 
HETATM   11  C6  UNL     1      30.108  45.359   9.301  1.00  0.00     0.077 A 
HETATM   12  S4  UNL     1      28.939  46.517   8.870  1.00  0.00    -0.091 SA
HETATM   13  C7  UNL     1      29.770  47.272   7.590  1.00  0.00     0.070 A 
HETATM   14 BR1  UNL     1      29.191  48.741   6.478  1.00  0.00    -0.042 Br
HETATM   15  S5  UNL     1      32.533  44.488   8.656  1.00  0.00     0.272 S 
HETATM   16  O3  UNL     1      32.858  43.895   7.306  1.00  0.00    -0.200 OA
HETATM   17  O4  UNL     1      32.114  43.408   9.564  1.00  0.00    -0.200 OA
ENDROOT
BRANCH   5  18
HETATM   18  O2  UNL     1      34.779  46.975  10.647  1.00  0.00    -0.366 OA
ATOM     19  H2  UNL     1      35.152  47.846  10.698  1.00  0.00     0.213 HD
ENDBRANCH   5  18
TORSDOF 1
ENDMDL
MODEL 3
REMARK VINA RESULT: -5.624092183      3.476      5.290
REMARK  1 active torsions:
REMARK  status: ('A' for Active; 'I' for Inactive)
REMARK       I    between atoms: C2_2  and  N1_4 
REMARK    1  A    between atoms: C3_5  and  O2_6 
ROOT
HETATM    1  C1  UNL     1      29.945  45.366   8.106  1.00  0.00     0.118 C 
HETATM    2  C2  UNL     1      30.642  46.186   7.093  1.00  0.00     0.232 C 
HETATM    3  O1  UNL     1      29.938  47.043   6.420  1.00  0.00    -0.273 OA
HETATM    4  N1  UNL     1      32.012  46.052   6.858  1.00  0.00    -0.203 N 
HETATM    5  C3  UNL     1      32.427  46.978   5.772  1.00  0.00     0.315 C 
HETATM    6  S1  UNL     1      32.633  48.656   6.410  1.00  0.00    -0.031 SA
HETATM    7  S2  UNL     1      34.735  48.977   6.726  1.00  0.00    -0.015 SA
HETATM    8  S3  UNL     1      35.375  47.623   8.215  1.00  0.00    -0.043 SA
HETATM    9  C4  UNL     1      35.497  45.931   7.536  1.00  0.00     0.060 A 
HETATM   10  C5  UNL     1      34.582  44.941   7.395  1.00  0.00     0.106 A 
HETATM   11  C6  UNL     1      35.009  43.776   6.838  1.00  0.00     0.077 A 
HETATM   12  S4  UNL     1      36.655  44.066   6.522  1.00  0.00    -0.091 SA
HETATM   13  C7  UNL     1      36.762  45.662   7.106  1.00  0.00     0.070 A 
HETATM   14 BR1  UNL     1      38.301  46.826   7.152  1.00  0.00    -0.042 Br
HETATM   15  S5  UNL     1      32.834  44.922   7.841  1.00  0.00     0.272 S 
HETATM   16  O3  UNL     1      32.735  45.375   9.278  1.00  0.00    -0.200 OA
HETATM   17  O4  UNL     1      32.359  43.533   7.745  1.00  0.00    -0.200 OA
ENDROOT
BRANCH   5  18
HETATM   18  O2  UNL     1      31.525  46.893   4.743  1.00  0.00    -0.366 OA
ATOM     19  H2  UNL     1      31.997  46.790   3.926  1.00  0.00     0.213 HD
ENDBRANCH   5  18
TORSDOF 1
ENDMDL
MODEL 4
REMARK VINA RESULT: -5.500080456      3.129      4.178
REMARK  1 active torsions:
REMARK  status: ('A' for Active; 'I' for Inactive)
REMARK       I    between atoms: C2_2  and  N1_4 
REMARK    1  A    between atoms: C3_5  and  O2_6 
ROOT
HETATM    1  C1  UNL     1      32.944  43.693   9.953  1.00  0.00     0.118 C 
HETATM    2  C2  UNL     1      33.826  44.879   9.962  1.00  0.00     0.232 C 
HETATM    3  O1  UNL     1      34.885  44.840  10.709  1.00  0.00    -0.273 OA
HETATM    4  N1  UNL     1      33.538  46.011   9.196  1.00  0.00    -0.203 N 
HETATM    5  C3  UNL     1      34.576  47.049   9.425  1.00  0.00     0.315 C 
HETATM    6  S1  UNL     1      36.061  46.689   8.459  1.00  0.00    -0.031 SA
HETATM    7  S2  UNL     1      36.007  47.928   6.703  1.00  0.00    -0.015 SA
HETATM    8  S3  UNL     1      34.324  47.356   5.563  1.00  0.00    -0.043 SA
HETATM    9  C4  UNL     1      32.786  47.974   6.332  1.00  0.00     0.060 A 
HETATM   10  C5  UNL     1      31.983  47.462   7.297  1.00  0.00     0.106 A 
HETATM   11  C6  UNL     1      30.890  48.192   7.648  1.00  0.00     0.077 A 
HETATM   12  S4  UNL     1      30.990  49.563   6.646  1.00  0.00    -0.091 SA
HETATM   13  C7  UNL     1      32.418  49.176   5.804  1.00  0.00     0.070 A 
HETATM   14 BR1  UNL     1      33.316  50.188   4.427  1.00  0.00    -0.042 Br
HETATM   15  S5  UNL     1      32.139  45.919   8.220  1.00  0.00     0.272 S 
HETATM   16  O3  UNL     1      32.330  44.813   7.209  1.00  0.00    -0.200 OA
HETATM   17  O4  UNL     1      30.875  45.695   8.939  1.00  0.00    -0.200 OA
ENDROOT
BRANCH   5  18
HETATM   18  O2  UNL     1      34.815  47.152  10.772  1.00  0.00    -0.366 OA
ATOM     19  H2  UNL     1      35.212  47.995  10.952  1.00  0.00     0.213 HD
ENDBRANCH   5  18
TORSDOF 1
ENDMDL
MODEL 5
REMARK VINA RESULT: -5.484624736      1.028      1.053
REMARK  1 active torsions:
REMARK  status: ('A' for Active; 'I' for Inactive)
REMARK       I    between atoms: C2_2  and  N1_4 
REMARK    1  A    between atoms: C3_5  and  O2_6 
ROOT
HETATM    1  C1  UNL     1      38.301  43.544   6.971  1.00  0.00     0.118 C 
HETATM    2  C2  UNL     1      37.796  44.834   7.486  1.00  0.00     0.232 C 
HETATM    3  O1  UNL     1      38.657  45.781   7.696  1.00  0.00    -0.273 OA
HETATM    4  N1  UNL     1      36.438  45.039   7.743  1.00  0.00    -0.203 N 
HETATM    5  C3  UNL     1      36.231  46.410   8.277  1.00  0.00     0.315 C 
HETATM    6  S1  UNL     1      36.229  47.622   6.937  1.00  0.00    -0.031 SA
HETATM    7  S2  UNL     1      34.179  48.090   6.488  1.00  0.00    -0.015 SA
HETATM    8  S3  UNL     1      33.257  46.326   5.783  1.00  0.00    -0.043 SA
HETATM    9  C4  UNL     1      32.936  45.172   7.162  1.00  0.00     0.060 A 
HETATM   10  C5  UNL     1      33.706  44.225   7.752  1.00  0.00     0.106 A 
HETATM   11  C6  UNL     1      33.152  43.525   8.779  1.00  0.00     0.077 A 
HETATM   12  S4  UNL     1      31.589  44.182   8.910  1.00  0.00    -0.091 SA
HETATM   13  C7  UNL     1      31.676  45.331   7.656  1.00  0.00     0.070 A 
HETATM   14 BR1  UNL     1      30.320  46.573   7.065  1.00  0.00    -0.042 Br
HETATM   15  S5  UNL     1      35.402  43.731   7.382  1.00  0.00     0.272 S 
HETATM   16  O3  UNL     1      35.472  43.457   5.898  1.00  0.00    -0.200 OA
HETATM   17  O4  UNL     1      35.676  42.482   8.111  1.00  0.00    -0.200 OA
ENDROOT
BRANCH   5  18
HETATM   18  O2  UNL     1      37.175  46.663   9.239  1.00  0.00    -0.366 OA
ATOM     19  H2  UNL     1      36.756  46.667  10.090  1.00  0.00     0.213 HD
ENDBRANCH   5  18
TORSDOF 1
ENDMDL
