MODEL 1
REMARK VINA RESULT: -7.639015230      0.000      0.000
REMARK  4 active torsions:
REMARK  status: ('A' for Active; 'I' for Inactive)
REMARK    1  A    between atoms: C4_4  and  N1_5 
REMARK       I    between atoms: N1_5  and  C5_7 
REMARK    2  A    between atoms: C5_7  and  C6_9 
REMARK    3  A    between atoms: C6_9  and  C7_10 
REMARK    4  A    between atoms: C12_15  and  C14_17 
ROOT
HETATM    1  N1  UNL     1      -8.823  -5.630  12.046  1.00  0.00    -0.312 N 
ATOM      2  H1  UNL     1      -9.384  -5.002  12.622  1.00  0.00     0.170 HD
HETATM    3  C5  UNL     1      -8.056  -5.115  10.969  1.00  0.00     0.223 C 
HETATM    4  O1  UNL     1      -8.552  -5.142   9.788  1.00  0.00    -0.273 OA
ENDROOT
BRANCH   3   5
HETATM    5  C6  UNL     1      -6.710  -4.563  11.253  1.00  0.00     0.108 C 
BRANCH   5   6
HETATM    6  C7  UNL     1      -5.617  -5.517  10.882  1.00  0.00     0.003 C 
HETATM    7  C8  UNL     1      -5.252  -6.327  12.101  1.00  0.00     0.012 C 
HETATM    8  C9  UNL     1      -3.781  -6.508  12.174  1.00  0.00     0.009 C 
HETATM    9  C10 UNL     1      -3.237  -5.844  10.959  1.00  0.00     0.000 C 
HETATM   10  C12 UNL     1      -3.299  -7.832  11.610  1.00  0.00     0.049 C 
HETATM   11  C11 UNL     1      -3.294  -7.193  10.243  1.00  0.00     0.026 C 
HETATM   12  C15 UNL     1      -4.327  -4.898  10.486  1.00  0.00    -0.040 C 
HETATM   13  C16 UNL     1      -4.233  -4.894   8.967  1.00  0.00     0.015 C 
HETATM   14  C17 UNL     1      -4.043  -3.535  10.982  1.00  0.00     0.015 C 
HETATM   15  C13 UNL     1      -1.903  -8.190  12.083  1.00  0.00     0.027 C 
BRANCH  10  16
HETATM   16  C14 UNL     1      -4.306  -8.892  11.818  1.00  0.00     0.181 C 
HETATM   17  O2  UNL     1      -5.167  -9.208  10.958  1.00  0.00    -0.647 OA
HETATM   18  O3  UNL     1      -4.289  -9.573  13.045  1.00  0.00    -0.647 OA
ENDBRANCH  10  16
ENDBRANCH   5   6
ENDBRANCH   3   5
BRANCH   1  19
HETATM   19  C4  UNL     1      -8.809  -6.890  12.291  1.00  0.00     0.122 A 
HETATM   20  C3  UNL     1      -8.686  -7.389  13.563  1.00  0.00     0.058 A 
HETATM   21  C2  UNL     1      -8.678  -8.765  13.734  1.00  0.00    -0.035 A 
HETATM   22  C1  UNL     1      -8.544  -9.371  15.083  1.00  0.00     0.050 C 
HETATM   23  C18 UNL     1      -8.791  -9.599  12.653  1.00  0.00     0.028 A 
HETATM   24  N3  UNL     1      -8.908  -9.038  11.430  1.00  0.00    -0.303 N 
HETATM   25  C19 UNL     1      -8.794 -11.071  12.761  1.00  0.00     0.070 C 
HETATM   26  N2  UNL     1      -8.918  -7.735  11.232  1.00  0.00    -0.285 N 
ATOM     27  H3  UNL     1      -8.992  -9.653  10.620  1.00  0.00     0.186 HD
ATOM     28  H2  UNL     1      -9.009  -7.362  10.286  1.00  0.00     0.188 HD
ENDBRANCH   1  19
TORSDOF 4
ENDMDL
MODEL 2
REMARK VINA RESULT: -7.627513785      2.617      3.885
REMARK  4 active torsions:
REMARK  status: ('A' for Active; 'I' for Inactive)
REMARK    1  A    between atoms: C4_4  and  N1_5 
REMARK       I    between atoms: N1_5  and  C5_7 
REMARK    2  A    between atoms: C5_7  and  C6_9 
REMARK    3  A    between atoms: C6_9  and  C7_10 
REMARK    4  A    between atoms: C12_15  and  C14_17 
ROOT
HETATM    1  N1  UNL     1      -8.775  -5.191  14.090  1.00  0.00    -0.312 N 
ATOM      2  H1  UNL     1      -8.185  -4.984  14.897  1.00  0.00     0.170 HD
HETATM    3  C5  UNL     1      -9.644  -4.198  13.569  1.00  0.00     0.223 C 
HETATM    4  O1  UNL     1     -10.870  -4.191  13.943  1.00  0.00    -0.273 OA
ENDROOT
BRANCH   3   5
HETATM    5  C6  UNL     1      -9.100  -3.205  12.613  1.00  0.00     0.108 C 
BRANCH   5   6
HETATM    6  C7  UNL     1      -8.010  -3.779  11.761  1.00  0.00     0.003 C 
HETATM    7  C8  UNL     1      -6.805  -2.875  11.847  1.00  0.00     0.012 C 
HETATM    8  C9  UNL     1      -6.168  -2.741  10.515  1.00  0.00     0.009 C 
HETATM    9  C10 UNL     1      -6.960  -3.613   9.605  1.00  0.00     0.000 C 
HETATM   10  C12 UNL     1      -4.988  -3.672  10.305  1.00  0.00     0.049 C 
HETATM   11  C11 UNL     1      -5.967  -4.740   9.885  1.00  0.00     0.026 C 
HETATM   12  C15 UNL     1      -8.290  -3.834  10.304  1.00  0.00    -0.040 C 
HETATM   13  C16 UNL     1      -8.712  -5.250   9.940  1.00  0.00     0.015 C 
HETATM   14  C17 UNL     1      -9.290  -2.888   9.766  1.00  0.00     0.015 C 
HETATM   15  C13 UNL     1      -4.096  -3.228   9.161  1.00  0.00     0.027 C 
BRANCH  10  16
HETATM   16  C14 UNL     1      -4.277  -3.917  11.576  1.00  0.00     0.181 C 
HETATM   17  O2  UNL     1      -4.368  -4.990  12.224  1.00  0.00    -0.647 OA
HETATM   18  O3  UNL     1      -3.461  -2.889  12.072  1.00  0.00    -0.647 OA
ENDBRANCH  10  16
ENDBRANCH   5   6
ENDBRANCH   3   5
BRANCH   1  19
HETATM   19  C4  UNL     1      -8.735  -6.352  13.542  1.00  0.00     0.122 A 
HETATM   20  C3  UNL     1      -7.554  -6.968  13.214  1.00  0.00     0.058 A 
HETATM   21  C2  UNL     1      -7.606  -8.221  12.624  1.00  0.00    -0.035 A 
HETATM   22  C1  UNL     1      -6.365  -8.941  12.239  1.00  0.00     0.050 C 
HETATM   23  C18 UNL     1      -8.812  -8.824  12.378  1.00  0.00     0.028 A 
HETATM   24  N3  UNL     1      -9.934  -8.158  12.727  1.00  0.00    -0.303 N 
HETATM   25  C19 UNL     1      -8.942 -10.156  11.757  1.00  0.00     0.070 C 
HETATM   26  N2  UNL     1      -9.921  -6.966  13.289  1.00  0.00    -0.285 N 
ATOM     27  H3  UNL     1     -10.836  -8.600  12.546  1.00  0.00     0.186 HD
ATOM     28  H2  UNL     1     -10.798  -6.505  13.533  1.00  0.00     0.188 HD
ENDBRANCH   1  19
TORSDOF 4
ENDMDL
MODEL 3
REMARK VINA RESULT: -7.605932183      1.069      1.395
REMARK  4 active torsions:
REMARK  status: ('A' for Active; 'I' for Inactive)
REMARK    1  A    between atoms: C4_4  and  N1_5 
REMARK       I    between atoms: N1_5  and  C5_7 
REMARK    2  A    between atoms: C5_7  and  C6_9 
REMARK    3  A    between atoms: C6_9  and  C7_10 
REMARK    4  A    between atoms: C12_15  and  C14_17 
ROOT
HETATM    1  N1  UNL     1      -8.814  -5.032  11.914  1.00  0.00    -0.312 N 
ATOM      2  H1  UNL     1      -9.366  -4.259  12.288  1.00  0.00     0.170 HD
HETATM    3  C5  UNL     1      -8.013  -4.841  10.758  1.00  0.00     0.223 C 
HETATM    4  O1  UNL     1      -8.490  -5.170   9.615  1.00  0.00    -0.273 OA
ENDROOT
BRANCH   3   5
HETATM    5  C6  UNL     1      -6.657  -4.265  10.919  1.00  0.00     0.108 C 
BRANCH   5   6
HETATM    6  C7  UNL     1      -5.581  -5.264  10.625  1.00  0.00     0.003 C 
HETATM    7  C8  UNL     1      -5.204  -5.958  11.909  1.00  0.00     0.012 C 
HETATM    8  C9  UNL     1      -3.735  -6.149  11.978  1.00  0.00     0.009 C 
HETATM    9  C10 UNL     1      -3.203  -5.610  10.697  1.00  0.00     0.000 C 
HETATM   10  C12 UNL     1      -3.276  -7.527  11.537  1.00  0.00     0.049 C 
HETATM   11  C11 UNL     1      -3.285  -7.021  10.114  1.00  0.00     0.026 C 
HETATM   12  C15 UNL     1      -4.290  -4.702  10.151  1.00  0.00    -0.040 C 
HETATM   13  C16 UNL     1      -4.221  -4.843   8.638  1.00  0.00     0.015 C 
HETATM   14  C17 UNL     1      -3.984  -3.301  10.511  1.00  0.00     0.015 C 
HETATM   15  C13 UNL     1      -1.876  -7.855  12.020  1.00  0.00     0.027 C 
BRANCH  10  16
HETATM   16  C14 UNL     1      -4.291  -8.549  11.860  1.00  0.00     0.181 C 
HETATM   17  O2  UNL     1      -5.136  -8.973  11.031  1.00  0.00    -0.647 OA
HETATM   18  O3  UNL     1      -4.299  -9.066  13.165  1.00  0.00    -0.647 OA
ENDBRANCH  10  16
ENDBRANCH   5   6
ENDBRANCH   3   5
BRANCH   1  19
HETATM   19  C4  UNL     1      -8.842  -6.181  12.485  1.00  0.00     0.122 A 
HETATM   20  C3  UNL     1      -8.977  -7.349  11.778  1.00  0.00     0.058 A 
HETATM   21  C2  UNL     1      -8.997  -8.546  12.478  1.00  0.00    -0.035 A 
HETATM   22  C1  UNL     1      -9.146  -9.845  11.775  1.00  0.00     0.050 C 
HETATM   23  C18 UNL     1      -8.885  -8.553  13.844  1.00  0.00     0.028 A 
HETATM   24  N3  UNL     1      -8.756  -7.365  14.474  1.00  0.00    -0.303 N 
HETATM   25  C19 UNL     1      -8.896  -9.787  14.652  1.00  0.00     0.070 C 
HETATM   26  N2  UNL     1      -8.733  -6.210  13.839  1.00  0.00    -0.285 N 
ATOM     27  H3  UNL     1      -8.672  -7.362  15.491  1.00  0.00     0.186 HD
ATOM     28  H2  UNL     1      -8.633  -5.340  14.364  1.00  0.00     0.188 HD
ENDBRANCH   1  19
TORSDOF 4
ENDMDL
MODEL 4
REMARK VINA RESULT: -7.556231165      4.521      7.413
REMARK  4 active torsions:
REMARK  status: ('A' for Active; 'I' for Inactive)
REMARK    1  A    between atoms: C4_4  and  N1_5 
REMARK       I    between atoms: N1_5  and  C5_7 
REMARK    2  A    between atoms: C5_7  and  C6_9 
REMARK    3  A    between atoms: C6_9  and  C7_10 
REMARK    4  A    between atoms: C12_15  and  C14_17 
ROOT
HETATM    1  N1  UNL     1      -7.060  -1.558   9.242  1.00  0.00    -0.312 N 
ATOM      2  H1  UNL     1      -6.199  -1.695   9.771  1.00  0.00     0.170 HD
HETATM    3  C5  UNL     1      -7.809  -2.679   8.796  1.00  0.00     0.223 C 
HETATM    4  O1  UNL     1      -7.630  -3.105   7.600  1.00  0.00    -0.273 OA
ENDROOT
BRANCH   3   5
HETATM    5  C6  UNL     1      -8.766  -3.314   9.731  1.00  0.00     0.108 C 
BRANCH   5   6
HETATM    6  C7  UNL     1      -8.082  -3.916  10.919  1.00  0.00     0.003 C 
HETATM    7  C8  UNL     1      -8.543  -5.344  11.069  1.00  0.00     0.012 C 
HETATM    8  C9  UNL     1      -8.754  -5.668  12.501  1.00  0.00     0.009 C 
HETATM    9  C10 UNL     1      -8.370  -4.439  13.247  1.00  0.00     0.000 C 
HETATM   10  C12 UNL     1      -7.577  -6.374  13.148  1.00  0.00     0.049 C 
HETATM   11  C11 UNL     1      -6.964  -5.018  13.400  1.00  0.00     0.026 C 
HETATM   12  C15 UNL     1      -8.418  -3.311  12.233  1.00  0.00    -0.040 C 
HETATM   13  C16 UNL     1      -7.303  -2.355  12.631  1.00  0.00     0.015 C 
HETATM   14  C17 UNL     1      -9.711  -2.604  12.347  1.00  0.00     0.015 C 
HETATM   15  C13 UNL     1      -7.959  -7.080  14.434  1.00  0.00     0.027 C 
BRANCH  10  16
HETATM   16  C14 UNL     1      -6.870  -7.225  12.169  1.00  0.00     0.181 C 
HETATM   17  O2  UNL     1      -5.836  -6.861  11.554  1.00  0.00    -0.647 OA
HETATM   18  O3  UNL     1      -7.393  -8.504  11.924  1.00  0.00    -0.647 OA
ENDBRANCH  10  16
ENDBRANCH   5   6
ENDBRANCH   3   5
BRANCH   1  19
HETATM   19  C4  UNL     1      -7.474  -0.372   8.976  1.00  0.00     0.122 A 
HETATM   20  C3  UNL     1      -7.130   0.713   9.743  1.00  0.00     0.058 A 
HETATM   21  C2  UNL     1      -7.624   1.958   9.382  1.00  0.00    -0.035 A 
HETATM   22  C1  UNL     1      -7.295   3.172  10.171  1.00  0.00     0.050 C 
HETATM   23  C18 UNL     1      -8.434   2.092   8.286  1.00  0.00     0.028 A 
HETATM   24  N3  UNL     1      -8.731   0.980   7.578  1.00  0.00    -0.303 N 
HETATM   25  C19 UNL     1      -8.991   3.385   7.843  1.00  0.00     0.070 C 
HETATM   26  N2  UNL     1      -8.279  -0.217   7.893  1.00  0.00    -0.285 N 
ATOM     27  H3  UNL     1      -9.334   1.073   6.761  1.00  0.00     0.186 HD
ATOM     28  H2  UNL     1      -8.534  -1.026   7.325  1.00  0.00     0.188 HD
ENDBRANCH   1  19
TORSDOF 4
ENDMDL
MODEL 5
REMARK VINA RESULT: -7.352903094      2.129      3.338
REMARK  4 active torsions:
REMARK  status: ('A' for Active; 'I' for Inactive)
REMARK    1  A    between atoms: C4_4  and  N1_5 
REMARK       I    between atoms: N1_5  and  C5_7 
REMARK    2  A    between atoms: C5_7  and  C6_9 
REMARK    3  A    between atoms: C6_9  and  C7_10 
REMARK    4  A    between atoms: C12_15  and  C14_17 
ROOT
HETATM    1  N1  UNL     1      -8.481  -5.785  14.611  1.00  0.00    -0.312 N 
ATOM      2  H1  UNL     1      -8.275  -5.802  15.610  1.00  0.00     0.170 HD
HETATM    3  C5  UNL     1      -8.794  -4.559  13.968  1.00  0.00     0.223 C 
HETATM    4  O1  UNL     1     -10.026  -4.243  13.807  1.00  0.00    -0.273 OA
ENDROOT
BRANCH   3   5
HETATM    5  C6  UNL     1      -7.684  -3.690  13.511  1.00  0.00     0.108 C 
BRANCH   5   6
HETATM    6  C7  UNL     1      -7.226  -4.038  12.129  1.00  0.00     0.003 C 
HETATM    7  C8  UNL     1      -5.718  -4.077  12.117  1.00  0.00     0.012 C 
HETATM    8  C9  UNL     1      -5.199  -3.468  10.868  1.00  0.00     0.009 C 
HETATM    9  C10 UNL     1      -6.403  -3.094  10.078  1.00  0.00     0.000 C 
HETATM   10  C12 UNL     1      -4.860  -4.480   9.789  1.00  0.00     0.049 C 
HETATM   11  C11 UNL     1      -6.310  -4.446   9.370  1.00  0.00     0.026 C 
HETATM   12  C15 UNL     1      -7.549  -3.046  11.072  1.00  0.00    -0.040 C 
HETATM   13  C16 UNL     1      -8.774  -3.527  10.308  1.00  0.00     0.015 C 
HETATM   14  C17 UNL     1      -7.772  -1.648  11.495  1.00  0.00     0.015 C 
HETATM   15  C13 UNL     1      -3.941  -3.909   8.727  1.00  0.00     0.027 C 
BRANCH  10  16
HETATM   16  C14 UNL     1      -4.395  -5.749  10.384  1.00  0.00     0.181 C 
HETATM   17  O2  UNL     1      -5.167  -6.687  10.707  1.00  0.00    -0.647 OA
HETATM   18  O3  UNL     1      -3.015  -5.900  10.594  1.00  0.00    -0.647 OA
ENDBRANCH  10  16
ENDBRANCH   5   6
ENDBRANCH   3   5
BRANCH   1  19
HETATM   19  C4  UNL     1      -8.457  -6.872  13.928  1.00  0.00     0.122 A 
HETATM   20  C3  UNL     1      -7.294  -7.551  13.670  1.00  0.00     0.058 A 
HETATM   21  C2  UNL     1      -7.362  -8.717  12.923  1.00  0.00    -0.035 A 
HETATM   22  C1  UNL     1      -6.141  -9.498  12.602  1.00  0.00     0.050 C 
HETATM   23  C18 UNL     1      -8.568  -9.173  12.457  1.00  0.00     0.028 A 
HETATM   24  N3  UNL     1      -9.672  -8.453  12.750  1.00  0.00    -0.303 N 
HETATM   25  C19 UNL     1      -8.716 -10.406  11.660  1.00  0.00     0.070 C 
HETATM   26  N2  UNL     1      -9.643  -7.341  13.457  1.00  0.00    -0.285 N 
ATOM     27  H3  UNL     1     -10.574  -8.786  12.406  1.00  0.00     0.186 HD
ATOM     28  H2  UNL     1     -10.507  -6.834  13.650  1.00  0.00     0.188 HD
ENDBRANCH   1  19
TORSDOF 4
ENDMDL
