MODEL 1
REMARK VINA RESULT: -5.865716516      0.000      0.000
REMARK  4 active torsions:
REMARK  status: ('A' for Active; 'I' for Inactive)
REMARK       I    between atoms: N1_1  and  C1_4 
REMARK       I    between atoms: C1_4  and  N2_5 
REMARK       I    between atoms: C1_4  and  N6_20 
REMARK       I    between atoms: C2_7  and  N3_8 
REMARK       I    between atoms: C2_7  and  N5_15 
REMARK    1  A    between atoms: C3_10  and  C4_12 
REMARK    2  A    between atoms: N5_15  and  C5_17 
REMARK    3  A    between atoms: C5_17  and  C6_18 
REMARK    4  A    between atoms: N6_20  and  C7_22 
ROOT
HETATM    1  N1  UNL     1      91.618  98.269 -41.172  1.00  0.00    -0.234 N 
ATOM      2  H11 UNL     1      91.262  98.065 -40.239  1.00  0.00     0.174 HD
ATOM      3  H12 UNL     1      91.924  97.487 -41.752  1.00  0.00     0.174 HD
HETATM    4  C1  UNL     1      91.711  99.449 -41.681  1.00  0.00     0.692 C 
HETATM    5  N2  UNL     1      92.206  99.732 -42.978  1.00  0.00    -0.023 N 
ATOM      6  H2  UNL     1      92.879 100.491 -43.076  1.00  0.00     0.203 HD
HETATM    7  C2  UNL     1      91.862  99.097 -44.038  1.00  0.00     0.693 C 
HETATM    8  N3  UNL     1      92.441  99.493 -45.269  1.00  0.00    -0.180 N 
ATOM      9  H3  UNL     1      93.425  99.278 -45.430  1.00  0.00     0.185 HD
HETATM   10  C3  UNL     1      91.796 100.108 -46.193  1.00  0.00     0.160 C 
HETATM   11 BR1  UNL     1      89.963 100.539 -45.958  1.00  0.00    -0.025 Br
HETATM   12  N5  UNL     1      90.941  98.037 -44.003  1.00  0.00    -0.225 N 
ATOM     13  H5  UNL     1      90.177  98.082 -43.328  1.00  0.00     0.177 HD
HETATM   14  N6  UNL     1      91.286 100.539 -40.873  1.00  0.00    -0.175 N 
ATOM     15  H6  UNL     1      90.308 100.829 -40.892  1.00  0.00     0.186 HD
ENDROOT
BRANCH  14  16
HETATM   16  C7  UNL     1      92.123 101.166 -40.114  1.00  0.00     0.142 A 
HETATM   17  C8  UNL     1      91.833 102.290 -39.374  1.00  0.00     0.077 A 
HETATM   18  C9  UNL     1      93.017 102.614 -38.721  1.00  0.00     0.171 A 
HETATM   19  O2  UNL     1      93.940 101.728 -39.064  1.00  0.00    -0.248 OA
HETATM   20  N7  UNL     1      93.410 100.864 -39.894  1.00  0.00    -0.245 N 
ATOM     21  H7  UNL     1      93.905 100.076 -40.313  1.00  0.00     0.196 HD
ENDBRANCH  14  16
BRANCH  12  22
HETATM   22  C5  UNL     1      91.020  96.901 -44.862  1.00  0.00     0.149 C 
BRANCH  22  23
HETATM   23  C6  UNL     1      90.829  95.612 -44.086  1.00  0.00     0.105 C 
HETATM   24 BR2  UNL     1      90.848  94.080 -45.256  1.00  0.00    -0.095 Br
ENDBRANCH  22  23
ENDBRANCH  12  22
BRANCH  10  25
HETATM   25  C4  UNL     1      92.460 100.477 -47.420  1.00  0.00     0.289 C 
HETATM   26  N4  UNL     1      93.095 101.735 -47.609  1.00  0.00    -0.055 NA
HETATM   27  O1  UNL     1      92.497  99.661 -48.401  1.00  0.00    -0.269 OA
ENDBRANCH  10  25
TORSDOF 4
ENDMDL
MODEL 2
REMARK VINA RESULT: -5.642989887      3.293      5.853
REMARK  4 active torsions:
REMARK  status: ('A' for Active; 'I' for Inactive)
REMARK       I    between atoms: N1_1  and  C1_4 
REMARK       I    between atoms: C1_4  and  N2_5 
REMARK       I    between atoms: C1_4  and  N6_20 
REMARK       I    between atoms: C2_7  and  N3_8 
REMARK       I    between atoms: C2_7  and  N5_15 
REMARK    1  A    between atoms: C3_10  and  C4_12 
REMARK    2  A    between atoms: N5_15  and  C5_17 
REMARK    3  A    between atoms: C5_17  and  C6_18 
REMARK    4  A    between atoms: N6_20  and  C7_22 
ROOT
HETATM    1  N1  UNL     1      89.913  97.651 -43.428  1.00  0.00    -0.234 N 
ATOM      2  H11 UNL     1      89.214  96.928 -43.591  1.00  0.00     0.174 HD
ATOM      3  H12 UNL     1      90.037  98.372 -44.140  1.00  0.00     0.174 HD
HETATM    4  C1  UNL     1      90.662  97.726 -42.381  1.00  0.00     0.692 C 
HETATM    5  N2  UNL     1      91.635  98.731 -42.155  1.00  0.00    -0.023 N 
ATOM      6  H2  UNL     1      92.555  98.438 -41.828  1.00  0.00     0.203 HD
HETATM    7  C2  UNL     1      91.435  99.985 -42.334  1.00  0.00     0.693 C 
HETATM    8  N3  UNL     1      92.504 100.875 -42.065  1.00  0.00    -0.180 N 
ATOM      9  H3  UNL     1      93.296 100.884 -42.708  1.00  0.00     0.185 HD
HETATM   10  C3  UNL     1      92.533 101.668 -41.057  1.00  0.00     0.160 C 
HETATM   11 BR1  UNL     1      91.092 101.701 -39.822  1.00  0.00    -0.025 Br
HETATM   12  N5  UNL     1      90.200 100.484 -42.782  1.00  0.00    -0.225 N 
ATOM     13  H5  UNL     1      89.349 100.007 -42.484  1.00  0.00     0.177 HD
HETATM   14  N6  UNL     1      90.491  96.722 -41.389  1.00  0.00    -0.175 N 
ATOM     15  H6  UNL     1      89.797  96.854 -40.653  1.00  0.00     0.186 HD
ENDROOT
BRANCH  14  16
HETATM   16  C7  UNL     1      91.204  95.644 -41.409  1.00  0.00     0.142 A 
HETATM   17  C8  UNL     1      91.074  94.626 -42.326  1.00  0.00     0.077 A 
HETATM   18  C9  UNL     1      92.033  93.686 -41.967  1.00  0.00     0.171 A 
HETATM   19  O2  UNL     1      92.681  94.135 -40.903  1.00  0.00    -0.248 OA
HETATM   20  N7  UNL     1      92.189  95.302 -40.568  1.00  0.00    -0.245 N 
ATOM     21  H7  UNL     1      92.509  95.867 -39.781  1.00  0.00     0.196 HD
ENDBRANCH  14  16
BRANCH  12  22
HETATM   22  C5  UNL     1      90.078 101.623 -43.631  1.00  0.00     0.149 C 
BRANCH  22  23
HETATM   23  C6  UNL     1      89.455 101.249 -44.963  1.00  0.00     0.105 C 
HETATM   24 BR2  UNL     1      90.691 100.259 -46.061  1.00  0.00    -0.095 Br
ENDBRANCH  22  23
ENDBRANCH  12  22
BRANCH  10  25
HETATM   25  C4  UNL     1      93.660 102.546 -40.854  1.00  0.00     0.289 C 
HETATM   26  N4  UNL     1      94.662 102.305 -39.874  1.00  0.00    -0.055 NA
HETATM   27  O1  UNL     1      93.796 103.594 -41.570  1.00  0.00    -0.269 OA
ENDBRANCH  10  25
TORSDOF 4
ENDMDL
MODEL 3
REMARK VINA RESULT: -5.557683328      3.762      6.047
REMARK  4 active torsions:
REMARK  status: ('A' for Active; 'I' for Inactive)
REMARK       I    between atoms: N1_1  and  C1_4 
REMARK       I    between atoms: C1_4  and  N2_5 
REMARK       I    between atoms: C1_4  and  N6_20 
REMARK       I    between atoms: C2_7  and  N3_8 
REMARK       I    between atoms: C2_7  and  N5_15 
REMARK    1  A    between atoms: C3_10  and  C4_12 
REMARK    2  A    between atoms: N5_15  and  C5_17 
REMARK    3  A    between atoms: C5_17  and  C6_18 
REMARK    4  A    between atoms: N6_20  and  C7_22 
ROOT
HETATM    1  N1  UNL     1      89.926  97.705 -43.408  1.00  0.00    -0.234 N 
ATOM      2  H11 UNL     1      89.224  96.988 -43.588  1.00  0.00     0.174 HD
ATOM      3  H12 UNL     1      90.060  98.434 -44.109  1.00  0.00     0.174 HD
HETATM    4  C1  UNL     1      90.662  97.762 -42.352  1.00  0.00     0.692 C 
HETATM    5  N2  UNL     1      91.637  98.760 -42.101  1.00  0.00    -0.023 N 
ATOM      6  H2  UNL     1      92.552  98.458 -41.768  1.00  0.00     0.203 HD
HETATM    7  C2  UNL     1      91.445 100.017 -42.266  1.00  0.00     0.693 C 
HETATM    8  N3  UNL     1      92.516 100.897 -41.973  1.00  0.00    -0.180 N 
ATOM      9  H3  UNL     1      93.314 100.912 -42.607  1.00  0.00     0.185 HD
HETATM   10  C3  UNL     1      92.536 101.678 -40.955  1.00  0.00     0.160 C 
HETATM   11 BR1  UNL     1      91.082 101.701 -39.735  1.00  0.00    -0.025 Br
HETATM   12  N5  UNL     1      90.218 100.527 -42.721  1.00  0.00    -0.225 N 
ATOM     13  H5  UNL     1      89.361 100.050 -42.439  1.00  0.00     0.177 HD
HETATM   14  N6  UNL     1      90.475  96.746 -41.375  1.00  0.00    -0.175 N 
ATOM     15  H6  UNL     1      89.774  96.871 -40.645  1.00  0.00     0.186 HD
ENDROOT
BRANCH  14  16
HETATM   16  C7  UNL     1      91.184  95.665 -41.401  1.00  0.00     0.142 A 
HETATM   17  C8  UNL     1      91.046  94.650 -42.321  1.00  0.00     0.077 A 
HETATM   18  C9  UNL     1      92.002  93.705 -41.969  1.00  0.00     0.171 A 
HETATM   19  O2  UNL     1      92.657  94.148 -40.906  1.00  0.00    -0.248 OA
HETATM   20  N7  UNL     1      92.171  95.316 -40.566  1.00  0.00    -0.245 N 
ATOM     21  H7  UNL     1      92.497  95.878 -39.779  1.00  0.00     0.196 HD
ENDBRANCH  14  16
BRANCH  12  22
HETATM   22  C5  UNL     1      90.110 101.678 -43.557  1.00  0.00     0.149 C 
BRANCH  22  23
HETATM   23  C6  UNL     1      88.694 102.223 -43.559  1.00  0.00     0.105 C 
HETATM   24 BR2  UNL     1      87.493 101.054 -42.606  1.00  0.00    -0.095 Br
ENDBRANCH  22  23
ENDBRANCH  12  22
BRANCH  10  25
HETATM   25  C4  UNL     1      93.666 102.547 -40.727  1.00  0.00     0.289 C 
HETATM   26  N4  UNL     1      93.749 103.864 -41.259  1.00  0.00    -0.055 NA
HETATM   27  O1  UNL     1      94.652 102.149 -40.022  1.00  0.00    -0.269 OA
ENDBRANCH  10  25
TORSDOF 4
ENDMDL
MODEL 4
REMARK VINA RESULT: -5.424252618      3.120      3.766
REMARK  4 active torsions:
REMARK  status: ('A' for Active; 'I' for Inactive)
REMARK       I    between atoms: N1_1  and  C1_4 
REMARK       I    between atoms: C1_4  and  N2_5 
REMARK       I    between atoms: C1_4  and  N6_20 
REMARK       I    between atoms: C2_7  and  N3_8 
REMARK       I    between atoms: C2_7  and  N5_15 
REMARK    1  A    between atoms: C3_10  and  C4_12 
REMARK    2  A    between atoms: N5_15  and  C5_17 
REMARK    3  A    between atoms: C5_17  and  C6_18 
REMARK    4  A    between atoms: N6_20  and  C7_22 
ROOT
HETATM    1  N1  UNL     1      89.407 101.594 -40.727  1.00  0.00    -0.234 N 
ATOM      2  H11 UNL     1      89.293 102.557 -40.416  1.00  0.00     0.174 HD
ATOM      3  H12 UNL     1      88.606 100.967 -40.660  1.00  0.00     0.174 HD
HETATM    4  C1  UNL     1      90.499 101.102 -41.205  1.00  0.00     0.692 C 
HETATM    5  N2  UNL     1      90.658  99.762 -41.638  1.00  0.00    -0.023 N 
ATOM      6  H2  UNL     1      91.490  99.259 -41.331  1.00  0.00     0.203 HD
HETATM    7  C2  UNL     1      89.826  99.141 -42.391  1.00  0.00     0.693 C 
HETATM    8  N3  UNL     1      90.120  97.800 -42.743  1.00  0.00    -0.180 N 
ATOM      9  H3  UNL     1      90.039  97.084 -42.022  1.00  0.00     0.185 HD
HETATM   10  C3  UNL     1      90.482  97.438 -43.920  1.00  0.00     0.160 C 
HETATM   11 BR1  UNL     1      90.651  98.720 -45.309  1.00  0.00    -0.025 Br
HETATM   12  N5  UNL     1      88.653  99.752 -42.863  1.00  0.00    -0.225 N 
ATOM     13  H5  UNL     1      88.679 100.750 -43.076  1.00  0.00     0.177 HD
HETATM   14  N6  UNL     1      91.617 101.975 -41.299  1.00  0.00    -0.175 N 
ATOM     15  H6  UNL     1      91.745 102.542 -42.137  1.00  0.00     0.186 HD
ENDROOT
BRANCH  14  16
HETATM   16  C7  UNL     1      92.473 102.059 -40.334  1.00  0.00     0.142 A 
HETATM   17  C8  UNL     1      92.321 102.833 -39.205  1.00  0.00     0.077 A 
HETATM   18  C9  UNL     1      93.471 102.615 -38.455  1.00  0.00     0.171 A 
HETATM   19  O2  UNL     1      94.245 101.764 -39.112  1.00  0.00    -0.248 OA
HETATM   20  N7  UNL     1      93.652 101.432 -40.233  1.00  0.00    -0.245 N 
ATOM     21  H7  UNL     1      94.034 100.788 -40.927  1.00  0.00     0.196 HD
ENDBRANCH  14  16
BRANCH  12  22
HETATM   22  C5  UNL     1      87.428  99.048 -43.061  1.00  0.00     0.149 C 
BRANCH  22  23
HETATM   23  C6  UNL     1      86.958  99.159 -44.499  1.00  0.00     0.105 C 
HETATM   24 BR2  UNL     1      86.880  97.429 -45.346  1.00  0.00    -0.095 Br
ENDBRANCH  22  23
ENDBRANCH  12  22
BRANCH  10  25
HETATM   25  C4  UNL     1      90.762  96.050 -44.198  1.00  0.00     0.289 C 
HETATM   26  N4  UNL     1      90.848  95.527 -45.518  1.00  0.00    -0.055 NA
HETATM   27  O1  UNL     1      90.948  95.226 -43.241  1.00  0.00    -0.269 OA
ENDBRANCH  10  25
TORSDOF 4
ENDMDL
MODEL 5
REMARK VINA RESULT: -5.378426698      4.431      6.613
REMARK  4 active torsions:
REMARK  status: ('A' for Active; 'I' for Inactive)
REMARK       I    between atoms: N1_1  and  C1_4 
REMARK       I    between atoms: C1_4  and  N2_5 
REMARK       I    between atoms: C1_4  and  N6_20 
REMARK       I    between atoms: C2_7  and  N3_8 
REMARK       I    between atoms: C2_7  and  N5_15 
REMARK    1  A    between atoms: C3_10  and  C4_12 
REMARK    2  A    between atoms: N5_15  and  C5_17 
REMARK    3  A    between atoms: C5_17  and  C6_18 
REMARK    4  A    between atoms: N6_20  and  C7_22 
ROOT
HETATM    1  N1  UNL     1      91.712  98.672 -41.511  1.00  0.00    -0.234 N 
ATOM      2  H11 UNL     1      92.693  98.397 -41.539  1.00  0.00     0.174 HD
ATOM      3  H12 UNL     1      91.456  99.487 -40.953  1.00  0.00     0.174 HD
HETATM    4  C1  UNL     1      90.760  98.065 -42.131  1.00  0.00     0.692 C 
HETATM    5  N2  UNL     1      89.396  98.448 -42.091  1.00  0.00    -0.023 N 
ATOM      6  H2  UNL     1      88.701  97.718 -41.936  1.00  0.00     0.203 HD
HETATM    7  C2  UNL     1      88.978  99.651 -42.238  1.00  0.00     0.693 C 
HETATM    8  N3  UNL     1      87.582  99.883 -42.174  1.00  0.00    -0.180 N 
ATOM      9  H3  UNL     1      87.123  99.809 -41.267  1.00  0.00     0.185 HD
HETATM   10  C3  UNL     1      86.864 100.183 -43.194  1.00  0.00     0.160 C 
HETATM   11 BR1  UNL     1      87.656 100.338 -44.912  1.00  0.00    -0.025 Br
HETATM   12  N5  UNL     1      89.861 100.722 -42.456  1.00  0.00    -0.225 N 
ATOM     13  H5  UNL     1      90.706 100.549 -43.001  1.00  0.00     0.177 HD
HETATM   14  N6  UNL     1      91.115  96.928 -42.909  1.00  0.00    -0.175 N 
ATOM     15  H6  UNL     1      91.397  97.050 -43.882  1.00  0.00     0.186 HD
ENDROOT
BRANCH  14  16
HETATM   16  C7  UNL     1      91.085  95.741 -42.397  1.00  0.00     0.142 A 
HETATM   17  C8  UNL     1      91.180  94.568 -43.111  1.00  0.00     0.077 A 
HETATM   18  C9  UNL     1      91.103  93.555 -42.163  1.00  0.00     0.171 A 
HETATM   19  O2  UNL     1      90.969  94.110 -40.968  1.00  0.00    -0.248 OA
HETATM   20  N7  UNL     1      90.958  95.413 -41.104  1.00  0.00    -0.245 N 
ATOM     21  H7  UNL     1      90.867  96.080 -40.338  1.00  0.00     0.196 HD
ENDBRANCH  14  16
BRANCH  12  22
HETATM   22  C5  UNL     1      89.634 102.039 -41.955  1.00  0.00     0.149 C 
BRANCH  22  23
HETATM   23  C6  UNL     1      89.931 102.117 -40.469  1.00  0.00     0.105 C 
HETATM   24 BR2  UNL     1      91.828 102.081 -40.130  1.00  0.00    -0.095 Br
ENDBRANCH  22  23
ENDBRANCH  12  22
BRANCH  10  25
HETATM   25  C4  UNL     1      85.446 100.405 -43.045  1.00  0.00     0.289 C 
HETATM   26  N4  UNL     1      84.905 101.575 -42.444  1.00  0.00    -0.055 NA
HETATM   27  O1  UNL     1      84.611  99.534 -43.461  1.00  0.00    -0.269 OA
ENDBRANCH  10  25
TORSDOF 4
ENDMDL
