MODEL 1
REMARK VINA RESULT: -7.225242580      0.000      0.000
REMARK  10 active torsions:
REMARK  status: ('A' for Active; 'I' for Inactive)
REMARK    1  A    between atoms: C2_2  and  N1_4 
REMARK       I    between atoms: N1_4  and  C4_6 
REMARK    2  A    between atoms: C4_6  and  C5_8 
REMARK    3  A    between atoms: C5_8  and  S1_9 
REMARK    4  A    between atoms: S1_9  and  C6_10 
REMARK    5  A    between atoms: C9_16  and  C10_17 
REMARK    6  A    between atoms: N3_20  and  C13_21 
REMARK    7  A    between atoms: C13_21  and  O2_22 
REMARK    8  A    between atoms: C13_21  and  C14_24 
REMARK    9  A    between atoms: C14_24  and  O3_25 
REMARK   10  A    between atoms: N4_32  and  C19_33 
ROOT
HETATM    1  C6  UNL     1      -6.854 -34.107  23.754  1.00  0.00     0.151 A 
HETATM    2  N2  UNL     1      -6.536 -32.937  24.411  1.00  0.00    -0.330 N 
ATOM      3  H2  UNL     1      -5.684 -32.906  24.970  1.00  0.00     0.168 HD
HETATM    4  C7  UNL     1      -7.312 -31.826  24.342  1.00  0.00     0.092 A 
HETATM    5  S2  UNL     1      -7.254 -30.334  25.156  1.00  0.00    -0.082 SA
HETATM    6  C8  UNL     1      -8.695 -29.687  24.538  1.00  0.00     0.064 A 
HETATM    7  C9  UNL     1      -9.234 -30.662  23.662  1.00  0.00    -0.009 A 
HETATM    8  C17 UNL     1      -8.463 -31.798  23.603  1.00  0.00     0.077 A 
HETATM    9  C18 UNL     1      -8.726 -33.026  22.961  1.00  0.00     0.263 A 
HETATM   10  O4  UNL     1      -9.734 -33.115  22.281  1.00  0.00    -0.267 OA
HETATM   11  N4  UNL     1      -7.966 -34.123  23.031  1.00  0.00    -0.289 N 
ENDROOT
BRANCH   7  12
HETATM   12  C10 UNL     1     -10.353 -30.247  22.759  1.00  0.00    -0.065 C 
HETATM   13  C11 UNL     1     -10.025 -29.727  21.420  1.00  0.00     0.055 C 
HETATM   14  C12 UNL     1     -10.878 -30.305  20.314  1.00  0.00     0.129 C 
HETATM   15  N3  UNL     1     -11.799 -31.244  20.906  1.00  0.00    -0.363 N 
HETATM   16  C15 UNL     1     -12.588 -30.904  22.090  1.00  0.00     0.129 C 
HETATM   17  C16 UNL     1     -11.750 -30.130  23.138  1.00  0.00     0.055 C 
BRANCH  15  18
HETATM   18  C13 UNL     1     -11.963 -32.532  20.332  1.00  0.00     0.137 C 
BRANCH  18  19
HETATM   19  O2  UNL     1     -11.071 -32.839  19.429  1.00  0.00    -0.348 OA
ATOM     20  H2  UNL     1     -11.049 -32.252  18.683  1.00  0.00     0.219 HD
ENDBRANCH  18  19
BRANCH  18  21
HETATM   21  C14 UNL     1     -12.977 -33.539  20.614  1.00  0.00     0.247 C 
BRANCH  21  22
HETATM   22  O3  UNL     1     -14.217 -33.424  20.082  1.00  0.00    -0.393 OA
ATOM     23  H3  UNL     1     -14.704 -34.201  19.834  1.00  0.00     0.210 HD
ENDBRANCH  21  22
ENDBRANCH  18  21
ENDBRANCH  15  18
ENDBRANCH   7  12
BRANCH  11  24
HETATM   24  C19 UNL     1      -8.376 -35.369  22.412  1.00  0.00     0.095 C 
HETATM   25  C20 UNL     1      -8.902 -35.309  21.025  1.00  0.00     0.026 C 
HETATM   26  C21 UNL     1      -9.148 -36.804  20.654  1.00  0.00     0.002 C 
HETATM   27  C22 UNL     1     -10.449 -37.188  21.346  1.00  0.00     0.000 C 
HETATM   28  C23 UNL     1     -10.718 -36.313  22.527  1.00  0.00     0.002 C 
HETATM   29  C24 UNL     1      -9.490 -35.952  23.302  1.00  0.00     0.026 C 
ENDBRANCH  11  24
BRANCH   1  30
HETATM   30  S1  UNL     1      -5.731 -35.463  24.012  1.00  0.00    -0.084 SA
BRANCH  30  31
HETATM   31  C5  UNL     1      -4.524 -35.568  22.724  1.00  0.00     0.185 C 
BRANCH  31  32
HETATM   32  C4  UNL     1      -3.553 -34.480  22.589  1.00  0.00     0.227 C 
HETATM   33  N1  UNL     1      -2.619 -34.514  21.534  1.00  0.00    -0.357 N 
ATOM     34  H1  UNL     1      -2.610 -35.325  20.916  1.00  0.00     0.162 HD
HETATM   35  O1  UNL     1      -3.547 -33.495  23.410  1.00  0.00    -0.273 OA
BRANCH  33  36
HETATM   36  C2  UNL     1      -1.691 -33.468  21.294  1.00  0.00     0.076 C 
HETATM   37  C1  UNL     1      -1.479 -33.220  19.825  1.00  0.00     0.032 C 
HETATM   38  C3  UNL     1      -0.334 -33.633  21.969  1.00  0.00     0.032 C 
ENDBRANCH  33  36
ENDBRANCH  31  32
ENDBRANCH  30  31
ENDBRANCH   1  30
TORSDOF 10
ENDMDL
MODEL 2
REMARK VINA RESULT: -6.890093254      1.611      2.230
REMARK  10 active torsions:
REMARK  status: ('A' for Active; 'I' for Inactive)
REMARK    1  A    between atoms: C2_2  and  N1_4 
REMARK       I    between atoms: N1_4  and  C4_6 
REMARK    2  A    between atoms: C4_6  and  C5_8 
REMARK    3  A    between atoms: C5_8  and  S1_9 
REMARK    4  A    between atoms: S1_9  and  C6_10 
REMARK    5  A    between atoms: C9_16  and  C10_17 
REMARK    6  A    between atoms: N3_20  and  C13_21 
REMARK    7  A    between atoms: C13_21  and  O2_22 
REMARK    8  A    between atoms: C13_21  and  C14_24 
REMARK    9  A    between atoms: C14_24  and  O3_25 
REMARK   10  A    between atoms: N4_32  and  C19_33 
ROOT
HETATM    1  C6  UNL     1      -6.815 -33.971  23.853  1.00  0.00     0.151 A 
HETATM    2  N2  UNL     1      -6.537 -32.783  24.496  1.00  0.00    -0.330 N 
ATOM      3  H2  UNL     1      -5.696 -32.722  25.070  1.00  0.00     0.168 HD
HETATM    4  C7  UNL     1      -7.339 -31.692  24.395  1.00  0.00     0.092 A 
HETATM    5  S2  UNL     1      -7.331 -30.187  25.186  1.00  0.00    -0.082 SA
HETATM    6  C8  UNL     1      -8.776 -29.585  24.532  1.00  0.00     0.064 A 
HETATM    7  C9  UNL     1      -9.275 -30.586  23.663  1.00  0.00    -0.009 A 
HETATM    8  C17 UNL     1      -8.476 -31.705  23.636  1.00  0.00     0.077 A 
HETATM    9  C18 UNL     1      -8.698 -32.948  23.009  1.00  0.00     0.263 A 
HETATM   10  O4  UNL     1      -9.691 -33.073  22.313  1.00  0.00    -0.267 OA
HETATM   11  N4  UNL     1      -7.913 -34.025  23.110  1.00  0.00    -0.289 N 
ENDROOT
BRANCH   7  12
HETATM   12  C10 UNL     1     -10.388 -30.213  22.734  1.00  0.00    -0.065 C 
HETATM   13  C11 UNL     1     -10.048 -29.722  21.387  1.00  0.00     0.055 C 
HETATM   14  C12 UNL     1     -10.875 -30.341  20.283  1.00  0.00     0.129 C 
HETATM   15  N3  UNL     1     -11.789 -31.280  20.885  1.00  0.00    -0.363 N 
HETATM   16  C15 UNL     1     -12.601 -30.925  22.048  1.00  0.00     0.129 C 
HETATM   17  C16 UNL     1     -11.792 -30.111  23.088  1.00  0.00     0.055 C 
BRANCH  15  18
HETATM   18  C13 UNL     1     -11.923 -32.585  20.342  1.00  0.00     0.137 C 
BRANCH  18  19
HETATM   19  O2  UNL     1     -10.997 -32.910  19.481  1.00  0.00    -0.348 OA
ATOM     20  H2  UNL     1     -10.230 -33.320  19.863  1.00  0.00     0.219 HD
ENDBRANCH  18  19
BRANCH  18  21
HETATM   21  C14 UNL     1     -12.940 -33.592  20.614  1.00  0.00     0.247 C 
BRANCH  21  22
HETATM   22  O3  UNL     1     -14.177 -33.473  20.077  1.00  0.00    -0.393 OA
ATOM     23  H3  UNL     1     -14.842 -32.959  20.520  1.00  0.00     0.210 HD
ENDBRANCH  21  22
ENDBRANCH  18  21
ENDBRANCH  15  18
ENDBRANCH   7  12
BRANCH  11  24
HETATM   24  C19 UNL     1      -8.282 -35.290  22.505  1.00  0.00     0.095 C 
HETATM   25  C20 UNL     1      -8.770 -35.267  21.103  1.00  0.00     0.026 C 
HETATM   26  C21 UNL     1      -8.977 -36.773  20.754  1.00  0.00     0.002 C 
HETATM   27  C22 UNL     1     -10.289 -37.170  21.418  1.00  0.00     0.000 C 
HETATM   28  C23 UNL     1     -10.607 -36.279  22.574  1.00  0.00     0.002 C 
HETATM   29  C24 UNL     1      -9.408 -35.878  23.375  1.00  0.00     0.026 C 
ENDBRANCH  11  24
BRANCH   1  30
HETATM   30  S1  UNL     1      -5.664 -35.294  24.153  1.00  0.00    -0.084 SA
BRANCH  30  31
HETATM   31  C5  UNL     1      -4.409 -35.365  22.909  1.00  0.00     0.185 C 
BRANCH  31  32
HETATM   32  C4  UNL     1      -4.358 -36.541  22.037  1.00  0.00     0.227 C 
HETATM   33  N1  UNL     1      -5.332 -36.696  21.030  1.00  0.00    -0.357 N 
ATOM     34  H1  UNL     1      -6.081 -36.007  20.965  1.00  0.00     0.162 HD
HETATM   35  O1  UNL     1      -3.438 -37.424  22.172  1.00  0.00    -0.273 OA
BRANCH  33  36
HETATM   36  C2  UNL     1      -5.315 -37.770  20.103  1.00  0.00     0.076 C 
HETATM   37  C1  UNL     1      -5.812 -37.357  18.743  1.00  0.00     0.032 C 
HETATM   38  C3  UNL     1      -6.061 -39.024  20.542  1.00  0.00     0.032 C 
ENDBRANCH  33  36
ENDBRANCH  31  32
ENDBRANCH  30  31
ENDBRANCH   1  30
TORSDOF 10
ENDMDL
MODEL 3
REMARK VINA RESULT: -6.784646638      1.033      1.246
REMARK  10 active torsions:
REMARK  status: ('A' for Active; 'I' for Inactive)
REMARK    1  A    between atoms: C2_2  and  N1_4 
REMARK       I    between atoms: N1_4  and  C4_6 
REMARK    2  A    between atoms: C4_6  and  C5_8 
REMARK    3  A    between atoms: C5_8  and  S1_9 
REMARK    4  A    between atoms: S1_9  and  C6_10 
REMARK    5  A    between atoms: C9_16  and  C10_17 
REMARK    6  A    between atoms: N3_20  and  C13_21 
REMARK    7  A    between atoms: C13_21  and  O2_22 
REMARK    8  A    between atoms: C13_21  and  C14_24 
REMARK    9  A    between atoms: C14_24  and  O3_25 
REMARK   10  A    between atoms: N4_32  and  C19_33 
ROOT
HETATM    1  C6  UNL     1      -6.829 -34.167  23.726  1.00  0.00     0.151 A 
HETATM    2  N2  UNL     1      -6.488 -33.010  24.395  1.00  0.00    -0.330 N 
ATOM      3  H2  UNL     1      -5.635 -33.000  24.953  1.00  0.00     0.168 HD
HETATM    4  C7  UNL     1      -7.244 -31.884  24.338  1.00  0.00     0.092 A 
HETATM    5  S2  UNL     1      -7.156 -30.402  25.168  1.00  0.00    -0.082 SA
HETATM    6  C8  UNL     1      -8.586 -29.721  24.559  1.00  0.00     0.064 A 
HETATM    7  C9  UNL     1      -9.145 -30.677  23.674  1.00  0.00    -0.009 A 
HETATM    8  C17 UNL     1      -8.395 -31.827  23.602  1.00  0.00     0.077 A 
HETATM    9  C18 UNL     1      -8.682 -33.043  22.948  1.00  0.00     0.263 A 
HETATM   10  O4  UNL     1      -9.693 -33.107  22.269  1.00  0.00    -0.267 OA
HETATM   11  N4  UNL     1      -7.942 -34.155  23.005  1.00  0.00    -0.289 N 
ENDROOT
BRANCH   7  12
HETATM   12  C10 UNL     1     -10.258 -30.232  22.777  1.00  0.00    -0.065 C 
HETATM   13  C11 UNL     1      -9.924 -29.736  21.431  1.00  0.00     0.055 C 
HETATM   14  C12 UNL     1     -10.806 -30.294  20.338  1.00  0.00     0.129 C 
HETATM   15  N3  UNL     1     -11.753 -31.196  20.946  1.00  0.00    -0.363 N 
HETATM   16  C15 UNL     1     -12.519 -30.819  22.133  1.00  0.00     0.129 C 
HETATM   17  C16 UNL     1     -11.646 -30.065  23.167  1.00  0.00     0.055 C 
BRANCH  15  18
HETATM   18  C13 UNL     1     -11.966 -32.482  20.385  1.00  0.00     0.137 C 
BRANCH  18  19
HETATM   19  O2  UNL     1     -11.133 -32.801  19.432  1.00  0.00    -0.348 OA
ATOM     20  H2  UNL     1     -10.224 -32.848  19.703  1.00  0.00     0.219 HD
ENDBRANCH  18  19
BRANCH  18  21
HETATM   21  C14 UNL     1     -12.974 -33.477  20.728  1.00  0.00     0.247 C 
BRANCH  21  22
HETATM   22  O3  UNL     1     -14.195 -33.438  20.145  1.00  0.00    -0.393 OA
ATOM     23  H3  UNL     1     -14.957 -33.179  20.650  1.00  0.00     0.210 HD
ENDBRANCH  21  22
ENDBRANCH  18  21
ENDBRANCH  15  18
ENDBRANCH   7  12
BRANCH  11  24
HETATM   24  C19 UNL     1      -8.377 -35.387  22.375  1.00  0.00     0.095 C 
HETATM   25  C20 UNL     1      -8.913 -35.302  20.994  1.00  0.00     0.026 C 
HETATM   26  C21 UNL     1      -9.185 -36.788  20.606  1.00  0.00     0.002 C 
HETATM   27  C22 UNL     1     -10.487 -37.160  21.304  1.00  0.00     0.000 C 
HETATM   28  C23 UNL     1     -10.732 -36.296  22.498  1.00  0.00     0.002 C 
HETATM   29  C24 UNL     1      -9.493 -35.963  23.267  1.00  0.00     0.026 C 
ENDBRANCH  11  24
BRANCH   1  30
HETATM   30  S1  UNL     1      -5.731 -35.547  23.969  1.00  0.00    -0.084 SA
BRANCH  30  31
HETATM   31  C5  UNL     1      -4.197 -35.319  23.119  1.00  0.00     0.185 C 
BRANCH  31  32
HETATM   32  C4  UNL     1      -3.099 -34.661  23.829  1.00  0.00     0.227 C 
HETATM   33  N1  UNL     1      -1.827 -35.268  23.850  1.00  0.00    -0.357 N 
ATOM     34  H1  UNL     1      -1.715 -36.181  23.410  1.00  0.00     0.162 HD
HETATM   35  O1  UNL     1      -3.276 -33.538  24.423  1.00  0.00    -0.273 OA
BRANCH  33  36
HETATM   36  C2  UNL     1      -0.696 -34.665  24.458  1.00  0.00     0.076 C 
HETATM   37  C1  UNL     1       0.045 -33.760  23.510  1.00  0.00     0.032 C 
HETATM   38  C3  UNL     1       0.295 -35.631  25.097  1.00  0.00     0.032 C 
ENDBRANCH  33  36
ENDBRANCH  31  32
ENDBRANCH  30  31
ENDBRANCH   1  30
TORSDOF 10
ENDMDL
MODEL 4
REMARK VINA RESULT: -6.567765218      5.207     10.634
REMARK  10 active torsions:
REMARK  status: ('A' for Active; 'I' for Inactive)
REMARK    1  A    between atoms: C2_2  and  N1_4 
REMARK       I    between atoms: N1_4  and  C4_6 
REMARK    2  A    between atoms: C4_6  and  C5_8 
REMARK    3  A    between atoms: C5_8  and  S1_9 
REMARK    4  A    between atoms: S1_9  and  C6_10 
REMARK    5  A    between atoms: C9_16  and  C10_17 
REMARK    6  A    between atoms: N3_20  and  C13_21 
REMARK    7  A    between atoms: C13_21  and  O2_22 
REMARK    8  A    between atoms: C13_21  and  C14_24 
REMARK    9  A    between atoms: C14_24  and  O3_25 
REMARK   10  A    between atoms: N4_32  and  C19_33 
ROOT
HETATM    1  C6  UNL     1      -1.599 -34.047  23.969  1.00  0.00     0.151 A 
HETATM    2  N2  UNL     1      -1.014 -33.440  25.061  1.00  0.00    -0.330 N 
ATOM      3  H2  UNL     1      -1.538 -33.395  25.935  1.00  0.00     0.168 HD
HETATM    4  C7  UNL     1       0.230 -32.900  25.017  1.00  0.00     0.092 A 
HETATM    5  S2  UNL     1       1.115 -31.969  26.132  1.00  0.00    -0.082 SA
HETATM    6  C8  UNL     1       2.449 -31.639  25.136  1.00  0.00     0.064 A 
HETATM    7  C9  UNL     1       2.200 -32.283  23.899  1.00  0.00    -0.009 A 
HETATM    8  C17 UNL     1       0.988 -32.933  23.880  1.00  0.00     0.077 A 
HETATM    9  C18 UNL     1       0.330 -33.566  22.806  1.00  0.00     0.263 A 
HETATM   10  O4  UNL     1       0.913 -33.644  21.738  1.00  0.00    -0.267 OA
HETATM   11  N4  UNL     1      -0.897 -34.095  22.844  1.00  0.00    -0.289 N 
ENDROOT
BRANCH   7  12
HETATM   12  C10 UNL     1       3.335 -32.399  22.931  1.00  0.00    -0.065 C 
HETATM   13  C11 UNL     1       3.804 -33.743  22.550  1.00  0.00     0.055 C 
HETATM   14  C12 UNL     1       4.030 -33.914  21.065  1.00  0.00     0.129 C 
HETATM   15  N3  UNL     1       3.700 -32.667  20.418  1.00  0.00    -0.363 N 
HETATM   16  C15 UNL     1       4.210 -31.388  20.909  1.00  0.00     0.129 C 
HETATM   17  C16 UNL     1       4.161 -31.304  22.455  1.00  0.00     0.055 C 
BRANCH  15  18
HETATM   18  C13 UNL     1       2.867 -32.666  19.269  1.00  0.00     0.137 C 
BRANCH  18  19
HETATM   19  O2  UNL     1       1.688 -32.138  19.455  1.00  0.00    -0.348 OA
ATOM     20  H2  UNL     1       1.013 -32.759  19.700  1.00  0.00     0.219 HD
ENDBRANCH  18  19
BRANCH  18  21
HETATM   21  C14 UNL     1       3.151 -33.168  17.930  1.00  0.00     0.247 C 
BRANCH  21  22
HETATM   22  O3  UNL     1       3.397 -32.305  16.917  1.00  0.00    -0.393 OA
ATOM     23  H3  UNL     1       2.833 -32.293  16.152  1.00  0.00     0.210 HD
ENDBRANCH  21  22
ENDBRANCH  18  21
ENDBRANCH  15  18
ENDBRANCH   7  12
BRANCH  11  24
HETATM   24  C19 UNL     1      -1.526 -34.637  21.655  1.00  0.00     0.095 C 
HETATM   25  C20 UNL     1      -0.671 -35.402  20.713  1.00  0.00     0.026 C 
HETATM   26  C21 UNL     1      -1.671 -35.906  19.626  1.00  0.00     0.002 C 
HETATM   27  C22 UNL     1      -1.936 -34.705  18.728  1.00  0.00     0.000 C 
HETATM   28  C23 UNL     1      -1.683 -33.420  19.446  1.00  0.00     0.002 C 
HETATM   29  C24 UNL     1      -2.104 -33.437  20.881  1.00  0.00     0.026 C 
ENDBRANCH  11  24
BRANCH   1  30
HETATM   30  S1  UNL     1      -3.254 -34.649  24.220  1.00  0.00    -0.084 SA
BRANCH  30  31
HETATM   31  C5  UNL     1      -4.465 -33.442  23.767  1.00  0.00     0.185 C 
BRANCH  31  32
HETATM   32  C4  UNL     1      -4.683 -32.304  24.663  1.00  0.00     0.227 C 
HETATM   33  N1  UNL     1      -5.859 -31.539  24.534  1.00  0.00    -0.357 N 
ATOM     34  H1  UNL     1      -6.511 -31.768  23.784  1.00  0.00     0.162 HD
HETATM   35  O1  UNL     1      -3.823 -32.000  25.565  1.00  0.00    -0.273 OA
BRANCH  33  36
HETATM   36  C2  UNL     1      -6.176 -30.463  25.403  1.00  0.00     0.076 C 
HETATM   37  C1  UNL     1      -7.650 -30.158  25.418  1.00  0.00     0.032 C 
HETATM   38  C3  UNL     1      -5.406 -29.172  25.152  1.00  0.00     0.032 C 
ENDBRANCH  33  36
ENDBRANCH  31  32
ENDBRANCH  30  31
ENDBRANCH   1  30
TORSDOF 10
ENDMDL
MODEL 5
REMARK VINA RESULT: -6.349497404      3.685      9.358
REMARK  10 active torsions:
REMARK  status: ('A' for Active; 'I' for Inactive)
REMARK    1  A    between atoms: C2_2  and  N1_4 
REMARK       I    between atoms: N1_4  and  C4_6 
REMARK    2  A    between atoms: C4_6  and  C5_8 
REMARK    3  A    between atoms: C5_8  and  S1_9 
REMARK    4  A    between atoms: S1_9  and  C6_10 
REMARK    5  A    between atoms: C9_16  and  C10_17 
REMARK    6  A    between atoms: N3_20  and  C13_21 
REMARK    7  A    between atoms: C13_21  and  O2_22 
REMARK    8  A    between atoms: C13_21  and  C14_24 
REMARK    9  A    between atoms: C14_24  and  O3_25 
REMARK   10  A    between atoms: N4_32  and  C19_33 
ROOT
HETATM    1  C6  UNL     1      -5.966 -36.882  22.163  1.00  0.00     0.151 A 
HETATM    2  N2  UNL     1      -6.111 -35.780  22.979  1.00  0.00    -0.330 N 
ATOM      3  H2  UNL     1      -7.048 -35.514  23.281  1.00  0.00     0.168 HD
HETATM    4  C7  UNL     1      -5.055 -35.036  23.396  1.00  0.00     0.092 A 
HETATM    5  S2  UNL     1      -4.953 -33.568  24.249  1.00  0.00    -0.082 SA
HETATM    6  C8  UNL     1      -3.271 -33.366  24.143  1.00  0.00     0.064 A 
HETATM    7  C9  UNL     1      -2.774 -34.483  23.427  1.00  0.00    -0.009 A 
HETATM    8  C17 UNL     1      -3.772 -35.343  23.034  1.00  0.00     0.077 A 
HETATM    9  C18 UNL     1      -3.699 -36.477  22.201  1.00  0.00     0.263 A 
HETATM   10  O4  UNL     1      -2.601 -36.836  21.811  1.00  0.00    -0.267 OA
HETATM   11  N4  UNL     1      -4.737 -37.210  21.785  1.00  0.00    -0.289 N 
ENDROOT
BRANCH   7  12
HETATM   12  C10 UNL     1      -1.294 -34.712  23.431  1.00  0.00    -0.065 C 
HETATM   13  C11 UNL     1      -0.462 -33.968  22.469  1.00  0.00     0.055 C 
HETATM   14  C12 UNL     1       0.787 -33.371  23.075  1.00  0.00     0.129 C 
HETATM   15  N3  UNL     1       0.805 -33.705  24.479  1.00  0.00    -0.363 N 
HETATM   16  C15 UNL     1       0.562 -35.069  24.947  1.00  0.00     0.129 C 
HETATM   17  C16 UNL     1      -0.597 -35.746  24.174  1.00  0.00     0.055 C 
BRANCH  15  18
HETATM   18  C13 UNL     1       1.072 -32.698  25.442  1.00  0.00     0.137 C 
BRANCH  18  19
HETATM   19  O2  UNL     1       2.234 -32.802  26.027  1.00  0.00    -0.348 OA
ATOM     20  H2  UNL     1       2.974 -32.585  25.473  1.00  0.00     0.219 HD
ENDBRANCH  18  19
BRANCH  18  21
HETATM   21  C14 UNL     1       0.233 -31.580  25.856  1.00  0.00     0.247 C 
BRANCH  21  22
HETATM   22  O3  UNL     1      -0.547 -31.686  26.958  1.00  0.00    -0.393 OA
ATOM     23  H3  UNL     1      -0.764 -30.912  27.465  1.00  0.00     0.210 HD
ENDBRANCH  21  22
ENDBRANCH  18  21
ENDBRANCH  15  18
ENDBRANCH   7  12
BRANCH  11  24
HETATM   24  C19 UNL     1      -4.566 -38.302  20.846  1.00  0.00     0.095 C 
HETATM   25  C20 UNL     1      -3.451 -39.251  21.091  1.00  0.00     0.026 C 
HETATM   26  C21 UNL     1      -3.621 -40.324  19.971  1.00  0.00     0.002 C 
HETATM   27  C22 UNL     1      -3.066 -39.684  18.705  1.00  0.00     0.000 C 
HETATM   28  C23 UNL     1      -3.110 -38.193  18.784  1.00  0.00     0.002 C 
HETATM   29  C24 UNL     1      -4.329 -37.659  19.467  1.00  0.00     0.026 C 
ENDBRANCH  11  24
BRANCH   1  30
HETATM   30  S1  UNL     1      -7.478 -37.692  21.690  1.00  0.00    -0.084 SA
BRANCH  30  31
HETATM   31  C5  UNL     1      -8.734 -37.502  22.920  1.00  0.00     0.185 C 
BRANCH  31  32
HETATM   32  C4  UNL     1      -9.623 -36.341  22.835  1.00  0.00     0.227 C 
HETATM   33  N1  UNL     1     -11.018 -36.533  22.900  1.00  0.00    -0.357 N 
ATOM     34  H1  UNL     1     -11.378 -37.485  22.956  1.00  0.00     0.162 HD
HETATM   35  O1  UNL     1      -9.150 -35.156  22.709  1.00  0.00    -0.273 OA
BRANCH  33  36
HETATM   36  C2  UNL     1     -11.943 -35.457  22.891  1.00  0.00     0.076 C 
HETATM   37  C1  UNL     1     -13.129 -35.718  23.781  1.00  0.00     0.032 C 
HETATM   38  C3  UNL     1     -12.442 -35.036  21.513  1.00  0.00     0.032 C 
ENDBRANCH  33  36
ENDBRANCH  31  32
ENDBRANCH  30  31
ENDBRANCH   1  30
TORSDOF 10
ENDMDL
