MODEL 1
REMARK VINA RESULT: -6.169187498      0.000      0.000
REMARK  2 active torsions:
REMARK  status: ('A' for Active; 'I' for Inactive)
REMARK    1  A    between atoms: C3_3  and  N1_4 
REMARK    2  A    between atoms: N1_4  and  C4_6 
ROOT
HETATM    1  C4  UNL     1      30.196  17.874  17.594  1.00  0.00     0.102 C 
HETATM    2  C5  UNL     1      29.176  17.239  16.706  1.00  0.00     0.028 C 
HETATM    3  C6  UNL     1      28.570  15.983  17.204  1.00  0.00     0.029 C 
HETATM    4  C7  UNL     1      28.469  15.856  18.687  1.00  0.00     0.232 C 
HETATM    5  N2  UNL     1      29.691  16.239  19.354  1.00  0.00    -0.073 N 
ATOM      6  H21 UNL     1      30.485  15.646  19.107  1.00  0.00     0.277 HD
ATOM      7  H22 UNL     1      29.682  16.035  20.354  1.00  0.00     0.277 HD
HETATM    8  C8  UNL     1      29.915  17.641  19.061  1.00  0.00     0.256 C 
ENDROOT
BRANCH   1   9
HETATM    9  N1  UNL     1      30.264  19.252  17.318  1.00  0.00    -0.411 N 
ATOM     10  H1  UNL     1      29.514  19.882  17.601  1.00  0.00     0.154 HD
BRANCH   9  11
HETATM   11  C3  UNL     1      31.404  19.736  16.639  1.00  0.00     0.077 C 
HETATM   12  C2  UNL     1      31.245  19.746  15.134  1.00  0.00     0.025 C 
HETATM   13  C1  UNL     1      31.953  21.081  15.123  1.00  0.00     0.004 C 
HETATM   14  C9  UNL     1      31.649  21.199  16.599  1.00  0.00     0.025 C 
ENDBRANCH   9  11
ENDBRANCH   1   9
TORSDOF 2
ENDMDL
MODEL 2
REMARK VINA RESULT: -5.838614148      1.425      1.934
REMARK  2 active torsions:
REMARK  status: ('A' for Active; 'I' for Inactive)
REMARK    1  A    between atoms: C3_3  and  N1_4 
REMARK    2  A    between atoms: N1_4  and  C4_6 
ROOT
HETATM    1  C4  UNL     1      29.690  18.033  17.444  1.00  0.00     0.102 C 
HETATM    2  C5  UNL     1      29.914  17.548  18.839  1.00  0.00     0.028 C 
HETATM    3  C6  UNL     1      28.699  17.362  19.666  1.00  0.00     0.029 C 
HETATM    4  C7  UNL     1      27.460  16.991  18.923  1.00  0.00     0.232 C 
HETATM    5  N2  UNL     1      27.265  17.801  17.744  1.00  0.00    -0.073 N 
ATOM      6  H21 UNL     1      27.141  18.792  17.954  1.00  0.00     0.277 HD
ATOM      7  H22 UNL     1      26.360  17.647  17.298  1.00  0.00     0.277 HD
HETATM    8  C8  UNL     1      28.385  17.542  16.860  1.00  0.00     0.256 C 
ENDROOT
BRANCH   1   9
HETATM    9  N1  UNL     1      30.771  17.640  16.633  1.00  0.00    -0.411 N 
ATOM     10  H1  UNL     1      30.952  16.655  16.440  1.00  0.00     0.154 HD
BRANCH   9  11
HETATM   11  C3  UNL     1      31.597  18.651  16.094  1.00  0.00     0.077 C 
HETATM   12  C2  UNL     1      31.080  19.216  14.789  1.00  0.00     0.025 C 
HETATM   13  C1  UNL     1      31.492  20.583  15.280  1.00  0.00     0.004 C 
HETATM   14  C9  UNL     1      31.537  20.014  16.679  1.00  0.00     0.025 C 
ENDBRANCH   9  11
ENDBRANCH   1   9
TORSDOF 2
ENDMDL
MODEL 3
REMARK VINA RESULT: -5.805070189      1.881      2.886
REMARK  2 active torsions:
REMARK  status: ('A' for Active; 'I' for Inactive)
REMARK    1  A    between atoms: C3_3  and  N1_4 
REMARK    2  A    between atoms: N1_4  and  C4_6 
ROOT
HETATM    1  C4  UNL     1      29.342  17.288  19.448  1.00  0.00     0.102 C 
HETATM    2  C5  UNL     1      29.930  16.291  20.392  1.00  0.00     0.028 C 
HETATM    3  C6  UNL     1      29.079  15.900  21.540  1.00  0.00     0.029 C 
HETATM    4  C7  UNL     1      27.608  15.942  21.299  1.00  0.00     0.232 C 
HETATM    5  N2  UNL     1      27.195  17.154  20.631  1.00  0.00    -0.073 N 
ATOM      6  H21 UNL     1      27.381  17.995  21.178  1.00  0.00     0.277 HD
ATOM      7  H22 UNL     1      26.182  17.255  20.576  1.00  0.00     0.277 HD
HETATM    8  C8  UNL     1      27.840  17.164  19.332  1.00  0.00     0.256 C 
ENDROOT
BRANCH   1   9
HETATM    9  N1  UNL     1      29.946  17.150  18.185  1.00  0.00    -0.411 N 
ATOM     10  H1  UNL     1      30.365  16.266  17.897  1.00  0.00     0.154 HD
BRANCH   9  11
HETATM   11  C3  UNL     1      29.954  18.273  17.328  1.00  0.00     0.077 C 
HETATM   12  C2  UNL     1      30.195  19.578  18.053  1.00  0.00     0.025 C 
HETATM   13  C1  UNL     1      31.079  19.993  16.901  1.00  0.00     0.004 C 
HETATM   14  C9  UNL     1      31.158  18.537  16.502  1.00  0.00     0.025 C 
ENDBRANCH   9  11
ENDBRANCH   1   9
TORSDOF 2
ENDMDL
MODEL 4
REMARK VINA RESULT: -5.749422808      1.506      1.984
REMARK  2 active torsions:
REMARK  status: ('A' for Active; 'I' for Inactive)
REMARK    1  A    between atoms: C3_3  and  N1_4 
REMARK    2  A    between atoms: N1_4  and  C4_6 
ROOT
HETATM    1  C4  UNL     1      29.317  16.589  18.187  1.00  0.00     0.102 C 
HETATM    2  C5  UNL     1      28.780  16.295  16.824  1.00  0.00     0.028 C 
HETATM    3  C6  UNL     1      27.364  15.866  16.761  1.00  0.00     0.029 C 
HETATM    4  C7  UNL     1      26.473  16.411  17.826  1.00  0.00     0.232 C 
HETATM    5  N2  UNL     1      27.070  16.322  19.138  1.00  0.00    -0.073 N 
ATOM      6  H21 UNL     1      27.249  15.361  19.432  1.00  0.00     0.277 HD
ATOM      7  H22 UNL     1      26.425  16.570  19.888  1.00  0.00     0.277 HD
HETATM    8  C8  UNL     1      28.264  17.144  19.119  1.00  0.00     0.256 C 
ENDROOT
BRANCH   1   9
HETATM    9  N1  UNL     1      30.400  17.482  18.081  1.00  0.00    -0.411 N 
ATOM     10  H1  UNL     1      31.218  17.389  18.682  1.00  0.00     0.154 HD
BRANCH   9  11
HETATM   11  C3  UNL     1      30.319  18.510  17.115  1.00  0.00     0.077 C 
HETATM   12  C2  UNL     1      30.480  19.895  17.700  1.00  0.00     0.025 C 
HETATM   13  C1  UNL     1      31.317  20.248  16.494  1.00  0.00     0.004 C 
HETATM   14  C9  UNL     1      31.490  18.768  16.242  1.00  0.00     0.025 C 
ENDBRANCH   9  11
ENDBRANCH   1   9
TORSDOF 2
ENDMDL
MODEL 5
REMARK VINA RESULT: -5.635744091      1.549      4.808
REMARK  2 active torsions:
REMARK  status: ('A' for Active; 'I' for Inactive)
REMARK    1  A    between atoms: C3_3  and  N1_4 
REMARK    2  A    between atoms: N1_4  and  C4_6 
ROOT
HETATM    1  C4  UNL     1      30.689  19.205  16.288  1.00  0.00     0.102 C 
HETATM    2  C5  UNL     1      30.972  19.265  14.822  1.00  0.00     0.028 C 
HETATM    3  C6  UNL     1      31.431  20.572  14.299  1.00  0.00     0.029 C 
HETATM    4  C7  UNL     1      32.203  21.417  15.256  1.00  0.00     0.232 C 
HETATM    5  N2  UNL     1      31.584  21.475  16.559  1.00  0.00    -0.073 N 
ATOM      6  H21 UNL     1      30.657  21.901  16.544  1.00  0.00     0.277 HD
ATOM      7  H22 UNL     1      32.028  22.149  17.184  1.00  0.00     0.277 HD
HETATM    8  C8  UNL     1      31.581  20.125  17.090  1.00  0.00     0.256 C 
ENDROOT
BRANCH   1   9
HETATM    9  N1  UNL     1      30.820  17.878  16.737  1.00  0.00    -0.411 N 
ATOM     10  H1  UNL     1      31.725  17.409  16.733  1.00  0.00     0.154 HD
BRANCH   9  11
HETATM   11  C3  UNL     1      29.658  17.216  17.193  1.00  0.00     0.077 C 
HETATM   12  C2  UNL     1      28.845  18.036  18.169  1.00  0.00     0.025 C 
HETATM   13  C1  UNL     1      27.602  17.533  17.474  1.00  0.00     0.004 C 
HETATM   14  C9  UNL     1      28.474  17.148  16.300  1.00  0.00     0.025 C 
ENDBRANCH   9  11
ENDBRANCH   1   9
TORSDOF 2
ENDMDL
