MODEL 1
REMARK VINA RESULT: -6.575450450      0.000      0.000
REMARK  16 active torsions:
REMARK  status: ('A' for Active; 'I' for Inactive)
REMARK    1  A    between atoms: O1_2  and  C2_3 
REMARK    2  A    between atoms: C2_3  and  C3_5 
REMARK    3  A    between atoms: C3_5  and  O3_6 
REMARK    4  A    between atoms: C3_5  and  C4_8 
REMARK    5  A    between atoms: C4_8  and  C5_9 
REMARK    6  A    between atoms: C4_8  and  C17_30 
REMARK    7  A    between atoms: C7_11  and  O4_12 
REMARK    8  A    between atoms: C8_14  and  O5_15 
REMARK    9  A    between atoms: O5_15  and  C9_16 
REMARK   10  A    between atoms: C9_16  and  C10_17 
REMARK   11  A    between atoms: C10_17  and  C13_21 
REMARK   12  A    between atoms: C13_21  and  N2_22 
REMARK   13  A    between atoms: C15_27  and  O6_28 
REMARK   14  A    between atoms: C18_31  and  O7_32 
REMARK   15  A    between atoms: C19_34  and  O8_35 
REMARK   16  A    between atoms: C22_38  and  O9_39 
ROOT
HETATM    1  C10 UNL     1       4.812   5.955   0.191  1.00  0.00    -0.021 C 
HETATM    2  C11 UNL     1       4.237   6.466   1.246  1.00  0.00     0.100 C 
HETATM    3  C12 UNL     1       2.934   6.047   1.656  1.00  0.00     0.088 C 
HETATM    4  N1  UNL     1       1.856   5.706   1.976  1.00  0.00    -0.192 NA
ENDROOT
BRANCH   1   5
HETATM    5  C9  UNL     1       4.117   4.926  -0.605  1.00  0.00     0.212 C 
BRANCH   5   6
HETATM    6  O5  UNL     1       4.780   3.690  -0.362  1.00  0.00    -0.344 OA
BRANCH   6   7
HETATM    7  C8  UNL     1       4.032   2.528  -0.193  1.00  0.00     0.104 A 
HETATM    8  C7  UNL     1       4.650   1.300  -0.296  1.00  0.00     0.100 A 
HETATM    9  C6  UNL     1       3.874   0.192  -0.123  1.00  0.00     0.054 A 
HETATM   10  C5  UNL     1       2.490   0.236   0.155  1.00  0.00     0.014 A 
HETATM   11  C15 UNL     1       1.890   1.461   0.257  1.00  0.00     0.082 A 
HETATM   12  C14 UNL     1       2.675   2.596   0.081  1.00  0.00     0.077 A 
BRANCH   8  13
HETATM   13  O4  UNL     1       6.003   1.195  -0.569  1.00  0.00    -0.358 OA
ATOM     14  H4  UNL     1       6.315   0.897  -1.415  1.00  0.00     0.217 HD
ENDBRANCH   8  13
BRANCH  10  15
HETATM   15  C4  UNL     1       1.793  -1.024   0.235  1.00  0.00     0.031 C 
BRANCH  15  16
HETATM   16  C3  UNL     1       2.126  -2.025   1.233  1.00  0.00     0.153 C 
BRANCH  16  17
HETATM   17  C2  UNL     1       1.467  -3.215   1.676  1.00  0.00     0.317 C 
HETATM   18  O2  UNL     1       0.714  -3.220   2.670  1.00  0.00    -0.257 OA
BRANCH  17  19
HETATM   19  O1  UNL     1       1.619  -4.467   1.027  1.00  0.00    -0.321 OA
HETATM   20  C1  UNL     1       0.561  -4.936   0.209  1.00  0.00     0.213 C 
ENDBRANCH  17  19
ENDBRANCH  16  17
BRANCH  16  21
HETATM   21  O3  UNL     1       3.246  -1.846   1.893  1.00  0.00    -0.355 OA
ATOM     22  H3  UNL     1       3.317  -0.947   2.190  1.00  0.00     0.218 HD
ENDBRANCH  16  21
ENDBRANCH  15  16
BRANCH  15  23
HETATM   23  C17 UNL     1       1.604  -1.651  -1.096  1.00  0.00     0.038 A 
HETATM   24  C18 UNL     1       0.385  -1.459  -1.758  1.00  0.00     0.112 A 
HETATM   25  C19 UNL     1       0.151  -2.003  -2.992  1.00  0.00     0.104 A 
HETATM   26  C21 UNL     1       1.105  -2.750  -3.607  1.00  0.00     0.077 A 
HETATM   27  C22 UNL     1       2.294  -2.949  -2.985  1.00  0.00     0.091 A 
HETATM   28  C23 UNL     1       2.552  -2.399  -1.721  1.00  0.00     0.081 A 
HETATM   29 CL1  UNL     1       4.150  -2.766  -1.104  1.00  0.00    -0.080 Cl
BRANCH  24  30
HETATM   30  O7  UNL     1      -0.557  -0.694  -1.100  1.00  0.00    -0.357 OA
ATOM     31  H7  UNL     1      -1.212  -0.272  -1.642  1.00  0.00     0.217 HD
ENDBRANCH  24  30
BRANCH  25  32
HETATM   32  O8  UNL     1      -1.078  -1.768  -3.582  1.00  0.00    -0.353 OA
HETATM   33  C20 UNL     1      -1.286  -1.924  -4.975  1.00  0.00     0.210 C 
ENDBRANCH  25  32
BRANCH  27  34
HETATM   34  O9  UNL     1       3.261  -3.708  -3.615  1.00  0.00    -0.359 OA
ATOM     35  H9  UNL     1       3.658  -3.377  -4.412  1.00  0.00     0.217 HD
ENDBRANCH  27  34
ENDBRANCH  15  23
ENDBRANCH  10  15
BRANCH  11  36
HETATM   36  O6  UNL     1       0.527   1.614   0.529  1.00  0.00    -0.355 OA
HETATM   37  C16 UNL     1      -0.012   2.691   1.209  1.00  0.00     0.210 C 
ENDBRANCH  11  36
ENDBRANCH   6   7
ENDBRANCH   5   6
ENDBRANCH   1   5
BRANCH   1  38
HETATM   38  C13 UNL     1       6.157   6.400  -0.214  1.00  0.00     0.266 C 
BRANCH  38  39
HETATM   39  N2  UNL     1       7.046   5.332  -0.550  1.00  0.00    -0.076 N 
ATOM     40  H23 UNL     1       7.413   4.893   0.294  1.00  0.00     0.274 HD
ATOM     41  H22 UNL     1       6.528   4.546  -0.944  1.00  0.00     0.274 HD
ATOM     42  H21 UNL     1       7.808   5.606  -1.171  1.00  0.00     0.274 HD
ENDBRANCH  38  39
ENDBRANCH   1  38
TORSDOF 16
ENDMDL
MODEL 2
REMARK VINA RESULT: -6.552190644      1.871      4.119
REMARK  16 active torsions:
REMARK  status: ('A' for Active; 'I' for Inactive)
REMARK    1  A    between atoms: O1_2  and  C2_3 
REMARK    2  A    between atoms: C2_3  and  C3_5 
REMARK    3  A    between atoms: C3_5  and  O3_6 
REMARK    4  A    between atoms: C3_5  and  C4_8 
REMARK    5  A    between atoms: C4_8  and  C5_9 
REMARK    6  A    between atoms: C4_8  and  C17_30 
REMARK    7  A    between atoms: C7_11  and  O4_12 
REMARK    8  A    between atoms: C8_14  and  O5_15 
REMARK    9  A    between atoms: O5_15  and  C9_16 
REMARK   10  A    between atoms: C9_16  and  C10_17 
REMARK   11  A    between atoms: C10_17  and  C13_21 
REMARK   12  A    between atoms: C13_21  and  N2_22 
REMARK   13  A    between atoms: C15_27  and  O6_28 
REMARK   14  A    between atoms: C18_31  and  O7_32 
REMARK   15  A    between atoms: C19_34  and  O8_35 
REMARK   16  A    between atoms: C22_38  and  O9_39 
ROOT
HETATM    1  C10 UNL     1       3.521   4.998   0.473  1.00  0.00    -0.021 C 
HETATM    2  C11 UNL     1       4.236   6.076   0.652  1.00  0.00     0.100 C 
HETATM    3  C12 UNL     1       5.523   6.222   0.049  1.00  0.00     0.088 C 
HETATM    4  N1  UNL     1       6.586   6.325  -0.440  1.00  0.00    -0.192 NA
ENDROOT
BRANCH   1   5
HETATM    5  C9  UNL     1       4.038   3.900  -0.364  1.00  0.00     0.212 C 
BRANCH   5   6
HETATM    6  O5  UNL     1       3.876   2.696   0.379  1.00  0.00    -0.344 OA
BRANCH   6   7
HETATM    7  C8  UNL     1       3.335   1.571  -0.238  1.00  0.00     0.104 A 
HETATM    8  C7  UNL     1       4.103   0.435  -0.377  1.00  0.00     0.100 A 
HETATM    9  C6  UNL     1       3.526  -0.639  -0.988  1.00  0.00     0.054 A 
HETATM   10  C5  UNL     1       2.203  -0.649  -1.479  1.00  0.00     0.014 A 
HETATM   11  C15 UNL     1       1.451   0.486  -1.334  1.00  0.00     0.082 A 
HETATM   12  C14 UNL     1       2.032   1.586  -0.711  1.00  0.00     0.077 A 
BRANCH   8  13
HETATM   13  O4  UNL     1       5.407   0.386   0.084  1.00  0.00    -0.358 OA
ATOM     14  H4  UNL     1       5.611   0.078   0.960  1.00  0.00     0.217 HD
ENDBRANCH   8  13
BRANCH  10  15
HETATM   15  C4  UNL     1       1.765  -1.836  -2.171  1.00  0.00     0.031 C 
BRANCH  15  16
HETATM   16  C3  UNL     1       0.372  -2.052  -2.521  1.00  0.00     0.153 C 
BRANCH  16  17
HETATM   17  C2  UNL     1      -0.295  -2.280  -3.766  1.00  0.00     0.317 C 
HETATM   18  O2  UNL     1      -1.103  -1.457  -4.240  1.00  0.00    -0.257 OA
BRANCH  17  19
HETATM   19  O1  UNL     1      -0.092  -3.447  -4.546  1.00  0.00    -0.321 OA
HETATM   20  C1  UNL     1      -0.128  -4.707  -3.898  1.00  0.00     0.213 C 
ENDBRANCH  17  19
ENDBRANCH  16  17
BRANCH  16  21
HETATM   21  O3  UNL     1      -0.490  -2.041  -1.532  1.00  0.00    -0.355 OA
ATOM     22  H3  UNL     1      -0.334  -2.773  -0.946  1.00  0.00     0.218 HD
ENDBRANCH  16  21
ENDBRANCH  15  16
BRANCH  15  23
HETATM   23  C17 UNL     1       2.364  -3.071  -1.610  1.00  0.00     0.038 A 
HETATM   24  C18 UNL     1       3.207  -3.835  -2.426  1.00  0.00     0.112 A 
HETATM   25  C19 UNL     1       3.798  -4.981  -1.964  1.00  0.00     0.104 A 
HETATM   26  C21 UNL     1       3.576  -5.406  -0.692  1.00  0.00     0.077 A 
HETATM   27  C22 UNL     1       2.763  -4.681   0.116  1.00  0.00     0.091 A 
HETATM   28  C23 UNL     1       2.149  -3.505  -0.339  1.00  0.00     0.081 A 
HETATM   29 CL1  UNL     1       1.152  -2.717   0.867  1.00  0.00    -0.080 Cl
BRANCH  24  30
HETATM   30  O7  UNL     1       3.407  -3.369  -3.709  1.00  0.00    -0.357 OA
ATOM     31  H7  UNL     1       3.989  -2.625  -3.803  1.00  0.00     0.217 HD
ENDBRANCH  24  30
BRANCH  25  32
HETATM   32  O8  UNL     1       4.619  -5.681  -2.830  1.00  0.00    -0.353 OA
HETATM   33  C20 UNL     1       5.529  -6.665  -2.372  1.00  0.00     0.210 C 
ENDBRANCH  25  32
BRANCH  27  34
HETATM   34  O9  UNL     1       2.542  -5.118   1.408  1.00  0.00    -0.359 OA
ATOM     35  H9  UNL     1       1.692  -4.968   1.805  1.00  0.00     0.217 HD
ENDBRANCH  27  34
ENDBRANCH  15  23
ENDBRANCH  10  15
BRANCH  11  36
HETATM   36  O6  UNL     1       0.132   0.579  -1.786  1.00  0.00    -0.355 OA
HETATM   37  C16 UNL     1      -0.473   1.762  -2.175  1.00  0.00     0.210 C 
ENDBRANCH  11  36
ENDBRANCH   6   7
ENDBRANCH   5   6
ENDBRANCH   1   5
BRANCH   1  38
HETATM   38  C13 UNL     1       2.196   4.869   1.103  1.00  0.00     0.266 C 
BRANCH  38  39
HETATM   39  N2  UNL     1       1.729   6.067   1.726  1.00  0.00    -0.076 N 
ATOM     40  H23 UNL     1       2.303   6.296   2.537  1.00  0.00     0.274 HD
ATOM     41  H22 UNL     1       1.928   6.877   1.139  1.00  0.00     0.274 HD
ATOM     42  H21 UNL     1       0.741   6.044   1.983  1.00  0.00     0.274 HD
ENDBRANCH  38  39
ENDBRANCH   1  38
TORSDOF 16
ENDMDL
MODEL 3
REMARK VINA RESULT: -6.478492777      2.780      4.727
REMARK  16 active torsions:
REMARK  status: ('A' for Active; 'I' for Inactive)
REMARK    1  A    between atoms: O1_2  and  C2_3 
REMARK    2  A    between atoms: C2_3  and  C3_5 
REMARK    3  A    between atoms: C3_5  and  O3_6 
REMARK    4  A    between atoms: C3_5  and  C4_8 
REMARK    5  A    between atoms: C4_8  and  C5_9 
REMARK    6  A    between atoms: C4_8  and  C17_30 
REMARK    7  A    between atoms: C7_11  and  O4_12 
REMARK    8  A    between atoms: C8_14  and  O5_15 
REMARK    9  A    between atoms: O5_15  and  C9_16 
REMARK   10  A    between atoms: C9_16  and  C10_17 
REMARK   11  A    between atoms: C10_17  and  C13_21 
REMARK   12  A    between atoms: C13_21  and  N2_22 
REMARK   13  A    between atoms: C15_27  and  O6_28 
REMARK   14  A    between atoms: C18_31  and  O7_32 
REMARK   15  A    between atoms: C19_34  and  O8_35 
REMARK   16  A    between atoms: C22_38  and  O9_39 
ROOT
HETATM    1  C10 UNL     1       9.392   4.636  -1.172  1.00  0.00    -0.021 C 
HETATM    2  C11 UNL     1      10.274   5.406  -0.593  1.00  0.00     0.100 C 
HETATM    3  C12 UNL     1       9.875   6.483   0.255  1.00  0.00     0.088 C 
HETATM    4  N1  UNL     1       9.536   7.376   0.940  1.00  0.00    -0.192 NA
ENDROOT
BRANCH   1   5
HETATM    5  C9  UNL     1       7.952   4.872  -0.958  1.00  0.00     0.212 C 
BRANCH   5   6
HETATM    6  O5  UNL     1       7.256   3.800  -1.584  1.00  0.00    -0.344 OA
BRANCH   6   7
HETATM    7  C8  UNL     1       5.886   3.655  -1.381  1.00  0.00     0.104 A 
HETATM    8  C7  UNL     1       5.146   2.884  -2.252  1.00  0.00     0.100 A 
HETATM    9  C6  UNL     1       3.809   2.774  -2.010  1.00  0.00     0.054 A 
HETATM   10  C5  UNL     1       3.151   3.398  -0.928  1.00  0.00     0.014 A 
HETATM   11  C15 UNL     1       3.897   4.160  -0.070  1.00  0.00     0.082 A 
HETATM   12  C14 UNL     1       5.262   4.277  -0.311  1.00  0.00     0.077 A 
BRANCH   8  13
HETATM   13  O4  UNL     1       5.736   2.248  -3.331  1.00  0.00    -0.358 OA
ATOM     14  H4  UNL     1       6.426   1.606  -3.209  1.00  0.00     0.217 HD
ENDBRANCH   8  13
BRANCH  10  15
HETATM   15  C4  UNL     1       1.718   3.249  -0.852  1.00  0.00     0.031 C 
BRANCH  15  16
HETATM   16  C3  UNL     1       0.939   3.843   0.219  1.00  0.00     0.153 C 
BRANCH  16  17
HETATM   17  C2  UNL     1       0.338   3.305   1.400  1.00  0.00     0.317 C 
HETATM   18  O2  UNL     1       1.012   3.001   2.403  1.00  0.00    -0.257 OA
BRANCH  17  19
HETATM   19  O1  UNL     1      -1.058   3.077   1.519  1.00  0.00    -0.321 OA
HETATM   20  C1  UNL     1      -1.535   1.746   1.425  1.00  0.00     0.213 C 
ENDBRANCH  17  19
ENDBRANCH  16  17
BRANCH  16  21
HETATM   21  O3  UNL     1       0.706   5.132   0.130  1.00  0.00    -0.355 OA
ATOM     22  H3  UNL     1       0.873   5.558   0.962  1.00  0.00     0.218 HD
ENDBRANCH  16  21
ENDBRANCH  15  16
BRANCH  15  23
HETATM   23  C17 UNL     1       1.280   1.856  -1.112  1.00  0.00     0.038 A 
HETATM   24  C18 UNL     1       0.185   1.646  -1.958  1.00  0.00     0.112 A 
HETATM   25  C19 UNL     1      -0.262   0.384  -2.244  1.00  0.00     0.104 A 
HETATM   26  C21 UNL     1       0.352  -0.703  -1.707  1.00  0.00     0.077 A 
HETATM   27  C22 UNL     1       1.416  -0.523  -0.885  1.00  0.00     0.091 A 
HETATM   28  C23 UNL     1       1.889   0.762  -0.580  1.00  0.00     0.081 A 
HETATM   29 CL1  UNL     1       3.278   0.768   0.488  1.00  0.00    -0.080 Cl
BRANCH  24  30
HETATM   30  O7  UNL     1      -0.410   2.775  -2.483  1.00  0.00    -0.357 OA
ATOM     31  H7  UNL     1      -1.359   2.807  -2.449  1.00  0.00     0.217 HD
ENDBRANCH  24  30
BRANCH  25  32
HETATM   32  O8  UNL     1      -1.350   0.258  -3.089  1.00  0.00    -0.353 OA
HETATM   33  C20 UNL     1      -1.473  -0.818  -4.002  1.00  0.00     0.210 C 
ENDBRANCH  25  32
BRANCH  27  34
HETATM   34  O9  UNL     1       2.037  -1.631  -0.342  1.00  0.00    -0.359 OA
ATOM     35  H9  UNL     1       2.618  -1.516   0.399  1.00  0.00     0.217 HD
ENDBRANCH  27  34
ENDBRANCH  15  23
ENDBRANCH  10  15
BRANCH  11  36
HETATM   36  O6  UNL     1       3.342   4.820   1.030  1.00  0.00    -0.355 OA
HETATM   37  C16 UNL     1       3.668   6.111   1.405  1.00  0.00     0.210 C 
ENDBRANCH  11  36
ENDBRANCH   6   7
ENDBRANCH   5   6
ENDBRANCH   1   5
BRANCH   1  38
HETATM   38  C13 UNL     1       9.825   3.529  -2.042  1.00  0.00     0.266 C 
BRANCH  38  39
HETATM   39  N2  UNL     1      11.061   2.928  -1.647  1.00  0.00    -0.076 N 
ATOM     40  H23 UNL     1      11.773   3.072  -2.363  1.00  0.00     0.274 HD
ATOM     41  H22 UNL     1      11.481   3.447  -0.876  1.00  0.00     0.274 HD
ATOM     42  H21 UNL     1      10.985   1.938  -1.413  1.00  0.00     0.274 HD
ENDBRANCH  38  39
ENDBRANCH   1  38
TORSDOF 16
ENDMDL
MODEL 4
REMARK VINA RESULT: -6.387282594      1.769      3.922
REMARK  16 active torsions:
REMARK  status: ('A' for Active; 'I' for Inactive)
REMARK    1  A    between atoms: O1_2  and  C2_3 
REMARK    2  A    between atoms: C2_3  and  C3_5 
REMARK    3  A    between atoms: C3_5  and  O3_6 
REMARK    4  A    between atoms: C3_5  and  C4_8 
REMARK    5  A    between atoms: C4_8  and  C5_9 
REMARK    6  A    between atoms: C4_8  and  C17_30 
REMARK    7  A    between atoms: C7_11  and  O4_12 
REMARK    8  A    between atoms: C8_14  and  O5_15 
REMARK    9  A    between atoms: O5_15  and  C9_16 
REMARK   10  A    between atoms: C9_16  and  C10_17 
REMARK   11  A    between atoms: C10_17  and  C13_21 
REMARK   12  A    between atoms: C13_21  and  N2_22 
REMARK   13  A    between atoms: C15_27  and  O6_28 
REMARK   14  A    between atoms: C18_31  and  O7_32 
REMARK   15  A    between atoms: C19_34  and  O8_35 
REMARK   16  A    between atoms: C22_38  and  O9_39 
ROOT
HETATM    1  C10 UNL     1       5.113   5.452  -0.134  1.00  0.00    -0.021 C 
HETATM    2  C11 UNL     1       6.179   6.152   0.146  1.00  0.00     0.100 C 
HETATM    3  C12 UNL     1       7.472   5.744  -0.302  1.00  0.00     0.088 C 
HETATM    4  N1  UNL     1       8.534   5.393  -0.663  1.00  0.00    -0.192 NA
ENDROOT
BRANCH   1   5
HETATM    5  C9  UNL     1       5.229   4.213  -0.925  1.00  0.00     0.212 C 
BRANCH   5   6
HETATM    6  O5  UNL     1       4.933   3.129  -0.051  1.00  0.00    -0.344 OA
BRANCH   6   7
HETATM    7  C8  UNL     1       4.095   2.104  -0.482  1.00  0.00     0.104 A 
HETATM    8  C7  UNL     1       4.487   0.792  -0.324  1.00  0.00     0.100 A 
HETATM    9  C6  UNL     1       3.631  -0.174  -0.763  1.00  0.00     0.054 A 
HETATM   10  C5  UNL     1       2.380   0.094  -1.361  1.00  0.00     0.014 A 
HETATM   11  C15 UNL     1       2.003   1.400  -1.510  1.00  0.00     0.082 A 
HETATM   12  C14 UNL     1       2.871   2.392  -1.065  1.00  0.00     0.077 A 
BRANCH   8  13
HETATM   13  O4  UNL     1       5.703   0.468   0.254  1.00  0.00    -0.358 OA
ATOM     14  H4  UNL     1       6.004   0.900   1.045  1.00  0.00     0.217 HD
ENDBRANCH   8  13
BRANCH  10  15
HETATM   15  C4  UNL     1       1.624  -1.035  -1.843  1.00  0.00     0.031 C 
BRANCH  15  16
HETATM   16  C3  UNL     1       0.174  -1.016  -1.913  1.00  0.00     0.153 C 
BRANCH  16  17
HETATM   17  C2  UNL     1      -0.762  -1.527  -2.867  1.00  0.00     0.317 C 
HETATM   18  O2  UNL     1      -1.355  -0.782  -3.671  1.00  0.00    -0.257 OA
BRANCH  17  19
HETATM   19  O1  UNL     1      -1.084  -2.904  -2.968  1.00  0.00    -0.321 OA
HETATM   20  C1  UNL     1      -0.333  -3.710  -3.860  1.00  0.00     0.213 C 
ENDBRANCH  17  19
ENDBRANCH  16  17
BRANCH  16  21
HETATM   21  O3  UNL     1      -0.453  -0.417  -0.928  1.00  0.00    -0.355 OA
ATOM     22  H3  UNL     1      -1.385  -0.595  -0.970  1.00  0.00     0.218 HD
ENDBRANCH  16  21
ENDBRANCH  15  16
BRANCH  15  23
HETATM   23  C17 UNL     1       2.107  -2.321  -1.282  1.00  0.00     0.038 A 
HETATM   24  C18 UNL     1       2.859  -3.168  -2.103  1.00  0.00     0.112 A 
HETATM   25  C19 UNL     1       3.341  -4.364  -1.642  1.00  0.00     0.104 A 
HETATM   26  C21 UNL     1       3.096  -4.759  -0.365  1.00  0.00     0.077 A 
HETATM   27  C22 UNL     1       2.369  -3.954   0.449  1.00  0.00     0.091 A 
HETATM   28  C23 UNL     1       1.867  -2.724  -0.005  1.00  0.00     0.081 A 
HETATM   29 CL1  UNL     1       0.969  -1.837   1.208  1.00  0.00    -0.080 Cl
BRANCH  24  30
HETATM   30  O7  UNL     1       3.087  -2.731  -3.392  1.00  0.00    -0.357 OA
ATOM     31  H7  UNL     1       2.318  -2.529  -3.912  1.00  0.00     0.217 HD
ENDBRANCH  24  30
BRANCH  25  32
HETATM   32  O8  UNL     1       4.077  -5.146  -2.514  1.00  0.00    -0.353 OA
HETATM   33  C20 UNL     1       4.746  -6.320  -2.089  1.00  0.00     0.210 C 
ENDBRANCH  25  32
BRANCH  27  34
HETATM   34  O9  UNL     1       2.123  -4.359   1.746  1.00  0.00    -0.359 OA
ATOM     35  H9  UNL     1       1.937  -3.702   2.407  1.00  0.00     0.217 HD
ENDBRANCH  27  34
ENDBRANCH  15  23
ENDBRANCH  10  15
BRANCH  11  36
HETATM   36  O6  UNL     1       0.786   1.773  -2.089  1.00  0.00    -0.355 OA
HETATM   37  C16 UNL     1       0.502   3.048  -2.544  1.00  0.00     0.210 C 
ENDBRANCH  11  36
ENDBRANCH   6   7
ENDBRANCH   5   6
ENDBRANCH   1   5
BRANCH   1  38
HETATM   38  C13 UNL     1       3.787   5.890   0.336  1.00  0.00     0.266 C 
BRANCH  38  39
HETATM   39  N2  UNL     1       3.769   7.216   0.869  1.00  0.00    -0.076 N 
ATOM     40  H23 UNL     1       2.840   7.627   0.776  1.00  0.00     0.274 HD
ATOM     41  H22 UNL     1       3.848   7.194   1.886  1.00  0.00     0.274 HD
ATOM     42  H21 UNL     1       4.475   7.835   0.469  1.00  0.00     0.274 HD
ENDBRANCH  38  39
ENDBRANCH   1  38
TORSDOF 16
ENDMDL
MODEL 5
REMARK VINA RESULT: -6.380084161      1.820      3.559
REMARK  16 active torsions:
REMARK  status: ('A' for Active; 'I' for Inactive)
REMARK    1  A    between atoms: O1_2  and  C2_3 
REMARK    2  A    between atoms: C2_3  and  C3_5 
REMARK    3  A    between atoms: C3_5  and  O3_6 
REMARK    4  A    between atoms: C3_5  and  C4_8 
REMARK    5  A    between atoms: C4_8  and  C5_9 
REMARK    6  A    between atoms: C4_8  and  C17_30 
REMARK    7  A    between atoms: C7_11  and  O4_12 
REMARK    8  A    between atoms: C8_14  and  O5_15 
REMARK    9  A    between atoms: O5_15  and  C9_16 
REMARK   10  A    between atoms: C9_16  and  C10_17 
REMARK   11  A    between atoms: C10_17  and  C13_21 
REMARK   12  A    between atoms: C13_21  and  N2_22 
REMARK   13  A    between atoms: C15_27  and  O6_28 
REMARK   14  A    between atoms: C18_31  and  O7_32 
REMARK   15  A    between atoms: C19_34  and  O8_35 
REMARK   16  A    between atoms: C22_38  and  O9_39 
ROOT
HETATM    1  C10 UNL     1       5.582   5.779  -0.052  1.00  0.00    -0.021 C 
HETATM    2  C11 UNL     1       4.805   6.458   0.748  1.00  0.00     0.100 C 
HETATM    3  C12 UNL     1       3.389   6.267   0.744  1.00  0.00     0.088 C 
HETATM    4  N1  UNL     1       2.225   6.112   0.724  1.00  0.00    -0.192 NA
ENDROOT
BRANCH   1   5
HETATM    5  C9  UNL     1       5.004   4.793  -0.984  1.00  0.00     0.212 C 
BRANCH   5   6
HETATM    6  O5  UNL     1       5.054   3.526  -0.336  1.00  0.00    -0.344 OA
BRANCH   6   7
HETATM    7  C8  UNL     1       4.074   2.574  -0.604  1.00  0.00     0.104 A 
HETATM    8  C7  UNL     1       4.353   1.238  -0.418  1.00  0.00     0.100 A 
HETATM    9  C6  UNL     1       3.359   0.346  -0.696  1.00  0.00     0.054 A 
HETATM   10  C5  UNL     1       2.077   0.714  -1.157  1.00  0.00     0.014 A 
HETATM   11  C15 UNL     1       1.813   2.045  -1.337  1.00  0.00     0.082 A 
HETATM   12  C14 UNL     1       2.821   2.961  -1.056  1.00  0.00     0.077 A 
BRANCH   8  13
HETATM   13  O4  UNL     1       5.593   0.817   0.031  1.00  0.00    -0.358 OA
ATOM     14  H4  UNL     1       6.396   1.151  -0.350  1.00  0.00     0.217 HD
ENDBRANCH   8  13
BRANCH  10  15
HETATM   15  C4  UNL     1       1.161  -0.352  -1.480  1.00  0.00     0.031 C 
BRANCH  15  16
HETATM   16  C3  UNL     1      -0.276  -0.151  -1.500  1.00  0.00     0.153 C 
BRANCH  16  17
HETATM   17  C2  UNL     1      -1.259  -0.034  -0.467  1.00  0.00     0.317 C 
HETATM   18  O2  UNL     1      -1.936  -1.009  -0.087  1.00  0.00    -0.257 OA
BRANCH  17  19
HETATM   19  O1  UNL     1      -1.535   1.189   0.198  1.00  0.00    -0.321 OA
HETATM   20  C1  UNL     1      -2.699   1.272   1.003  1.00  0.00     0.213 C 
ENDBRANCH  17  19
ENDBRANCH  16  17
BRANCH  16  21
HETATM   21  O3  UNL     1      -0.839  -0.055  -2.682  1.00  0.00    -0.355 OA
ATOM     22  H3  UNL     1      -0.196   0.187  -3.338  1.00  0.00     0.218 HD
ENDBRANCH  16  21
ENDBRANCH  15  16
BRANCH  15  23
HETATM   23  C17 UNL     1       1.505  -1.621  -0.794  1.00  0.00     0.038 A 
HETATM   24  C18 UNL     1       1.907  -2.714  -1.571  1.00  0.00     0.112 A 
HETATM   25  C19 UNL     1       2.247  -3.909  -0.997  1.00  0.00     0.104 A 
HETATM   26  C21 UNL     1       2.199  -4.064   0.352  1.00  0.00     0.077 A 
HETATM   27  C22 UNL     1       1.812  -3.019   1.125  1.00  0.00     0.091 A 
HETATM   28  C23 UNL     1       1.461  -1.785   0.556  1.00  0.00     0.081 A 
HETATM   29 CL1  UNL     1       1.006  -0.569   1.731  1.00  0.00    -0.080 Cl
BRANCH  24  30
HETATM   30  O7  UNL     1       1.943  -2.516  -2.936  1.00  0.00    -0.357 OA
ATOM     31  H7  UNL     1       2.772  -2.689  -3.367  1.00  0.00     0.217 HD
ENDBRANCH  24  30
BRANCH  25  32
HETATM   32  O8  UNL     1       2.635  -4.942  -1.832  1.00  0.00    -0.353 OA
HETATM   33  C20 UNL     1       3.996  -5.293  -2.012  1.00  0.00     0.210 C 
ENDBRANCH  25  32
BRANCH  27  34
HETATM   34  O9  UNL     1       1.766  -3.181   2.496  1.00  0.00    -0.359 OA
ATOM     35  H9  UNL     1       1.080  -2.747   2.988  1.00  0.00     0.217 HD
ENDBRANCH  27  34
ENDBRANCH  15  23
ENDBRANCH  10  15
BRANCH  11  36
HETATM   36  O6  UNL     1       0.576   2.514  -1.790  1.00  0.00    -0.355 OA
HETATM   37  C16 UNL     1       0.404   3.257  -2.944  1.00  0.00     0.210 C 
ENDBRANCH  11  36
ENDBRANCH   6   7
ENDBRANCH   5   6
ENDBRANCH   1   5
BRANCH   1  38
HETATM   38  C13 UNL     1       7.040   5.990  -0.032  1.00  0.00     0.266 C 
BRANCH  38  39
HETATM   39  N2  UNL     1       7.779   5.018  -0.775  1.00  0.00    -0.076 N 
ATOM     40  H23 UNL     1       7.191   4.215  -0.998  1.00  0.00     0.274 HD
ATOM     41  H22 UNL     1       7.973   5.358  -1.716  1.00  0.00     0.274 HD
ATOM     42  H21 UNL     1       8.640   4.714  -0.319  1.00  0.00     0.274 HD
ENDBRANCH  38  39
ENDBRANCH   1  38
TORSDOF 16
ENDMDL
