MODEL 1
REMARK VINA RESULT: -7.729559208      0.000      0.000
REMARK  4 active torsions:
REMARK  status: ('A' for Active; 'I' for Inactive)
REMARK    1  A    between atoms: C5_5  and  N1_6 
REMARK    2  A    between atoms: N1_6  and  C6_8 
REMARK    3  A    between atoms: C6_8  and  C7_12 
REMARK    4  A    between atoms: C7_12  and  N3_13 
ROOT
HETATM    1  C1  UNL     1     219.705  -6.926  17.457  1.00  0.00     0.011 C 
HETATM    2  C2  UNL     1     219.729  -5.547  18.135  1.00  0.00    -0.009 C 
HETATM    3  C3  UNL     1     218.683  -5.472  19.191  1.00  0.00    -0.004 C 
HETATM    4  C4  UNL     1     217.428  -6.125  18.560  1.00  0.00     0.030 C 
HETATM    5  C5  UNL     1     216.274  -5.946  19.513  1.00  0.00     0.083 C 
HETATM    6  C8  UNL     1     216.715  -5.611  20.911  1.00  0.00     0.025 C 
HETATM    7  C9  UNL     1     217.544  -4.363  20.996  1.00  0.00     0.007 C 
HETATM    8  C10 UNL     1     218.317  -4.128  19.671  1.00  0.00    -0.001 C 
HETATM    9  C11 UNL     1     219.286  -3.067  19.793  1.00  0.00     0.052 C 
HETATM   10  C12 UNL     1     218.910  -1.915  18.827  1.00  0.00     0.131 C 
HETATM   11  N4  UNL     1     219.563  -2.091  17.557  1.00  0.00    -0.360 N 
ATOM     12  H4  UNL     1     219.258  -1.494  16.788  1.00  0.00     0.162 HD
HETATM   13  C13 UNL     1     220.596  -3.028  17.285  1.00  0.00     0.230 C 
HETATM   14  O1  UNL     1     220.856  -3.313  16.081  1.00  0.00    -0.273 OA
HETATM   15  C14 UNL     1     221.320  -3.624  18.394  1.00  0.00     0.084 C 
HETATM   16  C15 UNL     1     222.762  -3.265  18.371  1.00  0.00     0.026 C 
HETATM   17  C16 UNL     1     223.421  -2.999  19.695  1.00  0.00     0.036 C 
HETATM   18  C17 UNL     1     222.922  -3.710  20.852  1.00  0.00     0.161 A 
HETATM   19  O2  UNL     1     221.900  -3.583  21.678  1.00  0.00    -0.366 OA
HETATM   20  C18 UNL     1     221.460  -4.138  20.583  1.00  0.00     0.125 A 
HETATM   21  C19 UNL     1     221.462  -5.449  19.962  1.00  0.00     0.050 C 
HETATM   22  C20 UNL     1     221.096  -5.144  18.509  1.00  0.00     0.014 C 
HETATM   23  C21 UNL     1     220.730  -3.191  19.685  1.00  0.00     0.159 C 
HETATM   24  F1  UNL     1     221.144  -1.853  19.879  1.00  0.00    -0.238 F 
ENDROOT
BRANCH   5  25
HETATM   25  N1  UNL     1     215.560  -7.216  19.586  1.00  0.00    -0.374 N 
ATOM     26  H1  UNL     1     215.803  -7.871  20.330  1.00  0.00     0.161 HD
BRANCH  25  27
HETATM   27  C6  UNL     1     214.540  -7.579  18.664  1.00  0.00     0.096 C 
HETATM   28  N2  UNL     1     214.056  -8.752  18.541  1.00  0.00    -0.388 N 
ATOM     29  H22 UNL     1     214.422  -9.491  19.142  1.00  0.00     0.157 HD
ATOM     30  H21 UNL     1     213.325  -9.013  17.880  1.00  0.00     0.157 HD
BRANCH  27  31
HETATM   31  C7  UNL     1     214.004  -6.497  17.783  1.00  0.00     0.304 C 
BRANCH  31  32
HETATM   32  N3  UNL     1     214.366  -6.874  16.414  1.00  0.00    -0.073 N 
ATOM     33  H33 UNL     1     215.323  -7.217  16.326  1.00  0.00     0.274 HD
ATOM     34  H32 UNL     1     213.901  -7.722  16.088  1.00  0.00     0.274 HD
ATOM     35  H31 UNL     1     214.173  -6.056  15.836  1.00  0.00     0.274 HD
ENDBRANCH  31  32
ENDBRANCH  27  31
ENDBRANCH  25  27
ENDBRANCH   5  25
TORSDOF 4
ENDMDL
MODEL 2
REMARK VINA RESULT: -7.635095579      2.025      3.618
REMARK  4 active torsions:
REMARK  status: ('A' for Active; 'I' for Inactive)
REMARK    1  A    between atoms: C5_5  and  N1_6 
REMARK    2  A    between atoms: N1_6  and  C6_8 
REMARK    3  A    between atoms: C6_8  and  C7_12 
REMARK    4  A    between atoms: C7_12  and  N3_13 
ROOT
HETATM    1  C1  UNL     1     218.883  -4.665  21.801  1.00  0.00     0.011 C 
HETATM    2  C2  UNL     1     219.124  -4.634  20.283  1.00  0.00    -0.009 C 
HETATM    3  C3  UNL     1     217.901  -5.073  19.557  1.00  0.00    -0.004 C 
HETATM    4  C4  UNL     1     217.387  -6.303  20.344  1.00  0.00     0.030 C 
HETATM    5  C5  UNL     1     216.237  -6.905  19.579  1.00  0.00     0.083 C 
HETATM    6  C8  UNL     1     215.647  -5.960  18.569  1.00  0.00     0.025 C 
HETATM    7  C9  UNL     1     216.637  -5.475  17.550  1.00  0.00     0.007 C 
HETATM    8  C10 UNL     1     218.070  -5.461  18.145  1.00  0.00    -0.001 C 
HETATM    9  C11 UNL     1     219.009  -4.797  17.275  1.00  0.00     0.052 C 
HETATM   10  C12 UNL     1     220.088  -5.810  16.815  1.00  0.00     0.131 C 
HETATM   11  N4  UNL     1     221.213  -5.787  17.712  1.00  0.00    -0.360 N 
ATOM     12  H4  UNL     1     221.906  -6.528  17.613  1.00  0.00     0.162 HD
HETATM   13  C13 UNL     1     221.439  -4.815  18.724  1.00  0.00     0.230 C 
HETATM   14  O1  UNL     1     222.266  -5.077  19.644  1.00  0.00    -0.273 OA
HETATM   15  C14 UNL     1     220.716  -3.556  18.671  1.00  0.00     0.084 C 
HETATM   16  C15 UNL     1     221.633  -2.399  18.502  1.00  0.00     0.026 C 
HETATM   17  C16 UNL     1     221.168  -1.284  17.607  1.00  0.00     0.036 C 
HETATM   18  C17 UNL     1     219.745  -1.035  17.524  1.00  0.00     0.161 A 
HETATM   19  O2  UNL     1     218.723  -1.569  16.881  1.00  0.00    -0.366 OA
HETATM   20  C18 UNL     1     218.988  -2.328  17.908  1.00  0.00     0.125 A 
HETATM   21  C19 UNL     1     218.754  -2.327  19.340  1.00  0.00     0.050 C 
HETATM   22  C20 UNL     1     219.747  -3.369  19.854  1.00  0.00     0.014 C 
HETATM   23  C21 UNL     1     219.739  -3.572  17.553  1.00  0.00     0.159 C 
HETATM   24  F1  UNL     1     220.493  -3.415  16.368  1.00  0.00    -0.238 F 
ENDROOT
BRANCH   5  25
HETATM   25  N1  UNL     1     215.181  -7.214  20.536  1.00  0.00    -0.374 N 
ATOM     26  H1  UNL     1     214.486  -6.498  20.747  1.00  0.00     0.161 HD
BRANCH  25  27
HETATM   27  C6  UNL     1     215.081  -8.474  21.190  1.00  0.00     0.096 C 
HETATM   28  N2  UNL     1     214.733  -9.561  20.622  1.00  0.00    -0.388 N 
ATOM     29  H22 UNL     1     214.506  -9.535  19.628  1.00  0.00     0.157 HD
ATOM     30  H21 UNL     1     214.660 -10.464  21.090  1.00  0.00     0.157 HD
BRANCH  27  31
HETATM   31  C7  UNL     1     215.412  -8.511  22.647  1.00  0.00     0.304 C 
BRANCH  31  32
HETATM   32  N3  UNL     1     216.789  -9.007  22.736  1.00  0.00    -0.073 N 
ATOM     33  H33 UNL     1     217.472  -8.389  22.300  1.00  0.00     0.274 HD
ATOM     34  H32 UNL     1     217.174  -8.972  23.680  1.00  0.00     0.274 HD
ATOM     35  H31 UNL     1     216.776  -9.945  22.336  1.00  0.00     0.274 HD
ENDBRANCH  31  32
ENDBRANCH  27  31
ENDBRANCH  25  27
ENDBRANCH   5  25
TORSDOF 4
ENDMDL
MODEL 3
REMARK VINA RESULT: -7.589793937      1.417      1.757
REMARK  4 active torsions:
REMARK  status: ('A' for Active; 'I' for Inactive)
REMARK    1  A    between atoms: C5_5  and  N1_6 
REMARK    2  A    between atoms: N1_6  and  C6_8 
REMARK    3  A    between atoms: C6_8  and  C7_12 
REMARK    4  A    between atoms: C7_12  and  N3_13 
ROOT
HETATM    1  C1  UNL     1     220.013  -6.699  16.569  1.00  0.00     0.011 C 
HETATM    2  C2  UNL     1     219.696  -5.610  17.607  1.00  0.00    -0.009 C 
HETATM    3  C3  UNL     1     218.359  -5.850  18.215  1.00  0.00    -0.004 C 
HETATM    4  C4  UNL     1     217.441  -6.233  17.028  1.00  0.00     0.030 C 
HETATM    5  C5  UNL     1     216.028  -6.338  17.541  1.00  0.00     0.083 C 
HETATM    6  C8  UNL     1     215.955  -6.479  19.036  1.00  0.00     0.025 C 
HETATM    7  C9  UNL     1     216.601  -5.346  19.778  1.00  0.00     0.007 C 
HETATM    8  C10 UNL     1     217.744  -4.721  18.934  1.00  0.00    -0.001 C 
HETATM    9  C11 UNL     1     218.526  -3.780  19.697  1.00  0.00     0.052 C 
HETATM   10  C12 UNL     1     218.392  -2.370  19.069  1.00  0.00     0.131 C 
HETATM   11  N4  UNL     1     219.437  -2.148  18.105  1.00  0.00    -0.360 N 
ATOM     12  H4  UNL     1     219.353  -1.329  17.504  1.00  0.00     0.162 HD
HETATM   13  C13 UNL     1     220.578  -2.976  17.923  1.00  0.00     0.230 C 
HETATM   14  O1  UNL     1     221.242  -2.868  16.853  1.00  0.00    -0.273 OA
HETATM   15  C14 UNL     1     220.945  -3.914  18.969  1.00  0.00     0.084 C 
HETATM   16  C15 UNL     1     222.279  -3.605  19.547  1.00  0.00     0.026 C 
HETATM   17  C16 UNL     1     222.443  -3.793  21.029  1.00  0.00     0.036 C 
HETATM   18  C17 UNL     1     221.654  -4.823  21.668  1.00  0.00     0.161 A 
HETATM   19  O2  UNL     1     220.410  -4.940  22.097  1.00  0.00    -0.366 OA
HETATM   20  C18 UNL     1     220.403  -5.104  20.803  1.00  0.00     0.125 A 
HETATM   21  C19 UNL     1     220.719  -6.147  19.846  1.00  0.00     0.050 C 
HETATM   22  C20 UNL     1     220.826  -5.384  18.526  1.00  0.00     0.014 C 
HETATM   23  C21 UNL     1     219.930  -3.900  20.052  1.00  0.00     0.159 C 
HETATM   24  F1  UNL     1     220.144  -2.706  20.777  1.00  0.00    -0.238 F 
ENDROOT
BRANCH   5  25
HETATM   25  N1  UNL     1     215.439  -7.545  16.973  1.00  0.00    -0.374 N 
ATOM     26  H1  UNL     1     215.773  -8.453  17.299  1.00  0.00     0.161 HD
BRANCH  25  27
HETATM   27  C6  UNL     1     214.419  -7.510  15.982  1.00  0.00     0.096 C 
HETATM   28  N2  UNL     1     213.255  -7.019  16.155  1.00  0.00    -0.388 N 
ATOM     29  H22 UNL     1     213.029  -6.622  17.067  1.00  0.00     0.157 HD
ATOM     30  H21 UNL     1     212.523  -6.994  15.445  1.00  0.00     0.157 HD
BRANCH  27  31
HETATM   31  C7  UNL     1     214.749  -8.093  14.646  1.00  0.00     0.304 C 
BRANCH  31  32
HETATM   32  N3  UNL     1     214.019  -7.286  13.662  1.00  0.00    -0.073 N 
ATOM     33  H33 UNL     1     213.895  -7.754  12.764  1.00  0.00     0.274 HD
ATOM     34  H32 UNL     1     213.029  -7.175  13.881  1.00  0.00     0.274 HD
ATOM     35  H31 UNL     1     214.524  -6.403  13.594  1.00  0.00     0.274 HD
ENDBRANCH  31  32
ENDBRANCH  27  31
ENDBRANCH  25  27
ENDBRANCH   5  25
TORSDOF 4
ENDMDL
MODEL 4
REMARK VINA RESULT: -7.530205524      1.714      3.325
REMARK  4 active torsions:
REMARK  status: ('A' for Active; 'I' for Inactive)
REMARK    1  A    between atoms: C5_5  and  N1_6 
REMARK    2  A    between atoms: N1_6  and  C6_8 
REMARK    3  A    between atoms: C6_8  and  C7_12 
REMARK    4  A    between atoms: C7_12  and  N3_13 
ROOT
HETATM    1  C1  UNL     1     218.173  -1.986  18.852  1.00  0.00     0.011 C 
HETATM    2  C2  UNL     1     219.260  -3.061  19.010  1.00  0.00    -0.009 C 
HETATM    3  C3  UNL     1     218.852  -4.313  18.316  1.00  0.00    -0.004 C 
HETATM    4  C4  UNL     1     217.359  -4.506  18.680  1.00  0.00     0.030 C 
HETATM    5  C5  UNL     1     216.912  -5.841  18.144  1.00  0.00     0.083 C 
HETATM    6  C8  UNL     1     217.833  -6.387  17.087  1.00  0.00     0.025 C 
HETATM    7  C9  UNL     1     219.248  -6.561  17.556  1.00  0.00     0.007 C 
HETATM    8  C10 UNL     1     219.582  -5.542  18.678  1.00  0.00    -0.001 C 
HETATM    9  C11 UNL     1     220.988  -5.532  18.997  1.00  0.00     0.052 C 
HETATM   10  C12 UNL     1     221.184  -5.979  20.468  1.00  0.00     0.131 C 
HETATM   11  N4  UNL     1     221.184  -4.837  21.344  1.00  0.00    -0.360 N 
ATOM     12  H4  UNL     1     221.132  -5.017  22.347  1.00  0.00     0.162 HD
HETATM   13  C13 UNL     1     221.252  -3.480  20.928  1.00  0.00     0.230 C 
HETATM   14  O1  UNL     1     220.919  -2.576  21.747  1.00  0.00    -0.273 OA
HETATM   15  C14 UNL     1     221.700  -3.175  19.580  1.00  0.00     0.084 C 
HETATM   16  C15 UNL     1     222.957  -2.382  19.582  1.00  0.00     0.026 C 
HETATM   17  C16 UNL     1     223.971  -2.705  18.520  1.00  0.00     0.036 C 
HETATM   18  C17 UNL     1     223.482  -3.192  17.248  1.00  0.00     0.161 A 
HETATM   19  O2  UNL     1     223.061  -4.349  16.771  1.00  0.00    -0.366 OA
HETATM   20  C18 UNL     1     222.085  -3.822  17.457  1.00  0.00     0.125 A 
HETATM   21  C19 UNL     1     221.076  -2.795  17.284  1.00  0.00     0.050 C 
HETATM   22  C20 UNL     1     220.602  -2.531  18.713  1.00  0.00     0.014 C 
HETATM   23  C21 UNL     1     221.915  -4.428  18.814  1.00  0.00     0.159 C 
HETATM   24  F1  UNL     1     223.120  -4.986  19.300  1.00  0.00    -0.238 F 
ENDROOT
BRANCH   5  25
HETATM   25  N1  UNL     1     215.610  -5.652  17.514  1.00  0.00    -0.374 N 
ATOM     26  H1  UNL     1     215.388  -4.740  17.114  1.00  0.00     0.161 HD
BRANCH  25  27
HETATM   27  C6  UNL     1     214.637  -6.687  17.434  1.00  0.00     0.096 C 
HETATM   28  N2  UNL     1     214.105  -7.101  16.352  1.00  0.00    -0.388 N 
ATOM     29  H22 UNL     1     214.391  -6.664  15.475  1.00  0.00     0.157 HD
ATOM     30  H21 UNL     1     213.407  -7.843  16.294  1.00  0.00     0.157 HD
BRANCH  27  31
HETATM   31  C7  UNL     1     214.219  -7.326  18.718  1.00  0.00     0.304 C 
BRANCH  31  32
HETATM   32  N3  UNL     1     214.197  -8.770  18.463  1.00  0.00    -0.073 N 
ATOM     33  H33 UNL     1     214.988  -9.267  18.872  1.00  0.00     0.274 HD
ATOM     34  H32 UNL     1     213.463  -9.263  18.972  1.00  0.00     0.274 HD
ATOM     35  H31 UNL     1     214.132  -8.875  17.450  1.00  0.00     0.274 HD
ENDBRANCH  31  32
ENDBRANCH  27  31
ENDBRANCH  25  27
ENDBRANCH   5  25
TORSDOF 4
ENDMDL
MODEL 5
REMARK VINA RESULT: -7.436014151      2.238      3.667
REMARK  4 active torsions:
REMARK  status: ('A' for Active; 'I' for Inactive)
REMARK    1  A    between atoms: C5_5  and  N1_6 
REMARK    2  A    between atoms: N1_6  and  C6_8 
REMARK    3  A    between atoms: C6_8  and  C7_12 
REMARK    4  A    between atoms: C7_12  and  N3_13 
ROOT
HETATM    1  C1  UNL     1     220.173  -3.950  21.774  1.00  0.00     0.011 C 
HETATM    2  C2  UNL     1     220.023  -4.090  20.251  1.00  0.00    -0.009 C 
HETATM    3  C3  UNL     1     218.710  -4.705  19.915  1.00  0.00    -0.004 C 
HETATM    4  C4  UNL     1     218.538  -5.862  20.929  1.00  0.00     0.030 C 
HETATM    5  C5  UNL     1     217.302  -6.638  20.554  1.00  0.00     0.083 C 
HETATM    6  C8  UNL     1     216.384  -5.872  19.641  1.00  0.00     0.025 C 
HETATM    7  C9  UNL     1     217.034  -5.445  18.357  1.00  0.00     0.007 C 
HETATM    8  C10 UNL     1     218.561  -5.251  18.555  1.00  0.00    -0.001 C 
HETATM    9  C11 UNL     1     219.179  -4.633  17.408  1.00  0.00     0.052 C 
HETATM   10  C12 UNL     1     220.208  -5.613  16.789  1.00  0.00     0.131 C 
HETATM   11  N4  UNL     1     221.513  -5.395  17.356  1.00  0.00    -0.360 N 
ATOM     12  H4  UNL     1     222.232  -6.090  17.156  1.00  0.00     0.162 HD
HETATM   13  C13 UNL     1     221.882  -4.292  18.171  1.00  0.00     0.230 C 
HETATM   14  O1  UNL     1     222.935  -4.376  18.866  1.00  0.00    -0.273 OA
HETATM   15  C14 UNL     1     221.043  -3.106  18.180  1.00  0.00     0.084 C 
HETATM   16  C15 UNL     1     221.764  -1.914  17.663  1.00  0.00     0.026 C 
HETATM   17  C16 UNL     1     220.979  -0.956  16.812  1.00  0.00     0.036 C 
HETATM   18  C17 UNL     1     219.562  -0.826  17.076  1.00  0.00     0.161 A 
HETATM   19  O2  UNL     1     218.473  -1.510  16.778  1.00  0.00    -0.366 OA
HETATM   20  C18 UNL     1     219.063  -2.113  17.772  1.00  0.00     0.125 A 
HETATM   21  C19 UNL     1     219.194  -1.951  19.208  1.00  0.00     0.050 C 
HETATM   22  C20 UNL     1     220.386  -2.846  19.549  1.00  0.00     0.014 C 
HETATM   23  C21 UNL     1     219.825  -3.333  17.362  1.00  0.00     0.159 C 
HETATM   24  F1  UNL     1     220.240  -3.269  16.012  1.00  0.00    -0.238 F 
ENDROOT
BRANCH   5  25
HETATM   25  N1  UNL     1     216.556  -6.903  21.778  1.00  0.00    -0.374 N 
ATOM     26  H1  UNL     1     216.241  -6.112  22.340  1.00  0.00     0.161 HD
BRANCH  25  27
HETATM   27  C6  UNL     1     216.249  -8.219  22.222  1.00  0.00     0.096 C 
HETATM   28  N2  UNL     1     217.101  -9.044  22.691  1.00  0.00    -0.388 N 
ATOM     29  H22 UNL     1     218.075  -8.748  22.755  1.00  0.00     0.157 HD
ATOM     30  H21 UNL     1     216.882  -9.988  23.009  1.00  0.00     0.157 HD
BRANCH  27  31
HETATM   31  C7  UNL     1     214.822  -8.653  22.128  1.00  0.00     0.304 C 
BRANCH  31  32
HETATM   32  N3  UNL     1     214.624  -9.093  20.744  1.00  0.00    -0.073 N 
ATOM     33  H33 UNL     1     214.261  -8.363  20.133  1.00  0.00     0.274 HD
ATOM     34  H32 UNL     1     215.496  -9.255  20.240  1.00  0.00     0.274 HD
ATOM     35  H31 UNL     1     214.024  -9.917  20.795  1.00  0.00     0.274 HD
ENDBRANCH  31  32
ENDBRANCH  27  31
ENDBRANCH  25  27
ENDBRANCH   5  25
TORSDOF 4
ENDMDL
