MODEL 1
REMARK VINA RESULT: -6.677547850      0.000      0.000
REMARK  6 active torsions:
REMARK  status: ('A' for Active; 'I' for Inactive)
REMARK       I    between atoms: N1_2  and  C2_4 
REMARK    1  A    between atoms: C2_4  and  C3_6 
REMARK    2  A    between atoms: C6_9  and  N2_10 
REMARK    3  A    between atoms: N2_10  and  C7_12 
REMARK    4  A    between atoms: C7_12  and  N3_14 
REMARK    5  A    between atoms: N3_14  and  C8_16 
REMARK    6  A    between atoms: C12_25  and  O2_26 
ROOT
HETATM    1  C3  UNL     1     217.987   5.627  17.460  1.00  0.00     0.089 C 
HETATM    2  C4  UNL     1     218.761   5.266  18.735  1.00  0.00     0.022 C 
HETATM    3  C5  UNL     1     219.249   6.583  19.220  1.00  0.00     0.020 C 
HETATM    4  C6  UNL     1     220.231   7.225  18.228  1.00  0.00     0.118 C 
HETATM    5  C12 UNL     1     219.411   7.481  16.985  1.00  0.00     0.151 C 
HETATM    6  C13 UNL     1     217.993   7.107  17.431  1.00  0.00     0.003 C 
HETATM    7  C14 UNL     1     216.949   7.806  16.669  1.00  0.00     0.019 C 
HETATM    8  C15 UNL     1     218.046   7.479  18.894  1.00  0.00    -0.032 C 
HETATM    9  C16 UNL     1     218.447   8.895  19.142  1.00  0.00     0.016 C 
HETATM   10  C17 UNL     1     216.833   7.190  19.664  1.00  0.00     0.016 C 
ENDROOT
BRANCH   4  11
HETATM   11  N2  UNL     1     221.356   6.336  17.991  1.00  0.00    -0.359 N 
ATOM     12  H2  UNL     1     221.204   5.330  17.909  1.00  0.00     0.162 HD
BRANCH  11  13
HETATM   13  C7  UNL     1     222.663   6.866  17.874  1.00  0.00     0.173 C 
HETATM   14  S1  UNL     1     223.496   7.205  19.233  1.00  0.00    -0.041 SA
BRANCH  13  15
HETATM   15  N3  UNL     1     223.270   7.112  16.623  1.00  0.00    -0.318 N 
ATOM     16  H3  UNL     1     223.941   6.433  16.266  1.00  0.00     0.170 HD
BRANCH  15  17
HETATM   17  C8  UNL     1     223.013   8.162  15.908  1.00  0.00     0.122 A 
HETATM   18  C9  UNL     1     223.563   9.377  16.258  1.00  0.00     0.137 A 
HETATM   19  N4  UNL     1     223.351  10.511  15.579  1.00  0.00    -0.352 N 
HETATM   20  C10 UNL     1     222.556  10.454  14.497  1.00  0.00     0.118 A 
ATOM     21  H4  UNL     1     223.780  11.389  15.872  1.00  0.00     0.166 HD
HETATM   22 CL1  UNL     1     222.275  11.934  13.603  1.00  0.00    -0.063 Cl
HETATM   23  C11 UNL     1     221.984   9.264  14.108  1.00  0.00     0.132 A 
HETATM   24  N5  UNL     1     222.220   8.129  14.821  1.00  0.00    -0.348 N 
ATOM     25  H5  UNL     1     221.793   7.249  14.530  1.00  0.00     0.167 HD
ENDBRANCH  15  17
ENDBRANCH  13  15
ENDBRANCH  11  13
ENDBRANCH   4  11
BRANCH   5  26
HETATM   26  O2  UNL     1     219.817   6.645  15.927  1.00  0.00    -0.393 OA
ATOM     27  H2  UNL     1     219.377   6.878  15.118  1.00  0.00     0.210 HD
ENDBRANCH   5  26
BRANCH   1  28
HETATM   28  C2  UNL     1     216.714   4.935  17.403  1.00  0.00     0.222 C 
HETATM   29  N1  UNL     1     216.058   4.620  16.200  1.00  0.00    -0.365 N 
HETATM   30  C1  UNL     1     214.785   3.931  16.130  1.00  0.00     0.149 C 
ATOM     31  H1  UNL     1     216.505   4.893  15.325  1.00  0.00     0.161 HD
HETATM   32  O1  UNL     1     216.159   4.593  18.479  1.00  0.00    -0.273 OA
ENDBRANCH   1  28
TORSDOF 6
ENDMDL
MODEL 2
REMARK VINA RESULT: -6.636059527      5.473      8.149
REMARK  6 active torsions:
REMARK  status: ('A' for Active; 'I' for Inactive)
REMARK       I    between atoms: N1_2  and  C2_4 
REMARK    1  A    between atoms: C2_4  and  C3_6 
REMARK    2  A    between atoms: C6_9  and  N2_10 
REMARK    3  A    between atoms: N2_10  and  C7_12 
REMARK    4  A    between atoms: C7_12  and  N3_14 
REMARK    5  A    between atoms: N3_14  and  C8_16 
REMARK    6  A    between atoms: C12_25  and  O2_26 
ROOT
HETATM    1  C3  UNL     1     219.267   7.040  18.692  1.00  0.00     0.089 C 
HETATM    2  C4  UNL     1     219.493   5.646  19.294  1.00  0.00     0.022 C 
HETATM    3  C5  UNL     1     218.291   4.889  18.858  1.00  0.00     0.020 C 
HETATM    4  C6  UNL     1     217.004   5.471  19.464  1.00  0.00     0.118 C 
HETATM    5  C12 UNL     1     216.896   6.859  18.878  1.00  0.00     0.151 C 
HETATM    6  C13 UNL     1     218.047   6.892  17.867  1.00  0.00     0.003 C 
HETATM    7  C14 UNL     1     217.817   7.837  16.765  1.00  0.00     0.019 C 
HETATM    8  C15 UNL     1     218.094   5.444  17.440  1.00  0.00    -0.032 C 
HETATM    9  C16 UNL     1     216.794   4.925  16.921  1.00  0.00     0.016 C 
HETATM   10  C17 UNL     1     219.154   5.098  16.489  1.00  0.00     0.016 C 
ENDROOT
BRANCH   4  11
HETATM   11  N2  UNL     1     217.090   5.473  20.915  1.00  0.00    -0.359 N 
ATOM     12  H2  UNL     1     217.385   6.316  21.408  1.00  0.00     0.162 HD
BRANCH  11  13
HETATM   13  C7  UNL     1     216.764   4.304  21.643  1.00  0.00     0.173 C 
HETATM   14  S1  UNL     1     215.306   3.617  21.411  1.00  0.00    -0.041 SA
BRANCH  13  15
HETATM   15  N3  UNL     1     217.657   3.714  22.565  1.00  0.00    -0.318 N 
ATOM     16  H3  UNL     1     218.342   3.043  22.217  1.00  0.00     0.170 HD
BRANCH  15  17
HETATM   17  C8  UNL     1     217.647   3.986  23.832  1.00  0.00     0.122 A 
HETATM   18  C9  UNL     1     218.230   5.150  24.284  1.00  0.00     0.137 A 
HETATM   19  N4  UNL     1     218.265   5.510  25.573  1.00  0.00    -0.352 N 
HETATM   20  C10 UNL     1     217.701   4.684  26.471  1.00  0.00     0.118 A 
ATOM     21  H4  UNL     1     218.707   6.383  25.865  1.00  0.00     0.166 HD
HETATM   22 CL1  UNL     1     217.744   5.149  28.159  1.00  0.00    -0.063 Cl
HETATM   23  C11 UNL     1     217.107   3.510  26.066  1.00  0.00     0.132 A 
HETATM   24  N5  UNL     1     217.087   3.174  24.748  1.00  0.00    -0.348 N 
ATOM     25  H5  UNL     1     216.647   2.302  24.453  1.00  0.00     0.167 HD
ENDBRANCH  15  17
ENDBRANCH  13  15
ENDBRANCH  11  13
ENDBRANCH   4  11
BRANCH   5  26
HETATM   26  O2  UNL     1     217.096   7.844  19.865  1.00  0.00    -0.393 OA
ATOM     27  H2  UNL     1     217.908   8.315  19.718  1.00  0.00     0.210 HD
ENDBRANCH   5  26
BRANCH   1  28
HETATM   28  C2  UNL     1     220.473   7.544  18.066  1.00  0.00     0.222 C 
HETATM   29  N1  UNL     1     221.571   6.730  17.736  1.00  0.00    -0.365 N 
HETATM   30  C1  UNL     1     222.784   7.222  17.113  1.00  0.00     0.149 C 
ATOM     31  H1  UNL     1     221.511   5.734  17.949  1.00  0.00     0.161 HD
HETATM   32  O1  UNL     1     220.554   8.771  17.799  1.00  0.00    -0.273 OA
ENDBRANCH   1  28
TORSDOF 6
ENDMDL
MODEL 3
REMARK VINA RESULT: -6.569556589      5.851      8.459
REMARK  6 active torsions:
REMARK  status: ('A' for Active; 'I' for Inactive)
REMARK       I    between atoms: N1_2  and  C2_4 
REMARK    1  A    between atoms: C2_4  and  C3_6 
REMARK    2  A    between atoms: C6_9  and  N2_10 
REMARK    3  A    between atoms: N2_10  and  C7_12 
REMARK    4  A    between atoms: C7_12  and  N3_14 
REMARK    5  A    between atoms: N3_14  and  C8_16 
REMARK    6  A    between atoms: C12_25  and  O2_26 
ROOT
HETATM    1  C3  UNL     1     219.192   6.847  19.607  1.00  0.00     0.089 C 
HETATM    2  C4  UNL     1     219.293   5.356  19.253  1.00  0.00     0.022 C 
HETATM    3  C5  UNL     1     217.872   4.947  19.101  1.00  0.00     0.020 C 
HETATM    4  C6  UNL     1     217.100   5.076  20.424  1.00  0.00     0.118 C 
HETATM    5  C12 UNL     1     217.110   6.555  20.734  1.00  0.00     0.151 C 
HETATM    6  C13 UNL     1     217.751   7.160  19.481  1.00  0.00     0.003 C 
HETATM    7  C14 UNL     1     217.346   8.553  19.245  1.00  0.00     0.019 C 
HETATM    8  C15 UNL     1     217.280   6.191  18.422  1.00  0.00    -0.032 C 
HETATM    9  C16 UNL     1     215.798   6.025  18.372  1.00  0.00     0.016 C 
HETATM   10  C17 UNL     1     217.773   6.447  17.065  1.00  0.00     0.016 C 
ENDROOT
BRANCH   4  11
HETATM   11  N2  UNL     1     217.739   4.276  21.456  1.00  0.00    -0.359 N 
ATOM     12  H2  UNL     1     218.751   4.316  21.579  1.00  0.00     0.162 HD
BRANCH  11  13
HETATM   13  C7  UNL     1     216.957   3.442  22.289  1.00  0.00     0.173 C 
HETATM   14  S1  UNL     1     215.404   3.162  21.882  1.00  0.00    -0.041 SA
BRANCH  13  15
HETATM   15  N3  UNL     1     217.473   2.845  23.460  1.00  0.00    -0.318 N 
ATOM     16  H3  UNL     1     217.843   1.896  23.401  1.00  0.00     0.170 HD
BRANCH  15  17
HETATM   17  C8  UNL     1     217.499   3.447  24.608  1.00  0.00     0.122 A 
HETATM   18  C9  UNL     1     218.092   4.687  24.713  1.00  0.00     0.137 A 
HETATM   19  N4  UNL     1     218.164   5.380  25.857  1.00  0.00    -0.352 N 
HETATM   20  C10 UNL     1     217.628   4.828  26.959  1.00  0.00     0.118 A 
ATOM     21  H4  UNL     1     218.611   6.297  25.891  1.00  0.00     0.166 HD
HETATM   22 CL1  UNL     1     217.719   5.729  28.458  1.00  0.00    -0.063 Cl
HETATM   23  C11 UNL     1     217.026   3.591  26.903  1.00  0.00     0.132 A 
HETATM   24  N5  UNL     1     216.969   2.914  25.724  1.00  0.00    -0.348 N 
ATOM     25  H5  UNL     1     216.523   1.997  25.687  1.00  0.00     0.167 HD
ENDBRANCH  15  17
ENDBRANCH  13  15
ENDBRANCH  11  13
ENDBRANCH   4  11
BRANCH   5  26
HETATM   26  O2  UNL     1     217.907   6.832  21.861  1.00  0.00    -0.393 OA
ATOM     27  H2  UNL     1     217.557   6.414  22.639  1.00  0.00     0.210 HD
ENDBRANCH   5  26
BRANCH   1  28
HETATM   28  C2  UNL     1     220.145   7.633  18.848  1.00  0.00     0.222 C 
HETATM   29  N1  UNL     1     220.869   7.124  17.755  1.00  0.00    -0.365 N 
HETATM   30  C1  UNL     1     221.826   7.898  16.990  1.00  0.00     0.149 C 
ATOM     31  H1  UNL     1     220.712   6.154  17.486  1.00  0.00     0.161 HD
HETATM   32  O1  UNL     1     220.342   8.832  19.174  1.00  0.00    -0.273 OA
ENDBRANCH   1  28
TORSDOF 6
ENDMDL
MODEL 4
REMARK VINA RESULT: -6.558171830      4.691      7.850
REMARK  6 active torsions:
REMARK  status: ('A' for Active; 'I' for Inactive)
REMARK       I    between atoms: N1_2  and  C2_4 
REMARK    1  A    between atoms: C2_4  and  C3_6 
REMARK    2  A    between atoms: C6_9  and  N2_10 
REMARK    3  A    between atoms: N2_10  and  C7_12 
REMARK    4  A    between atoms: C7_12  and  N3_14 
REMARK    5  A    between atoms: N3_14  and  C8_16 
REMARK    6  A    between atoms: C12_25  and  O2_26 
ROOT
HETATM    1  C3  UNL     1     218.683   7.658  18.737  1.00  0.00     0.089 C 
HETATM    2  C4  UNL     1     218.243   6.660  19.818  1.00  0.00     0.022 C 
HETATM    3  C5  UNL     1     218.320   5.350  19.121  1.00  0.00     0.020 C 
HETATM    4  C6  UNL     1     217.321   5.267  17.956  1.00  0.00     0.118 C 
HETATM    5  C12 UNL     1     217.782   6.322  16.978  1.00  0.00     0.151 C 
HETATM    6  C13 UNL     1     219.096   6.809  17.597  1.00  0.00     0.003 C 
HETATM    7  C14 UNL     1     220.029   7.360  16.604  1.00  0.00     0.019 C 
HETATM    8  C15 UNL     1     219.582   5.546  18.267  1.00  0.00    -0.032 C 
HETATM    9  C16 UNL     1     219.697   4.379  17.344  1.00  0.00     0.016 C 
HETATM   10  C17 UNL     1     220.828   5.672  19.028  1.00  0.00     0.016 C 
ENDROOT
BRANCH   4  11
HETATM   11  N2  UNL     1     215.969   5.493  18.440  1.00  0.00    -0.359 N 
ATOM     12  H2  UNL     1     215.650   6.441  18.640  1.00  0.00     0.162 HD
BRANCH  11  13
HETATM   13  C7  UNL     1     215.096   4.397  18.633  1.00  0.00     0.173 C 
HETATM   14  S1  UNL     1     214.743   3.442  17.361  1.00  0.00    -0.041 SA
BRANCH  13  15
HETATM   15  N3  UNL     1     214.519   4.102  19.888  1.00  0.00    -0.318 N 
ATOM     16  H3  UNL     1     213.505   4.008  19.947  1.00  0.00     0.170 HD
BRANCH  15  17
HETATM   17  C8  UNL     1     215.218   3.945  20.968  1.00  0.00     0.122 A 
HETATM   18  C9  UNL     1     215.262   2.709  21.577  1.00  0.00     0.137 A 
HETATM   19  N4  UNL     1     215.957   2.456  22.694  1.00  0.00    -0.352 N 
HETATM   20  C10 UNL     1     216.646   3.470  23.245  1.00  0.00     0.118 A 
ATOM     21  H4  UNL     1     215.963   1.526  23.112  1.00  0.00     0.166 HD
HETATM   22 CL1  UNL     1     217.557   3.147  24.706  1.00  0.00    -0.063 Cl
HETATM   23  C11 UNL     1     216.632   4.722  22.673  1.00  0.00     0.132 A 
HETATM   24  N5  UNL     1     215.915   4.945  21.538  1.00  0.00    -0.348 N 
ATOM     25  H5  UNL     1     215.907   5.874  21.117  1.00  0.00     0.167 HD
ENDBRANCH  15  17
ENDBRANCH  13  15
ENDBRANCH  11  13
ENDBRANCH   4  11
BRANCH   5  26
HETATM   26  O2  UNL     1     216.861   7.386  16.909  1.00  0.00    -0.393 OA
ATOM     27  H2  UNL     1     217.165   8.063  16.315  1.00  0.00     0.210 HD
ENDBRANCH   5  26
BRANCH   1  28
HETATM   28  C2  UNL     1     219.627   8.623  19.265  1.00  0.00     0.222 C 
HETATM   29  N1  UNL     1     219.973   9.811  18.596  1.00  0.00    -0.365 N 
HETATM   30  C1  UNL     1     220.917  10.782  19.112  1.00  0.00     0.149 C 
ATOM     31  H1  UNL     1     219.534   9.999  17.696  1.00  0.00     0.161 HD
HETATM   32  O1  UNL     1     220.169   8.398  20.377  1.00  0.00    -0.273 OA
ENDBRANCH   1  28
TORSDOF 6
ENDMDL
MODEL 5
REMARK VINA RESULT: -6.532929890      5.671      8.073
REMARK  6 active torsions:
REMARK  status: ('A' for Active; 'I' for Inactive)
REMARK       I    between atoms: N1_2  and  C2_4 
REMARK    1  A    between atoms: C2_4  and  C3_6 
REMARK    2  A    between atoms: C6_9  and  N2_10 
REMARK    3  A    between atoms: N2_10  and  C7_12 
REMARK    4  A    between atoms: C7_12  and  N3_14 
REMARK    5  A    between atoms: N3_14  and  C8_16 
REMARK    6  A    between atoms: C12_25  and  O2_26 
ROOT
HETATM    1  C3  UNL     1     217.284   7.345  18.853  1.00  0.00     0.089 C 
HETATM    2  C4  UNL     1     217.398   7.443  20.382  1.00  0.00     0.022 C 
HETATM    3  C5  UNL     1     218.392   6.390  20.715  1.00  0.00     0.020 C 
HETATM    4  C6  UNL     1     217.874   4.988  20.360  1.00  0.00     0.118 C 
HETATM    5  C12 UNL     1     217.723   5.001  18.857  1.00  0.00     0.151 C 
HETATM    6  C13 UNL     1     218.318   6.358  18.468  1.00  0.00     0.003 C 
HETATM    7  C14 UNL     1     218.845   6.383  17.097  1.00  0.00     0.019 C 
HETATM    8  C15 UNL     1     219.370   6.527  19.539  1.00  0.00    -0.032 C 
HETATM    9  C16 UNL     1     220.340   5.396  19.615  1.00  0.00     0.016 C 
HETATM   10  C17 UNL     1     220.116   7.788  19.500  1.00  0.00     0.016 C 
ENDROOT
BRANCH   4  11
HETATM   11  N2  UNL     1     216.623   4.726  21.053  1.00  0.00    -0.359 N 
ATOM     12  H2  UNL     1     215.816   5.330  20.895  1.00  0.00     0.162 HD
BRANCH  11  13
HETATM   13  C7  UNL     1     216.525   3.634  21.947  1.00  0.00     0.173 C 
HETATM   14  S1  UNL     1     215.177   2.721  21.925  1.00  0.00    -0.041 SA
BRANCH  13  15
HETATM   15  N3  UNL     1     217.555   3.308  22.858  1.00  0.00    -0.318 N 
ATOM     16  H3  UNL     1     218.285   2.663  22.556  1.00  0.00     0.170 HD
BRANCH  15  17
HETATM   17  C8  UNL     1     217.615   3.791  24.059  1.00  0.00     0.122 A 
HETATM   18  C9  UNL     1     218.197   5.022  24.270  1.00  0.00     0.137 A 
HETATM   19  N4  UNL     1     218.303   5.596  25.475  1.00  0.00    -0.352 N 
HETATM   20  C10 UNL     1     217.812   4.928  26.533  1.00  0.00     0.118 A 
ATOM     21  H4  UNL     1     218.741   6.511  25.587  1.00  0.00     0.166 HD
HETATM   22 CL1  UNL     1     217.947   5.673  28.112  1.00  0.00    -0.063 Cl
HETATM   23  C11 UNL     1     217.222   3.695  26.371  1.00  0.00     0.132 A 
HETATM   24  N5  UNL     1     217.131   3.139  25.132  1.00  0.00    -0.348 N 
ATOM     25  H5  UNL     1     216.693   2.225  25.017  1.00  0.00     0.167 HD
ENDBRANCH  15  17
ENDBRANCH  13  15
ENDBRANCH  11  13
ENDBRANCH   4  11
BRANCH   5  26
HETATM   26  O2  UNL     1     216.367   4.947  18.482  1.00  0.00    -0.393 OA
ATOM     27  H2  UNL     1     215.897   5.716  18.782  1.00  0.00     0.210 HD
ENDBRANCH   5  26
BRANCH   1  28
HETATM   28  C2  UNL     1     217.312   8.658  18.239  1.00  0.00     0.222 C 
HETATM   29  N1  UNL     1     216.935   8.896  16.906  1.00  0.00    -0.365 N 
HETATM   30  C1  UNL     1     216.960  10.203  16.279  1.00  0.00     0.149 C 
ATOM     31  H1  UNL     1     216.625   8.102  16.346  1.00  0.00     0.161 HD
HETATM   32  O1  UNL     1     217.690   9.643  18.925  1.00  0.00    -0.273 OA
ENDBRANCH   1  28
TORSDOF 6
ENDMDL
