MODEL 1
REMARK VINA RESULT: -6.393981104      0.000      0.000
REMARK  5 active torsions:
REMARK  status: ('A' for Active; 'I' for Inactive)
REMARK    1  A    between atoms: C2_2  and  C3_3 
REMARK    2  A    between atoms: C3_3  and  N1_4 
REMARK    3  A    between atoms: C6_7  and  N2_8 
REMARK       I    between atoms: N2_8  and  C7_10 
REMARK       I    between atoms: C7_10  and  N3_12 
REMARK    4  A    between atoms: N3_12  and  C8_14 
REMARK    5  A    between atoms: C14_24  and  O2_25 
ROOT
HETATM    1  N2  UNL     1      -5.340   5.835  11.060  1.00  0.00    -0.338 N 
ATOM      2  H2  UNL     1      -5.556   5.012  10.498  1.00  0.00     0.164 HD
HETATM    3  C7  UNL     1      -5.124   5.694  12.450  1.00  0.00     0.316 C 
HETATM    4  O1  UNL     1      -4.860   6.703  13.137  1.00  0.00    -0.247 OA
HETATM    5  N3  UNL     1      -5.204   4.433  13.061  1.00  0.00    -0.334 N 
ATOM      6  H3  UNL     1      -5.420   3.604  12.507  1.00  0.00     0.164 HD
ENDROOT
BRANCH   5   7
HETATM    7  C8  UNL     1      -4.975   4.325  14.491  1.00  0.00     0.145 C 
HETATM    8  C9  UNL     1      -6.240   3.927  15.205  1.00  0.00     0.300 C 
HETATM    9  N4  UNL     1      -5.991   2.624  15.696  1.00  0.00     0.101 N 
HETATM   10  C10 UNL     1      -6.576   2.355  17.001  1.00  0.00     0.300 C 
HETATM   11  C13 UNL     1      -4.559   2.451  15.859  1.00  0.00     0.279 C 
HETATM   12  C11 UNL     1      -5.872   1.102  17.523  1.00  0.00     0.262 C 
HETATM   13  N5  UNL     1      -5.414   0.301  16.400  1.00  0.00    -0.071 N 
HETATM   14  C12 UNL     1      -4.290   0.967  15.720  1.00  0.00     0.270 C 
ATOM     15  H52 UNL     1      -5.178  -0.650  16.684  1.00  0.00     0.277 HD
ATOM     16  H51 UNL     1      -6.173   0.082  15.755  1.00  0.00     0.277 HD
HETATM   17  C14 UNL     1      -3.933   3.257  14.745  1.00  0.00     0.180 C 
BRANCH  17  18
HETATM   18  O2  UNL     1      -2.782   3.859  15.186  1.00  0.00    -0.386 OA
HETATM   19  C15 UNL     1      -2.178   4.462  14.070  1.00  0.00     0.202 C 
ENDBRANCH  17  18
ENDBRANCH   5   7
BRANCH   1  20
HETATM   20  C6  UNL     1      -5.258   7.145  10.418  1.00  0.00     0.089 C 
HETATM   21  C5  UNL     1      -6.651   7.701  10.326  1.00  0.00     0.055 C 
HETATM   22  C4  UNL     1      -7.367   7.001   9.196  1.00  0.00     0.275 C 
HETATM   23  N1  UNL     1      -6.843   7.505   7.959  1.00  0.00     0.091 N 
HETATM   24  C17 UNL     1      -5.450   7.891   8.037  1.00  0.00     0.275 C 
HETATM   25  C16 UNL     1      -4.685   7.035   9.024  1.00  0.00     0.055 C 
BRANCH  23  26
HETATM   26  C3  UNL     1      -7.578   8.650   7.451  1.00  0.00     0.299 C 
BRANCH  26  27
HETATM   27  C2  UNL     1      -9.043   8.509   7.673  1.00  0.00    -0.007 C 
HETATM   28  C1  UNL     1      -9.911   9.423   7.267  1.00  0.00     0.008 C 
ENDBRANCH  26  27
ENDBRANCH  23  26
ENDBRANCH   1  20
TORSDOF 5
ENDMDL
MODEL 2
REMARK VINA RESULT: -6.383078399      4.232      8.681
REMARK  5 active torsions:
REMARK  status: ('A' for Active; 'I' for Inactive)
REMARK    1  A    between atoms: C2_2  and  C3_3 
REMARK    2  A    between atoms: C3_3  and  N1_4 
REMARK    3  A    between atoms: C6_7  and  N2_8 
REMARK       I    between atoms: N2_8  and  C7_10 
REMARK       I    between atoms: C7_10  and  N3_12 
REMARK    4  A    between atoms: N3_12  and  C8_14 
REMARK    5  A    between atoms: C14_24  and  O2_25 
ROOT
HETATM    1  N2  UNL     1      -2.930   3.634  13.184  1.00  0.00    -0.338 N 
ATOM      2  H2  UNL     1      -3.084   2.652  12.958  1.00  0.00     0.164 HD
HETATM    3  C7  UNL     1      -1.992   4.384  12.438  1.00  0.00     0.316 C 
HETATM    4  O1  UNL     1      -1.805   5.587  12.716  1.00  0.00    -0.247 OA
HETATM    5  N3  UNL     1      -1.273   3.788  11.391  1.00  0.00    -0.334 N 
ATOM      6  H3  UNL     1      -1.419   2.806  11.157  1.00  0.00     0.164 HD
ENDROOT
BRANCH   5   7
HETATM    7  C8  UNL     1      -0.318   4.588  10.644  1.00  0.00     0.145 C 
HETATM    8  C9  UNL     1       0.970   3.833  10.445  1.00  0.00     0.300 C 
HETATM    9  N4  UNL     1       1.037   3.581   9.054  1.00  0.00     0.101 N 
HETATM   10  C10 UNL     1       2.379   3.660   8.497  1.00  0.00     0.300 C 
HETATM   11  C13 UNL     1       0.256   4.587   8.358  1.00  0.00     0.279 C 
HETATM   12  C11 UNL     1       2.195   3.772   6.983  1.00  0.00     0.262 C 
HETATM   13  N5  UNL     1       0.942   3.142   6.600  1.00  0.00    -0.071 N 
HETATM   14  C12 UNL     1      -0.200   3.950   7.061  1.00  0.00     0.270 C 
ATOM     15  H52 UNL     1       0.900   2.960   5.598  1.00  0.00     0.277 HD
ATOM     16  H51 UNL     1       0.885   2.179   6.931  1.00  0.00     0.277 HD
HETATM   17  C14 UNL     1      -0.896   4.903   9.281  1.00  0.00     0.180 C 
BRANCH  17  18
HETATM   18  O2  UNL     1      -1.193   6.242   9.227  1.00  0.00    -0.386 OA
HETATM   19  C15 UNL     1      -2.589   6.351   9.113  1.00  0.00     0.202 C 
ENDBRANCH  17  18
ENDBRANCH   5   7
BRANCH   1  20
HETATM   20  C6  UNL     1      -3.683   4.250  14.275  1.00  0.00     0.089 C 
HETATM   21  C5  UNL     1      -3.767   3.252  15.396  1.00  0.00     0.055 C 
HETATM   22  C4  UNL     1      -4.804   2.217  15.034  1.00  0.00     0.275 C 
HETATM   23  N1  UNL     1      -6.099   2.820  15.174  1.00  0.00     0.091 N 
HETATM   24  C17 UNL     1      -6.109   4.240  14.889  1.00  0.00     0.275 C 
HETATM   25  C16 UNL     1      -5.085   4.608  13.837  1.00  0.00     0.055 C 
BRANCH  23  26
HETATM   26  C3  UNL     1      -6.673   2.643  16.496  1.00  0.00     0.299 C 
BRANCH  26  27
HETATM   27  C2  UNL     1      -6.977   1.214  16.779  1.00  0.00    -0.007 C 
HETATM   28  C1  UNL     1      -6.193   0.459  17.534  1.00  0.00     0.008 C 
ENDBRANCH  26  27
ENDBRANCH  23  26
ENDBRANCH   1  20
TORSDOF 5
ENDMDL
MODEL 3
REMARK VINA RESULT: -6.286498133      3.833      8.827
REMARK  5 active torsions:
REMARK  status: ('A' for Active; 'I' for Inactive)
REMARK    1  A    between atoms: C2_2  and  C3_3 
REMARK    2  A    between atoms: C3_3  and  N1_4 
REMARK    3  A    between atoms: C6_7  and  N2_8 
REMARK       I    between atoms: N2_8  and  C7_10 
REMARK       I    between atoms: C7_10  and  N3_12 
REMARK    4  A    between atoms: N3_12  and  C8_14 
REMARK    5  A    between atoms: C14_24  and  O2_25 
ROOT
HETATM    1  N2  UNL     1      -3.649   2.847  13.366  1.00  0.00    -0.338 N 
ATOM      2  H2  UNL     1      -3.864   1.950  12.930  1.00  0.00     0.164 HD
HETATM    3  C7  UNL     1      -2.701   3.706  12.765  1.00  0.00     0.316 C 
HETATM    4  O1  UNL     1      -2.439   4.803  13.301  1.00  0.00    -0.247 OA
HETATM    5  N3  UNL     1      -2.055   3.336  11.575  1.00  0.00    -0.334 N 
ATOM      6  H3  UNL     1      -2.263   2.442  11.132  1.00  0.00     0.164 HD
ENDROOT
BRANCH   5   7
HETATM    7  C8  UNL     1      -1.088   4.244  10.984  1.00  0.00     0.145 C 
HETATM    8  C9  UNL     1       0.243   3.562  10.804  1.00  0.00     0.300 C 
HETATM    9  N4  UNL     1       0.416   3.458   9.403  1.00  0.00     0.101 N 
HETATM   10  C10 UNL     1       1.788   3.645   8.956  1.00  0.00     0.300 C 
HETATM   11  C13 UNL     1      -0.359   4.502   8.758  1.00  0.00     0.279 C 
HETATM   12  C11 UNL     1       1.703   3.906   7.452  1.00  0.00     0.262 C 
HETATM   13  N5  UNL     1       0.509   3.273   6.918  1.00  0.00    -0.071 N 
HETATM   14  C12 UNL     1      -0.697   3.986   7.374  1.00  0.00     0.270 C 
ATOM     15  H52 UNL     1       0.543   3.195   5.901  1.00  0.00     0.277 HD
ATOM     16  H51 UNL     1       0.471   2.279   7.144  1.00  0.00     0.277 HD
HETATM   17  C14 UNL     1      -1.585   4.678   9.622  1.00  0.00     0.180 C 
BRANCH  17  18
HETATM   18  O2  UNL     1      -1.936   6.002   9.681  1.00  0.00    -0.386 OA
HETATM   19  C15 UNL     1      -3.323   6.073   9.468  1.00  0.00     0.202 C 
ENDBRANCH  17  18
ENDBRANCH   5   7
BRANCH   1  20
HETATM   20  C6  UNL     1      -4.325   3.226  14.605  1.00  0.00     0.089 C 
HETATM   21  C5  UNL     1      -3.834   2.315  15.695  1.00  0.00     0.055 C 
HETATM   22  C4  UNL     1      -4.510   0.976  15.534  1.00  0.00     0.275 C 
HETATM   23  N1  UNL     1      -5.874   1.114  15.956  1.00  0.00     0.091 N 
HETATM   24  C17 UNL     1      -6.424   2.432  15.713  1.00  0.00     0.275 C 
HETATM   25  C16 UNL     1      -5.823   3.071  14.479  1.00  0.00     0.055 C 
BRANCH  23  26
HETATM   26  C3  UNL     1      -6.070   0.820  17.365  1.00  0.00     0.299 C 
BRANCH  26  27
HETATM   27  C2  UNL     1      -6.660   1.976  18.094  1.00  0.00    -0.007 C 
HETATM   28  C1  UNL     1      -6.299   2.293  19.328  1.00  0.00     0.008 C 
ENDBRANCH  26  27
ENDBRANCH  23  26
ENDBRANCH   1  20
TORSDOF 5
ENDMDL
MODEL 4
REMARK VINA RESULT: -6.195246631      3.242      3.619
REMARK  5 active torsions:
REMARK  status: ('A' for Active; 'I' for Inactive)
REMARK    1  A    between atoms: C2_2  and  C3_3 
REMARK    2  A    between atoms: C3_3  and  N1_4 
REMARK    3  A    between atoms: C6_7  and  N2_8 
REMARK       I    between atoms: N2_8  and  C7_10 
REMARK       I    between atoms: C7_10  and  N3_12 
REMARK    4  A    between atoms: N3_12  and  C8_14 
REMARK    5  A    between atoms: C14_24  and  O2_25 
ROOT
HETATM    1  N2  UNL     1      -5.410   6.754  10.045  1.00  0.00    -0.338 N 
ATOM      2  H2  UNL     1      -4.980   6.712   9.122  1.00  0.00     0.164 HD
HETATM    3  C7  UNL     1      -5.175   5.714  10.973  1.00  0.00     0.316 C 
HETATM    4  O1  UNL     1      -5.703   5.767  12.104  1.00  0.00    -0.247 OA
HETATM    5  N3  UNL     1      -4.355   4.626  10.634  1.00  0.00    -0.334 N 
ATOM      6  H3  UNL     1      -3.921   4.575   9.712  1.00  0.00     0.164 HD
ENDROOT
BRANCH   5   7
HETATM    7  C8  UNL     1      -4.135   3.575  11.612  1.00  0.00     0.145 C 
HETATM    8  C9  UNL     1      -5.068   2.418  11.371  1.00  0.00     0.300 C 
HETATM    9  N4  UNL     1      -4.235   1.352  10.959  1.00  0.00     0.101 N 
HETATM   10  C10 UNL     1      -4.648   0.047  11.450  1.00  0.00     0.300 C 
HETATM   11  C13 UNL     1      -2.900   1.572  11.486  1.00  0.00     0.279 C 
HETATM   12  C11 UNL     1      -3.440  -0.871  11.258  1.00  0.00     0.262 C 
HETATM   13  N5  UNL     1      -2.629  -0.380  10.157  1.00  0.00    -0.071 N 
HETATM   14  C12 UNL     1      -1.948   0.869  10.539  1.00  0.00     0.270 C 
ATOM     15  H52 UNL     1      -1.971  -1.086   9.826  1.00  0.00     0.277 HD
ATOM     16  H51 UNL     1      -3.175  -0.269   9.303  1.00  0.00     0.277 HD
HETATM   17  C14 UNL     1      -2.714   3.071  11.482  1.00  0.00     0.180 C 
BRANCH  17  18
HETATM   18  O2  UNL     1      -2.004   3.461  12.589  1.00  0.00    -0.386 OA
HETATM   19  C15 UNL     1      -1.150   4.502  12.186  1.00  0.00     0.202 C 
ENDBRANCH  17  18
ENDBRANCH   5   7
BRANCH   1  20
HETATM   20  C6  UNL     1      -6.261   7.890  10.393  1.00  0.00     0.089 C 
HETATM   21  C5  UNL     1      -7.529   7.776   9.593  1.00  0.00     0.055 C 
HETATM   22  C4  UNL     1      -7.236   8.208   8.177  1.00  0.00     0.275 C 
HETATM   23  N1  UNL     1      -7.095   9.636   8.169  1.00  0.00     0.091 N 
HETATM   24  C17 UNL     1      -6.551  10.169   9.401  1.00  0.00     0.275 C 
HETATM   25  C16 UNL     1      -5.588   9.201  10.055  1.00  0.00     0.055 C 
BRANCH  23  26
HETATM   26  C3  UNL     1      -8.342  10.334   7.913  1.00  0.00     0.299 C 
BRANCH  26  27
HETATM   27  C2  UNL     1      -9.234   9.558   7.009  1.00  0.00    -0.007 C 
HETATM   28  C1  UNL     1     -10.552   9.568   7.135  1.00  0.00     0.008 C 
ENDBRANCH  26  27
ENDBRANCH  23  26
ENDBRANCH   1  20
TORSDOF 5
ENDMDL
MODEL 5
REMARK VINA RESULT: -6.191956814      4.616      6.430
REMARK  5 active torsions:
REMARK  status: ('A' for Active; 'I' for Inactive)
REMARK    1  A    between atoms: C2_2  and  C3_3 
REMARK    2  A    between atoms: C3_3  and  N1_4 
REMARK    3  A    between atoms: C6_7  and  N2_8 
REMARK       I    between atoms: N2_8  and  C7_10 
REMARK       I    between atoms: C7_10  and  N3_12 
REMARK    4  A    between atoms: N3_12  and  C8_14 
REMARK    5  A    between atoms: C14_24  and  O2_25 
ROOT
HETATM    1  N2  UNL     1      -2.096   6.700  14.098  1.00  0.00    -0.338 N 
ATOM      2  H2  UNL     1      -1.258   6.210  14.411  1.00  0.00     0.164 HD
HETATM    3  C7  UNL     1      -3.102   5.988  13.405  1.00  0.00     0.316 C 
HETATM    4  O1  UNL     1      -4.127   6.590  13.022  1.00  0.00    -0.247 OA
HETATM    5  N3  UNL     1      -2.957   4.617  13.147  1.00  0.00    -0.334 N 
ATOM      6  H3  UNL     1      -2.123   4.118  13.456  1.00  0.00     0.164 HD
ENDROOT
BRANCH   5   7
HETATM    7  C8  UNL     1      -4.012   3.917  12.433  1.00  0.00     0.145 C 
HETATM    8  C9  UNL     1      -3.442   3.114  11.294  1.00  0.00     0.300 C 
HETATM    9  N4  UNL     1      -3.646   1.762  11.658  1.00  0.00     0.101 N 
HETATM   10  C10 UNL     1      -3.983   0.887  10.546  1.00  0.00     0.300 C 
HETATM   11  C13 UNL     1      -4.768   1.689  12.576  1.00  0.00     0.279 C 
HETATM   12  C11 UNL     1      -4.554  -0.384  11.174  1.00  0.00     0.262 C 
HETATM   13  N5  UNL     1      -3.998  -0.558  12.505  1.00  0.00    -0.071 N 
HETATM   14  C12 UNL     1      -4.544   0.455  13.425  1.00  0.00     0.270 C 
ATOM     15  H52 UNL     1      -4.139  -1.506  12.855  1.00  0.00     0.277 HD
ATOM     16  H51 UNL     1      -2.978  -0.551  12.494  1.00  0.00     0.277 HD
HETATM   17  C14 UNL     1      -4.702   2.963  13.385  1.00  0.00     0.180 C 
BRANCH  17  18
HETATM   18  O2  UNL     1      -5.968   3.430  13.636  1.00  0.00    -0.386 OA
HETATM   19  C15 UNL     1      -6.018   3.776  14.996  1.00  0.00     0.202 C 
ENDBRANCH  17  18
ENDBRANCH   5   7
BRANCH   1  20
HETATM   20  C6  UNL     1      -2.240   8.128  14.371  1.00  0.00     0.089 C 
HETATM   21  C5  UNL     1      -1.653   8.880  13.210  1.00  0.00     0.055 C 
HETATM   22  C4  UNL     1      -0.149   8.835  13.327  1.00  0.00     0.275 C 
HETATM   23  N1  UNL     1       0.239   9.721  14.387  1.00  0.00     0.091 N 
HETATM   24  C17 UNL     1      -0.741   9.818  15.448  1.00  0.00     0.275 C 
HETATM   25  C16 UNL     1      -1.501   8.521  15.629  1.00  0.00     0.055 C 
BRANCH  23  26
HETATM   26  C3  UNL     1       0.515  11.072  13.931  1.00  0.00     0.299 C 
BRANCH  26  27
HETATM   27  C2  UNL     1      -0.412  12.062  14.545  1.00  0.00    -0.007 C 
HETATM   28  C1  UNL     1      -1.031  12.989  13.830  1.00  0.00     0.008 C 
ENDBRANCH  26  27
ENDBRANCH  23  26
ENDBRANCH   1  20
TORSDOF 5
ENDMDL
