MODEL 1
REMARK VINA RESULT: -7.427395227      0.000      0.000
REMARK  9 active torsions:
REMARK  status: ('A' for Active; 'I' for Inactive)
REMARK    1  A    between atoms: C6_6  and  O1_7 
REMARK    2  A    between atoms: O1_7  and  C7_8 
REMARK    3  A    between atoms: C9_14  and  N3_15 
REMARK    4  A    between atoms: N3_15  and  C10_16 
REMARK    5  A    between atoms: N3_15  and  C12_20 
REMARK    6  A    between atoms: C10_16  and  C11_17 
REMARK    7  A    between atoms: C11_17  and  O2_18 
REMARK    8  A    between atoms: C12_20  and  C13_21 
REMARK    9  A    between atoms: C13_21  and  O3_22 
ROOT
HETATM    1  C1  UNL     1     -10.367   5.103 -25.611  1.00  0.00     0.012 C 
HETATM    2  C2  UNL     1     -10.169   6.033 -24.868  1.00  0.00    -0.113 C 
HETATM    3  C3  UNL     1      -9.939   7.162 -23.938  1.00  0.00     0.064 C 
HETATM    4  C4  UNL     1     -10.596   8.368 -24.524  1.00  0.00     0.019 C 
HETATM    5  C5  UNL     1     -10.848   9.463 -23.530  1.00  0.00     0.034 C 
HETATM    6  C6  UNL     1     -10.195   9.258 -22.204  1.00  0.00     0.130 C 
HETATM    7  C16 UNL     1     -10.400   7.877 -21.627  1.00  0.00     0.034 C 
HETATM    8  C17 UNL     1     -10.648   6.815 -22.642  1.00  0.00     0.019 C 
ENDROOT
BRANCH   6   9
HETATM    9  O1  UNL     1     -10.704  10.228 -21.304  1.00  0.00    -0.329 OA
BRANCH   9  10
HETATM   10  C7  UNL     1     -10.150  11.515 -21.234  1.00  0.00     0.168 A 
HETATM   11  N1  UNL     1     -10.653  12.511 -22.009  1.00  0.00    -0.332 N 
HETATM   12  C8  UNL     1     -10.152  13.762 -21.975  1.00  0.00     0.184 A 
ATOM     13  H1  UNL     1     -11.432  12.306 -22.634  1.00  0.00     0.168 HD
HETATM   14  N2  UNL     1      -9.142  13.994 -21.153  1.00  0.00    -0.337 N 
HETATM   15  C9  UNL     1      -8.565  13.090 -20.344  1.00  0.00     0.129 A 
ATOM     16  H2  UNL     1      -8.767  14.943 -21.132  1.00  0.00     0.168 HD
HETATM   17  C14 UNL     1      -9.097  11.798 -20.392  1.00  0.00     0.139 A 
HETATM   18  C15 UNL     1      -8.551  10.753 -19.563  1.00  0.00     0.107 C 
HETATM   19  N4  UNL     1      -8.108   9.906 -18.895  1.00  0.00    -0.191 NA
BRANCH  15  20
HETATM   20  N3  UNL     1      -7.481  13.405 -19.484  1.00  0.00    -0.362 N 
BRANCH  20  21
HETATM   21  C10 UNL     1      -7.768  13.604 -18.080  1.00  0.00     0.150 C 
BRANCH  21  22
HETATM   22  C11 UNL     1      -6.621  12.955 -17.305  1.00  0.00     0.183 C 
BRANCH  22  23
HETATM   23  O2  UNL     1      -7.058  11.856 -16.579  1.00  0.00    -0.399 OA
ATOM     24  H2  UNL     1      -6.367  11.506 -16.031  1.00  0.00     0.209 HD
ENDBRANCH  22  23
ENDBRANCH  21  22
ENDBRANCH  20  21
BRANCH  20  25
HETATM   25  C12 UNL     1      -6.105  13.540 -19.908  1.00  0.00     0.150 C 
BRANCH  25  26
HETATM   26  C13 UNL     1      -5.937  13.484 -21.404  1.00  0.00     0.183 C 
BRANCH  26  27
HETATM   27  O3  UNL     1      -6.168  14.799 -21.869  1.00  0.00    -0.399 OA
ATOM     28  H3  UNL     1      -6.626  14.705 -22.696  1.00  0.00     0.209 HD
ENDBRANCH  26  27
ENDBRANCH  25  26
ENDBRANCH  20  25
ENDBRANCH  15  20
ENDBRANCH   9  10
ENDBRANCH   6   9
TORSDOF 9
ENDMDL
MODEL 2
REMARK VINA RESULT: -7.399986787      3.172      8.031
REMARK  9 active torsions:
REMARK  status: ('A' for Active; 'I' for Inactive)
REMARK    1  A    between atoms: C6_6  and  O1_7 
REMARK    2  A    between atoms: O1_7  and  C7_8 
REMARK    3  A    between atoms: C9_14  and  N3_15 
REMARK    4  A    between atoms: N3_15  and  C10_16 
REMARK    5  A    between atoms: N3_15  and  C12_20 
REMARK    6  A    between atoms: C10_16  and  C11_17 
REMARK    7  A    between atoms: C11_17  and  O2_18 
REMARK    8  A    between atoms: C12_20  and  C13_21 
REMARK    9  A    between atoms: C13_21  and  O3_22 
ROOT
HETATM    1  C1  UNL     1      -6.432  13.460 -17.990  1.00  0.00     0.012 C 
HETATM    2  C2  UNL     1      -6.969  12.676 -18.732  1.00  0.00    -0.113 C 
HETATM    3  C3  UNL     1      -7.647  11.731 -19.648  1.00  0.00     0.064 C 
HETATM    4  C4  UNL     1      -8.050  10.538 -18.845  1.00  0.00     0.019 C 
HETATM    5  C5  UNL     1      -9.118   9.706 -19.492  1.00  0.00     0.034 C 
HETATM    6  C6  UNL     1      -9.418  10.073 -20.906  1.00  0.00     0.130 C 
HETATM    7  C16 UNL     1      -9.609  11.556 -21.127  1.00  0.00     0.034 C 
HETATM    8  C17 UNL     1      -8.906  12.422 -20.139  1.00  0.00     0.019 C 
ENDROOT
BRANCH   6   9
HETATM    9  O1  UNL     1     -10.588   9.381 -21.306  1.00  0.00    -0.329 OA
BRANCH   9  10
HETATM   10  C7  UNL     1     -10.529   8.332 -22.236  1.00  0.00     0.168 A 
HETATM   11  N1  UNL     1     -10.283   7.065 -21.813  1.00  0.00    -0.332 N 
HETATM   12  C8  UNL     1     -10.217   6.028 -22.671  1.00  0.00     0.184 A 
ATOM     13  H1  UNL     1     -10.143   6.894 -20.818  1.00  0.00     0.168 HD
HETATM   14  N2  UNL     1     -10.402   6.284 -23.956  1.00  0.00    -0.337 N 
HETATM   15  C9  UNL     1     -10.652   7.492 -24.487  1.00  0.00     0.129 A 
ATOM     16  H2  UNL     1     -10.351   5.494 -24.600  1.00  0.00     0.168 HD
HETATM   17  C14 UNL     1     -10.716   8.556 -23.583  1.00  0.00     0.139 A 
HETATM   18  C15 UNL     1     -10.979   9.895 -24.049  1.00  0.00     0.107 C 
HETATM   19  N4  UNL     1     -11.189  10.978 -24.426  1.00  0.00    -0.191 NA
BRANCH  15  20
HETATM   20  N3  UNL     1     -10.841   7.700 -25.878  1.00  0.00    -0.362 N 
BRANCH  20  21
HETATM   21  C10 UNL     1      -9.664   7.758 -26.718  1.00  0.00     0.150 C 
BRANCH  21  22
HETATM   22  C11 UNL     1      -9.815   9.004 -27.591  1.00  0.00     0.183 C 
BRANCH  22  23
HETATM   23  O2  UNL     1      -9.340  10.136 -26.945  1.00  0.00    -0.399 OA
ATOM     24  H2  UNL     1      -8.786  10.655 -27.516  1.00  0.00     0.209 HD
ENDBRANCH  22  23
ENDBRANCH  21  22
ENDBRANCH  20  21
BRANCH  20  25
HETATM   25  C12 UNL     1     -12.126   7.858 -26.521  1.00  0.00     0.150 C 
BRANCH  25  26
HETATM   26  C13 UNL     1     -12.746   6.549 -26.938  1.00  0.00     0.183 C 
BRANCH  26  27
HETATM   27  O3  UNL     1     -14.030   6.524 -26.347  1.00  0.00    -0.399 OA
ATOM     28  H3  UNL     1     -13.975   5.903 -25.631  1.00  0.00     0.209 HD
ENDBRANCH  26  27
ENDBRANCH  25  26
ENDBRANCH  20  25
ENDBRANCH  15  20
ENDBRANCH   9  10
ENDBRANCH   6   9
TORSDOF 9
ENDMDL
MODEL 3
REMARK VINA RESULT: -7.355756439      0.929      2.238
REMARK  9 active torsions:
REMARK  status: ('A' for Active; 'I' for Inactive)
REMARK    1  A    between atoms: C6_6  and  O1_7 
REMARK    2  A    between atoms: O1_7  and  C7_8 
REMARK    3  A    between atoms: C9_14  and  N3_15 
REMARK    4  A    between atoms: N3_15  and  C10_16 
REMARK    5  A    between atoms: N3_15  and  C12_20 
REMARK    6  A    between atoms: C10_16  and  C11_17 
REMARK    7  A    between atoms: C11_17  and  O2_18 
REMARK    8  A    between atoms: C12_20  and  C13_21 
REMARK    9  A    between atoms: C13_21  and  O3_22 
ROOT
HETATM    1  C1  UNL     1     -10.104   4.728 -26.178  1.00  0.00     0.012 C 
HETATM    2  C2  UNL     1     -10.004   5.715 -25.492  1.00  0.00    -0.113 C 
HETATM    3  C3  UNL     1      -9.895   6.914 -24.631  1.00  0.00     0.064 C 
HETATM    4  C4  UNL     1     -10.574   8.040 -25.340  1.00  0.00     0.019 C 
HETATM    5  C5  UNL     1     -10.948   9.183 -24.444  1.00  0.00     0.034 C 
HETATM    6  C6  UNL     1     -10.374   9.104 -23.069  1.00  0.00     0.130 C 
HETATM    7  C16 UNL     1     -10.545   7.756 -22.410  1.00  0.00     0.034 C 
HETATM    8  C17 UNL     1     -10.670   6.616 -23.361  1.00  0.00     0.019 C 
ENDROOT
BRANCH   6   9
HETATM    9  O1  UNL     1     -10.991  10.102 -22.273  1.00  0.00    -0.329 OA
BRANCH   9  10
HETATM   10  C7  UNL     1     -10.413  11.372 -22.123  1.00  0.00     0.168 A 
HETATM   11  N1  UNL     1     -10.862  12.412 -22.873  1.00  0.00    -0.332 N 
HETATM   12  C8  UNL     1     -10.337  13.648 -22.763  1.00  0.00     0.184 A 
ATOM     13  H1  UNL     1     -11.618  12.252 -23.538  1.00  0.00     0.168 HD
HETATM   14  N2  UNL     1      -9.357  13.821 -21.891  1.00  0.00    -0.337 N 
HETATM   15  C9  UNL     1      -8.834  12.870 -21.099  1.00  0.00     0.129 A 
ATOM     16  H2  UNL     1      -8.964  14.759 -21.813  1.00  0.00     0.168 HD
HETATM   17  C14 UNL     1      -9.391  11.594 -21.227  1.00  0.00     0.139 A 
HETATM   18  C15 UNL     1      -8.903  10.501 -20.423  1.00  0.00     0.107 C 
HETATM   19  N4  UNL     1      -8.507   9.617 -19.775  1.00  0.00    -0.191 NA
BRANCH  15  20
HETATM   20  N3  UNL     1      -7.781  13.122 -20.183  1.00  0.00    -0.362 N 
BRANCH  20  21
HETATM   21  C10 UNL     1      -6.427  12.858 -20.621  1.00  0.00     0.150 C 
BRANCH  21  22
HETATM   22  C11 UNL     1      -5.831  14.206 -21.029  1.00  0.00     0.183 C 
BRANCH  22  23
HETATM   23  O2  UNL     1      -6.334  14.633 -22.250  1.00  0.00    -0.399 OA
ATOM     24  H2  UNL     1      -5.677  15.102 -22.750  1.00  0.00     0.209 HD
ENDBRANCH  22  23
ENDBRANCH  21  22
ENDBRANCH  20  21
BRANCH  20  25
HETATM   25  C12 UNL     1      -7.959  13.625 -18.839  1.00  0.00     0.150 C 
BRANCH  25  26
HETATM   26  C13 UNL     1      -7.194  12.840 -17.806  1.00  0.00     0.183 C 
BRANCH  26  27
HETATM   27  O3  UNL     1      -6.206  13.719 -17.306  1.00  0.00    -0.399 OA
ATOM     28  H3  UNL     1      -5.631  13.186 -16.770  1.00  0.00     0.209 HD
ENDBRANCH  26  27
ENDBRANCH  25  26
ENDBRANCH  20  25
ENDBRANCH  15  20
ENDBRANCH   9  10
ENDBRANCH   6   9
TORSDOF 9
ENDMDL
MODEL 4
REMARK VINA RESULT: -7.311786195      3.173      7.861
REMARK  9 active torsions:
REMARK  status: ('A' for Active; 'I' for Inactive)
REMARK    1  A    between atoms: C6_6  and  O1_7 
REMARK    2  A    between atoms: O1_7  and  C7_8 
REMARK    3  A    between atoms: C9_14  and  N3_15 
REMARK    4  A    between atoms: N3_15  and  C10_16 
REMARK    5  A    between atoms: N3_15  and  C12_20 
REMARK    6  A    between atoms: C10_16  and  C11_17 
REMARK    7  A    between atoms: C11_17  and  O2_18 
REMARK    8  A    between atoms: C12_20  and  C13_21 
REMARK    9  A    between atoms: C13_21  and  O3_22 
ROOT
HETATM    1  C1  UNL     1      -6.483  13.418 -17.878  1.00  0.00     0.012 C 
HETATM    2  C2  UNL     1      -6.999  12.610 -18.611  1.00  0.00    -0.113 C 
HETATM    3  C3  UNL     1      -7.651  11.636 -19.515  1.00  0.00     0.064 C 
HETATM    4  C4  UNL     1      -8.081  10.470 -18.687  1.00  0.00     0.019 C 
HETATM    5  C5  UNL     1      -9.130   9.619 -19.338  1.00  0.00     0.034 C 
HETATM    6  C6  UNL     1      -9.385   9.940 -20.773  1.00  0.00     0.130 C 
HETATM    7  C16 UNL     1      -9.566  11.414 -21.048  1.00  0.00     0.034 C 
HETATM    8  C17 UNL     1      -8.892  12.311 -20.068  1.00  0.00     0.019 C 
ENDROOT
BRANCH   6   9
HETATM    9  O1  UNL     1     -10.544   9.235 -21.186  1.00  0.00    -0.329 OA
BRANCH   9  10
HETATM   10  C7  UNL     1     -10.470   8.212 -22.143  1.00  0.00     0.168 A 
HETATM   11  N1  UNL     1     -10.199   6.940 -21.754  1.00  0.00    -0.332 N 
HETATM   12  C8  UNL     1     -10.118   5.926 -22.639  1.00  0.00     0.184 A 
ATOM     13  H1  UNL     1     -10.053   6.746 -20.764  1.00  0.00     0.168 HD
HETATM   14  N2  UNL     1     -10.312   6.212 -23.916  1.00  0.00    -0.337 N 
HETATM   15  C9  UNL     1     -10.585   7.429 -24.415  1.00  0.00     0.129 A 
ATOM     16  H2  UNL     1     -10.249   5.441 -24.581  1.00  0.00     0.168 HD
HETATM   17  C14 UNL     1     -10.666   8.468 -23.483  1.00  0.00     0.139 A 
HETATM   18  C15 UNL     1     -10.954   9.814 -23.913  1.00  0.00     0.107 C 
HETATM   19  N4  UNL     1     -11.185  10.902 -24.261  1.00  0.00    -0.191 NA
BRANCH  15  20
HETATM   20  N3  UNL     1     -10.783   7.669 -25.799  1.00  0.00    -0.362 N 
BRANCH  20  21
HETATM   21  C10 UNL     1     -12.086   7.378 -26.356  1.00  0.00     0.150 C 
BRANCH  21  22
HETATM   22  C11 UNL     1     -11.924   6.117 -27.206  1.00  0.00     0.183 C 
BRANCH  22  23
HETATM   23  O2  UNL     1     -11.838   4.980 -26.415  1.00  0.00    -0.399 OA
ATOM     24  H2  UNL     1     -10.945   4.660 -26.364  1.00  0.00     0.209 HD
ENDBRANCH  22  23
ENDBRANCH  21  22
ENDBRANCH  20  21
BRANCH  20  25
HETATM   25  C12 UNL     1      -9.776   8.187 -26.699  1.00  0.00     0.150 C 
BRANCH  25  26
HETATM   26  C13 UNL     1     -10.216   9.429 -27.430  1.00  0.00     0.183 C 
BRANCH  26  27
HETATM   27  O3  UNL     1      -9.398  10.474 -26.941  1.00  0.00    -0.399 OA
ATOM     28  H3  UNL     1      -9.924  11.263 -26.998  1.00  0.00     0.209 HD
ENDBRANCH  26  27
ENDBRANCH  25  26
ENDBRANCH  20  25
ENDBRANCH  15  20
ENDBRANCH   9  10
ENDBRANCH   6   9
TORSDOF 9
ENDMDL
MODEL 5
REMARK VINA RESULT: -7.227382106      3.280      8.114
REMARK  9 active torsions:
REMARK  status: ('A' for Active; 'I' for Inactive)
REMARK    1  A    between atoms: C6_6  and  O1_7 
REMARK    2  A    between atoms: O1_7  and  C7_8 
REMARK    3  A    between atoms: C9_14  and  N3_15 
REMARK    4  A    between atoms: N3_15  and  C10_16 
REMARK    5  A    between atoms: N3_15  and  C12_20 
REMARK    6  A    between atoms: C10_16  and  C11_17 
REMARK    7  A    between atoms: C11_17  and  O2_18 
REMARK    8  A    between atoms: C12_20  and  C13_21 
REMARK    9  A    between atoms: C13_21  and  O3_22 
ROOT
HETATM    1  C1  UNL     1      -6.428  13.503 -18.126  1.00  0.00     0.012 C 
HETATM    2  C2  UNL     1      -6.964  12.674 -18.819  1.00  0.00    -0.113 C 
HETATM    3  C3  UNL     1      -7.640  11.674 -19.677  1.00  0.00     0.064 C 
HETATM    4  C4  UNL     1      -8.052  10.537 -18.802  1.00  0.00     0.019 C 
HETATM    5  C5  UNL     1      -9.119   9.669 -19.401  1.00  0.00     0.034 C 
HETATM    6  C6  UNL     1      -9.409   9.945 -20.838  1.00  0.00     0.130 C 
HETATM    7  C16 UNL     1      -9.592  11.411 -21.154  1.00  0.00     0.034 C 
HETATM    8  C17 UNL     1      -8.893  12.336 -20.220  1.00  0.00     0.019 C 
ENDROOT
BRANCH   6   9
HETATM    9  O1  UNL     1     -10.579   9.231 -21.199  1.00  0.00    -0.329 OA
BRANCH   9  10
HETATM   10  C7  UNL     1     -10.506   8.056 -21.962  1.00  0.00     0.168 A 
HETATM   11  N1  UNL     1     -10.327   6.860 -21.346  1.00  0.00    -0.332 N 
HETATM   12  C8  UNL     1     -10.251   5.706 -22.038  1.00  0.00     0.184 A 
ATOM     13  H1  UNL     1     -10.247   6.833 -20.330  1.00  0.00     0.168 HD
HETATM   14  N2  UNL     1     -10.357   5.774 -23.355  1.00  0.00    -0.337 N 
HETATM   15  C9  UNL     1     -10.536   6.898 -24.070  1.00  0.00     0.129 A 
ATOM     16  H2  UNL     1     -10.299   4.898 -23.874  1.00  0.00     0.168 HD
HETATM   17  C14 UNL     1     -10.612   8.085 -23.336  1.00  0.00     0.139 A 
HETATM   18  C15 UNL     1     -10.803   9.347 -24.007  1.00  0.00     0.107 C 
HETATM   19  N4  UNL     1     -10.955  10.368 -24.548  1.00  0.00    -0.191 NA
BRANCH  15  20
HETATM   20  N3  UNL     1     -10.642   6.903 -25.485  1.00  0.00    -0.362 N 
BRANCH  20  21
HETATM   21  C10 UNL     1     -11.920   7.256 -26.065  1.00  0.00     0.150 C 
BRANCH  21  22
HETATM   22  C11 UNL     1     -11.618   7.960 -27.388  1.00  0.00     0.183 C 
BRANCH  22  23
HETATM   23  O2  UNL     1     -11.912   9.314 -27.321  1.00  0.00    -0.399 OA
ATOM     24  H2  UNL     1     -11.335   9.764 -26.716  1.00  0.00     0.209 HD
ENDBRANCH  22  23
ENDBRANCH  21  22
ENDBRANCH  20  21
BRANCH  20  25
HETATM   25  C12 UNL     1      -9.565   6.582 -26.395  1.00  0.00     0.150 C 
BRANCH  25  26
HETATM   26  C13 UNL     1      -9.547   5.131 -26.803  1.00  0.00     0.183 C 
BRANCH  26  27
HETATM   27  O3  UNL     1      -8.183   4.762 -26.853  1.00  0.00    -0.399 OA
ATOM     28  H3  UNL     1      -8.136   4.022 -27.447  1.00  0.00     0.209 HD
ENDBRANCH  26  27
ENDBRANCH  25  26
ENDBRANCH  20  25
ENDBRANCH  15  20
ENDBRANCH   9  10
ENDBRANCH   6   9
TORSDOF 9
ENDMDL
