MODEL 1
REMARK VINA RESULT: -9.267863290      0.000      0.000
REMARK  5 active torsions:
REMARK  status: ('A' for Active; 'I' for Inactive)
REMARK    1  A    between atoms: S1_2  and  C2_3 
REMARK    2  A    between atoms: C4_10  and  N3_11 
REMARK    3  A    between atoms: C10_19  and  S2_20 
REMARK    4  A    between atoms: S2_20  and  C11_21 
REMARK    5  A    between atoms: C11_21  and  C12_22 
ROOT
HETATM    1  C2  UNL     1      10.880  24.173  -0.645  1.00  0.00     0.146 A 
HETATM    2  N1  UNL     1       9.736  23.904   0.006  1.00  0.00    -0.321 N 
ATOM      3  H1  UNL     1       8.908  24.476  -0.163  1.00  0.00     0.169 HD
HETATM    4  C3  UNL     1       9.678  22.870   0.892  1.00  0.00     0.130 A 
HETATM    5  N2  UNL     1       8.584  22.617   1.506  1.00  0.00    -0.383 N 
ATOM      6  H21 UNL     1       8.541  21.844   2.169  1.00  0.00     0.157 HD
ATOM      7  H22 UNL     1       7.776  23.209   1.313  1.00  0.00     0.157 HD
HETATM    8  C4  UNL     1      10.780  22.063   1.155  1.00  0.00     0.108 A 
HETATM    9  C10 UNL     1      11.933  22.356   0.482  1.00  0.00     0.102 A 
HETATM   10  N4  UNL     1      11.937  23.401  -0.393  1.00  0.00    -0.329 N 
ATOM     11  H4  UNL     1      12.805  23.606  -0.888  1.00  0.00     0.168 HD
ENDROOT
BRANCH   8  12
HETATM   12  N3  UNL     1      10.640  20.986   2.024  1.00  0.00    -0.375 N 
HETATM   13  C5  UNL     1      10.175  19.652   1.750  1.00  0.00     0.129 C 
HETATM   14  C6  UNL     1       9.395  19.188   2.990  1.00  0.00     0.099 C 
HETATM   15  C7  UNL     1      10.425  18.833   4.030  1.00  0.00     0.246 C 
HETATM   16  F1  UNL     1      10.980  17.619   3.680  1.00  0.00    -0.206 F 
HETATM   17  F2  UNL     1       9.881  18.733   5.294  1.00  0.00    -0.206 F 
HETATM   18  C8  UNL     1      11.481  19.888   4.052  1.00  0.00     0.099 C 
HETATM   19  C9  UNL     1      11.012  21.198   3.449  1.00  0.00     0.129 C 
ENDBRANCH   8  12
BRANCH   9  20
HETATM   20  S2  UNL     1      13.380  21.346   0.700  1.00  0.00    -0.105 SA
BRANCH  20  21
HETATM   21  C11 UNL     1      14.191  21.765   2.250  1.00  0.00     0.119 C 
BRANCH  21  22
HETATM   22  C12 UNL     1      15.577  22.187   2.161  1.00  0.00    -0.049 A 
HETATM   23  C13 UNL     1      16.603  21.725   2.951  1.00  0.00     0.008 A 
HETATM   24  C14 UNL     1      17.908  22.154   2.816  1.00  0.00     0.001 A 
HETATM   25  C15 UNL     1      18.210  23.083   1.851  1.00  0.00     0.000 A 
HETATM   26  C16 UNL     1      17.219  23.566   1.045  1.00  0.00     0.001 A 
HETATM   27  C17 UNL     1      15.918  23.134   1.186  1.00  0.00     0.008 A 
ENDBRANCH  21  22
ENDBRANCH  20  21
ENDBRANCH   9  20
BRANCH   1  28
HETATM   28  S1  UNL     1      10.948  25.537  -1.811  1.00  0.00    -0.098 SA
HETATM   29  C1  UNL     1      12.610  25.745  -2.477  1.00  0.00     0.099 C 
ENDBRANCH   1  28
TORSDOF 5
ENDMDL
MODEL 2
REMARK VINA RESULT: -9.218742077      0.237      1.513
REMARK  5 active torsions:
REMARK  status: ('A' for Active; 'I' for Inactive)
REMARK    1  A    between atoms: S1_2  and  C2_3 
REMARK    2  A    between atoms: C4_10  and  N3_11 
REMARK    3  A    between atoms: C10_19  and  S2_20 
REMARK    4  A    between atoms: S2_20  and  C11_21 
REMARK    5  A    between atoms: C11_21  and  C12_22 
ROOT
HETATM    1  C2  UNL     1      10.621  24.092  -0.656  1.00  0.00     0.146 A 
HETATM    2  N1  UNL     1       9.534  23.816   0.083  1.00  0.00    -0.321 N 
ATOM      3  H1  UNL     1       8.670  24.337  -0.069  1.00  0.00     0.169 HD
HETATM    4  C3  UNL     1       9.582  22.842   1.035  1.00  0.00     0.130 A 
HETATM    5  N2  UNL     1       8.542  22.583   1.734  1.00  0.00    -0.383 N 
ATOM      6  H21 UNL     1       8.577  21.854   2.447  1.00  0.00     0.157 HD
ATOM      7  H22 UNL     1       7.694  23.122   1.556  1.00  0.00     0.157 HD
HETATM    8  C4  UNL     1      10.737  22.106   1.278  1.00  0.00     0.108 A 
HETATM    9  C10 UNL     1      11.830  22.405   0.514  1.00  0.00     0.102 A 
HETATM   10  N4  UNL     1      11.729  23.387  -0.425  1.00  0.00    -0.329 N 
ATOM     11  H4  UNL     1      12.554  23.598  -0.986  1.00  0.00     0.168 HD
ENDROOT
BRANCH   8  12
HETATM   12  N3  UNL     1      10.704  21.084   2.222  1.00  0.00    -0.375 N 
HETATM   13  C5  UNL     1      11.066  21.122   3.613  1.00  0.00     0.129 C 
HETATM   14  C6  UNL     1      11.693  19.759   3.948  1.00  0.00     0.099 C 
HETATM   15  C7  UNL     1      10.552  18.784   4.062  1.00  0.00     0.246 C 
HETATM   16  F1  UNL     1       9.919  19.010   5.267  1.00  0.00    -0.206 F 
HETATM   17  F2  UNL     1      10.977  17.472   4.016  1.00  0.00    -0.206 F 
HETATM   18  C8  UNL     1       9.599  19.011   2.936  1.00  0.00     0.099 C 
HETATM   19  C9  UNL     1      10.236  19.745   1.771  1.00  0.00     0.129 C 
ENDBRANCH   8  12
BRANCH   9  20
HETATM   20  S2  UNL     1      13.336  21.478   0.704  1.00  0.00    -0.105 SA
BRANCH  20  21
HETATM   21  C11 UNL     1      14.178  21.981   2.211  1.00  0.00     0.119 C 
BRANCH  21  22
HETATM   22  C12 UNL     1      15.578  22.343   2.080  1.00  0.00    -0.049 A 
HETATM   23  C13 UNL     1      16.086  23.249   1.180  1.00  0.00     0.008 A 
HETATM   24  C14 UNL     1      17.428  23.564   1.106  1.00  0.00     0.001 A 
HETATM   25  C15 UNL     1      18.307  22.952   1.966  1.00  0.00     0.000 A 
HETATM   26  C16 UNL     1      17.841  22.046   2.875  1.00  0.00     0.001 A 
HETATM   27  C17 UNL     1      16.500  21.736   2.943  1.00  0.00     0.008 A 
ENDBRANCH  21  22
ENDBRANCH  20  21
ENDBRANCH   9  20
BRANCH   1  28
HETATM   28  S1  UNL     1      10.549  25.376  -1.910  1.00  0.00    -0.098 SA
HETATM   29  C1  UNL     1      12.193  25.771  -2.536  1.00  0.00     0.099 C 
ENDBRANCH   1  28
TORSDOF 5
ENDMDL
MODEL 3
REMARK VINA RESULT: -8.999217846      2.752      3.576
REMARK  5 active torsions:
REMARK  status: ('A' for Active; 'I' for Inactive)
REMARK    1  A    between atoms: S1_2  and  C2_3 
REMARK    2  A    between atoms: C4_10  and  N3_11 
REMARK    3  A    between atoms: C10_19  and  S2_20 
REMARK    4  A    between atoms: S2_20  and  C11_21 
REMARK    5  A    between atoms: C11_21  and  C12_22 
ROOT
HETATM    1  C2  UNL     1       9.402  21.176   0.226  1.00  0.00     0.146 A 
HETATM    2  N1  UNL     1       8.977  21.485   1.461  1.00  0.00    -0.321 N 
ATOM      3  H1  UNL     1       7.978  21.560   1.651  1.00  0.00     0.169 HD
HETATM    4  C3  UNL     1       9.877  21.697   2.463  1.00  0.00     0.130 A 
HETATM    5  N2  UNL     1       9.464  21.988   3.639  1.00  0.00    -0.383 N 
ATOM      6  H21 UNL     1      10.138  22.147   4.388  1.00  0.00     0.157 HD
ATOM      7  H22 UNL     1       8.459  22.055   3.794  1.00  0.00     0.157 HD
HETATM    8  C4  UNL     1      11.248  21.605   2.252  1.00  0.00     0.108 A 
HETATM    9  C10 UNL     1      11.658  21.291   0.986  1.00  0.00     0.102 A 
HETATM   10  N4  UNL     1      10.717  21.088   0.022  1.00  0.00    -0.329 N 
ATOM     11  H4  UNL     1      11.039  20.853  -0.917  1.00  0.00     0.168 HD
ENDROOT
BRANCH   8  12
HETATM   12  N3  UNL     1      12.113  21.773   3.329  1.00  0.00    -0.375 N 
HETATM   13  C5  UNL     1      12.359  22.949   4.121  1.00  0.00     0.129 C 
HETATM   14  C6  UNL     1      13.850  22.932   4.494  1.00  0.00     0.099 C 
HETATM   15  C7  UNL     1      14.002  21.913   5.591  1.00  0.00     0.246 C 
HETATM   16  F1  UNL     1      13.514  22.468   6.756  1.00  0.00    -0.206 F 
HETATM   17  F2  UNL     1      15.317  21.543   5.784  1.00  0.00    -0.206 F 
HETATM   18  C8  UNL     1      13.215  20.694   5.239  1.00  0.00     0.099 C 
HETATM   19  C9  UNL     1      12.920  20.597   3.755  1.00  0.00     0.129 C 
ENDBRANCH   8  12
BRANCH   9  20
HETATM   20  S2  UNL     1      13.388  21.087   0.628  1.00  0.00    -0.105 SA
BRANCH  20  21
HETATM   21  C11 UNL     1      14.235  22.666   0.787  1.00  0.00     0.119 C 
BRANCH  21  22
HETATM   22  C12 UNL     1      15.568  22.629   1.362  1.00  0.00    -0.049 A 
HETATM   23  C13 UNL     1      15.960  21.839   2.416  1.00  0.00     0.008 A 
HETATM   24  C14 UNL     1      17.246  21.836   2.917  1.00  0.00     0.001 A 
HETATM   25  C15 UNL     1      18.188  22.655   2.345  1.00  0.00     0.000 A 
HETATM   26  C16 UNL     1      17.838  23.456   1.295  1.00  0.00     0.001 A 
HETATM   27  C17 UNL     1      16.552  23.453   0.800  1.00  0.00     0.008 A 
ENDBRANCH  21  22
ENDBRANCH  20  21
ENDBRANCH   9  20
BRANCH   1  28
HETATM   28  S1  UNL     1       8.210  20.897  -1.088  1.00  0.00    -0.098 SA
HETATM   29  C1  UNL     1       6.706  20.130  -0.455  1.00  0.00     0.099 C 
ENDBRANCH   1  28
TORSDOF 5
ENDMDL
MODEL 4
REMARK VINA RESULT: -8.960256851      2.570      3.392
REMARK  5 active torsions:
REMARK  status: ('A' for Active; 'I' for Inactive)
REMARK    1  A    between atoms: S1_2  and  C2_3 
REMARK    2  A    between atoms: C4_10  and  N3_11 
REMARK    3  A    between atoms: C10_19  and  S2_20 
REMARK    4  A    between atoms: S2_20  and  C11_21 
REMARK    5  A    between atoms: C11_21  and  C12_22 
ROOT
HETATM    1  C2  UNL     1       8.309  20.798  -0.633  1.00  0.00     0.146 A 
HETATM    2  N1  UNL     1       7.864  20.363   0.556  1.00  0.00    -0.321 N 
ATOM      3  H1  UNL     1       6.963  19.888   0.620  1.00  0.00     0.169 HD
HETATM    4  C3  UNL     1       8.612  20.555   1.680  1.00  0.00     0.130 A 
HETATM    5  N2  UNL     1       8.183  20.136   2.810  1.00  0.00    -0.383 N 
ATOM      6  H21 UNL     1       8.742  20.279   3.651  1.00  0.00     0.157 HD
ATOM      7  H22 UNL     1       7.279  19.665   2.838  1.00  0.00     0.157 HD
HETATM    8  C4  UNL     1       9.845  21.197   1.642  1.00  0.00     0.108 A 
HETATM    9  C10 UNL     1      10.277  21.631   0.420  1.00  0.00     0.102 A 
HETATM   10  N4  UNL     1       9.491  21.414  -0.671  1.00  0.00    -0.329 N 
ATOM     11  H4  UNL     1       9.828  21.744  -1.575  1.00  0.00     0.168 HD
ENDROOT
BRANCH   8  12
HETATM   12  N3  UNL     1      10.588  21.308   2.813  1.00  0.00    -0.375 N 
HETATM   13  C5  UNL     1      11.388  20.315   3.479  1.00  0.00     0.129 C 
HETATM   14  C6  UNL     1      11.243  20.563   4.989  1.00  0.00     0.099 C 
HETATM   15  C7  UNL     1      12.099  21.759   5.306  1.00  0.00     0.246 C 
HETATM   16  F1  UNL     1      13.418  21.351   5.300  1.00  0.00    -0.206 F 
HETATM   17  F2  UNL     1      11.802  22.304   6.539  1.00  0.00    -0.206 F 
HETATM   18  C8  UNL     1      11.885  22.805   4.263  1.00  0.00     0.099 C 
HETATM   19  C9  UNL     1      10.582  22.623   3.512  1.00  0.00     0.129 C 
ENDBRANCH   8  12
BRANCH   9  20
HETATM   20  S2  UNL     1      11.868  22.408   0.256  1.00  0.00    -0.105 SA
BRANCH  20  21
HETATM   21  C11 UNL     1      13.169  21.217   0.610  1.00  0.00     0.119 C 
BRANCH  21  22
HETATM   22  C12 UNL     1      14.383  21.744   1.207  1.00  0.00    -0.049 A 
HETATM   23  C13 UNL     1      14.921  21.342   2.407  1.00  0.00     0.008 A 
HETATM   24  C14 UNL     1      16.087  21.871   2.923  1.00  0.00     0.001 A 
HETATM   25  C15 UNL     1      16.751  22.843   2.216  1.00  0.00     0.000 A 
HETATM   26  C16 UNL     1      16.249  23.268   1.019  1.00  0.00     0.001 A 
HETATM   27  C17 UNL     1      15.085  22.736   0.510  1.00  0.00     0.008 A 
ENDBRANCH  21  22
ENDBRANCH  20  21
ENDBRANCH   9  20
BRANCH   1  28
HETATM   28  S1  UNL     1       7.318  20.541  -2.109  1.00  0.00    -0.098 SA
HETATM   29  C1  UNL     1       6.480  18.945  -2.064  1.00  0.00     0.099 C 
ENDBRANCH   1  28
TORSDOF 5
ENDMDL
MODEL 5
REMARK VINA RESULT: -8.896884717      2.534      3.470
REMARK  5 active torsions:
REMARK  status: ('A' for Active; 'I' for Inactive)
REMARK    1  A    between atoms: S1_2  and  C2_3 
REMARK    2  A    between atoms: C4_10  and  N3_11 
REMARK    3  A    between atoms: C10_19  and  S2_20 
REMARK    4  A    between atoms: S2_20  and  C11_21 
REMARK    5  A    between atoms: C11_21  and  C12_22 
ROOT
HETATM    1  C2  UNL     1       8.303  20.813  -0.762  1.00  0.00     0.146 A 
HETATM    2  N1  UNL     1       7.853  20.364   0.420  1.00  0.00    -0.321 N 
ATOM      3  H1  UNL     1       6.970  19.854   0.468  1.00  0.00     0.169 HD
HETATM    4  C3  UNL     1       8.572  20.586   1.557  1.00  0.00     0.130 A 
HETATM    5  N2  UNL     1       8.138  20.152   2.680  1.00  0.00    -0.383 N 
ATOM      6  H21 UNL     1       8.675  20.319   3.531  1.00  0.00     0.157 HD
ATOM      7  H22 UNL     1       7.252  19.646   2.692  1.00  0.00     0.157 HD
HETATM    8  C4  UNL     1       9.780  21.275   1.541  1.00  0.00     0.108 A 
HETATM    9  C10 UNL     1      10.217  21.724   0.326  1.00  0.00     0.102 A 
HETATM   10  N4  UNL     1       9.461  21.475  -0.779  1.00  0.00    -0.329 N 
ATOM     11  H4  UNL     1       9.802  21.816  -1.678  1.00  0.00     0.168 HD
ENDROOT
BRANCH   8  12
HETATM   12  N3  UNL     1      10.495  21.416   2.726  1.00  0.00    -0.375 N 
HETATM   13  C5  UNL     1      10.508  22.515   3.654  1.00  0.00     0.129 C 
HETATM   14  C6  UNL     1      11.941  22.622   4.200  1.00  0.00     0.099 C 
HETATM   15  C7  UNL     1      12.096  21.510   5.202  1.00  0.00     0.246 C 
HETATM   16  F1  UNL     1      11.421  21.874   6.349  1.00  0.00    -0.206 F 
HETATM   17  F2  UNL     1      13.418  21.267   5.515  1.00  0.00    -0.206 F 
HETATM   18  C8  UNL     1      11.507  20.258   4.640  1.00  0.00     0.099 C 
HETATM   19  C9  UNL     1      11.389  20.296   3.129  1.00  0.00     0.129 C 
ENDBRANCH   8  12
BRANCH   9  20
HETATM   20  S2  UNL     1      11.780  22.561   0.191  1.00  0.00    -0.105 SA
BRANCH  20  21
HETATM   21  C11 UNL     1      13.124  21.375   0.340  1.00  0.00     0.119 C 
BRANCH  21  22
HETATM   22  C12 UNL     1      14.318  21.833   1.027  1.00  0.00    -0.049 A 
HETATM   23  C13 UNL     1      14.770  21.363   2.237  1.00  0.00     0.008 A 
HETATM   24  C14 UNL     1      15.921  21.828   2.843  1.00  0.00     0.001 A 
HETATM   25  C15 UNL     1      16.658  22.804   2.217  1.00  0.00     0.000 A 
HETATM   26  C16 UNL     1      16.241  23.296   1.013  1.00  0.00     0.001 A 
HETATM   27  C17 UNL     1      15.092  22.827   0.415  1.00  0.00     0.008 A 
ENDBRANCH  21  22
ENDBRANCH  20  21
ENDBRANCH   9  20
BRANCH   1  28
HETATM   28  S1  UNL     1       7.350  20.516  -2.255  1.00  0.00    -0.098 SA
HETATM   29  C1  UNL     1       6.504  18.925  -2.186  1.00  0.00     0.099 C 
ENDBRANCH   1  28
TORSDOF 5
ENDMDL
