MODEL 1
REMARK VINA RESULT: -8.851234300      0.000      0.000
REMARK  9 active torsions:
REMARK  status: ('A' for Active; 'I' for Inactive)
REMARK    1  A    between atoms: O1_2  and  C2_3 
REMARK    2  A    between atoms: C2_3  and  C3_5 
REMARK    3  A    between atoms: C3_5  and  O3_7 
REMARK    4  A    between atoms: C3_5  and  C14_30 
REMARK    5  A    between atoms: O3_7  and  C5_8 
REMARK    6  A    between atoms: C5_8  and  C6_12 
REMARK    7  A    between atoms: C6_12  and  N2_13 
REMARK    8  A    between atoms: N2_13  and  C7_15 
REMARK    9  A    between atoms: C10_19  and  O4_20 
ROOT
HETATM    1  N2  UNL     1       8.225   6.865  -5.950  1.00  0.00    -0.354 N 
ATOM      2  H2  UNL     1       9.042   7.446  -5.764  1.00  0.00     0.166 HD
ENDROOT
BRANCH   1   3
HETATM    3  C6  UNL     1       8.212   5.641  -5.575  1.00  0.00     0.144 C 
BRANCH   3   4
HETATM    4  C5  UNL     1       7.889   5.347  -4.183  1.00  0.00     0.153 C 
HETATM    5  N1  UNL     1       6.839   5.826  -3.616  1.00  0.00    -0.379 N 
ATOM      6  H12 UNL     1       6.614   5.621  -2.643  1.00  0.00     0.158 HD
ATOM      7  H11 UNL     1       6.249   6.421  -4.196  1.00  0.00     0.158 HD
BRANCH   4   8
HETATM    8  O3  UNL     1       8.696   4.533  -3.390  1.00  0.00    -0.302 OA
BRANCH   8   9
HETATM    9  C3  UNL     1       8.463   3.161  -3.246  1.00  0.00     0.239 C 
HETATM   10  C4  UNL     1       7.426   2.609  -4.167  1.00  0.00     0.070 C 
BRANCH   9  11
HETATM   11  C2  UNL     1       7.999   2.938  -1.833  1.00  0.00     0.304 C 
HETATM   12  O2  UNL     1       8.467   2.007  -1.121  1.00  0.00    -0.261 OA
BRANCH  11  13
HETATM   13  O1  UNL     1       7.035   3.743  -1.240  1.00  0.00    -0.324 OA
HETATM   14  C1  UNL     1       7.231   4.333   0.036  1.00  0.00     0.213 C 
ENDBRANCH  11  13
ENDBRANCH   9  11
BRANCH   9  15
HETATM   15  C14 UNL     1       9.716   2.361  -3.455  1.00  0.00     0.220 C 
HETATM   16  O6  UNL     1       9.602   1.288  -4.101  1.00  0.00    -0.645 OA
HETATM   17  O7  UNL     1      10.944   2.734  -2.987  1.00  0.00    -0.645 OA
ENDBRANCH   9  15
ENDBRANCH   8   9
ENDBRANCH   4   8
ENDBRANCH   3   4
ENDBRANCH   1   3
BRANCH   1  18
HETATM   18  C7  UNL     1       7.082   7.427  -6.640  1.00  0.00     0.110 A 
HETATM   19  S1  UNL     1       5.829   8.410  -6.046  1.00  0.00    -0.050 SA
HETATM   20  C8  UNL     1       4.927   8.611  -7.480  1.00  0.00     0.099 A 
HETATM   21  C9  UNL     1       5.635   7.897  -8.397  1.00  0.00     0.102 A 
HETATM   22  N4  UNL     1       3.774   9.276  -7.816  1.00  0.00    -0.321 N 
HETATM   23  C10 UNL     1       6.762   7.275  -7.964  1.00  0.00     0.118 A 
HETATM   24  C11 UNL     1       5.100   7.894  -9.695  1.00  0.00     0.263 A 
HETATM   25  O5  UNL     1       5.661   7.268 -10.645  1.00  0.00    -0.267 OA
HETATM   26  N3  UNL     1       3.976   8.551  -9.990  1.00  0.00    -0.299 N 
HETATM   27  C12 UNL     1       3.299   9.247  -9.066  1.00  0.00     0.181 A 
ATOM     28  H3  UNL     1       3.622   8.524 -10.947  1.00  0.00     0.171 HD
HETATM   29  S2  UNL     1       1.939  10.024  -9.487  1.00  0.00    -0.040 SA
HETATM   30  C13 UNL     1       3.116   9.996  -6.755  1.00  0.00     0.159 C 
BRANCH  23  31
HETATM   31  O4  UNL     1       7.611   6.490  -8.807  1.00  0.00    -0.357 OA
ATOM     32  H4  UNL     1       8.059   6.904  -9.536  1.00  0.00     0.218 HD
ENDBRANCH  23  31
ENDBRANCH   1  18
TORSDOF 9
ENDMDL
MODEL 2
REMARK VINA RESULT: -8.672081251      1.334      2.412
REMARK  9 active torsions:
REMARK  status: ('A' for Active; 'I' for Inactive)
REMARK    1  A    between atoms: O1_2  and  C2_3 
REMARK    2  A    between atoms: C2_3  and  C3_5 
REMARK    3  A    between atoms: C3_5  and  O3_7 
REMARK    4  A    between atoms: C3_5  and  C14_30 
REMARK    5  A    between atoms: O3_7  and  C5_8 
REMARK    6  A    between atoms: C5_8  and  C6_12 
REMARK    7  A    between atoms: C6_12  and  N2_13 
REMARK    8  A    between atoms: N2_13  and  C7_15 
REMARK    9  A    between atoms: C10_19  and  O4_20 
ROOT
HETATM    1  N2  UNL     1       7.274   7.111  -4.390  1.00  0.00    -0.354 N 
ATOM      2  H2  UNL     1       7.978   7.727  -3.984  1.00  0.00     0.166 HD
ENDROOT
BRANCH   1   3
HETATM    3  C6  UNL     1       7.046   5.966  -3.862  1.00  0.00     0.144 C 
BRANCH   3   4
HETATM    4  C5  UNL     1       7.936   4.860  -4.196  1.00  0.00     0.153 C 
HETATM    5  N1  UNL     1       9.098   5.058  -4.709  1.00  0.00    -0.379 N 
ATOM      6  H12 UNL     1       9.721   4.284  -4.943  1.00  0.00     0.158 HD
ATOM      7  H11 UNL     1       9.358   6.031  -4.868  1.00  0.00     0.158 HD
BRANCH   4   8
HETATM    8  O3  UNL     1       7.581   3.530  -3.979  1.00  0.00    -0.302 OA
BRANCH   8   9
HETATM    9  C3  UNL     1       8.257   2.714  -3.065  1.00  0.00     0.239 C 
HETATM   10  C4  UNL     1       8.240   3.213  -1.658  1.00  0.00     0.070 C 
BRANCH   9  11
HETATM   11  C2  UNL     1       9.690   2.641  -3.516  1.00  0.00     0.304 C 
HETATM   12  O2  UNL     1      10.627   3.128  -2.825  1.00  0.00    -0.261 OA
BRANCH  11  13
HETATM   13  O1  UNL     1      10.056   2.034  -4.710  1.00  0.00    -0.324 OA
HETATM   14  C1  UNL     1      11.024   0.997  -4.760  1.00  0.00     0.213 C 
ENDBRANCH  11  13
ENDBRANCH   9  11
BRANCH   9  15
HETATM   15  C14 UNL     1       7.704   1.320  -3.050  1.00  0.00     0.220 C 
HETATM   16  O6  UNL     1       6.903   1.017  -3.971  1.00  0.00    -0.645 OA
HETATM   17  O7  UNL     1       8.022   0.385  -2.105  1.00  0.00    -0.645 OA
ENDBRANCH   9  15
ENDBRANCH   8   9
ENDBRANCH   4   8
ENDBRANCH   3   4
ENDBRANCH   1   3
BRANCH   1  18
HETATM   18  C7  UNL     1       6.534   7.531  -5.562  1.00  0.00     0.110 A 
HETATM   19  S1  UNL     1       5.138   8.494  -5.679  1.00  0.00    -0.050 SA
HETATM   20  C8  UNL     1       4.940   8.496  -7.373  1.00  0.00     0.099 A 
HETATM   21  C9  UNL     1       5.981   7.736  -7.810  1.00  0.00     0.102 A 
HETATM   22  N4  UNL     1       4.038   9.055  -8.244  1.00  0.00    -0.321 N 
HETATM   23  C10 UNL     1       6.818   7.228  -6.868  1.00  0.00     0.118 A 
HETATM   24  C11 UNL     1       6.057   7.570  -9.202  1.00  0.00     0.263 A 
HETATM   25  O5  UNL     1       6.979   6.885  -9.742  1.00  0.00    -0.267 OA
HETATM   26  N3  UNL     1       5.164   8.127 -10.023  1.00  0.00    -0.299 N 
HETATM   27  C12 UNL     1       4.148   8.872  -9.564  1.00  0.00     0.181 A 
ATOM     28  H3  UNL     1       5.257   7.982 -11.028  1.00  0.00     0.171 HD
HETATM   29  S2  UNL     1       3.094   9.521 -10.613  1.00  0.00    -0.040 SA
HETATM   30  C13 UNL     1       2.980   9.838  -7.657  1.00  0.00     0.159 C 
BRANCH  23  31
HETATM   31  O4  UNL     1       7.954   6.413  -7.171  1.00  0.00    -0.357 OA
ATOM     32  H4  UNL     1       7.839   5.627  -7.693  1.00  0.00     0.218 HD
ENDBRANCH  23  31
ENDBRANCH   1  18
TORSDOF 9
ENDMDL
MODEL 3
REMARK VINA RESULT: -8.555831675      1.768      3.086
REMARK  9 active torsions:
REMARK  status: ('A' for Active; 'I' for Inactive)
REMARK    1  A    between atoms: O1_2  and  C2_3 
REMARK    2  A    between atoms: C2_3  and  C3_5 
REMARK    3  A    between atoms: C3_5  and  O3_7 
REMARK    4  A    between atoms: C3_5  and  C14_30 
REMARK    5  A    between atoms: O3_7  and  C5_8 
REMARK    6  A    between atoms: C5_8  and  C6_12 
REMARK    7  A    between atoms: C6_12  and  N2_13 
REMARK    8  A    between atoms: N2_13  and  C7_15 
REMARK    9  A    between atoms: C10_19  and  O4_20 
ROOT
HETATM    1  N2  UNL     1       7.454   5.964  -3.104  1.00  0.00    -0.354 N 
ATOM      2  H2  UNL     1       8.439   6.074  -2.866  1.00  0.00     0.166 HD
ENDROOT
BRANCH   1   3
HETATM    3  C6  UNL     1       6.672   5.328  -2.313  1.00  0.00     0.144 C 
BRANCH   3   4
HETATM    4  C5  UNL     1       7.147   4.082  -1.724  1.00  0.00     0.153 C 
HETATM    5  N1  UNL     1       6.426   3.401  -0.907  1.00  0.00    -0.379 N 
ATOM      6  H12 UNL     1       6.759   2.529  -0.495  1.00  0.00     0.158 HD
ATOM      7  H11 UNL     1       5.506   3.784  -0.695  1.00  0.00     0.158 HD
BRANCH   4   8
HETATM    8  O3  UNL     1       8.406   3.557  -2.013  1.00  0.00    -0.302 OA
BRANCH   8   9
HETATM    9  C3  UNL     1       8.574   2.329  -2.662  1.00  0.00     0.239 C 
HETATM   10  C4  UNL     1       8.607   1.147  -1.751  1.00  0.00     0.070 C 
BRANCH   9  11
HETATM   11  C2  UNL     1       9.887   2.391  -3.393  1.00  0.00     0.304 C 
HETATM   12  O2  UNL     1      10.915   2.896  -2.864  1.00  0.00    -0.261 OA
BRANCH  11  13
HETATM   13  O1  UNL     1      10.035   1.897  -4.682  1.00  0.00    -0.324 OA
HETATM   14  C1  UNL     1      11.022   0.928  -5.006  1.00  0.00     0.213 C 
ENDBRANCH  11  13
ENDBRANCH   9  11
BRANCH   9  15
HETATM   15  C14 UNL     1       7.492   2.082  -3.672  1.00  0.00     0.220 C 
HETATM   16  O6  UNL     1       6.969   0.938  -3.675  1.00  0.00    -0.645 OA
HETATM   17  O7  UNL     1       7.059   3.019  -4.566  1.00  0.00    -0.645 OA
ENDBRANCH   9  15
ENDBRANCH   8   9
ENDBRANCH   4   8
ENDBRANCH   3   4
ENDBRANCH   1   3
BRANCH   1  18
HETATM   18  C7  UNL     1       6.940   6.527  -4.336  1.00  0.00     0.110 A 
HETATM   19  S1  UNL     1       5.723   7.689  -4.576  1.00  0.00    -0.050 SA
HETATM   20  C8  UNL     1       5.749   7.774  -6.280  1.00  0.00     0.099 A 
HETATM   21  C9  UNL     1       6.719   6.883  -6.622  1.00  0.00     0.102 A 
HETATM   22  N4  UNL     1       5.057   8.487  -7.226  1.00  0.00    -0.321 N 
HETATM   23  C10 UNL     1       7.345   6.228  -5.611  1.00  0.00     0.118 A 
HETATM   24  C11 UNL     1       6.952   6.753  -8.000  1.00  0.00     0.263 A 
HETATM   25  O5  UNL     1       7.829   5.957  -8.455  1.00  0.00    -0.267 OA
HETATM   26  N3  UNL     1       6.261   7.462  -8.896  1.00  0.00    -0.299 N 
HETATM   27  C12 UNL     1       5.311   8.332  -8.530  1.00  0.00     0.181 A 
ATOM     28  H3  UNL     1       6.463   7.337  -9.889  1.00  0.00     0.171 HD
HETATM   29  S2  UNL     1       4.506   9.164  -9.667  1.00  0.00    -0.040 SA
HETATM   30  C13 UNL     1       4.054   9.399  -6.737  1.00  0.00     0.159 C 
BRANCH  23  31
HETATM   31  O4  UNL     1       8.384   5.263  -5.810  1.00  0.00    -0.357 OA
ATOM     32  H4  UNL     1       8.178   4.436  -6.232  1.00  0.00     0.218 HD
ENDBRANCH  23  31
ENDBRANCH   1  18
TORSDOF 9
ENDMDL
MODEL 4
REMARK VINA RESULT: -8.399213433      1.100      1.227
REMARK  9 active torsions:
REMARK  status: ('A' for Active; 'I' for Inactive)
REMARK    1  A    between atoms: O1_2  and  C2_3 
REMARK    2  A    between atoms: C2_3  and  C3_5 
REMARK    3  A    between atoms: C3_5  and  O3_7 
REMARK    4  A    between atoms: C3_5  and  C14_30 
REMARK    5  A    between atoms: O3_7  and  C5_8 
REMARK    6  A    between atoms: C5_8  and  C6_12 
REMARK    7  A    between atoms: C6_12  and  N2_13 
REMARK    8  A    between atoms: N2_13  and  C7_15 
REMARK    9  A    between atoms: C10_19  and  O4_20 
ROOT
HETATM    1  N2  UNL     1       7.432   7.090  -4.372  1.00  0.00    -0.354 N 
ATOM      2  H2  UNL     1       8.183   7.683  -4.021  1.00  0.00     0.166 HD
ENDROOT
BRANCH   1   3
HETATM    3  C6  UNL     1       7.171   5.978  -3.792  1.00  0.00     0.144 C 
BRANCH   3   4
HETATM    4  C5  UNL     1       7.922   4.795  -4.195  1.00  0.00     0.153 C 
HETATM    5  N1  UNL     1       9.106   4.881  -4.688  1.00  0.00    -0.379 N 
ATOM      6  H12 UNL     1       9.632   4.053  -4.970  1.00  0.00     0.158 HD
ATOM      7  H11 UNL     1       9.485   5.822  -4.781  1.00  0.00     0.158 HD
BRANCH   4   8
HETATM    8  O3  UNL     1       7.403   3.508  -4.068  1.00  0.00    -0.302 OA
BRANCH   8   9
HETATM    9  C3  UNL     1       8.106   2.476  -3.435  1.00  0.00     0.239 C 
HETATM   10  C4  UNL     1       7.671   1.102  -3.822  1.00  0.00     0.070 C 
BRANCH   9  11
HETATM   11  C2  UNL     1       7.885   2.635  -1.956  1.00  0.00     0.304 C 
HETATM   12  O2  UNL     1       8.568   1.994  -1.112  1.00  0.00    -0.261 OA
BRANCH  11  13
HETATM   13  O1  UNL     1       6.921   3.494  -1.444  1.00  0.00    -0.324 OA
HETATM   14  C1  UNL     1       7.175   4.323  -0.320  1.00  0.00     0.213 C 
ENDBRANCH  11  13
ENDBRANCH   9  11
BRANCH   9  15
HETATM   15  C14 UNL     1       9.581   2.568  -3.696  1.00  0.00     0.220 C 
HETATM   16  O6  UNL     1      10.008   2.008  -4.737  1.00  0.00    -0.645 OA
HETATM   17  O7  UNL     1      10.459   3.216  -2.875  1.00  0.00    -0.645 OA
ENDBRANCH   9  15
ENDBRANCH   8   9
ENDBRANCH   4   8
ENDBRANCH   3   4
ENDBRANCH   1   3
BRANCH   1  18
HETATM   18  C7  UNL     1       6.661   7.508  -5.525  1.00  0.00     0.110 A 
HETATM   19  S1  UNL     1       5.265   8.474  -5.609  1.00  0.00    -0.050 SA
HETATM   20  C8  UNL     1       5.021   8.468  -7.297  1.00  0.00     0.099 A 
HETATM   21  C9  UNL     1       6.047   7.703  -7.758  1.00  0.00     0.102 A 
HETATM   22  N4  UNL     1       4.097   9.025  -8.146  1.00  0.00    -0.321 N 
HETATM   23  C10 UNL     1       6.908   7.197  -6.838  1.00  0.00     0.118 A 
HETATM   24  C11 UNL     1       6.086   7.530  -9.151  1.00  0.00     0.263 A 
HETATM   25  O5  UNL     1       6.990   6.840  -9.713  1.00  0.00    -0.267 OA
HETATM   26  N3  UNL     1       5.171   8.086  -9.950  1.00  0.00    -0.299 N 
HETATM   27  C12 UNL     1       4.170   8.835  -9.468  1.00  0.00     0.181 A 
ATOM     28  H3  UNL     1       5.237   7.935 -10.957  1.00  0.00     0.171 HD
HETATM   29  S2  UNL     1       3.090   9.482 -10.490  1.00  0.00    -0.040 SA
HETATM   30  C13 UNL     1       3.058   9.814  -7.535  1.00  0.00     0.159 C 
BRANCH  23  31
HETATM   31  O4  UNL     1       8.034   6.377  -7.167  1.00  0.00    -0.357 OA
ATOM     32  H4  UNL     1       7.895   5.554  -7.621  1.00  0.00     0.218 HD
ENDBRANCH  23  31
ENDBRANCH   1  18
TORSDOF 9
ENDMDL
MODEL 5
REMARK VINA RESULT: -8.294764457      1.756      2.479
REMARK  9 active torsions:
REMARK  status: ('A' for Active; 'I' for Inactive)
REMARK    1  A    between atoms: O1_2  and  C2_3 
REMARK    2  A    between atoms: C2_3  and  C3_5 
REMARK    3  A    between atoms: C3_5  and  O3_7 
REMARK    4  A    between atoms: C3_5  and  C14_30 
REMARK    5  A    between atoms: O3_7  and  C5_8 
REMARK    6  A    between atoms: C5_8  and  C6_12 
REMARK    7  A    between atoms: C6_12  and  N2_13 
REMARK    8  A    between atoms: N2_13  and  C7_15 
REMARK    9  A    between atoms: C10_19  and  O4_20 
ROOT
HETATM    1  N2  UNL     1       7.483   6.023  -3.123  1.00  0.00    -0.354 N 
ATOM      2  H2  UNL     1       8.469   6.142  -2.891  1.00  0.00     0.166 HD
ENDROOT
BRANCH   1   3
HETATM    3  C6  UNL     1       6.710   5.391  -2.321  1.00  0.00     0.144 C 
BRANCH   3   4
HETATM    4  C5  UNL     1       7.176   4.128  -1.760  1.00  0.00     0.153 C 
HETATM    5  N1  UNL     1       6.487   3.478  -0.891  1.00  0.00    -0.379 N 
ATOM      6  H12 UNL     1       6.813   2.594  -0.499  1.00  0.00     0.158 HD
ATOM      7  H11 UNL     1       5.599   3.898  -0.619  1.00  0.00     0.158 HD
BRANCH   4   8
HETATM    8  O3  UNL     1       8.390   3.554  -2.133  1.00  0.00    -0.302 OA
BRANCH   8   9
HETATM    9  C3  UNL     1       8.471   2.517  -3.070  1.00  0.00     0.239 C 
HETATM   10  C4  UNL     1       7.547   2.660  -4.234  1.00  0.00     0.070 C 
BRANCH   9  11
HETATM   11  C2  UNL     1       8.121   1.244  -2.351  1.00  0.00     0.304 C 
HETATM   12  O2  UNL     1       8.704   0.904  -1.285  1.00  0.00    -0.261 OA
BRANCH  11  13
HETATM   13  O1  UNL     1       7.141   0.379  -2.821  1.00  0.00    -0.324 OA
HETATM   14  C1  UNL     1       5.934   0.156  -2.108  1.00  0.00     0.213 C 
ENDBRANCH  11  13
ENDBRANCH   9  11
BRANCH   9  15
HETATM   15  C14 UNL     1       9.860   2.374  -3.619  1.00  0.00     0.220 C 
HETATM   16  O6  UNL     1       9.977   1.769  -4.716  1.00  0.00    -0.645 OA
HETATM   17  O7  UNL     1      10.977   2.858  -2.999  1.00  0.00    -0.645 OA
ENDBRANCH   9  15
ENDBRANCH   8   9
ENDBRANCH   4   8
ENDBRANCH   3   4
ENDBRANCH   1   3
BRANCH   1  18
HETATM   18  C7  UNL     1       6.961   6.568  -4.359  1.00  0.00     0.110 A 
HETATM   19  S1  UNL     1       5.730   7.713  -4.608  1.00  0.00    -0.050 SA
HETATM   20  C8  UNL     1       5.752   7.782  -6.312  1.00  0.00     0.099 A 
HETATM   21  C9  UNL     1       6.731   6.899  -6.647  1.00  0.00     0.102 A 
HETATM   22  N4  UNL     1       5.049   8.478  -7.264  1.00  0.00    -0.321 N 
HETATM   23  C10 UNL     1       7.367   6.261  -5.631  1.00  0.00     0.118 A 
HETATM   24  C11 UNL     1       6.963   6.758  -8.025  1.00  0.00     0.263 A 
HETATM   25  O5  UNL     1       7.848   5.968  -8.475  1.00  0.00    -0.267 OA
HETATM   26  N3  UNL     1       6.262   7.450  -8.926  1.00  0.00    -0.299 N 
HETATM   27  C12 UNL     1       5.302   8.314  -8.566  1.00  0.00     0.181 A 
ATOM     28  H3  UNL     1       6.463   7.318  -9.918  1.00  0.00     0.171 HD
HETATM   29  S2  UNL     1       4.485   9.124  -9.710  1.00  0.00    -0.040 SA
HETATM   30  C13 UNL     1       4.036   9.383  -6.781  1.00  0.00     0.159 C 
BRANCH  23  31
HETATM   31  O4  UNL     1       8.416   5.307  -5.824  1.00  0.00    -0.357 OA
ATOM     32  H4  UNL     1       8.755   5.155  -6.699  1.00  0.00     0.218 HD
ENDBRANCH  23  31
ENDBRANCH   1  18
TORSDOF 9
ENDMDL
