MODEL 1
REMARK VINA RESULT: -7.602492508      0.000      0.000
REMARK  9 active torsions:
REMARK  status: ('A' for Active; 'I' for Inactive)
REMARK    1  A    between atoms: C5_6  and  C6_7 
REMARK    2  A    between atoms: C6_7  and  C7_8 
REMARK    3  A    between atoms: C7_8  and  O1_9 
REMARK    4  A    between atoms: C7_8  and  O2_11 
REMARK    5  A    between atoms: O2_11  and  N2_12 
REMARK    6  A    between atoms: C8_14  and  C9_15 
REMARK    7  A    between atoms: C16_22  and  O3_23 
REMARK    8  A    between atoms: O3_23  and  C17_24 
REMARK    9  A    between atoms: C17_24  and  C18_26 
ROOT
HETATM    1  C1  UNL     1      -9.522 -57.090 -31.468  1.00  0.00     0.116 C 
HETATM    2  N1  UNL     1     -10.513 -56.281 -31.871  1.00  0.00    -0.390 N 
HETATM    3  C2  UNL     1     -10.304 -55.294 -32.898  1.00  0.00     0.085 C 
HETATM    4  C3  UNL     1     -10.461 -55.974 -34.166  1.00  0.00     0.026 C 
HETATM    5  C4  UNL     1     -11.954 -56.216 -34.317  1.00  0.00     0.007 C 
HETATM    6  C5  UNL     1     -12.623 -56.744 -33.049  1.00  0.00    -0.008 C 
HETATM    7  C13 UNL     1     -12.739 -55.777 -31.955  1.00  0.00     0.030 C 
HETATM    8  C14 UNL     1     -11.488 -55.724 -31.026  1.00  0.00     0.086 C 
HETATM    9  C15 UNL     1     -11.056 -54.294 -30.775  1.00  0.00     0.057 C 
HETATM   10  C16 UNL     1      -9.605 -54.006 -31.072  1.00  0.00     0.136 C 
HETATM   11  C22 UNL     1      -9.159 -54.500 -32.464  1.00  0.00     0.057 C 
ENDROOT
BRANCH   6  12
HETATM   12  C6  UNL     1     -13.904 -57.318 -33.540  1.00  0.00     0.067 C 
BRANCH  12  13
HETATM   13  C7  UNL     1     -14.212 -58.742 -33.401  1.00  0.00     0.285 C 
BRANCH  13  14
HETATM   14  O1  UNL     1     -13.136 -59.600 -33.442  1.00  0.00    -0.369 OA
ATOM     15  H1  UNL     1     -13.024 -60.091 -34.248  1.00  0.00     0.212 HD
ENDBRANCH  13  14
BRANCH  13  16
HETATM   16  O2  UNL     1     -14.776 -58.928 -32.085  1.00  0.00    -0.249 OA
BRANCH  16  17
HETATM   17  N2  UNL     1     -16.054 -59.328 -31.877  1.00  0.00    -0.278 N 
HETATM   18  C8  UNL     1     -16.605 -59.366 -30.736  1.00  0.00     0.095 C 
ATOM     19  H2  UNL     1     -16.604 -59.617 -32.686  1.00  0.00     0.193 HD
BRANCH  18  20
HETATM   20  C9  UNL     1     -15.936 -58.980 -29.464  1.00  0.00    -0.017 C 
HETATM   21  C10 UNL     1     -14.946 -57.872 -29.696  1.00  0.00     0.020 C 
HETATM   22  C11 UNL     1     -15.194 -60.166 -28.865  1.00  0.00     0.020 C 
HETATM   23  C12 UNL     1     -16.997 -58.570 -28.467  1.00  0.00     0.020 C 
ENDBRANCH  18  20
ENDBRANCH  16  17
ENDBRANCH  13  16
ENDBRANCH  12  13
ENDBRANCH   6  12
BRANCH  10  24
HETATM   24  O3  UNL     1      -8.731 -54.439 -30.067  1.00  0.00    -0.311 OA
BRANCH  24  25
HETATM   25  C17 UNL     1      -8.530 -53.820 -28.869  1.00  0.00     0.300 C 
HETATM   26  O4  UNL     1      -7.449 -53.209 -28.685  1.00  0.00    -0.259 OA
BRANCH  25  27
HETATM   27  C18 UNL     1      -9.532 -53.837 -27.777  1.00  0.00     0.080 A 
HETATM   28  C19 UNL     1      -9.871 -52.810 -26.935  1.00  0.00     0.025 A 
HETATM   29  C20 UNL     1     -10.811 -53.056 -26.016  1.00  0.00     0.009 A 
HETATM   30  C21 UNL     1     -11.356 -54.312 -25.993  1.00  0.00     0.050 A 
HETATM   31  S1  UNL     1     -10.537 -55.110 -27.256  1.00  0.00    -0.096 SA
ENDBRANCH  25  27
ENDBRANCH  24  25
ENDBRANCH  10  24
TORSDOF 9
ENDMDL
MODEL 2
REMARK VINA RESULT: -7.325739954      1.770      2.565
REMARK  9 active torsions:
REMARK  status: ('A' for Active; 'I' for Inactive)
REMARK    1  A    between atoms: C5_6  and  C6_7 
REMARK    2  A    between atoms: C6_7  and  C7_8 
REMARK    3  A    between atoms: C7_8  and  O1_9 
REMARK    4  A    between atoms: C7_8  and  O2_11 
REMARK    5  A    between atoms: O2_11  and  N2_12 
REMARK    6  A    between atoms: C8_14  and  C9_15 
REMARK    7  A    between atoms: C16_22  and  O3_23 
REMARK    8  A    between atoms: O3_23  and  C17_24 
REMARK    9  A    between atoms: C17_24  and  C18_26 
ROOT
HETATM    1  C1  UNL     1     -10.038 -57.379 -31.541  1.00  0.00     0.116 C 
HETATM    2  N1  UNL     1     -11.142 -56.715 -31.916  1.00  0.00    -0.390 N 
HETATM    3  C2  UNL     1     -11.079 -55.624 -32.854  1.00  0.00     0.085 C 
HETATM    4  C3  UNL     1     -11.087 -56.212 -34.176  1.00  0.00     0.026 C 
HETATM    5  C4  UNL     1     -12.513 -56.686 -34.403  1.00  0.00     0.007 C 
HETATM    6  C5  UNL     1     -13.114 -57.424 -33.207  1.00  0.00    -0.008 C 
HETATM    7  C13 UNL     1     -13.419 -56.586 -32.045  1.00  0.00     0.030 C 
HETATM    8  C14 UNL     1     -12.218 -56.402 -31.068  1.00  0.00     0.086 C 
HETATM    9  C15 UNL     1     -12.041 -54.947 -30.689  1.00  0.00     0.057 C 
HETATM   10  C16 UNL     1     -10.653 -54.396 -30.906  1.00  0.00     0.136 C 
HETATM   11  C22 UNL     1     -10.096 -54.689 -32.315  1.00  0.00     0.057 C 
ENDROOT
BRANCH   6  12
HETATM   12  C6  UNL     1     -14.266 -58.160 -33.791  1.00  0.00     0.067 C 
BRANCH  12  13
HETATM   13  C7  UNL     1     -14.594 -59.526 -33.380  1.00  0.00     0.285 C 
BRANCH  13  14
HETATM   14  O1  UNL     1     -13.545 -60.417 -33.352  1.00  0.00    -0.369 OA
ATOM     15  H1  UNL     1     -13.370 -60.830 -32.515  1.00  0.00     0.212 HD
ENDBRANCH  13  14
BRANCH  13  16
HETATM   16  O2  UNL     1     -15.052 -59.459 -32.012  1.00  0.00    -0.249 OA
BRANCH  16  17
HETATM   17  N2  UNL     1     -16.357 -59.328 -31.674  1.00  0.00    -0.278 N 
HETATM   18  C8  UNL     1     -16.784 -59.363 -30.480  1.00  0.00     0.095 C 
ATOM     19  H2  UNL     1     -17.036 -59.193 -32.423  1.00  0.00     0.193 HD
BRANCH  18  20
HETATM   20  C9  UNL     1     -15.922 -59.553 -29.282  1.00  0.00    -0.017 C 
HETATM   21  C10 UNL     1     -15.311 -60.927 -29.275  1.00  0.00     0.020 C 
HETATM   22  C11 UNL     1     -16.732 -59.384 -28.004  1.00  0.00     0.020 C 
HETATM   23  C12 UNL     1     -14.858 -58.478 -29.279  1.00  0.00     0.020 C 
ENDBRANCH  18  20
ENDBRANCH  16  17
ENDBRANCH  13  16
ENDBRANCH  12  13
ENDBRANCH   6  12
BRANCH  10  24
HETATM   24  O3  UNL     1      -9.743 -54.760 -29.906  1.00  0.00    -0.311 OA
BRANCH  24  25
HETATM   25  C17 UNL     1      -8.918 -53.907 -29.234  1.00  0.00     0.300 C 
HETATM   26  O4  UNL     1      -9.420 -53.143 -28.374  1.00  0.00    -0.259 OA
BRANCH  25  27
HETATM   27  C18 UNL     1      -7.457 -53.845 -29.473  1.00  0.00     0.080 A 
HETATM   28  C19 UNL     1      -6.452 -53.899 -28.542  1.00  0.00     0.025 A 
HETATM   29  C20 UNL     1      -5.194 -53.824 -28.992  1.00  0.00     0.009 A 
HETATM   30  C21 UNL     1      -5.016 -53.701 -30.345  1.00  0.00     0.050 A 
HETATM   31  S1  UNL     1      -6.611 -53.693 -30.944  1.00  0.00    -0.096 SA
ENDBRANCH  25  27
ENDBRANCH  24  25
ENDBRANCH  10  24
TORSDOF 9
ENDMDL
MODEL 3
REMARK VINA RESULT: -7.315558509      2.082      3.489
REMARK  9 active torsions:
REMARK  status: ('A' for Active; 'I' for Inactive)
REMARK    1  A    between atoms: C5_6  and  C6_7 
REMARK    2  A    between atoms: C6_7  and  C7_8 
REMARK    3  A    between atoms: C7_8  and  O1_9 
REMARK    4  A    between atoms: C7_8  and  O2_11 
REMARK    5  A    between atoms: O2_11  and  N2_12 
REMARK    6  A    between atoms: C8_14  and  C9_15 
REMARK    7  A    between atoms: C16_22  and  O3_23 
REMARK    8  A    between atoms: O3_23  and  C17_24 
REMARK    9  A    between atoms: C17_24  and  C18_26 
ROOT
HETATM    1  C1  UNL     1      -9.506 -57.028 -31.480  1.00  0.00     0.116 C 
HETATM    2  N1  UNL     1     -10.431 -56.162 -31.919  1.00  0.00    -0.390 N 
HETATM    3  C2  UNL     1     -10.130 -55.200 -32.947  1.00  0.00     0.085 C 
HETATM    4  C3  UNL     1     -10.291 -55.882 -34.214  1.00  0.00     0.026 C 
HETATM    5  C4  UNL     1     -11.791 -56.031 -34.408  1.00  0.00     0.007 C 
HETATM    6  C5  UNL     1     -12.530 -56.503 -33.158  1.00  0.00    -0.008 C 
HETATM    7  C13 UNL     1     -12.618 -55.521 -32.075  1.00  0.00     0.030 C 
HETATM    8  C14 UNL     1     -11.394 -55.537 -31.109  1.00  0.00     0.086 C 
HETATM    9  C15 UNL     1     -10.881 -54.135 -30.856  1.00  0.00     0.057 C 
HETATM   10  C16 UNL     1      -9.406 -53.941 -31.110  1.00  0.00     0.136 C 
HETATM   11  C22 UNL     1      -8.950 -54.475 -32.485  1.00  0.00     0.057 C 
ENDROOT
BRANCH   6  12
HETATM   12  C6  UNL     1     -13.829 -57.001 -33.683  1.00  0.00     0.067 C 
BRANCH  12  13
HETATM   13  C7  UNL     1     -14.269 -58.379 -33.467  1.00  0.00     0.285 C 
BRANCH  13  14
HETATM   14  O1  UNL     1     -15.213 -58.858 -34.349  1.00  0.00    -0.369 OA
ATOM     15  H1  UNL     1     -16.009 -58.346 -34.426  1.00  0.00     0.212 HD
ENDBRANCH  13  14
BRANCH  13  16
HETATM   16  O2  UNL     1     -13.119 -59.229 -33.668  1.00  0.00    -0.249 OA
BRANCH  16  17
HETATM   17  N2  UNL     1     -13.213 -60.565 -33.872  1.00  0.00    -0.278 N 
HETATM   18  C8  UNL     1     -12.742 -61.159 -34.889  1.00  0.00     0.095 C 
ATOM     19  H2  UNL     1     -13.691 -61.127 -33.167  1.00  0.00     0.193 HD
BRANCH  18  20
HETATM   20  C9  UNL     1     -12.023 -60.481 -36.001  1.00  0.00    -0.017 C 
HETATM   21  C10 UNL     1     -10.970 -59.550 -35.468  1.00  0.00     0.020 C 
HETATM   22  C11 UNL     1     -12.990 -59.671 -36.853  1.00  0.00     0.020 C 
HETATM   23  C12 UNL     1     -11.419 -61.539 -36.899  1.00  0.00     0.020 C 
ENDBRANCH  18  20
ENDBRANCH  16  17
ENDBRANCH  13  16
ENDBRANCH  12  13
ENDBRANCH   6  12
BRANCH  10  24
HETATM   24  O3  UNL     1      -8.591 -54.419 -30.076  1.00  0.00    -0.311 OA
BRANCH  24  25
HETATM   25  C17 UNL     1      -8.418 -53.823 -28.862  1.00  0.00     0.300 C 
HETATM   26  O4  UNL     1      -7.336 -53.227 -28.637  1.00  0.00    -0.259 OA
BRANCH  25  27
HETATM   27  C18 UNL     1      -9.452 -53.846 -27.800  1.00  0.00     0.080 A 
HETATM   28  C19 UNL     1      -9.802 -52.830 -26.949  1.00  0.00     0.025 A 
HETATM   29  C20 UNL     1     -10.772 -53.080 -26.062  1.00  0.00     0.009 A 
HETATM   30  C21 UNL     1     -11.334 -54.329 -26.079  1.00  0.00     0.050 A 
HETATM   31  S1  UNL     1     -10.489 -55.114 -27.333  1.00  0.00    -0.096 SA
ENDBRANCH  25  27
ENDBRANCH  24  25
ENDBRANCH  10  24
TORSDOF 9
ENDMDL
MODEL 4
REMARK VINA RESULT: -7.162672401      2.034      3.620
REMARK  9 active torsions:
REMARK  status: ('A' for Active; 'I' for Inactive)
REMARK    1  A    between atoms: C5_6  and  C6_7 
REMARK    2  A    between atoms: C6_7  and  C7_8 
REMARK    3  A    between atoms: C7_8  and  O1_9 
REMARK    4  A    between atoms: C7_8  and  O2_11 
REMARK    5  A    between atoms: O2_11  and  N2_12 
REMARK    6  A    between atoms: C8_14  and  C9_15 
REMARK    7  A    between atoms: C16_22  and  O3_23 
REMARK    8  A    between atoms: O3_23  and  C17_24 
REMARK    9  A    between atoms: C17_24  and  C18_26 
ROOT
HETATM    1  C1  UNL     1      -9.477 -57.076 -31.472  1.00  0.00     0.116 C 
HETATM    2  N1  UNL     1     -10.475 -56.273 -31.871  1.00  0.00    -0.390 N 
HETATM    3  C2  UNL     1     -10.278 -55.287 -32.902  1.00  0.00     0.085 C 
HETATM    4  C3  UNL     1     -10.437 -55.971 -34.167  1.00  0.00     0.026 C 
HETATM    5  C4  UNL     1     -11.929 -56.222 -34.310  1.00  0.00     0.007 C 
HETATM    6  C5  UNL     1     -12.589 -56.752 -33.038  1.00  0.00    -0.008 C 
HETATM    7  C13 UNL     1     -12.705 -55.783 -31.945  1.00  0.00     0.030 C 
HETATM    8  C14 UNL     1     -11.449 -55.720 -31.023  1.00  0.00     0.086 C 
HETATM    9  C15 UNL     1     -11.025 -54.288 -30.777  1.00  0.00     0.057 C 
HETATM   10  C16 UNL     1      -9.577 -53.992 -31.081  1.00  0.00     0.136 C 
HETATM   11  C22 UNL     1      -9.135 -54.485 -32.475  1.00  0.00     0.057 C 
ENDROOT
BRANCH   6  12
HETATM   12  C6  UNL     1     -13.868 -57.334 -33.521  1.00  0.00     0.067 C 
BRANCH  12  13
HETATM   13  C7  UNL     1     -14.215 -58.735 -33.280  1.00  0.00     0.285 C 
BRANCH  13  14
HETATM   14  O1  UNL     1     -15.455 -58.965 -32.728  1.00  0.00    -0.369 OA
ATOM     15  H1  UNL     1     -15.643 -58.504 -31.918  1.00  0.00     0.212 HD
ENDBRANCH  13  14
BRANCH  13  16
HETATM   16  O2  UNL     1     -14.264 -59.389 -34.567  1.00  0.00    -0.249 OA
BRANCH  16  17
HETATM   17  N2  UNL     1     -14.205 -58.715 -35.742  1.00  0.00    -0.278 N 
HETATM   18  C8  UNL     1     -13.344 -58.943 -36.644  1.00  0.00     0.095 C 
ATOM     19  H2  UNL     1     -14.894 -57.981 -35.909  1.00  0.00     0.193 HD
BRANCH  18  20
HETATM   20  C9  UNL     1     -12.278 -59.976 -36.549  1.00  0.00    -0.017 C 
HETATM   21  C10 UNL     1     -12.873 -61.343 -36.351  1.00  0.00     0.020 C 
HETATM   22  C11 UNL     1     -11.350 -59.686 -35.377  1.00  0.00     0.020 C 
HETATM   23  C12 UNL     1     -11.437 -59.918 -37.805  1.00  0.00     0.020 C 
ENDBRANCH  18  20
ENDBRANCH  16  17
ENDBRANCH  13  16
ENDBRANCH  12  13
ENDBRANCH   6  12
BRANCH  10  24
HETATM   24  O3  UNL     1      -8.695 -54.417 -30.080  1.00  0.00    -0.311 OA
BRANCH  24  25
HETATM   25  C17 UNL     1      -8.514 -53.813 -28.871  1.00  0.00     0.300 C 
HETATM   26  O4  UNL     1      -7.439 -53.200 -28.664  1.00  0.00    -0.259 OA
BRANCH  25  27
HETATM   27  C18 UNL     1      -9.533 -53.848 -27.795  1.00  0.00     0.080 A 
HETATM   28  C19 UNL     1      -9.887 -52.833 -26.944  1.00  0.00     0.025 A 
HETATM   29  C20 UNL     1     -10.841 -53.094 -26.043  1.00  0.00     0.009 A 
HETATM   30  C21 UNL     1     -11.383 -54.352 -26.045  1.00  0.00     0.050 A 
HETATM   31  S1  UNL     1     -10.543 -55.130 -27.308  1.00  0.00    -0.096 SA
ENDBRANCH  25  27
ENDBRANCH  24  25
ENDBRANCH  10  24
TORSDOF 9
ENDMDL
MODEL 5
REMARK VINA RESULT: -7.016238741      2.166      3.424
REMARK  9 active torsions:
REMARK  status: ('A' for Active; 'I' for Inactive)
REMARK    1  A    between atoms: C5_6  and  C6_7 
REMARK    2  A    between atoms: C6_7  and  C7_8 
REMARK    3  A    between atoms: C7_8  and  O1_9 
REMARK    4  A    between atoms: C7_8  and  O2_11 
REMARK    5  A    between atoms: O2_11  and  N2_12 
REMARK    6  A    between atoms: C8_14  and  C9_15 
REMARK    7  A    between atoms: C16_22  and  O3_23 
REMARK    8  A    between atoms: O3_23  and  C17_24 
REMARK    9  A    between atoms: C17_24  and  C18_26 
ROOT
HETATM    1  C1  UNL     1      -9.520 -57.046 -31.569  1.00  0.00     0.116 C 
HETATM    2  N1  UNL     1     -10.479 -56.199 -31.973  1.00  0.00    -0.390 N 
HETATM    3  C2  UNL     1     -10.221 -55.197 -32.975  1.00  0.00     0.085 C 
HETATM    4  C3  UNL     1     -10.372 -55.845 -34.260  1.00  0.00     0.026 C 
HETATM    5  C4  UNL     1     -11.869 -56.039 -34.444  1.00  0.00     0.007 C 
HETATM    6  C5  UNL     1     -12.578 -56.574 -33.202  1.00  0.00    -0.008 C 
HETATM    7  C13 UNL     1     -12.688 -55.628 -32.089  1.00  0.00     0.030 C 
HETATM    8  C14 UNL     1     -11.454 -55.632 -31.136  1.00  0.00     0.086 C 
HETATM    9  C15 UNL     1     -10.985 -54.222 -30.845  1.00  0.00     0.057 C 
HETATM   10  C16 UNL     1      -9.521 -53.970 -31.107  1.00  0.00     0.136 C 
HETATM   11  C22 UNL     1      -9.062 -54.447 -32.501  1.00  0.00     0.057 C 
ENDROOT
BRANCH   6  12
HETATM   12  C6  UNL     1     -13.865 -57.099 -33.730  1.00  0.00     0.067 C 
BRANCH  12  13
HETATM   13  C7  UNL     1     -14.214 -58.517 -33.636  1.00  0.00     0.285 C 
BRANCH  13  14
HETATM   14  O1  UNL     1     -15.263 -58.828 -32.799  1.00  0.00    -0.369 OA
ATOM     15  H1  UNL     1     -15.498 -58.164 -32.161  1.00  0.00     0.212 HD
ENDBRANCH  13  14
BRANCH  13  16
HETATM   16  O2  UNL     1     -14.657 -58.934 -34.945  1.00  0.00    -0.249 OA
BRANCH  16  17
HETATM   17  N2  UNL     1     -15.284 -58.103 -35.813  1.00  0.00    -0.278 N 
HETATM   18  C8  UNL     1     -16.103 -58.495 -36.698  1.00  0.00     0.095 C 
ATOM     19  H2  UNL     1     -15.085 -57.105 -35.751  1.00  0.00     0.193 HD
BRANCH  18  20
HETATM   20  C9  UNL     1     -16.495 -59.914 -36.914  1.00  0.00    -0.017 C 
HETATM   21  C10 UNL     1     -17.703 -60.006 -37.805  1.00  0.00     0.020 C 
HETATM   22  C11 UNL     1     -16.827 -60.588 -35.590  1.00  0.00     0.020 C 
HETATM   23  C12 UNL     1     -15.317 -60.654 -37.506  1.00  0.00     0.020 C 
ENDBRANCH  18  20
ENDBRANCH  16  17
ENDBRANCH  13  16
ENDBRANCH  12  13
ENDBRANCH   6  12
BRANCH  10  24
HETATM   24  O3  UNL     1      -8.679 -54.450 -30.096  1.00  0.00    -0.311 OA
BRANCH  24  25
HETATM   25  C17 UNL     1      -8.471 -53.855 -28.887  1.00  0.00     0.300 C 
HETATM   26  O4  UNL     1      -7.373 -53.279 -28.686  1.00  0.00    -0.259 OA
BRANCH  25  27
HETATM   27  C18 UNL     1      -9.483 -53.856 -27.804  1.00  0.00     0.080 A 
HETATM   28  C19 UNL     1      -9.810 -52.825 -26.962  1.00  0.00     0.025 A 
HETATM   29  C20 UNL     1     -10.763 -53.055 -26.052  1.00  0.00     0.009 A 
HETATM   30  C21 UNL     1     -11.332 -54.302 -26.038  1.00  0.00     0.050 A 
HETATM   31  S1  UNL     1     -10.517 -55.111 -27.297  1.00  0.00    -0.096 SA
ENDBRANCH  25  27
ENDBRANCH  24  25
ENDBRANCH  10  24
TORSDOF 9
ENDMDL
