MODEL 1
REMARK VINA RESULT: -7.953040875      0.000      0.000
REMARK  3 active torsions:
REMARK  status: ('A' for Active; 'I' for Inactive)
REMARK    1  A    between atoms: C5_8  and  S1_9 
REMARK    2  A    between atoms: S1_9  and  N2_12 
REMARK    3  A    between atoms: N2_12  and  C6_14 
ROOT
HETATM    1  N2  UNL     1     -20.949  -0.365  -5.439  1.00  0.00    -0.310 N 
ATOM      2  H2  UNL     1     -20.288   0.413  -5.451  1.00  0.00     0.172 HD
ENDROOT
BRANCH   1   3
HETATM    3  S1  UNL     1     -21.110  -1.389  -4.117  1.00  0.00     0.263 S 
HETATM    4  O2  UNL     1     -19.861  -2.238  -3.882  1.00  0.00    -0.200 OA
HETATM    5  O3  UNL     1     -22.178  -2.423  -4.471  1.00  0.00    -0.200 OA
BRANCH   3   6
HETATM    6  C5  UNL     1     -21.509  -0.609  -2.616  1.00  0.00     0.134 A 
HETATM    7  C2  UNL     1     -22.295   0.546  -2.491  1.00  0.00     0.054 A 
HETATM    8  C1  UNL     1     -22.916   1.242  -3.642  1.00  0.00     0.072 C 
HETATM    9  N1  UNL     1     -22.346   0.847  -1.185  1.00  0.00    -0.264 N 
HETATM   10  O1  UNL     1     -21.663  -0.020  -0.508  1.00  0.00    -0.241 OA
ATOM     11  H1  UNL     1     -22.848   1.640  -0.786  1.00  0.00     0.194 HD
HETATM   12  C3  UNL     1     -21.136  -0.924  -1.335  1.00  0.00     0.098 A 
HETATM   13  C4  UNL     1     -20.300  -2.046  -0.892  1.00  0.00     0.081 C 
ENDBRANCH   3   6
ENDBRANCH   1   3
BRANCH   1  14
HETATM   14  C6  UNL     1     -21.778  -0.652  -6.516  1.00  0.00     0.098 C 
HETATM   15  C7  UNL     1     -22.306   0.549  -7.272  1.00  0.00     0.036 C 
HETATM   16  C8  UNL     1     -22.524   0.094  -8.700  1.00  0.00    -0.035 C 
HETATM   17  C9  UNL     1     -23.903   0.406  -9.172  1.00  0.00     0.016 C 
HETATM   18  C10 UNL     1     -21.464   0.677  -9.616  1.00  0.00     0.010 C 
HETATM   19  C14 UNL     1     -22.226  -1.392  -8.658  1.00  0.00    -0.035 C 
HETATM   20  C11 UNL     1     -20.134   0.556  -8.974  1.00  0.00     0.001 C 
HETATM   21  C12 UNL     1     -19.903  -0.623  -8.125  1.00  0.00     0.007 C 
HETATM   22  C13 UNL     1     -21.070  -1.392  -7.667  1.00  0.00     0.017 C 
HETATM   23  C15 UNL     1     -21.778  -1.937  -9.978  1.00  0.00     0.016 C 
HETATM   24  C16 UNL     1     -23.408  -2.143  -8.168  1.00  0.00     0.016 C 
ENDBRANCH   1  14
TORSDOF 3
ENDMDL
MODEL 2
REMARK VINA RESULT: -7.942258625      1.949      3.280
REMARK  3 active torsions:
REMARK  status: ('A' for Active; 'I' for Inactive)
REMARK    1  A    between atoms: C5_8  and  S1_9 
REMARK    2  A    between atoms: S1_9  and  N2_12 
REMARK    3  A    between atoms: N2_12  and  C6_14 
ROOT
HETATM    1  N2  UNL     1     -22.604   0.309  -5.450  1.00  0.00    -0.310 N 
ATOM      2  H2  UNL     1     -23.250  -0.480  -5.459  1.00  0.00     0.172 HD
ENDROOT
BRANCH   1   3
HETATM    3  S1  UNL     1     -22.455   1.338  -4.129  1.00  0.00     0.263 S 
HETATM    4  O2  UNL     1     -23.713   2.176  -3.900  1.00  0.00    -0.200 OA
HETATM    5  O3  UNL     1     -21.395   2.380  -4.482  1.00  0.00    -0.200 OA
BRANCH   3   6
HETATM    6  C5  UNL     1     -22.054   0.563  -2.625  1.00  0.00     0.134 A 
HETATM    7  C2  UNL     1     -21.280  -0.599  -2.498  1.00  0.00     0.054 A 
HETATM    8  C1  UNL     1     -20.674  -1.310  -3.648  1.00  0.00     0.072 C 
HETATM    9  N1  UNL     1     -21.223  -0.891  -1.191  1.00  0.00    -0.264 N 
HETATM   10  O1  UNL     1     -21.891  -0.012  -0.514  1.00  0.00    -0.241 OA
ATOM     11  H1  UNL     1     -20.726  -1.686  -0.789  1.00  0.00     0.194 HD
HETATM   12  C3  UNL     1     -22.414   0.892  -1.344  1.00  0.00     0.098 A 
HETATM   13  C4  UNL     1     -23.234   2.026  -0.904  1.00  0.00     0.081 C 
ENDBRANCH   3   6
ENDBRANCH   1   3
BRANCH   1  14
HETATM   14  C6  UNL     1     -21.783   0.610  -6.530  1.00  0.00     0.098 C 
HETATM   15  C7  UNL     1     -21.242  -0.582  -7.290  1.00  0.00     0.036 C 
HETATM   16  C8  UNL     1     -21.036  -0.122  -8.719  1.00  0.00    -0.035 C 
HETATM   17  C9  UNL     1     -19.655  -0.413  -9.198  1.00  0.00     0.016 C 
HETATM   18  C10 UNL     1     -22.092  -0.719  -9.631  1.00  0.00     0.010 C 
HETATM   19  C14 UNL     1     -21.355   1.360  -8.673  1.00  0.00    -0.035 C 
HETATM   20  C11 UNL     1     -23.421  -0.618  -8.982  1.00  0.00     0.001 C 
HETATM   21  C12 UNL     1     -23.665   0.556  -8.130  1.00  0.00     0.007 C 
HETATM   22  C13 UNL     1     -22.507   1.342  -7.677  1.00  0.00     0.017 C 
HETATM   23  C15 UNL     1     -21.818   1.900  -9.990  1.00  0.00     0.016 C 
HETATM   24  C16 UNL     1     -20.182   2.127  -8.187  1.00  0.00     0.016 C 
ENDBRANCH   1  14
TORSDOF 3
ENDMDL
MODEL 3
REMARK VINA RESULT: -7.867410045      1.719      2.423
REMARK  3 active torsions:
REMARK  status: ('A' for Active; 'I' for Inactive)
REMARK    1  A    between atoms: C5_8  and  S1_9 
REMARK    2  A    between atoms: S1_9  and  N2_12 
REMARK    3  A    between atoms: N2_12  and  C6_14 
ROOT
HETATM    1  N2  UNL     1     -21.724  -0.430  -5.630  1.00  0.00    -0.310 N 
ATOM      2  H2  UNL     1     -21.333  -1.364  -5.502  1.00  0.00     0.172 HD
ENDROOT
BRANCH   1   3
HETATM    3  S1  UNL     1     -21.839   0.679  -4.372  1.00  0.00     0.263 S 
HETATM    4  O2  UNL     1     -23.174   1.424  -4.374  1.00  0.00    -0.200 OA
HETATM    5  O3  UNL     1     -20.818   1.782  -4.645  1.00  0.00    -0.200 OA
BRANCH   3   6
HETATM    6  C5  UNL     1     -21.601   0.024  -2.779  1.00  0.00     0.134 A 
HETATM    7  C2  UNL     1     -20.826  -1.105  -2.480  1.00  0.00     0.054 A 
HETATM    8  C1  UNL     1     -20.080  -1.881  -3.498  1.00  0.00     0.072 C 
HETATM    9  N1  UNL     1     -20.914  -1.302  -1.156  1.00  0.00    -0.264 N 
HETATM   10  O1  UNL     1     -21.671  -0.395  -0.627  1.00  0.00    -0.241 OA
ATOM     11  H1  UNL     1     -20.454  -2.054  -0.643  1.00  0.00     0.194 HD
HETATM   12  C3  UNL     1     -22.112   0.434  -1.575  1.00  0.00     0.098 A 
HETATM   13  C4  UNL     1     -22.997   1.575  -1.316  1.00  0.00     0.081 C 
ENDBRANCH   3   6
ENDBRANCH   1   3
BRANCH   1  14
HETATM   14  C6  UNL     1     -22.199   0.015  -6.857  1.00  0.00     0.098 C 
HETATM   15  C7  UNL     1     -21.478   1.212  -7.440  1.00  0.00     0.036 C 
HETATM   16  C8  UNL     1     -21.596   1.091  -8.946  1.00  0.00    -0.035 C 
HETATM   17  C9  UNL     1     -22.137   2.338  -9.557  1.00  0.00     0.016 C 
HETATM   18  C10 UNL     1     -20.267   0.689  -9.557  1.00  0.00     0.010 C 
HETATM   19  C14 UNL     1     -22.495  -0.114  -9.144  1.00  0.00    -0.035 C 
HETATM   20  C11 UNL     1     -19.660  -0.398  -8.751  1.00  0.00     0.001 C 
HETATM   21  C12 UNL     1     -20.578  -1.358  -8.119  1.00  0.00     0.007 C 
HETATM   22  C13 UNL     1     -21.998  -0.993  -8.005  1.00  0.00     0.017 C 
HETATM   23  C15 UNL     1     -22.277  -0.797 -10.459  1.00  0.00     0.016 C 
HETATM   24  C16 UNL     1     -23.920   0.274  -8.998  1.00  0.00     0.016 C 
ENDBRANCH   1  14
TORSDOF 3
ENDMDL
MODEL 4
REMARK VINA RESULT: -7.856247526      0.882      2.075
REMARK  3 active torsions:
REMARK  status: ('A' for Active; 'I' for Inactive)
REMARK    1  A    between atoms: C5_8  and  S1_9 
REMARK    2  A    between atoms: S1_9  and  N2_12 
REMARK    3  A    between atoms: N2_12  and  C6_14 
ROOT
HETATM    1  N2  UNL     1     -21.947   0.310  -5.621  1.00  0.00    -0.310 N 
ATOM      2  H2  UNL     1     -22.442   1.194  -5.498  1.00  0.00     0.172 HD
ENDROOT
BRANCH   1   3
HETATM    3  S1  UNL     1     -21.687  -0.761  -4.353  1.00  0.00     0.263 S 
HETATM    4  O2  UNL     1     -20.290  -1.381  -4.392  1.00  0.00    -0.200 OA
HETATM    5  O3  UNL     1     -22.611  -1.958  -4.572  1.00  0.00    -0.200 OA
BRANCH   3   6
HETATM    6  C5  UNL     1     -21.929  -0.104  -2.762  1.00  0.00     0.134 A 
HETATM    7  C2  UNL     1     -22.700   1.030  -2.467  1.00  0.00     0.054 A 
HETATM    8  C1  UNL     1     -23.438   1.807  -3.490  1.00  0.00     0.072 C 
HETATM    9  N1  UNL     1     -22.616   1.228  -1.143  1.00  0.00    -0.264 N 
HETATM   10  O1  UNL     1     -21.866   0.317  -0.610  1.00  0.00    -0.241 OA
ATOM     11  H1  UNL     1     -23.076   1.982  -0.633  1.00  0.00     0.194 HD
HETATM   12  C3  UNL     1     -21.426  -0.514  -1.555  1.00  0.00     0.098 A 
HETATM   13  C4  UNL     1     -20.547  -1.659  -1.290  1.00  0.00     0.081 C 
ENDBRANCH   3   6
ENDBRANCH   1   3
BRANCH   1  14
HETATM   14  C6  UNL     1     -21.441  -0.093  -6.850  1.00  0.00     0.098 C 
HETATM   15  C7  UNL     1     -22.157  -1.259  -7.499  1.00  0.00     0.036 C 
HETATM   16  C8  UNL     1     -21.994  -1.082  -8.995  1.00  0.00    -0.035 C 
HETATM   17  C9  UNL     1     -21.448  -2.310  -9.638  1.00  0.00     0.016 C 
HETATM   18  C10 UNL     1     -23.301  -0.642  -9.628  1.00  0.00     0.010 C 
HETATM   19  C14 UNL     1     -21.078   0.120  -9.121  1.00  0.00    -0.035 C 
HETATM   20  C11 UNL     1     -23.920   0.419  -8.799  1.00  0.00     0.001 C 
HETATM   21  C12 UNL     1     -23.012   1.345  -8.105  1.00  0.00     0.007 C 
HETATM   22  C13 UNL     1     -21.599   0.961  -7.964  1.00  0.00     0.017 C 
HETATM   23  C15 UNL     1     -21.250   0.854 -10.414  1.00  0.00     0.016 C 
HETATM   24  C16 UNL     1     -19.662  -0.289  -8.949  1.00  0.00     0.016 C 
ENDBRANCH   1  14
TORSDOF 3
ENDMDL
MODEL 5
REMARK VINA RESULT: -7.828378662      1.196      2.452
REMARK  3 active torsions:
REMARK  status: ('A' for Active; 'I' for Inactive)
REMARK    1  A    between atoms: C5_8  and  S1_9 
REMARK    2  A    between atoms: S1_9  and  N2_12 
REMARK    3  A    between atoms: N2_12  and  C6_14 
ROOT
HETATM    1  N2  UNL     1     -22.560   0.308  -5.531  1.00  0.00    -0.310 N 
ATOM      2  H2  UNL     1     -23.527   0.626  -5.467  1.00  0.00     0.172 HD
ENDROOT
BRANCH   1   3
HETATM    3  S1  UNL     1     -21.828  -0.601  -4.322  1.00  0.00     0.263 S 
HETATM    4  O2  UNL     1     -20.331  -0.795  -4.564  1.00  0.00    -0.200 OA
HETATM    5  O3  UNL     1     -22.388  -2.019  -4.417  1.00  0.00    -0.200 OA
BRANCH   3   6
HETATM    6  C5  UNL     1     -22.026   0.012  -2.707  1.00  0.00     0.134 A 
HETATM    7  C2  UNL     1     -22.782   1.141  -2.361  1.00  0.00     0.054 A 
HETATM    8  C1  UNL     1     -23.541   1.952  -3.342  1.00  0.00     0.072 C 
HETATM    9  N1  UNL     1     -22.664   1.301  -1.035  1.00  0.00    -0.264 N 
HETATM   10  O1  UNL     1     -21.907   0.372  -0.546  1.00  0.00    -0.241 OA
ATOM     11  H1  UNL     1     -23.106   2.043  -0.492  1.00  0.00     0.194 HD
HETATM   12  C3  UNL     1     -21.495  -0.435  -1.525  1.00  0.00     0.098 A 
HETATM   13  C4  UNL     1     -20.618  -1.593  -1.315  1.00  0.00     0.081 C 
ENDBRANCH   3   6
ENDBRANCH   1   3
BRANCH   1  14
HETATM   14  C6  UNL     1     -21.754   0.595  -6.625  1.00  0.00     0.098 C 
HETATM   15  C7  UNL     1     -21.521  -0.553  -7.584  1.00  0.00     0.036 C 
HETATM   16  C8  UNL     1     -21.300   0.066  -8.949  1.00  0.00    -0.035 C 
HETATM   17  C9  UNL     1     -20.041  -0.424  -9.578  1.00  0.00     0.016 C 
HETATM   18  C10 UNL     1     -22.506  -0.160  -9.841  1.00  0.00     0.010 C 
HETATM   19  C14 UNL     1     -21.293   1.557  -8.674  1.00  0.00    -0.035 C 
HETATM   20  C11 UNL     1     -23.746   0.110  -9.075  1.00  0.00     0.001 C 
HETATM   21  C12 UNL     1     -23.688   1.166  -8.053  1.00  0.00     0.007 C 
HETATM   22  C13 UNL     1     -22.366   1.623  -7.596  1.00  0.00     0.017 C 
HETATM   23  C15 UNL     1     -21.700   2.373  -9.862  1.00  0.00     0.016 C 
HETATM   24  C16 UNL     1     -19.958   1.988  -8.190  1.00  0.00     0.016 C 
ENDBRANCH   1  14
TORSDOF 3
ENDMDL
