MODEL 1
REMARK VINA RESULT: -7.364413958      0.000      0.000
REMARK  1 active torsions:
REMARK  status: ('A' for Active; 'I' for Inactive)
REMARK    1  A    between atoms: N2_5  and  C3_6 
ROOT
HETATM    1  C1  UNL     1     -20.491  -2.664  -3.407  1.00  0.00     0.065 C 
HETATM    2  C2  UNL     1     -21.305  -1.599  -4.019  1.00  0.00    -0.000 C 
HETATM    3  N1  UNL     1     -21.211  -0.325  -3.718  1.00  0.00    -0.311 N 
ATOM      4  H1  UNL     1     -20.540  -0.009  -3.017  1.00  0.00     0.186 HD
HETATM    5  N2  UNL     1     -22.054   0.610  -4.381  1.00  0.00    -0.317 N 
HETATM    6  C10 UNL     1     -22.279   0.419  -5.780  1.00  0.00     0.125 C 
HETATM    7  C11 UNL     1     -21.299   1.205  -6.633  1.00  0.00     0.154 C 
HETATM    8  N3  UNL     1     -21.427   0.842  -8.026  1.00  0.00    -0.330 N 
HETATM    9  C12 UNL     1     -20.692   0.062  -9.008  1.00  0.00     0.152 C 
HETATM   10  C13 UNL     1     -21.879  -0.737  -9.578  1.00  0.00     0.104 C 
HETATM   11  C14 UNL     1     -22.218  -1.790  -8.609  1.00  0.00     0.027 C 
HETATM   12  C15 UNL     1     -22.974  -1.407  -7.384  1.00  0.00     0.009 C 
HETATM   13  C16 UNL     1     -22.105  -1.028  -6.217  1.00  0.00     0.017 C 
HETATM   14  C17 UNL     1     -22.313  -1.930  -5.041  1.00  0.00     0.060 C 
HETATM   15  N4  UNL     1     -22.849   0.324  -9.748  1.00  0.00    -0.337 N 
ATOM     16  H4  UNL     1     -23.599   0.355 -10.439  1.00  0.00     0.164 HD
HETATM   17  C18 UNL     1     -22.559   1.316  -8.768  1.00  0.00     0.318 C 
HETATM   18  O1  UNL     1     -23.155   2.403  -8.562  1.00  0.00    -0.247 OA
ENDROOT
BRANCH   5  19
HETATM   19  C3  UNL     1     -22.623   1.665  -3.578  1.00  0.00     0.102 C 
HETATM   20  C4  UNL     1     -22.785   1.327  -2.119  1.00  0.00     0.027 C 
HETATM   21  C5  UNL     1     -23.481   2.534  -1.488  1.00  0.00     0.002 C 
HETATM   22  C6  UNL     1     -24.957   2.498  -1.556  1.00  0.00     0.000 C 
HETATM   23  C7  UNL     1     -25.560   1.310  -2.219  1.00  0.00     0.000 C 
HETATM   24  C8  UNL     1     -25.079   1.096  -3.628  1.00  0.00     0.002 C 
HETATM   25  C9  UNL     1     -24.008   2.048  -4.060  1.00  0.00     0.027 C 
ENDBRANCH   5  19
TORSDOF 1
ENDMDL
MODEL 2
REMARK VINA RESULT: -7.328064122      1.943      4.367
REMARK  1 active torsions:
REMARK  status: ('A' for Active; 'I' for Inactive)
REMARK    1  A    between atoms: N2_5  and  C3_6 
ROOT
HETATM    1  C1  UNL     1     -23.112   2.593  -3.336  1.00  0.00     0.065 C 
HETATM    2  C2  UNL     1     -22.288   1.543  -3.961  1.00  0.00    -0.000 C 
HETATM    3  N1  UNL     1     -22.363   0.266  -3.668  1.00  0.00    -0.311 N 
ATOM      4  H1  UNL     1     -23.024  -0.064  -2.964  1.00  0.00     0.186 HD
HETATM    5  N2  UNL     1     -21.511  -0.653  -4.343  1.00  0.00    -0.317 N 
HETATM    6  C10 UNL     1     -21.299  -0.450  -5.743  1.00  0.00     0.125 C 
HETATM    7  C11 UNL     1     -22.275  -1.243  -6.594  1.00  0.00     0.154 C 
HETATM    8  N3  UNL     1     -22.161  -0.869  -7.986  1.00  0.00    -0.330 N 
HETATM    9  C12 UNL     1     -22.913  -0.092  -8.957  1.00  0.00     0.152 C 
HETATM   10  C13 UNL     1     -21.741   0.726  -9.529  1.00  0.00     0.104 C 
HETATM   11  C14 UNL     1     -21.410   1.778  -8.555  1.00  0.00     0.027 C 
HETATM   12  C15 UNL     1     -20.640   1.397  -7.339  1.00  0.00     0.009 C 
HETATM   13  C16 UNL     1     -21.495   0.998  -6.169  1.00  0.00     0.017 C 
HETATM   14  C17 UNL     1     -21.292   1.894  -4.988  1.00  0.00     0.060 C 
HETATM   15  N4  UNL     1     -20.758  -0.320  -9.714  1.00  0.00    -0.337 N 
ATOM     16  H4  UNL     1     -20.013  -0.336 -10.410  1.00  0.00     0.164 HD
HETATM   17  C18 UNL     1     -21.027  -1.322  -8.739  1.00  0.00     0.318 C 
HETATM   18  O1  UNL     1     -20.415  -2.402  -8.544  1.00  0.00    -0.247 OA
ENDROOT
BRANCH   5  19
HETATM   19  C3  UNL     1     -20.923  -1.706  -3.552  1.00  0.00     0.102 C 
HETATM   20  C4  UNL     1     -20.767  -1.381  -2.089  1.00  0.00     0.027 C 
HETATM   21  C5  UNL     1     -20.048  -2.581  -1.471  1.00  0.00     0.002 C 
HETATM   22  C6  UNL     1     -18.573  -2.516  -1.538  1.00  0.00     0.000 C 
HETATM   23  C7  UNL     1     -17.993  -1.311  -2.189  1.00  0.00     0.000 C 
HETATM   24  C8  UNL     1     -18.478  -1.090  -3.595  1.00  0.00     0.002 C 
HETATM   25  C9  UNL     1     -19.531  -2.058  -4.038  1.00  0.00     0.027 C 
ENDBRANCH   5  19
TORSDOF 1
ENDMDL
MODEL 3
REMARK VINA RESULT: -6.606999545      8.053     10.788
REMARK  1 active torsions:
REMARK  status: ('A' for Active; 'I' for Inactive)
REMARK    1  A    between atoms: N2_5  and  C3_6 
ROOT
HETATM    1  C1  UNL     1     -24.567   1.979   5.375  1.00  0.00     0.065 C 
HETATM    2  C2  UNL     1     -25.194   2.377   4.103  1.00  0.00    -0.000 C 
HETATM    3  N1  UNL     1     -26.062   1.649   3.441  1.00  0.00    -0.311 N 
ATOM      4  H1  UNL     1     -26.349   0.738   3.798  1.00  0.00     0.186 HD
HETATM    5  N2  UNL     1     -26.599   2.146   2.221  1.00  0.00    -0.317 N 
HETATM    6  C10 UNL     1     -26.930   3.536   2.163  1.00  0.00     0.125 C 
HETATM    7  C11 UNL     1     -28.384   3.796   2.520  1.00  0.00     0.154 C 
HETATM    8  N3  UNL     1     -28.635   5.215   2.640  1.00  0.00    -0.330 N 
HETATM    9  C12 UNL     1     -28.851   6.184   3.701  1.00  0.00     0.152 C 
HETATM   10  C13 UNL     1     -27.882   7.270   3.200  1.00  0.00     0.104 C 
HETATM   11  C14 UNL     1     -26.513   6.833   3.520  1.00  0.00     0.027 C 
HETATM   12  C15 UNL     1     -25.889   5.784   2.667  1.00  0.00     0.009 C 
HETATM   13  C16 UNL     1     -26.130   4.379   3.145  1.00  0.00     0.017 C 
HETATM   14  C17 UNL     1     -24.856   3.670   3.482  1.00  0.00     0.060 C 
HETATM   15  N4  UNL     1     -28.238   7.309   1.797  1.00  0.00    -0.337 N 
ATOM     16  H4  UNL     1     -28.163   8.114   1.175  1.00  0.00     0.164 HD
HETATM   17  C18 UNL     1     -28.712   6.012   1.451  1.00  0.00     0.318 C 
HETATM   18  O1  UNL     1     -29.123   5.607   0.334  1.00  0.00    -0.247 OA
ENDROOT
BRANCH   5  19
HETATM   19  C3  UNL     1     -26.750   1.205   1.138  1.00  0.00     0.102 C 
HETATM   20  C4  UNL     1     -27.436   1.758  -0.084  1.00  0.00     0.027 C 
HETATM   21  C5  UNL     1     -27.571   0.583  -1.053  1.00  0.00     0.002 C 
HETATM   22  C6  UNL     1     -28.788  -0.234  -0.864  1.00  0.00     0.000 C 
HETATM   23  C7  UNL     1     -29.706   0.190   0.228  1.00  0.00     0.000 C 
HETATM   24  C8  UNL     1     -29.047   0.263   1.578  1.00  0.00     0.002 C 
HETATM   25  C9  UNL     1     -27.573   0.003   1.553  1.00  0.00     0.027 C 
ENDBRANCH   5  19
TORSDOF 1
ENDMDL
MODEL 4
REMARK VINA RESULT: -6.349851172      8.416     11.215
REMARK  1 active torsions:
REMARK  status: ('A' for Active; 'I' for Inactive)
REMARK    1  A    between atoms: N2_5  and  C3_6 
ROOT
HETATM    1  C1  UNL     1     -23.773   0.793   3.529  1.00  0.00     0.065 C 
HETATM    2  C2  UNL     1     -24.905   1.636   3.107  1.00  0.00    -0.000 C 
HETATM    3  N1  UNL     1     -26.165   1.272   3.162  1.00  0.00    -0.311 N 
ATOM      4  H1  UNL     1     -26.421   0.349   3.516  1.00  0.00     0.186 HD
HETATM    5  N2  UNL     1     -27.170   2.179   2.724  1.00  0.00    -0.317 N 
HETATM    6  C10 UNL     1     -27.009   3.558   3.066  1.00  0.00     0.125 C 
HETATM    7  C11 UNL     1     -27.719   3.917   4.360  1.00  0.00     0.154 C 
HETATM    8  N3  UNL     1     -27.379   5.259   4.775  1.00  0.00    -0.330 N 
HETATM    9  C12 UNL     1     -26.549   5.896   5.785  1.00  0.00     0.152 C 
HETATM   10  C13 UNL     1     -25.854   6.923   4.872  1.00  0.00     0.104 C 
HETATM   11  C14 UNL     1     -24.824   6.212   4.099  1.00  0.00     0.027 C 
HETATM   12  C15 UNL     1     -25.257   5.377   2.945  1.00  0.00     0.009 C 
HETATM   13  C16 UNL     1     -25.556   3.946   3.298  1.00  0.00     0.017 C 
HETATM   14  C17 UNL     1     -24.665   2.987   2.572  1.00  0.00     0.060 C 
HETATM   15  N4  UNL     1     -26.991   7.425   4.130  1.00  0.00    -0.337 N 
ATOM     16  H4  UNL     1     -27.088   8.355   3.725  1.00  0.00     0.164 HD
HETATM   17  C18 UNL     1     -27.948   6.372   4.072  1.00  0.00     0.318 C 
HETATM   18  O1  UNL     1     -29.078   6.378   3.523  1.00  0.00    -0.247 OA
ENDROOT
BRANCH   5  19
HETATM   19  C3  UNL     1     -28.262   1.630   1.958  1.00  0.00     0.102 C 
HETATM   20  C4  UNL     1     -28.180   0.143   1.725  1.00  0.00     0.027 C 
HETATM   21  C5  UNL     1     -29.369  -0.203   0.827  1.00  0.00     0.002 C 
HETATM   22  C6  UNL     1     -29.107  -0.063  -0.621  1.00  0.00     0.000 C 
HETATM   23  C7  UNL     1     -27.743   0.388  -1.007  1.00  0.00     0.000 C 
HETATM   24  C8  UNL     1     -27.343   1.700  -0.389  1.00  0.00     0.002 C 
HETATM   25  C9  UNL     1     -28.344   2.250   0.578  1.00  0.00     0.027 C 
ENDBRANCH   5  19
TORSDOF 1
ENDMDL
MODEL 5
REMARK VINA RESULT: -6.202133984      9.204     12.056
REMARK  1 active torsions:
REMARK  status: ('A' for Active; 'I' for Inactive)
REMARK    1  A    between atoms: N2_5  and  C3_6 
ROOT
HETATM    1  C1  UNL     1     -20.083  -1.139   3.436  1.00  0.00     0.065 C 
HETATM    2  C2  UNL     1     -18.906  -1.911   3.001  1.00  0.00    -0.000 C 
HETATM    3  N1  UNL     1     -17.673  -1.463   3.025  1.00  0.00    -0.311 N 
ATOM      4  H1  UNL     1     -17.472  -0.521   3.361  1.00  0.00     0.186 HD
HETATM    5  N2  UNL     1     -16.618  -2.307   2.577  1.00  0.00    -0.317 N 
HETATM    6  C10 UNL     1     -16.679  -3.689   2.941  1.00  0.00     0.125 C 
HETATM    7  C11 UNL     1     -15.920  -3.981   4.223  1.00  0.00     0.154 C 
HETATM    8  N3  UNL     1     -16.161  -5.336   4.664  1.00  0.00    -0.330 N 
HETATM    9  C12 UNL     1     -16.925  -6.013   5.699  1.00  0.00     0.152 C 
HETATM   10  C13 UNL     1     -17.569  -7.097   4.815  1.00  0.00     0.104 C 
HETATM   11  C14 UNL     1     -18.660  -6.467   4.055  1.00  0.00     0.027 C 
HETATM   12  C15 UNL     1     -18.307  -5.622   2.881  1.00  0.00     0.009 C 
HETATM   13  C16 UNL     1     -18.098  -4.170   3.208  1.00  0.00     0.017 C 
HETATM   14  C17 UNL     1     -19.066  -3.283   2.490  1.00  0.00     0.060 C 
HETATM   15  N4  UNL     1     -16.416  -7.532   4.055  1.00  0.00    -0.337 N 
ATOM     16  H4  UNL     1     -16.265  -8.460   3.660  1.00  0.00     0.164 HD
HETATM   17  C18 UNL     1     -15.533  -6.419   3.963  1.00  0.00     0.318 C 
HETATM   18  O1  UNL     1     -14.417  -6.357   3.389  1.00  0.00    -0.247 OA
ENDROOT
BRANCH   5  19
HETATM   19  C3  UNL     1     -15.581  -1.697   1.780  1.00  0.00     0.102 C 
HETATM   20  C4  UNL     1     -15.820  -0.248   1.442  1.00  0.00     0.027 C 
HETATM   21  C5  UNL     1     -14.663   0.161   0.529  1.00  0.00     0.002 C 
HETATM   22  C6  UNL     1     -14.889  -0.106  -0.907  1.00  0.00     0.000 C 
HETATM   23  C7  UNL     1     -16.192  -0.729  -1.267  1.00  0.00     0.000 C 
HETATM   24  C8  UNL     1     -16.456  -2.030  -0.561  1.00  0.00     0.002 C 
HETATM   25  C9  UNL     1     -15.414  -2.400   0.448  1.00  0.00     0.027 C 
ENDBRANCH   5  19
TORSDOF 1
ENDMDL
