MODEL 1
REMARK VINA RESULT: -5.656059247      0.000      0.000
REMARK  4 active torsions:
REMARK  status: ('A' for Active; 'I' for Inactive)
REMARK    1  A    between atoms: C2_2  and  O2_4 
REMARK    2  A    between atoms: O2_4  and  C3_5 
REMARK    3  A    between atoms: C3_5  and  C4_6 
REMARK    4  A    between atoms: C4_6  and  O3_7 
ROOT
HETATM    1  C4  UNL     1     -26.849   6.751   3.786  1.00  0.00     0.115 C 
HETATM    2  C5  UNL     1     -27.817   7.288   2.785  1.00  0.00     0.100 C 
HETATM    3  N1  UNL     1     -28.414   6.356   1.923  1.00  0.00    -0.372 N 
ATOM      4  H1  UNL     1     -28.422   6.680   0.956  1.00  0.00     0.164 HD
HETATM    5  C6  UNL     1     -28.940   5.226   2.044  1.00  0.00    -0.005 C 
HETATM    6  C7  UNL     1     -29.439   4.657   0.732  1.00  0.00     0.053 C 
HETATM    7  C8  UNL     1     -28.821   3.337   0.400  1.00  0.00     0.010 C 
HETATM    8  C9  UNL     1     -28.258   2.726   1.638  1.00  0.00    -0.014 C 
HETATM    9  C10 UNL     1     -28.142   1.236   1.443  1.00  0.00     0.010 C 
HETATM   10  C11 UNL     1     -29.125   2.959   2.853  1.00  0.00    -0.001 C 
HETATM   11  C12 UNL     1     -30.483   2.400   2.608  1.00  0.00     0.011 C 
HETATM   12  C13 UNL     1     -29.120   4.423   3.275  1.00  0.00     0.003 C 
HETATM   13  C14 UNL     1     -30.451   4.794   3.855  1.00  0.00     0.022 C 
HETATM   14  C15 UNL     1     -27.978   4.557   4.229  1.00  0.00     0.011 C 
HETATM   15  C16 UNL     1     -28.266   4.265   5.698  1.00  0.00    -0.013 C 
HETATM   16  C17 UNL     1     -27.850   2.906   6.168  1.00  0.00     0.010 C 
HETATM   17  C18 UNL     1     -27.172   5.339   5.936  1.00  0.00     0.013 C 
HETATM   18  C19 UNL     1     -27.733   5.940   4.709  1.00  0.00     0.033 C 
ENDROOT
BRANCH   1  19
HETATM   19  C3  UNL     1     -25.651   6.036   3.339  1.00  0.00     0.222 C 
BRANCH  19  20
HETATM   20  O2  UNL     1     -25.699   5.115   2.334  1.00  0.00    -0.318 OA
BRANCH  20  21
HETATM   21  C2  UNL     1     -25.266   3.886   2.079  1.00  0.00     0.254 C 
HETATM   22  C1  UNL     1     -24.861   2.896   3.162  1.00  0.00     0.126 C 
HETATM   23  O1  UNL     1     -25.178   3.499   0.897  1.00  0.00    -0.266 OA
ENDBRANCH  20  21
ENDBRANCH  19  20
ENDBRANCH   1  19
BRANCH   1  24
HETATM   24  O3  UNL     1     -26.412   7.830   4.603  1.00  0.00    -0.382 OA
ATOM     25  H3  UNL     1     -27.029   7.905   5.322  1.00  0.00     0.211 HD
ENDBRANCH   1  24
TORSDOF 4
ENDMDL
MODEL 2
REMARK VINA RESULT: -5.622284048      2.406      3.599
REMARK  4 active torsions:
REMARK  status: ('A' for Active; 'I' for Inactive)
REMARK    1  A    between atoms: C2_2  and  O2_4 
REMARK    2  A    between atoms: O2_4  and  C3_5 
REMARK    3  A    between atoms: C3_5  and  C4_6 
REMARK    4  A    between atoms: C4_6  and  O3_7 
ROOT
HETATM    1  C4  UNL     1     -29.598   4.538   4.615  1.00  0.00     0.115 C 
HETATM    2  C5  UNL     1     -30.775   3.671   4.317  1.00  0.00     0.100 C 
HETATM    3  N1  UNL     1     -30.655   2.798   3.226  1.00  0.00    -0.372 N 
ATOM      4  H1  UNL     1     -31.488   2.805   2.637  1.00  0.00     0.164 HD
HETATM    5  C6  UNL     1     -29.781   2.013   2.793  1.00  0.00    -0.005 C 
HETATM    6  C7  UNL     1     -30.200   1.295   1.526  1.00  0.00     0.053 C 
HETATM    7  C8  UNL     1     -29.259   1.532   0.389  1.00  0.00     0.010 C 
HETATM    8  C9  UNL     1     -27.949   2.007   0.917  1.00  0.00    -0.014 C 
HETATM    9  C10 UNL     1     -26.876   1.728  -0.104  1.00  0.00     0.010 C 
HETATM   10  C11 UNL     1     -27.548   1.315   2.198  1.00  0.00    -0.001 C 
HETATM   11  C12 UNL     1     -27.477  -0.154   1.967  1.00  0.00     0.011 C 
HETATM   12  C13 UNL     1     -28.446   1.721   3.361  1.00  0.00     0.003 C 
HETATM   13  C14 UNL     1     -28.608   0.572   4.309  1.00  0.00     0.022 C 
HETATM   14  C15 UNL     1     -27.795   2.924   3.963  1.00  0.00     0.011 C 
HETATM   15  C16 UNL     1     -26.735   2.674   5.032  1.00  0.00    -0.013 C 
HETATM   16  C17 UNL     1     -25.319   2.764   4.555  1.00  0.00     0.010 C 
HETATM   17  C18 UNL     1     -27.258   4.019   5.602  1.00  0.00     0.013 C 
HETATM   18  C19 UNL     1     -28.554   3.544   5.077  1.00  0.00     0.033 C 
ENDROOT
BRANCH   1  19
HETATM   19  C3  UNL     1     -29.107   5.481   3.606  1.00  0.00     0.222 C 
BRANCH  19  20
HETATM   20  O2  UNL     1     -29.649   5.540   2.356  1.00  0.00    -0.318 OA
BRANCH  20  21
HETATM   21  C2  UNL     1     -29.303   5.915   1.130  1.00  0.00     0.254 C 
HETATM   22  C1  UNL     1     -29.607   5.098  -0.117  1.00  0.00     0.126 C 
HETATM   23  O1  UNL     1     -28.696   6.993   0.968  1.00  0.00    -0.266 OA
ENDBRANCH  20  21
ENDBRANCH  19  20
ENDBRANCH   1  19
BRANCH   1  24
HETATM   24  O3  UNL     1     -29.886   5.290   5.786  1.00  0.00    -0.382 OA
ATOM     25  H3  UNL     1     -30.615   4.862   6.222  1.00  0.00     0.211 HD
ENDBRANCH   1  24
TORSDOF 4
ENDMDL
MODEL 3
REMARK VINA RESULT: -5.608753044     10.310     12.950
REMARK  4 active torsions:
REMARK  status: ('A' for Active; 'I' for Inactive)
REMARK    1  A    between atoms: C2_2  and  O2_4 
REMARK    2  A    between atoms: O2_4  and  C3_5 
REMARK    3  A    between atoms: C3_5  and  C4_6 
REMARK    4  A    between atoms: C4_6  and  O3_7 
ROOT
HETATM    1  C4  UNL     1     -21.946  -0.356  -8.587  1.00  0.00     0.115 C 
HETATM    2  C5  UNL     1     -20.720   0.382  -8.164  1.00  0.00     0.100 C 
HETATM    3  N1  UNL     1     -20.771   1.030  -6.921  1.00  0.00    -0.372 N 
ATOM      4  H1  UNL     1     -20.386   1.973  -6.966  1.00  0.00     0.164 HD
HETATM    5  C6  UNL     1     -21.172   0.740  -5.771  1.00  0.00    -0.005 C 
HETATM    6  C7  UNL     1     -20.975   1.861  -4.771  1.00  0.00     0.053 C 
HETATM    7  C8  UNL     1     -22.253   2.294  -4.127  1.00  0.00     0.010 C 
HETATM    8  C9  UNL     1     -23.276   1.221  -4.281  1.00  0.00    -0.014 C 
HETATM    9  C10 UNL     1     -24.329   1.389  -3.216  1.00  0.00     0.010 C 
HETATM   10  C11 UNL     1     -22.698  -0.166  -4.134  1.00  0.00    -0.001 C 
HETATM   11  C12 UNL     1     -22.053  -0.295  -2.798  1.00  0.00     0.011 C 
HETATM   12  C13 UNL     1     -21.787  -0.522  -5.303  1.00  0.00     0.003 C 
HETATM   13  C14 UNL     1     -20.675  -1.411  -4.835  1.00  0.00     0.022 C 
HETATM   14  C15 UNL     1     -22.680  -1.147  -6.325  1.00  0.00     0.011 C 
HETATM   15  C16 UNL     1     -22.915  -2.651  -6.212  1.00  0.00    -0.013 C 
HETATM   16  C17 UNL     1     -24.207  -3.045  -5.567  1.00  0.00     0.010 C 
HETATM   17  C18 UNL     1     -23.022  -2.564  -7.757  1.00  0.00     0.013 C 
HETATM   18  C19 UNL     1     -22.007  -1.502  -7.600  1.00  0.00     0.033 C 
ENDROOT
BRANCH   1  19
HETATM   19  C3  UNL     1     -23.216   0.358  -8.741  1.00  0.00     0.222 C 
BRANCH  19  20
HETATM   20  O2  UNL     1     -23.342   1.423  -9.582  1.00  0.00    -0.318 OA
BRANCH  20  21
HETATM   21  C2  UNL     1     -22.634   2.057 -10.510  1.00  0.00     0.254 C 
HETATM   22  C1  UNL     1     -21.851   3.335 -10.243  1.00  0.00     0.126 C 
HETATM   23  O1  UNL     1     -22.592   1.599 -11.669  1.00  0.00    -0.266 OA
ENDBRANCH  20  21
ENDBRANCH  19  20
ENDBRANCH   1  19
BRANCH   1  24
HETATM   24  O3  UNL     1     -21.672  -0.997  -9.826  1.00  0.00    -0.382 OA
ATOM     25  H3  UNL     1     -20.755  -1.244  -9.817  1.00  0.00     0.211 HD
ENDBRANCH   1  24
TORSDOF 4
ENDMDL
MODEL 4
REMARK VINA RESULT: -5.550537053     10.857     13.350
REMARK  4 active torsions:
REMARK  status: ('A' for Active; 'I' for Inactive)
REMARK    1  A    between atoms: C2_2  and  O2_4 
REMARK    2  A    between atoms: O2_4  and  C3_5 
REMARK    3  A    between atoms: C3_5  and  C4_6 
REMARK    4  A    between atoms: C4_6  and  O3_7 
ROOT
HETATM    1  C4  UNL     1     -21.634   0.291  -8.597  1.00  0.00     0.115 C 
HETATM    2  C5  UNL     1     -22.854  -0.454  -8.165  1.00  0.00     0.100 C 
HETATM    3  N1  UNL     1     -22.799  -1.080  -6.912  1.00  0.00    -0.372 N 
ATOM      4  H1  UNL     1     -23.174  -2.028  -6.942  1.00  0.00     0.164 HD
HETATM    5  C6  UNL     1     -22.405  -0.767  -5.765  1.00  0.00    -0.005 C 
HETATM    6  C7  UNL     1     -22.594  -1.873  -4.747  1.00  0.00     0.053 C 
HETATM    7  C8  UNL     1     -21.314  -2.281  -4.092  1.00  0.00     0.010 C 
HETATM    8  C9  UNL     1     -20.301  -1.200  -4.261  1.00  0.00    -0.014 C 
HETATM    9  C10 UNL     1     -19.250  -1.339  -3.190  1.00  0.00     0.010 C 
HETATM   10  C11 UNL     1     -20.895   0.183  -4.139  1.00  0.00    -0.001 C 
HETATM   11  C12 UNL     1     -21.545   0.328  -2.807  1.00  0.00     0.011 C 
HETATM   12  C13 UNL     1     -21.805   0.510  -5.317  1.00  0.00     0.003 C 
HETATM   13  C14 UNL     1     -22.929   1.394  -4.867  1.00  0.00     0.022 C 
HETATM   14  C15 UNL     1     -20.916   1.128  -6.346  1.00  0.00     0.011 C 
HETATM   15  C16 UNL     1     -20.698   2.635  -6.258  1.00  0.00    -0.013 C 
HETATM   16  C17 UNL     1     -19.412   3.054  -5.615  1.00  0.00     0.010 C 
HETATM   17  C18 UNL     1     -20.584   2.523  -7.801  1.00  0.00     0.013 C 
HETATM   18  C19 UNL     1     -21.588   1.453  -7.629  1.00  0.00     0.033 C 
ENDROOT
BRANCH   1  19
HETATM   19  C3  UNL     1     -20.356  -0.412  -8.735  1.00  0.00     0.222 C 
BRANCH  19  20
HETATM   20  O2  UNL     1     -20.139  -1.315  -9.733  1.00  0.00    -0.318 OA
BRANCH  20  21
HETATM   21  C2  UNL     1     -20.839  -2.063 -10.578  1.00  0.00     0.254 C 
HETATM   22  C1  UNL     1     -21.749  -3.201 -10.138  1.00  0.00     0.126 C 
HETATM   23  O1  UNL     1     -20.764  -1.838 -11.803  1.00  0.00    -0.266 OA
ENDBRANCH  20  21
ENDBRANCH  19  20
ENDBRANCH   1  19
BRANCH   1  24
HETATM   24  O3  UNL     1     -21.911   0.907  -9.847  1.00  0.00    -0.382 OA
ATOM     25  H3  UNL     1     -22.360   1.725  -9.664  1.00  0.00     0.211 HD
ENDBRANCH   1  24
TORSDOF 4
ENDMDL
MODEL 5
REMARK VINA RESULT: -5.504138608      2.682      5.193
REMARK  4 active torsions:
REMARK  status: ('A' for Active; 'I' for Inactive)
REMARK    1  A    between atoms: C2_2  and  O2_4 
REMARK    2  A    between atoms: O2_4  and  C3_5 
REMARK    3  A    between atoms: C3_5  and  C4_6 
REMARK    4  A    between atoms: C4_6  and  O3_7 
ROOT
HETATM    1  C4  UNL     1     -26.703   1.736   0.783  1.00  0.00     0.115 C 
HETATM    2  C5  UNL     1     -26.306   1.044   2.045  1.00  0.00     0.100 C 
HETATM    3  N1  UNL     1     -25.861   1.857   3.097  1.00  0.00    -0.372 N 
ATOM      4  H1  UNL     1     -25.022   1.484   3.540  1.00  0.00     0.164 HD
HETATM    5  C6  UNL     1     -26.236   2.927   3.628  1.00  0.00    -0.005 C 
HETATM    6  C7  UNL     1     -25.348   3.367   4.774  1.00  0.00     0.053 C 
HETATM    7  C8  UNL     1     -24.766   4.729   4.566  1.00  0.00     0.010 C 
HETATM    8  C9  UNL     1     -25.569   5.462   3.546  1.00  0.00    -0.014 C 
HETATM    9  C10 UNL     1     -25.355   6.943   3.723  1.00  0.00     0.010 C 
HETATM   10  C11 UNL     1     -27.051   5.199   3.667  1.00  0.00    -0.001 C 
HETATM   11  C12 UNL     1     -27.515   5.591   5.026  1.00  0.00     0.011 C 
HETATM   12  C13 UNL     1     -27.403   3.769   3.276  1.00  0.00     0.003 C 
HETATM   13  C14 UNL     1     -28.562   3.284   4.093  1.00  0.00     0.022 C 
HETATM   14  C15 UNL     1     -27.665   3.812   1.806  1.00  0.00     0.011 C 
HETATM   15  C16 UNL     1     -29.088   4.148   1.367  1.00  0.00    -0.013 C 
HETATM   16  C17 UNL     1     -29.302   5.567   0.943  1.00  0.00     0.010 C 
HETATM   17  C18 UNL     1     -28.743   3.216   0.176  1.00  0.00     0.013 C 
HETATM   18  C19 UNL     1     -27.949   2.492   1.190  1.00  0.00     0.033 C 
ENDROOT
BRANCH   1  19
HETATM   19  C3  UNL     1     -25.728   2.555   0.058  1.00  0.00     0.222 C 
BRANCH  19  20
HETATM   20  O2  UNL     1     -24.803   1.999  -0.775  1.00  0.00    -0.318 OA
BRANCH  20  21
HETATM   21  C2  UNL     1     -24.641   1.751  -2.070  1.00  0.00     0.254 C 
HETATM   22  C1  UNL     1     -23.385   2.121  -2.846  1.00  0.00     0.126 C 
HETATM   23  O1  UNL     1     -25.553   1.184  -2.705  1.00  0.00    -0.266 OA
ENDBRANCH  20  21
ENDBRANCH  19  20
ENDBRANCH   1  19
BRANCH   1  24
HETATM   24  O3  UNL     1     -27.187   0.757  -0.127  1.00  0.00    -0.382 OA
ATOM     25  H3  UNL     1     -28.092   0.974  -0.316  1.00  0.00     0.211 HD
ENDBRANCH   1  24
TORSDOF 4
ENDMDL
