MODEL 1
REMARK VINA RESULT: -6.109041958      0.000      0.000
REMARK  5 active torsions:
REMARK  status: ('A' for Active; 'I' for Inactive)
REMARK    1  A    between atoms: C2_2  and  O1_3 
REMARK    2  A    between atoms: O1_3  and  C3_4 
REMARK    3  A    between atoms: C3_4  and  C4_6 
REMARK    4  A    between atoms: C6_8  and  O3_9 
REMARK    5  A    between atoms: C10_14  and  C11_15 
ROOT
HETATM    1  C4  UNL     1      10.773 -12.191  -5.108  1.00  0.00     0.093 C 
HETATM    2  C5  UNL     1      11.134 -13.490  -4.390  1.00  0.00     0.047 C 
HETATM    3  C6  UNL     1      12.351 -14.038  -5.148  1.00  0.00     0.125 C 
HETATM    4  C7  UNL     1      12.677 -13.105  -6.229  1.00  0.00     0.053 C 
HETATM    5  C8  UNL     1      11.520 -12.096  -6.331  1.00  0.00     0.013 C 
HETATM    6  C9  UNL     1      10.938 -12.434  -7.669  1.00  0.00     0.003 C 
HETATM    7  C10 UNL     1      10.212 -13.719  -7.764  1.00  0.00     0.018 C 
HETATM    8  C13 UNL     1      11.000 -14.867  -8.331  1.00  0.00     0.278 C 
HETATM    9  N1  UNL     1      12.405 -14.806  -8.039  1.00  0.00     0.094 N 
HETATM   10  C14 UNL     1      13.074 -15.102  -9.320  1.00  0.00     0.273 C 
HETATM   11  C15 UNL     1      13.071 -13.965 -10.261  1.00  0.00     0.031 C 
HETATM   12  C16 UNL     1      12.227 -12.775  -9.856  1.00  0.00     0.009 C 
HETATM   13  C17 UNL     1      12.275 -12.477  -8.430  1.00  0.00     0.024 C 
HETATM   14  C18 UNL     1      12.921 -13.590  -7.586  1.00  0.00     0.234 C 
ENDROOT
BRANCH   1  15
HETATM   15  C3  UNL     1       9.329 -11.952  -5.114  1.00  0.00     0.263 C 
HETATM   16  O2  UNL     1       8.576 -12.892  -4.749  1.00  0.00    -0.265 OA
BRANCH  15  17
HETATM   17  O1  UNL     1       8.773 -10.770  -5.492  1.00  0.00    -0.322 OA
BRANCH  17  18
HETATM   18  C2  UNL     1       9.318  -9.539  -4.992  1.00  0.00     0.174 C 
HETATM   19  C1  UNL     1       9.322  -8.520  -6.096  1.00  0.00     0.034 C 
ENDBRANCH  17  18
ENDBRANCH  15  17
ENDBRANCH   1  15
BRANCH   3  20
HETATM   20  O3  UNL     1      12.173 -15.364  -5.506  1.00  0.00    -0.395 OA
ATOM     21  H3  UNL     1      12.994 -15.843  -5.490  1.00  0.00     0.210 HD
ENDBRANCH   3  20
BRANCH   7  22
HETATM   22  C11 UNL     1       8.882 -13.606  -8.525  1.00  0.00     0.002 C 
HETATM   23  C12 UNL     1       8.966 -14.516  -9.735  1.00  0.00     0.005 C 
ENDBRANCH   7  22
TORSDOF 5
ENDMDL
MODEL 2
REMARK VINA RESULT: -5.996116182      1.902      3.231
REMARK  5 active torsions:
REMARK  status: ('A' for Active; 'I' for Inactive)
REMARK    1  A    between atoms: C2_2  and  O1_3 
REMARK    2  A    between atoms: O1_3  and  C3_4 
REMARK    3  A    between atoms: C3_4  and  C4_6 
REMARK    4  A    between atoms: C6_8  and  O3_9 
REMARK    5  A    between atoms: C10_14  and  C11_15 
ROOT
HETATM    1  C4  UNL     1       9.704 -11.632  -5.225  1.00  0.00     0.093 C 
HETATM    2  C5  UNL     1       8.595 -12.209  -6.101  1.00  0.00     0.047 C 
HETATM    3  C6  UNL     1       8.761 -13.732  -6.001  1.00  0.00     0.125 C 
HETATM    4  C7  UNL     1       9.890 -14.012  -5.111  1.00  0.00     0.053 C 
HETATM    5  C8  UNL     1      10.611 -12.679  -4.848  1.00  0.00     0.013 C 
HETATM    6  C9  UNL     1      11.926 -12.904  -5.529  1.00  0.00     0.003 C 
HETATM    7  C10 UNL     1      11.903 -12.934  -7.007  1.00  0.00     0.018 C 
HETATM    8  C13 UNL     1      11.871 -14.304  -7.626  1.00  0.00     0.278 C 
HETATM    9  N1  UNL     1      11.180 -15.282  -6.833  1.00  0.00     0.094 N 
HETATM   10  C14 UNL     1      12.061 -16.464  -6.835  1.00  0.00     0.273 C 
HETATM   11  C15 UNL     1      13.220 -16.335  -5.929  1.00  0.00     0.031 C 
HETATM   12  C16 UNL     1      13.427 -14.967  -5.314  1.00  0.00     0.009 C 
HETATM   13  C17 UNL     1      12.189 -14.299  -4.934  1.00  0.00     0.024 C 
HETATM   14  C18 UNL     1      10.924 -14.971  -5.497  1.00  0.00     0.234 C 
ENDROOT
BRANCH   1  15
HETATM   15  C3  UNL     1      10.225 -10.372  -5.761  1.00  0.00     0.263 C 
HETATM   16  O2  UNL     1       9.886 -10.046  -6.928  1.00  0.00    -0.265 OA
BRANCH  15  17
HETATM   17  O1  UNL     1      11.051  -9.551  -5.058  1.00  0.00    -0.322 OA
BRANCH  17  18
HETATM   18  C2  UNL     1      10.502  -8.422  -4.362  1.00  0.00     0.174 C 
HETATM   19  C1  UNL     1      10.595  -7.209  -5.243  1.00  0.00     0.034 C 
ENDBRANCH  17  18
ENDBRANCH  15  17
ENDBRANCH   1  15
BRANCH   3  20
HETATM   20  O3  UNL     1       8.795 -14.325  -7.252  1.00  0.00    -0.395 OA
ATOM     21  H3  UNL     1       7.986 -14.785  -7.442  1.00  0.00     0.210 HD
ENDBRANCH   3  20
BRANCH   7  22
HETATM   22  C11 UNL     1      13.044 -12.126  -7.645  1.00  0.00     0.002 C 
HETATM   23  C12 UNL     1      13.059 -12.446  -9.128  1.00  0.00     0.005 C 
ENDBRANCH   7  22
TORSDOF 5
ENDMDL
MODEL 3
REMARK VINA RESULT: -5.792358203      1.322      1.677
REMARK  5 active torsions:
REMARK  status: ('A' for Active; 'I' for Inactive)
REMARK    1  A    between atoms: C2_2  and  O1_3 
REMARK    2  A    between atoms: O1_3  and  C3_4 
REMARK    3  A    between atoms: C3_4  and  C4_6 
REMARK    4  A    between atoms: C6_8  and  O3_9 
REMARK    5  A    between atoms: C10_14  and  C11_15 
ROOT
HETATM    1  C4  UNL     1      10.320 -11.937  -5.275  1.00  0.00     0.093 C 
HETATM    2  C5  UNL     1       9.705 -12.960  -4.323  1.00  0.00     0.047 C 
HETATM    3  C6  UNL     1      10.732 -14.098  -4.245  1.00  0.00     0.125 C 
HETATM    4  C7  UNL     1      11.874 -13.745  -5.091  1.00  0.00     0.053 C 
HETATM    5  C8  UNL     1      11.471 -12.509  -5.915  1.00  0.00     0.013 C 
HETATM    6  C9  UNL     1      11.438 -13.067  -7.304  1.00  0.00     0.003 C 
HETATM    7  C10 UNL     1      10.329 -13.995  -7.613  1.00  0.00     0.018 C 
HETATM    8  C13 UNL     1      10.667 -15.459  -7.529  1.00  0.00     0.278 C 
HETATM    9  N1  UNL     1      11.668 -15.766  -6.545  1.00  0.00     0.094 N 
HETATM   10  C14 UNL     1      12.605 -16.678  -7.227  1.00  0.00     0.273 C 
HETATM   11  C15 UNL     1      13.522 -15.990  -8.156  1.00  0.00     0.031 C 
HETATM   12  C16 UNL     1      13.229 -14.526  -8.411  1.00  0.00     0.009 C 
HETATM   13  C17 UNL     1      12.790 -13.799  -7.226  1.00  0.00     0.024 C 
HETATM   14  C18 UNL     1      12.427 -14.710  -6.039  1.00  0.00     0.234 C 
ENDROOT
BRANCH   1  15
HETATM   15  C3  UNL     1       9.303 -11.255  -6.076  1.00  0.00     0.263 C 
HETATM   16  O2  UNL     1       8.163 -11.783  -6.152  1.00  0.00    -0.265 OA
BRANCH  15  17
HETATM   17  O1  UNL     1       9.535 -10.087  -6.735  1.00  0.00    -0.322 OA
BRANCH  17  18
HETATM   18  C2  UNL     1       8.964  -8.868  -6.237  1.00  0.00     0.174 C 
HETATM   19  C1  UNL     1      10.028  -8.082  -5.527  1.00  0.00     0.034 C 
ENDBRANCH  17  18
ENDBRANCH  15  17
ENDBRANCH   1  15
BRANCH   3  20
HETATM   20  O3  UNL     1      10.146 -15.332  -4.477  1.00  0.00    -0.395 OA
ATOM     21  H3  UNL     1      10.204 -15.579  -5.392  1.00  0.00     0.210 HD
ENDBRANCH   3  20
BRANCH   7  22
HETATM   22  C11 UNL     1       9.668 -13.716  -8.972  1.00  0.00     0.002 C 
HETATM   23  C12 UNL     1       8.198 -14.069  -8.848  1.00  0.00     0.005 C 
ENDBRANCH   7  22
TORSDOF 5
ENDMDL
MODEL 4
REMARK VINA RESULT: -5.786445453      0.904      1.060
REMARK  5 active torsions:
REMARK  status: ('A' for Active; 'I' for Inactive)
REMARK    1  A    between atoms: C2_2  and  O1_3 
REMARK    2  A    between atoms: O1_3  and  C3_4 
REMARK    3  A    between atoms: C3_4  and  C4_6 
REMARK    4  A    between atoms: C6_8  and  O3_9 
REMARK    5  A    between atoms: C10_14  and  C11_15 
ROOT
HETATM    1  C4  UNL     1      11.242 -11.482  -5.865  1.00  0.00     0.093 C 
HETATM    2  C5  UNL     1      11.429 -12.471  -4.717  1.00  0.00     0.047 C 
HETATM    3  C6  UNL     1      12.412 -13.521  -5.254  1.00  0.00     0.125 C 
HETATM    4  C7  UNL     1      12.777 -13.150  -6.622  1.00  0.00     0.053 C 
HETATM    5  C8  UNL     1      11.835 -12.015  -7.060  1.00  0.00     0.013 C 
HETATM    6  C9  UNL     1      11.038 -12.679  -8.139  1.00  0.00     0.003 C 
HETATM    7  C10 UNL     1      10.070 -13.708  -7.702  1.00  0.00     0.018 C 
HETATM    8  C13 UNL     1      10.543 -15.131  -7.813  1.00  0.00     0.278 C 
HETATM    9  N1  UNL     1      11.958 -15.287  -7.625  1.00  0.00     0.094 N 
HETATM   10  C14 UNL     1      12.392 -16.177  -8.718  1.00  0.00     0.273 C 
HETATM   11  C15 UNL     1      12.494 -15.497 -10.024  1.00  0.00     0.031 C 
HETATM   12  C16 UNL     1      11.955 -14.082 -10.075  1.00  0.00     0.009 C 
HETATM   13  C17 UNL     1      12.236 -13.301  -8.878  1.00  0.00     0.024 C 
HETATM   14  C18 UNL     1      12.753 -14.142  -7.696  1.00  0.00     0.234 C 
ENDROOT
BRANCH   1  15
HETATM   15  C3  UNL     1       9.882 -10.940  -5.905  1.00  0.00     0.263 C 
HETATM   16  O2  UNL     1       9.029 -11.438  -5.125  1.00  0.00    -0.265 OA
BRANCH  15  17
HETATM   17  O1  UNL     1       9.508  -9.933  -6.739  1.00  0.00    -0.322 OA
BRANCH  17  18
HETATM   18  C2  UNL     1       8.944  -8.731  -6.189  1.00  0.00     0.174 C 
HETATM   19  C1  UNL     1      10.054  -7.771  -5.870  1.00  0.00     0.034 C 
ENDBRANCH  17  18
ENDBRANCH  15  17
ENDBRANCH   1  15
BRANCH   3  20
HETATM   20  O3  UNL     1      11.937 -14.808  -5.065  1.00  0.00    -0.395 OA
ATOM     21  H3  UNL     1      12.529 -15.455  -5.429  1.00  0.00     0.210 HD
ENDBRANCH   3  20
BRANCH   7  22
HETATM   22  C11 UNL     1       8.703 -13.583  -8.394  1.00  0.00     0.002 C 
HETATM   23  C12 UNL     1       8.463 -14.863  -9.170  1.00  0.00     0.005 C 
ENDBRANCH   7  22
TORSDOF 5
ENDMDL
MODEL 5
REMARK VINA RESULT: -5.500590514      1.524      1.902
REMARK  5 active torsions:
REMARK  status: ('A' for Active; 'I' for Inactive)
REMARK    1  A    between atoms: C2_2  and  O1_3 
REMARK    2  A    between atoms: O1_3  and  C3_4 
REMARK    3  A    between atoms: C3_4  and  C4_6 
REMARK    4  A    between atoms: C6_8  and  O3_9 
REMARK    5  A    between atoms: C10_14  and  C11_15 
ROOT
HETATM    1  C4  UNL     1      10.744 -12.234  -5.490  1.00  0.00     0.093 C 
HETATM    2  C5  UNL     1      10.376 -13.150  -4.325  1.00  0.00     0.047 C 
HETATM    3  C6  UNL     1      11.003 -14.507  -4.674  1.00  0.00     0.125 C 
HETATM    4  C7  UNL     1      11.699 -14.376  -5.955  1.00  0.00     0.053 C 
HETATM    5  C8  UNL     1      11.303 -13.016  -6.557  1.00  0.00     0.013 C 
HETATM    6  C9  UNL     1      10.516 -13.432  -7.761  1.00  0.00     0.003 C 
HETATM    7  C10 UNL     1       9.190 -14.033  -7.503  1.00  0.00     0.018 C 
HETATM    8  C13 UNL     1       9.144 -15.536  -7.524  1.00  0.00     0.278 C 
HETATM    9  N1  UNL     1      10.361 -16.158  -7.084  1.00  0.00     0.094 N 
HETATM   10  C14 UNL     1      10.631 -17.212  -8.080  1.00  0.00     0.273 C 
HETATM   11  C15 UNL     1      11.183 -16.696  -9.347  1.00  0.00     0.031 C 
HETATM   12  C16 UNL     1      11.192 -15.189  -9.498  1.00  0.00     0.009 C 
HETATM   13  C17 UNL     1      11.525 -14.477  -8.271  1.00  0.00     0.024 C 
HETATM   14  C18 UNL     1      11.508 -15.365  -7.014  1.00  0.00     0.234 C 
ENDROOT
BRANCH   1  15
HETATM   15  C3  UNL     1       9.688 -11.260  -5.774  1.00  0.00     0.263 C 
HETATM   16  O2  UNL     1       8.556 -11.455  -5.261  1.00  0.00    -0.265 OA
BRANCH  15  17
HETATM   17  O1  UNL     1       9.879 -10.166  -6.560  1.00  0.00    -0.322 OA
BRANCH  17  18
HETATM   18  C2  UNL     1       9.248  -8.924  -6.210  1.00  0.00     0.174 C 
HETATM   19  C1  UNL     1      10.039  -8.264  -5.117  1.00  0.00     0.034 C 
ENDBRANCH  17  18
ENDBRANCH  15  17
ENDBRANCH   1  15
BRANCH   3  20
HETATM   20  O3  UNL     1      10.082 -15.536  -4.570  1.00  0.00    -0.395 OA
ATOM     21  H3  UNL     1      10.509 -16.380  -4.487  1.00  0.00     0.210 HD
ENDBRANCH   3  20
BRANCH   7  22
HETATM   22  C11 UNL     1       8.090 -13.489  -8.429  1.00  0.00     0.002 C 
HETATM   23  C12 UNL     1       7.445 -14.674  -9.121  1.00  0.00     0.005 C 
ENDBRANCH   7  22
TORSDOF 5
ENDMDL
