MODEL 1
REMARK VINA RESULT: -6.608809863      0.000      0.000
REMARK  4 active torsions:
REMARK  status: ('A' for Active; 'I' for Inactive)
REMARK    1  A    between atoms: C1_2  and  C2_4 
REMARK    2  A    between atoms: C2_4  and  O2_5 
REMARK    3  A    between atoms: O2_5  and  C3_6 
REMARK    4  A    between atoms: C3_6  and  C4_8 
ROOT
HETATM    1  C4  UNL     1      10.539 -12.625  -6.219  1.00  0.00     0.057 C 
HETATM    2  C5  UNL     1      10.681 -13.251  -4.825  1.00  0.00     0.025 C 
HETATM    3  C6  UNL     1      11.766 -14.273  -4.826  1.00  0.00    -0.013 C 
HETATM    4  C7  UNL     1      13.101 -13.743  -5.254  1.00  0.00     0.009 C 
HETATM    5  C8  UNL     1      12.966 -13.133  -6.643  1.00  0.00    -0.013 C 
HETATM    6  C9  UNL     1      12.557 -14.226  -7.609  1.00  0.00     0.010 C 
HETATM    7  C10 UNL     1      11.217 -14.754  -7.174  1.00  0.00    -0.004 C 
HETATM    8  C11 UNL     1      11.377 -15.366  -5.814  1.00  0.00     0.010 C 
HETATM    9  C12 UNL     1      10.133 -13.709  -7.180  1.00  0.00    -0.016 C 
HETATM   10  C13 UNL     1      10.004 -13.120  -8.570  1.00  0.00     0.037 C 
HETATM   11  C14 UNL     1       9.514 -14.159  -9.554  1.00  0.00     0.168 C 
HETATM   12  O4  UNL     1       8.322 -14.713  -9.161  1.00  0.00    -0.391 OA
HETATM   13  C15 UNL     1       7.816 -14.212  -7.984  1.00  0.00     0.168 C 
HETATM   14  C16 UNL     1       8.839 -14.377  -6.852  1.00  0.00     0.037 C 
HETATM   15  C17 UNL     1      11.889 -12.107  -6.589  1.00  0.00     0.025 C 
ENDROOT
BRANCH   1  16
HETATM   16  C3  UNL     1       9.588 -11.494  -6.170  1.00  0.00     0.268 C 
HETATM   17  O3  UNL     1       8.479 -11.633  -5.599  1.00  0.00    -0.264 OA
BRANCH  16  18
HETATM   18  O2  UNL     1       9.836 -10.248  -6.724  1.00  0.00    -0.312 OA
BRANCH  18  19
HETATM   19  C2  UNL     1       9.042  -9.105  -6.370  1.00  0.00     0.278 C 
BRANCH  19  20
HETATM   20  C1  UNL     1       9.716  -8.278  -5.368  1.00  0.00     0.255 C 
HETATM   21  N1  UNL     1      10.255  -7.022  -5.723  1.00  0.00    -0.060 NA
HETATM   22  O1  UNL     1       9.815  -8.688  -4.192  1.00  0.00    -0.274 OA
ENDBRANCH  19  20
ENDBRANCH  18  19
ENDBRANCH  16  18
ENDBRANCH   1  16
TORSDOF 4
ENDMDL
MODEL 2
REMARK VINA RESULT: -6.548267563      1.617      2.914
REMARK  4 active torsions:
REMARK  status: ('A' for Active; 'I' for Inactive)
REMARK    1  A    between atoms: C1_2  and  C2_4 
REMARK    2  A    between atoms: C2_4  and  O2_5 
REMARK    3  A    between atoms: O2_5  and  C3_6 
REMARK    4  A    between atoms: C3_6  and  C4_8 
ROOT
HETATM    1  C4  UNL     1      10.289 -12.667  -6.593  1.00  0.00     0.057 C 
HETATM    2  C5  UNL     1      11.411 -11.621  -6.632  1.00  0.00     0.025 C 
HETATM    3  C6  UNL     1      12.601 -12.166  -7.343  1.00  0.00    -0.013 C 
HETATM    4  C7  UNL     1      12.318 -12.621  -8.743  1.00  0.00     0.009 C 
HETATM    5  C8  UNL     1      11.214 -13.669  -8.706  1.00  0.00    -0.013 C 
HETATM    6  C9  UNL     1      11.710 -14.860  -7.912  1.00  0.00     0.010 C 
HETATM    7  C10 UNL     1      11.993 -14.397  -6.508  1.00  0.00    -0.004 C 
HETATM    8  C11 UNL     1      13.094 -13.380  -6.567  1.00  0.00     0.010 C 
HETATM    9  C12 UNL     1      10.780 -13.850  -5.804  1.00  0.00    -0.016 C 
HETATM   10  C13 UNL     1       9.696 -14.909  -5.766  1.00  0.00     0.037 C 
HETATM   11  C14 UNL     1      10.116 -16.082  -4.910  1.00  0.00     0.168 C 
HETATM   12  O4  UNL     1      10.445 -15.694  -3.635  1.00  0.00    -0.391 OA
HETATM   13  C15 UNL     1      10.314 -14.346  -3.394  1.00  0.00     0.168 C 
HETATM   14  C16 UNL     1      11.158 -13.542  -4.393  1.00  0.00     0.037 C 
HETATM   15  C17 UNL     1      10.042 -13.075  -8.007  1.00  0.00     0.025 C 
ENDROOT
BRANCH   1  16
HETATM   16  C3  UNL     1       9.055 -12.064  -6.045  1.00  0.00     0.268 C 
HETATM   17  O3  UNL     1       7.946 -12.615  -6.247  1.00  0.00    -0.264 OA
BRANCH  16  18
HETATM   18  O2  UNL     1       9.028 -10.896  -5.298  1.00  0.00    -0.312 OA
BRANCH  18  19
HETATM   19  C2  UNL     1       8.659  -9.642  -5.892  1.00  0.00     0.278 C 
BRANCH  19  20
HETATM   20  C1  UNL     1       9.661  -8.609  -5.620  1.00  0.00     0.255 C 
HETATM   21  N1  UNL     1      10.057  -8.329  -4.294  1.00  0.00    -0.060 NA
HETATM   22  O1  UNL     1      10.168  -7.974  -6.568  1.00  0.00    -0.274 OA
ENDBRANCH  19  20
ENDBRANCH  18  19
ENDBRANCH  16  18
ENDBRANCH   1  16
TORSDOF 4
ENDMDL
MODEL 3
REMARK VINA RESULT: -6.498177076      1.151      1.342
REMARK  4 active torsions:
REMARK  status: ('A' for Active; 'I' for Inactive)
REMARK    1  A    between atoms: C1_2  and  C2_4 
REMARK    2  A    between atoms: C2_4  and  O2_5 
REMARK    3  A    between atoms: O2_5  and  C3_6 
REMARK    4  A    between atoms: C3_6  and  C4_8 
ROOT
HETATM    1  C4  UNL     1      10.339 -12.823  -6.142  1.00  0.00     0.057 C 
HETATM    2  C5  UNL     1      11.345 -13.485  -5.192  1.00  0.00     0.025 C 
HETATM    3  C6  UNL     1      12.494 -14.041  -5.961  1.00  0.00    -0.013 C 
HETATM    4  C7  UNL     1      13.216 -13.026  -6.795  1.00  0.00     0.009 C 
HETATM    5  C8  UNL     1      12.223 -12.377  -7.749  1.00  0.00    -0.013 C 
HETATM    6  C9  UNL     1      11.675 -13.446  -8.671  1.00  0.00     0.010 C 
HETATM    7  C10 UNL     1      10.952 -14.462  -7.829  1.00  0.00    -0.004 C 
HETATM    8  C11 UNL     1      11.952 -15.101  -6.911  1.00  0.00     0.010 C 
HETATM    9  C12 UNL     1       9.794 -13.884  -7.059  1.00  0.00    -0.016 C 
HETATM   10  C13 UNL     1       8.810 -13.252  -8.023  1.00  0.00     0.037 C 
HETATM   11  C14 UNL     1       8.173 -14.299  -8.909  1.00  0.00     0.168 C 
HETATM   12  O4  UNL     1       7.555 -15.282  -8.177  1.00  0.00    -0.391 OA
HETATM   13  C15 UNL     1       7.625 -15.112  -6.813  1.00  0.00     0.168 C 
HETATM   14  C16 UNL     1       9.090 -15.003  -6.366  1.00  0.00     0.037 C 
HETATM   15  C17 UNL     1      11.106 -11.820  -6.937  1.00  0.00     0.025 C 
ENDROOT
BRANCH   1  16
HETATM   16  C3  UNL     1       9.295 -12.123  -5.364  1.00  0.00     0.268 C 
HETATM   17  O3  UNL     1       8.755 -12.694  -4.386  1.00  0.00    -0.264 OA
BRANCH  16  18
HETATM   18  O2  UNL     1       8.852 -10.839  -5.642  1.00  0.00    -0.312 OA
BRANCH  18  19
HETATM   19  C2  UNL     1       9.113  -9.752  -4.742  1.00  0.00     0.278 C 
BRANCH  19  20
HETATM   20  C1  UNL     1       9.829  -8.664  -5.414  1.00  0.00     0.255 C 
HETATM   21  N1  UNL     1      10.588  -7.738  -4.665  1.00  0.00    -0.060 NA
HETATM   22  O1  UNL     1       9.765  -8.558  -6.656  1.00  0.00    -0.274 OA
ENDBRANCH  19  20
ENDBRANCH  18  19
ENDBRANCH  16  18
ENDBRANCH   1  16
TORSDOF 4
ENDMDL
MODEL 4
REMARK VINA RESULT: -6.161388830      3.356      4.926
REMARK  4 active torsions:
REMARK  status: ('A' for Active; 'I' for Inactive)
REMARK    1  A    between atoms: C1_2  and  C2_4 
REMARK    2  A    between atoms: C2_4  and  O2_5 
REMARK    3  A    between atoms: O2_5  and  C3_6 
REMARK    4  A    between atoms: C3_6  and  C4_8 
ROOT
HETATM    1  C4  UNL     1      10.742 -14.092  -5.433  1.00  0.00     0.057 C 
HETATM    2  C5  UNL     1      12.049 -13.305  -5.596  1.00  0.00     0.025 C 
HETATM    3  C6  UNL     1      11.771 -11.950  -6.149  1.00  0.00    -0.013 C 
HETATM    4  C7  UNL     1      10.821 -11.139  -5.322  1.00  0.00     0.009 C 
HETATM    5  C8  UNL     1       9.517 -11.911  -5.171  1.00  0.00    -0.013 C 
HETATM    6  C9  UNL     1       8.909 -12.099  -6.545  1.00  0.00     0.010 C 
HETATM    7  C10 UNL     1       9.868 -12.914  -7.370  1.00  0.00    -0.004 C 
HETATM    8  C11 UNL     1      11.136 -12.127  -7.522  1.00  0.00     0.010 C 
HETATM    9  C12 UNL     1      10.137 -14.280  -6.797  1.00  0.00    -0.016 C 
HETATM   10  C13 UNL     1       8.832 -15.039  -6.663  1.00  0.00     0.037 C 
HETATM   11  C14 UNL     1       8.230 -15.325  -8.022  1.00  0.00     0.168 C 
HETATM   12  O4  UNL     1       9.099 -16.014  -8.831  1.00  0.00    -0.391 OA
HETATM   13  C15 UNL     1      10.311 -16.312  -8.251  1.00  0.00     0.168 C 
HETATM   14  C16 UNL     1      10.996 -15.029  -7.761  1.00  0.00     0.037 C 
HETATM   15  C17 UNL     1       9.841 -13.246  -4.598  1.00  0.00     0.025 C 
ENDROOT
BRANCH   1  16
HETATM   16  C3  UNL     1      11.002 -15.363  -4.724  1.00  0.00     0.268 C 
HETATM   17  O3  UNL     1      12.152 -15.864  -4.738  1.00  0.00    -0.264 OA
BRANCH  16  18
HETATM   18  O2  UNL     1      10.039 -16.068  -4.018  1.00  0.00    -0.312 OA
BRANCH  18  19
HETATM   19  C2  UNL     1      10.405 -16.988  -2.978  1.00  0.00     0.278 C 
BRANCH  19  20
HETATM   20  C1  UNL     1      10.275 -16.373  -1.654  1.00  0.00     0.255 C 
HETATM   21  N1  UNL     1       9.645 -15.118  -1.508  1.00  0.00    -0.060 NA
HETATM   22  O1  UNL     1      10.725 -16.965  -0.651  1.00  0.00    -0.274 OA
ENDBRANCH  19  20
ENDBRANCH  18  19
ENDBRANCH  16  18
ENDBRANCH   1  16
TORSDOF 4
ENDMDL
MODEL 5
REMARK VINA RESULT: -6.140263977      3.540      5.303
REMARK  4 active torsions:
REMARK  status: ('A' for Active; 'I' for Inactive)
REMARK    1  A    between atoms: C1_2  and  C2_4 
REMARK    2  A    between atoms: C2_4  and  O2_5 
REMARK    3  A    between atoms: O2_5  and  C3_6 
REMARK    4  A    between atoms: C3_6  and  C4_8 
ROOT
HETATM    1  C4  UNL     1      10.331 -14.437  -5.615  1.00  0.00     0.057 C 
HETATM    2  C5  UNL     1      10.322 -13.325  -4.557  1.00  0.00     0.025 C 
HETATM    3  C6  UNL     1      10.266 -11.988  -5.213  1.00  0.00    -0.013 C 
HETATM    4  C7  UNL     1       9.083 -11.803  -6.115  1.00  0.00     0.009 C 
HETATM    5  C8  UNL     1       9.097 -12.897  -7.175  1.00  0.00    -0.013 C 
HETATM    6  C9  UNL     1      10.355 -12.746  -8.004  1.00  0.00     0.010 C 
HETATM    7  C10 UNL     1      11.538 -12.932  -7.093  1.00  0.00    -0.004 C 
HETATM    8  C11 UNL     1      11.515 -11.835  -6.070  1.00  0.00     0.010 C 
HETATM    9  C12 UNL     1      11.580 -14.288  -6.440  1.00  0.00    -0.016 C 
HETATM   10  C13 UNL     1      11.604 -15.365  -7.507  1.00  0.00     0.037 C 
HETATM   11  C14 UNL     1      12.886 -15.305  -8.306  1.00  0.00     0.168 C 
HETATM   12  O4  UNL     1      13.995 -15.408  -7.503  1.00  0.00    -0.391 OA
HETATM   13  C15 UNL     1      13.722 -15.556  -6.163  1.00  0.00     0.168 C 
HETATM   14  C16 UNL     1      12.852 -14.394  -5.665  1.00  0.00     0.037 C 
HETATM   15  C17 UNL     1       9.133 -14.210  -6.475  1.00  0.00     0.025 C 
ENDROOT
BRANCH   1  16
HETATM   16  C3  UNL     1      10.210 -15.757  -4.961  1.00  0.00     0.268 C 
HETATM   17  O3  UNL     1       9.299 -16.547  -5.310  1.00  0.00    -0.264 OA
BRANCH  16  18
HETATM   18  O2  UNL     1      11.055 -16.206  -3.958  1.00  0.00    -0.312 OA
BRANCH  18  19
HETATM   19  C2  UNL     1      10.603 -17.146  -2.971  1.00  0.00     0.278 C 
BRANCH  19  20
HETATM   20  C1  UNL     1      10.340 -16.487  -1.690  1.00  0.00     0.255 C 
HETATM   21  N1  UNL     1       9.664 -15.248  -1.649  1.00  0.00    -0.060 NA
HETATM   22  O1  UNL     1      10.715 -17.027  -0.628  1.00  0.00    -0.274 OA
ENDBRANCH  19  20
ENDBRANCH  18  19
ENDBRANCH  16  18
ENDBRANCH   1  16
TORSDOF 4
ENDMDL
