MODEL 1
REMARK VINA RESULT: -7.366967465      0.000      0.000
REMARK  4 active torsions:
REMARK  status: ('A' for Active; 'I' for Inactive)
REMARK    1  A    between atoms: C2_2  and  C4_4 
REMARK    2  A    between atoms: C4_4  and  C5_5 
REMARK    3  A    between atoms: C5_5  and  N1_6 
REMARK    4  A    between atoms: C14_15  and  C15_16 
ROOT
HETATM    1  C15 UNL     1       9.902 -13.050  -7.839  1.00  0.00     0.168 C 
HETATM    2  C16 UNL     1       8.543 -13.492  -8.387  1.00  0.00     0.062 C 
HETATM    3  N2  UNL     1       7.496 -13.849  -8.795  1.00  0.00    -0.197 NA
ENDROOT
BRANCH   1   4
HETATM    4  C14 UNL     1       9.845 -13.288  -6.450  1.00  0.00     0.115 C 
HETATM    5  C13 UNL     1      10.566 -13.138  -5.179  1.00  0.00    -0.039 C 
HETATM    6  C7  UNL     1      11.847 -12.517  -5.603  1.00  0.00     0.066 C 
HETATM    7  C12 UNL     1      10.460 -14.138  -4.144  1.00  0.00    -0.020 C 
HETATM    8  C6  UNL     1      11.266 -11.316  -6.314  1.00  0.00     0.133 C 
HETATM    9  C8  UNL     1      12.581 -13.578  -6.254  1.00  0.00     0.199 C 
HETATM   10  N1  UNL     1       9.870 -11.091  -6.231  1.00  0.00    -0.389 N 
HETATM   11  C17 UNL     1       8.879 -12.196  -6.157  1.00  0.00     0.165 C 
HETATM   12  C9  UNL     1      12.812 -14.659  -5.166  1.00  0.00     0.043 C 
HETATM   13  N3  UNL     1      12.010 -14.476  -7.151  1.00  0.00    -0.043 N 
HETATM   14  C10 UNL     1      11.701 -15.696  -5.403  1.00  0.00     0.048 C 
HETATM   15  C11 UNL     1      10.709 -15.579  -4.332  1.00  0.00     0.036 C 
HETATM   16  C18 UNL     1      10.939 -15.190  -6.642  1.00  0.00     0.326 C 
HETATM   17  O1  UNL     1       9.702 -14.633  -6.385  1.00  0.00    -0.340 OA
ATOM     18  H32 UNL     1      11.742 -13.997  -8.011  1.00  0.00     0.280 HD
ATOM     19  H31 UNL     1      12.718 -15.111  -7.519  1.00  0.00     0.280 HD
BRANCH  10  20
HETATM   20  C5  UNL     1       9.360  -9.808  -6.161  1.00  0.00     0.058 C 
BRANCH  20  21
HETATM   21  C4  UNL     1       9.654  -9.082  -4.888  1.00  0.00     0.048 C 
BRANCH  21  22
HETATM   22  C2  UNL     1      10.803  -8.107  -4.985  1.00  0.00    -0.018 C 
HETATM   23  C1  UNL     1      11.157  -7.739  -3.556  1.00  0.00     0.010 C 
HETATM   24  C3  UNL     1      10.319  -6.806  -5.643  1.00  0.00     0.010 C 
ENDBRANCH  21  22
ENDBRANCH  20  21
ENDBRANCH  10  20
ENDBRANCH   1   4
TORSDOF 4
ENDMDL
MODEL 2
REMARK VINA RESULT: -6.841234928      1.258      1.480
REMARK  4 active torsions:
REMARK  status: ('A' for Active; 'I' for Inactive)
REMARK    1  A    between atoms: C2_2  and  C4_4 
REMARK    2  A    between atoms: C4_4  and  C5_5 
REMARK    3  A    between atoms: C5_5  and  N1_6 
REMARK    4  A    between atoms: C14_15  and  C15_16 
ROOT
HETATM    1  C15 UNL     1       9.159 -13.155  -7.012  1.00  0.00     0.168 C 
HETATM    2  C16 UNL     1       8.095 -14.146  -6.533  1.00  0.00     0.062 C 
HETATM    3  N2  UNL     1       7.291 -14.922  -6.156  1.00  0.00    -0.197 NA
ENDROOT
BRANCH   1   4
HETATM    4  C14 UNL     1      10.156 -13.160  -6.015  1.00  0.00     0.115 C 
HETATM    5  C13 UNL     1      11.475 -12.633  -5.637  1.00  0.00    -0.039 C 
HETATM    6  C7  UNL     1      11.849 -11.815  -6.820  1.00  0.00     0.066 C 
HETATM    7  C12 UNL     1      12.408 -13.440  -4.889  1.00  0.00    -0.020 C 
HETATM    8  C6  UNL     1      10.631 -10.920  -6.842  1.00  0.00     0.133 C 
HETATM    9  C8  UNL     1      12.180 -12.773  -7.849  1.00  0.00     0.199 C 
HETATM   10  N1  UNL     1       9.704 -11.012  -5.775  1.00  0.00    -0.389 N 
HETATM   11  C17 UNL     1       9.415 -12.286  -5.066  1.00  0.00     0.165 C 
HETATM   12  C9  UNL     1      13.395 -13.570  -7.308  1.00  0.00     0.043 C 
HETATM   13  N3  UNL     1      11.431 -13.918  -8.110  1.00  0.00    -0.043 N 
HETATM   14  C10 UNL     1      12.790 -14.860  -6.728  1.00  0.00     0.048 C 
HETATM   15  C11 UNL     1      12.849 -14.794  -5.267  1.00  0.00     0.036 C 
HETATM   16  C18 UNL     1      11.282 -14.763  -7.022  1.00  0.00     0.326 C 
HETATM   17  O1  UNL     1      10.488 -14.470  -5.932  1.00  0.00    -0.340 OA
ATOM     18  H32 UNL     1      10.520 -13.668  -8.494  1.00  0.00     0.280 HD
ATOM     19  H31 UNL     1      11.822 -14.426  -8.903  1.00  0.00     0.280 HD
BRANCH  10  20
HETATM   20  C5  UNL     1       9.055  -9.888  -5.299  1.00  0.00     0.058 C 
BRANCH  20  21
HETATM   21  C4  UNL     1       9.850  -9.057  -4.345  1.00  0.00     0.048 C 
BRANCH  21  22
HETATM   22  C2  UNL     1      10.863  -8.155  -5.009  1.00  0.00    -0.018 C 
HETATM   23  C1  UNL     1      11.567  -7.422  -3.883  1.00  0.00     0.010 C 
HETATM   24  C3  UNL     1      10.135  -7.073  -5.821  1.00  0.00     0.010 C 
ENDBRANCH  21  22
ENDBRANCH  20  21
ENDBRANCH  10  20
ENDBRANCH   1   4
TORSDOF 4
ENDMDL
MODEL 3
REMARK VINA RESULT: -6.457900649      1.457      2.224
REMARK  4 active torsions:
REMARK  status: ('A' for Active; 'I' for Inactive)
REMARK    1  A    between atoms: C2_2  and  C4_4 
REMARK    2  A    between atoms: C4_4  and  C5_5 
REMARK    3  A    between atoms: C5_5  and  N1_6 
REMARK    4  A    between atoms: C14_15  and  C15_16 
ROOT
HETATM    1  C15 UNL     1      11.864 -12.570  -6.715  1.00  0.00     0.168 C 
HETATM    2  C16 UNL     1      12.340 -12.330  -8.150  1.00  0.00     0.062 C 
HETATM    3  N2  UNL     1      12.700 -12.165  -9.261  1.00  0.00    -0.197 NA
ENDROOT
BRANCH   1   4
HETATM    4  C14 UNL     1      10.674 -13.318  -6.832  1.00  0.00     0.115 C 
HETATM    5  C13 UNL     1       9.570 -13.937  -6.086  1.00  0.00    -0.039 C 
HETATM    6  C7  UNL     1       9.930 -13.646  -4.674  1.00  0.00     0.066 C 
HETATM    7  C12 UNL     1       8.981 -15.178  -6.527  1.00  0.00    -0.020 C 
HETATM    8  C6  UNL     1      10.039 -12.144  -4.797  1.00  0.00     0.133 C 
HETATM    9  C8  UNL     1      11.036 -14.526  -4.379  1.00  0.00     0.199 C 
HETATM   10  N1  UNL     1       9.658 -11.535  -6.018  1.00  0.00    -0.389 N 
HETATM   11  C17 UNL     1       9.845 -12.192  -7.338  1.00  0.00     0.165 C 
HETATM   12  C9  UNL     1      10.482 -15.966  -4.534  1.00  0.00     0.043 C 
HETATM   13  N3  UNL     1      12.102 -14.747  -5.248  1.00  0.00    -0.043 N 
HETATM   14  C10 UNL     1      10.910 -16.400  -5.946  1.00  0.00     0.048 C 
HETATM   15  C11 UNL     1       9.730 -16.415  -6.813  1.00  0.00     0.036 C 
HETATM   16  C18 UNL     1      11.733 -15.220  -6.496  1.00  0.00     0.326 C 
HETATM   17  O1  UNL     1      11.094 -14.450  -7.446  1.00  0.00    -0.340 OA
ATOM     18  H32 UNL     1      12.666 -13.903  -5.340  1.00  0.00     0.280 HD
ATOM     19  H31 UNL     1      12.787 -15.369  -4.820  1.00  0.00     0.280 HD
BRANCH  10  20
HETATM   20  C5  UNL     1       9.033 -10.301  -6.033  1.00  0.00     0.058 C 
BRANCH  20  21
HETATM   21  C4  UNL     1       9.394  -9.398  -4.899  1.00  0.00     0.048 C 
BRANCH  21  22
HETATM   22  C2  UNL     1      10.546  -8.468  -5.193  1.00  0.00    -0.018 C 
HETATM   23  C1  UNL     1      10.998  -7.929  -3.849  1.00  0.00     0.010 C 
HETATM   24  C3  UNL     1      10.037  -7.252  -5.980  1.00  0.00     0.010 C 
ENDBRANCH  21  22
ENDBRANCH  20  21
ENDBRANCH  10  20
ENDBRANCH   1   4
TORSDOF 4
ENDMDL
MODEL 4
REMARK VINA RESULT: -6.443543690      1.678      3.212
REMARK  4 active torsions:
REMARK  status: ('A' for Active; 'I' for Inactive)
REMARK    1  A    between atoms: C2_2  and  C4_4 
REMARK    2  A    between atoms: C4_4  and  C5_5 
REMARK    3  A    between atoms: C5_5  and  N1_6 
REMARK    4  A    between atoms: C14_15  and  C15_16 
ROOT
HETATM    1  C15 UNL     1      11.646 -13.029  -6.282  1.00  0.00     0.168 C 
HETATM    2  C16 UNL     1      12.841 -12.639  -7.155  1.00  0.00     0.062 C 
HETATM    3  N2  UNL     1      13.752 -12.347  -7.844  1.00  0.00    -0.197 NA
ENDROOT
BRANCH   1   4
HETATM    4  C14 UNL     1      10.511 -12.882  -7.107  1.00  0.00     0.115 C 
HETATM    5  C13 UNL     1       9.056 -13.066  -7.186  1.00  0.00    -0.039 C 
HETATM    6  C7  UNL     1       8.733 -13.668  -5.867  1.00  0.00     0.066 C 
HETATM    7  C12 UNL     1       8.424 -13.453  -8.424  1.00  0.00    -0.020 C 
HETATM    8  C6  UNL     1       9.334 -12.588  -4.997  1.00  0.00     0.133 C 
HETATM    9  C8  UNL     1       9.222 -15.025  -5.943  1.00  0.00     0.199 C 
HETATM   10  N1  UNL     1       9.814 -11.409  -5.617  1.00  0.00    -0.389 N 
HETATM   11  C17 UNL     1      10.427 -11.403  -6.972  1.00  0.00     0.165 C 
HETATM   12  C9  UNL     1       8.416 -15.700  -7.084  1.00  0.00     0.043 C 
HETATM   13  N3  UNL     1      10.456 -15.373  -6.489  1.00  0.00    -0.043 N 
HETATM   14  C10 UNL     1       9.337 -15.621  -8.313  1.00  0.00     0.048 C 
HETATM   15  C11 UNL     1       8.805 -14.621  -9.239  1.00  0.00     0.036 C 
HETATM   16  C18 UNL     1      10.634 -14.969  -7.801  1.00  0.00     0.326 C 
HETATM   17  O1  UNL     1      10.819 -13.653  -8.177  1.00  0.00    -0.340 OA
ATOM     18  H32 UNL     1      11.214 -15.025  -5.903  1.00  0.00     0.280 HD
ATOM     19  H31 UNL     1      10.613 -16.376  -6.401  1.00  0.00     0.280 HD
BRANCH  10  20
HETATM   20  C5  UNL     1       9.684 -10.178  -5.001  1.00  0.00     0.058 C 
BRANCH  20  21
HETATM   21  C4  UNL     1      10.857  -9.266  -5.160  1.00  0.00     0.048 C 
BRANCH  21  22
HETATM   22  C2  UNL     1      10.677  -7.911  -4.518  1.00  0.00    -0.018 C 
HETATM   23  C1  UNL     1      10.277  -6.970  -5.638  1.00  0.00     0.010 C 
HETATM   24  C3  UNL     1      12.032  -7.400  -4.007  1.00  0.00     0.010 C 
ENDBRANCH  21  22
ENDBRANCH  20  21
ENDBRANCH  10  20
ENDBRANCH   1   4
TORSDOF 4
ENDMDL
MODEL 5
REMARK VINA RESULT: -6.408796168      1.664      2.813
REMARK  4 active torsions:
REMARK  status: ('A' for Active; 'I' for Inactive)
REMARK    1  A    between atoms: C2_2  and  C4_4 
REMARK    2  A    between atoms: C4_4  and  C5_5 
REMARK    3  A    between atoms: C5_5  and  N1_6 
REMARK    4  A    between atoms: C14_15  and  C15_16 
ROOT
HETATM    1  C15 UNL     1      12.567 -13.145  -6.207  1.00  0.00     0.168 C 
HETATM    2  C16 UNL     1      13.383 -12.676  -7.414  1.00  0.00     0.062 C 
HETATM    3  N2  UNL     1      14.005 -12.332  -8.355  1.00  0.00    -0.197 NA
ENDROOT
BRANCH   1   4
HETATM    4  C14 UNL     1      11.385 -13.699  -6.742  1.00  0.00     0.115 C 
HETATM    5  C13 UNL     1      10.051 -14.220  -6.414  1.00  0.00    -0.039 C 
HETATM    6  C7  UNL     1      10.019 -14.120  -4.932  1.00  0.00     0.066 C 
HETATM    7  C12 UNL     1       9.479 -15.315  -7.159  1.00  0.00    -0.020 C 
HETATM    8  C6  UNL     1      10.327 -12.644  -4.820  1.00  0.00     0.133 C 
HETATM    9  C8  UNL     1      10.889 -15.175  -4.465  1.00  0.00     0.199 C 
HETATM   10  N1  UNL     1      10.384 -11.873  -6.007  1.00  0.00    -0.389 N 
HETATM   11  C17 UNL     1      10.868 -12.421  -7.302  1.00  0.00     0.165 C 
HETATM   12  C9  UNL     1      10.245 -16.498  -4.955  1.00  0.00     0.043 C 
HETATM   13  N3  UNL     1      12.127 -15.463  -5.032  1.00  0.00    -0.043 N 
HETATM   14  C10 UNL     1      11.010 -16.852  -6.242  1.00  0.00     0.048 C 
HETATM   15  C11 UNL     1      10.136 -16.614  -7.392  1.00  0.00     0.036 C 
HETATM   16  C18 UNL     1      12.083 -15.757  -6.385  1.00  0.00     0.326 C 
HETATM   17  O1  UNL     1      11.835 -14.815  -7.363  1.00  0.00    -0.340 OA
ATOM     18  H32 UNL     1      12.785 -14.705  -4.855  1.00  0.00     0.280 HD
ATOM     19  H31 UNL     1      12.587 -16.216  -4.520  1.00  0.00     0.280 HD
BRANCH  10  20
HETATM   20  C5  UNL     1       9.932 -10.566  -6.029  1.00  0.00     0.058 C 
BRANCH  20  21
HETATM   21  C4  UNL     1      10.792  -9.590  -5.294  1.00  0.00     0.048 C 
BRANCH  21  22
HETATM   22  C2  UNL     1      10.102  -8.289  -4.960  1.00  0.00    -0.018 C 
HETATM   23  C1  UNL     1       9.448  -7.823  -6.248  1.00  0.00     0.010 C 
HETATM   24  C3  UNL     1      11.153  -7.223  -4.616  1.00  0.00     0.010 C 
ENDBRANCH  21  22
ENDBRANCH  20  21
ENDBRANCH  10  20
ENDBRANCH   1   4
TORSDOF 4
ENDMDL
