MODEL 1
REMARK VINA RESULT: -8.955718886      0.000      0.000
REMARK  3 active torsions:
REMARK  status: ('A' for Active; 'I' for Inactive)
REMARK    1  A    between atoms: C2_2  and  N1_3 
REMARK    2  A    between atoms: C4_9  and  C5_10 
REMARK    3  A    between atoms: C10_15  and  O1_16 
ROOT
HETATM    1  N1  UNL     1      15.628 -29.788   2.887  1.00  0.00    -0.267 N 
HETATM    2  N2  UNL     1      16.427 -29.783   1.822  1.00  0.00    -0.292 N 
ATOM      3  H2  UNL     1      16.593 -30.598   1.231  1.00  0.00     0.188 HD
HETATM    4  C3  UNL     1      16.985 -28.591   1.616  1.00  0.00     0.199 A 
HETATM    5  N3  UNL     1      16.493 -27.834   2.610  1.00  0.00    -0.339 N 
ATOM      6  H3  UNL     1      16.716 -26.849   2.754  1.00  0.00     0.168 HD
HETATM    7  C4  UNL     1      15.653 -28.565   3.403  1.00  0.00     0.109 A 
ENDROOT
BRANCH   7   8
HETATM    8  C5  UNL     1      14.984 -28.029   4.589  1.00  0.00     0.023 C 
HETATM    9  C6  UNL     1      15.575 -26.781   5.127  1.00  0.00     0.018 C 
HETATM   10  C7  UNL     1      14.566 -25.676   5.034  1.00  0.00     0.006 C 
HETATM   11  C8  UNL     1      13.272 -26.508   5.101  1.00  0.00    -0.011 C 
HETATM   12  C9  UNL     1      13.121 -27.137   6.448  1.00  0.00     0.036 C 
HETATM   13  C12 UNL     1      13.602 -27.541   4.092  1.00  0.00     0.022 C 
HETATM   14  C10 UNL     1      13.244 -28.643   6.312  1.00  0.00     0.119 C 
HETATM   15  C11 UNL     1      14.544 -29.037   5.615  1.00  0.00     0.049 C 
BRANCH  14  16
HETATM   16  O1  UNL     1      13.231 -29.135   7.620  1.00  0.00    -0.396 OA
ATOM     17  H1  UNL     1      14.046 -28.836   8.009  1.00  0.00     0.210 HD
ENDBRANCH  14  16
ENDBRANCH   7   8
BRANCH   1  18
HETATM   18  C2  UNL     1      14.925 -30.974   3.278  1.00  0.00     0.075 C 
HETATM   19  C1  UNL     1      13.471 -31.019   2.977  1.00  0.00     0.043 C 
HETATM   20  C13 UNL     1      15.484 -32.106   2.349  1.00  0.00     0.061 C 
HETATM   21  C14 UNL     1      15.803 -33.258   3.245  1.00  0.00     0.170 C 
HETATM   22  O2  UNL     1      14.949 -32.981   4.324  1.00  0.00    -0.389 OA
HETATM   23  C15 UNL     1      15.334 -31.634   4.553  1.00  0.00     0.200 C 
ENDBRANCH   1  18
TORSDOF 3
ENDMDL
MODEL 2
REMARK VINA RESULT: -8.697335724      2.281      3.314
REMARK  3 active torsions:
REMARK  status: ('A' for Active; 'I' for Inactive)
REMARK    1  A    between atoms: C2_2  and  N1_3 
REMARK    2  A    between atoms: C4_9  and  C5_10 
REMARK    3  A    between atoms: C10_15  and  O1_16 
ROOT
HETATM    1  N1  UNL     1      15.670 -30.654   2.942  1.00  0.00    -0.267 N 
HETATM    2  N2  UNL     1      15.964 -31.930   3.180  1.00  0.00    -0.292 N 
ATOM      3  H2  UNL     1      16.459 -32.532   2.521  1.00  0.00     0.188 HD
HETATM    4  C3  UNL     1      15.539 -32.332   4.376  1.00  0.00     0.199 A 
HETATM    5  N3  UNL     1      14.958 -31.237   4.891  1.00  0.00    -0.339 N 
ATOM      6  H3  UNL     1      14.521 -31.190   5.812  1.00  0.00     0.168 HD
HETATM    7  C4  UNL     1      15.033 -30.193   4.012  1.00  0.00     0.109 A 
ENDROOT
BRANCH   7   8
HETATM    8  C5  UNL     1      14.462 -28.870   4.271  1.00  0.00     0.023 C 
HETATM    9  C6  UNL     1      13.341 -28.489   3.381  1.00  0.00     0.018 C 
HETATM   10  C7  UNL     1      12.098 -28.310   4.201  1.00  0.00     0.006 C 
HETATM   11  C8  UNL     1      12.736 -27.923   5.547  1.00  0.00    -0.011 C 
HETATM   12  C9  UNL     1      13.401 -26.587   5.448  1.00  0.00     0.036 C 
HETATM   13  C12 UNL     1      13.756 -28.992   5.644  1.00  0.00     0.022 C 
HETATM   14  C10 UNL     1      14.901 -26.765   5.595  1.00  0.00     0.119 C 
HETATM   15  C11 UNL     1      15.444 -27.775   4.587  1.00  0.00     0.049 C 
BRANCH  14  16
HETATM   16  O1  UNL     1      15.448 -25.502   5.353  1.00  0.00    -0.396 OA
ATOM     17  H1  UNL     1      15.754 -25.529   4.453  1.00  0.00     0.210 HD
ENDBRANCH  14  16
ENDBRANCH   7   8
BRANCH   1  18
HETATM   18  C2  UNL     1      16.047 -30.025   1.712  1.00  0.00     0.075 C 
HETATM   19  C1  UNL     1      16.910 -28.819   1.814  1.00  0.00     0.043 C 
HETATM   20  C13 UNL     1      17.001 -31.048   1.005  1.00  0.00     0.061 C 
HETATM   21  C14 UNL     1      16.524 -31.153  -0.407  1.00  0.00     0.170 C 
HETATM   22  O2  UNL     1      15.867 -29.920  -0.542  1.00  0.00    -0.389 OA
HETATM   23  C15 UNL     1      15.040 -29.998   0.610  1.00  0.00     0.200 C 
ENDBRANCH   1  18
TORSDOF 3
ENDMDL
MODEL 3
REMARK VINA RESULT: -8.153722350      2.134      5.594
REMARK  3 active torsions:
REMARK  status: ('A' for Active; 'I' for Inactive)
REMARK    1  A    between atoms: C2_2  and  N1_3 
REMARK    2  A    between atoms: C4_9  and  C5_10 
REMARK    3  A    between atoms: C10_15  and  O1_16 
ROOT
HETATM    1  N1  UNL     1      13.769 -28.665   3.853  1.00  0.00    -0.267 N 
HETATM    2  N2  UNL     1      12.491 -28.292   3.873  1.00  0.00    -0.292 N 
ATOM      3  H2  UNL     1      12.168 -27.386   4.214  1.00  0.00     0.188 HD
HETATM    4  C3  UNL     1      11.682 -29.237   3.399  1.00  0.00     0.199 A 
HETATM    5  N3  UNL     1      12.518 -30.235   3.070  1.00  0.00    -0.339 N 
ATOM      6  H3  UNL     1      12.228 -31.127   2.669  1.00  0.00     0.168 HD
HETATM    7  C4  UNL     1      13.812 -29.892   3.348  1.00  0.00     0.109 A 
ENDROOT
BRANCH   7   8
HETATM    8  C5  UNL     1      14.953 -30.782   3.129  1.00  0.00     0.023 C 
HETATM    9  C6  UNL     1      15.531 -31.368   4.361  1.00  0.00     0.018 C 
HETATM   10  C7  UNL     1      15.375 -32.859   4.319  1.00  0.00     0.006 C 
HETATM   11  C8  UNL     1      15.356 -33.069   2.793  1.00  0.00    -0.011 C 
HETATM   12  C9  UNL     1      16.690 -32.743   2.202  1.00  0.00     0.036 C 
HETATM   13  C12 UNL     1      14.368 -32.029   2.423  1.00  0.00     0.022 C 
HETATM   14  C10 UNL     1      16.558 -31.513   1.323  1.00  0.00     0.119 C 
HETATM   15  C11 UNL     1      15.946 -30.343   2.088  1.00  0.00     0.049 C 
BRANCH  14  16
HETATM   16  O1  UNL     1      17.862 -31.201   0.927  1.00  0.00    -0.396 OA
ATOM     17  H1  UNL     1      18.368 -31.991   1.081  1.00  0.00     0.210 HD
ENDBRANCH  14  16
ENDBRANCH   7   8
BRANCH   1  18
HETATM   18  C2  UNL     1      14.803 -27.787   4.315  1.00  0.00     0.075 C 
HETATM   19  C1  UNL     1      15.740 -27.259   3.290  1.00  0.00     0.043 C 
HETATM   20  C13 UNL     1      14.059 -26.487   4.777  1.00  0.00     0.061 C 
HETATM   21  C14 UNL     1      14.612 -26.148   6.123  1.00  0.00     0.170 C 
HETATM   22  O2  UNL     1      15.860 -26.788   6.050  1.00  0.00    -0.389 OA
HETATM   23  C15 UNL     1      15.410 -28.074   5.648  1.00  0.00     0.200 C 
ENDBRANCH   1  18
TORSDOF 3
ENDMDL
MODEL 4
REMARK VINA RESULT: -7.987925486      2.459      3.236
REMARK  3 active torsions:
REMARK  status: ('A' for Active; 'I' for Inactive)
REMARK    1  A    between atoms: C2_2  and  N1_3 
REMARK    2  A    between atoms: C4_9  and  C5_10 
REMARK    3  A    between atoms: C10_15  and  O1_16 
ROOT
HETATM    1  N1  UNL     1      12.535 -29.916   2.205  1.00  0.00    -0.267 N 
HETATM    2  N2  UNL     1      12.994 -30.081   0.966  1.00  0.00    -0.292 N 
ATOM      3  H2  UNL     1      12.530 -30.651   0.258  1.00  0.00     0.188 HD
HETATM    4  C3  UNL     1      14.128 -29.415   0.755  1.00  0.00     0.199 A 
HETATM    5  N3  UNL     1      14.366 -28.813   1.931  1.00  0.00    -0.339 N 
ATOM      6  H3  UNL     1      15.168 -28.211   2.124  1.00  0.00     0.168 HD
HETATM    7  C4  UNL     1      13.387 -29.117   2.835  1.00  0.00     0.109 A 
ENDROOT
BRANCH   7   8
HETATM    8  C5  UNL     1      13.382 -28.637   4.218  1.00  0.00     0.023 C 
HETATM    9  C6  UNL     1      13.964 -29.574   5.206  1.00  0.00     0.018 C 
HETATM   10  C7  UNL     1      15.174 -28.946   5.831  1.00  0.00     0.006 C 
HETATM   11  C8  UNL     1      14.797 -27.461   5.673  1.00  0.00    -0.011 C 
HETATM   12  C9  UNL     1      13.624 -27.123   6.536  1.00  0.00     0.036 C 
HETATM   13  C12 UNL     1      14.395 -27.467   4.248  1.00  0.00     0.022 C 
HETATM   14  C10 UNL     1      12.437 -26.786   5.652  1.00  0.00     0.119 C 
HETATM   15  C11 UNL     1      12.142 -27.910   4.662  1.00  0.00     0.049 C 
BRANCH  14  16
HETATM   16  O1  UNL     1      11.360 -26.621   6.528  1.00  0.00    -0.396 OA
ATOM     17  H1  UNL     1      10.657 -26.263   5.997  1.00  0.00     0.210 HD
ENDBRANCH  14  16
ENDBRANCH   7   8
BRANCH   1  18
HETATM   18  C2  UNL     1      11.321 -30.544   2.633  1.00  0.00     0.075 C 
HETATM   19  C1  UNL     1      10.076 -29.742   2.514  1.00  0.00     0.043 C 
HETATM   20  C13 UNL     1      11.068 -31.693   1.597  1.00  0.00     0.061 C 
HETATM   21  C14 UNL     1      10.753 -32.914   2.400  1.00  0.00     0.170 C 
HETATM   22  O2  UNL     1      10.294 -32.322   3.587  1.00  0.00    -0.389 OA
HETATM   23  C15 UNL     1      11.389 -31.447   3.820  1.00  0.00     0.200 C 
ENDBRANCH   1  18
TORSDOF 3
ENDMDL
MODEL 5
REMARK VINA RESULT: -7.971183285      1.972      2.297
REMARK  3 active torsions:
REMARK  status: ('A' for Active; 'I' for Inactive)
REMARK    1  A    between atoms: C2_2  and  N1_3 
REMARK    2  A    between atoms: C4_9  and  C5_10 
REMARK    3  A    between atoms: C10_15  and  O1_16 
ROOT
HETATM    1  N1  UNL     1      13.744 -29.356   2.334  1.00  0.00    -0.267 N 
HETATM    2  N2  UNL     1      14.295 -29.417   1.123  1.00  0.00    -0.292 N 
ATOM      3  H2  UNL     1      13.979 -30.046   0.385  1.00  0.00     0.188 HD
HETATM    4  C3  UNL     1      15.307 -28.562   0.985  1.00  0.00     0.199 A 
HETATM    5  N3  UNL     1      15.369 -27.948   2.177  1.00  0.00    -0.339 N 
ATOM      6  H3  UNL     1      16.041 -27.221   2.422  1.00  0.00     0.168 HD
HETATM    7  C4  UNL     1      14.407 -28.432   3.020  1.00  0.00     0.109 A 
ENDROOT
BRANCH   7   8
HETATM    8  C5  UNL     1      14.239 -27.984   4.403  1.00  0.00     0.023 C 
HETATM    9  C6  UNL     1      15.145 -28.629   5.381  1.00  0.00     0.018 C 
HETATM   10  C7  UNL     1      16.036 -27.587   5.990  1.00  0.00     0.006 C 
HETATM   11  C8  UNL     1      15.125 -26.355   5.840  1.00  0.00    -0.011 C 
HETATM   12  C9  UNL     1      13.922 -26.481   6.719  1.00  0.00     0.036 C 
HETATM   13  C12 UNL     1      14.736 -26.518   4.420  1.00  0.00     0.022 C 
HETATM   14  C10 UNL     1      12.684 -26.621   5.852  1.00  0.00     0.119 C 
HETATM   15  C11 UNL     1      12.822 -27.777   4.865  1.00  0.00     0.049 C 
BRANCH  14  16
HETATM   16  O1  UNL     1      11.636 -26.872   6.743  1.00  0.00    -0.396 OA
ATOM     17  H1  UNL     1      11.488 -26.048   7.194  1.00  0.00     0.210 HD
ENDBRANCH  14  16
ENDBRANCH   7   8
BRANCH   1  18
HETATM   18  C2  UNL     1      12.635 -30.191   2.684  1.00  0.00     0.075 C 
HETATM   19  C1  UNL     1      11.281 -29.589   2.567  1.00  0.00     0.043 C 
HETATM   20  C13 UNL     1      12.594 -31.302   1.579  1.00  0.00     0.061 C 
HETATM   21  C14 UNL     1      12.457 -32.602   2.302  1.00  0.00     0.170 C 
HETATM   22  O2  UNL     1      11.880 -32.162   3.503  1.00  0.00    -0.389 OA
HETATM   23  C15 UNL     1      12.815 -31.142   3.821  1.00  0.00     0.200 C 
ENDBRANCH   1  18
TORSDOF 3
ENDMDL
