MODEL 1
REMARK VINA RESULT: -8.846690875      0.000      0.000
REMARK  6 active torsions:
REMARK  status: ('A' for Active; 'I' for Inactive)
REMARK    1  A    between atoms: C3_3  and  C4_4 
REMARK    2  A    between atoms: C4_4  and  C5_5 
REMARK    3  A    between atoms: C5_5  and  C6_6 
REMARK    4  A    between atoms: C6_6  and  N1_7 
REMARK    5  A    between atoms: C9_17  and  N5_18 
REMARK    6  A    between atoms: C11_26  and  N8_27 
ROOT
HETATM    1  N1  UNL     1     -23.375 -11.513  -4.455  1.00  0.00    -0.260 N 
HETATM    2  N2  UNL     1     -23.624 -10.847  -5.542  1.00  0.00    -0.238 N 
ATOM      3  H2  UNL     1     -24.563 -10.680  -5.905  1.00  0.00     0.208 HD
HETATM    4  N3  UNL     1     -22.525 -10.413  -6.122  1.00  0.00    -0.278 N 
ATOM      5  H3  UNL     1     -22.465  -9.869  -6.984  1.00  0.00     0.189 HD
HETATM    6  C7  UNL     1     -21.491 -10.826  -5.357  1.00  0.00     0.164 A 
HETATM    7  C8  UNL     1     -20.121 -10.706  -5.410  1.00  0.00     0.291 A 
HETATM    8  O1  UNL     1     -19.575 -10.089  -6.339  1.00  0.00    -0.265 OA
HETATM    9  N4  UNL     1     -19.338 -11.262  -4.446  1.00  0.00    -0.154 N 
ATOM     10  H4  UNL     1     -18.322 -11.178  -4.480  1.00  0.00     0.187 HD
HETATM   11  C9  UNL     1     -19.944 -11.925  -3.449  1.00  0.00     0.680 A 
HETATM   12  N6  UNL     1     -21.271 -12.080  -3.336  1.00  0.00    -0.173 N 
ATOM     13  H6  UNL     1     -21.684 -12.594  -2.558  1.00  0.00     0.186 HD
HETATM   14  C10 UNL     1     -22.040 -11.519  -4.307  1.00  0.00     0.172 A 
ENDROOT
BRANCH   1  15
HETATM   15  C6  UNL     1     -24.344 -12.155  -3.530  1.00  0.00     0.153 C 
BRANCH  15  16
HETATM   16  C5  UNL     1     -25.042 -11.048  -2.848  1.00  0.00     0.028 C 
BRANCH  16  17
HETATM   17  C4  UNL     1     -26.516 -10.982  -2.877  1.00  0.00     0.060 C 
BRANCH  17  18
HETATM   18  C3  UNL     1     -27.163  -9.780  -2.382  1.00  0.00     0.038 A 
HETATM   19  C2  UNL     1     -28.495  -9.490  -2.484  1.00  0.00     0.030 A 
HETATM   20  C1  UNL     1     -29.481 -10.467  -3.062  1.00  0.00     0.056 C 
HETATM   21  C12 UNL     1     -28.956  -8.264  -1.999  1.00  0.00     0.267 A 
HETATM   22  N9  UNL     1     -28.153  -7.354  -1.435  1.00  0.00    -0.156 N 
HETATM   23  O2  UNL     1     -30.202  -8.010  -2.104  1.00  0.00    -0.267 OA
HETATM   24  C11 UNL     1     -26.848  -7.661  -1.344  1.00  0.00     0.679 A 
ATOM     25  H9  UNL     1     -28.516  -6.466  -1.090  1.00  0.00     0.187 HD
HETATM   26  N7  UNL     1     -26.370  -8.832  -1.801  1.00  0.00    -0.195 N 
ATOM     27  H7  UNL     1     -25.372  -9.020  -1.709  1.00  0.00     0.184 HD
BRANCH  24  28
HETATM   28  N8  UNL     1     -26.067  -6.777  -0.796  1.00  0.00    -0.234 N 
ATOM     29  H82 UNL     1     -25.199  -6.555  -1.285  1.00  0.00     0.174 HD
ATOM     30  H81 UNL     1     -26.311  -6.325   0.085  1.00  0.00     0.174 HD
ENDBRANCH  24  28
ENDBRANCH  17  18
ENDBRANCH  16  17
ENDBRANCH  15  16
ENDBRANCH   1  15
BRANCH  11  31
HETATM   31  N5  UNL     1     -19.206 -12.447  -2.543  1.00  0.00    -0.234 N 
ATOM     32  H52 UNL     1     -18.789 -13.357  -2.740  1.00  0.00     0.174 HD
ATOM     33  H51 UNL     1     -19.075 -11.927  -1.676  1.00  0.00     0.174 HD
ENDBRANCH  11  31
TORSDOF 6
ENDMDL
MODEL 2
REMARK VINA RESULT: -8.600984842      1.740      2.779
REMARK  6 active torsions:
REMARK  status: ('A' for Active; 'I' for Inactive)
REMARK    1  A    between atoms: C3_3  and  C4_4 
REMARK    2  A    between atoms: C4_4  and  C5_5 
REMARK    3  A    between atoms: C5_5  and  C6_6 
REMARK    4  A    between atoms: C6_6  and  N1_7 
REMARK    5  A    between atoms: C9_17  and  N5_18 
REMARK    6  A    between atoms: C11_26  and  N8_27 
ROOT
HETATM    1  N1  UNL     1     -23.206 -10.512  -4.335  1.00  0.00    -0.260 N 
HETATM    2  N2  UNL     1     -22.458 -10.301  -3.294  1.00  0.00    -0.238 N 
ATOM      3  H2  UNL     1     -22.723 -10.552  -2.342  1.00  0.00     0.208 HD
HETATM    4  N3  UNL     1     -21.317  -9.726  -3.611  1.00  0.00    -0.278 N 
ATOM      5  H3  UNL     1     -20.570  -9.461  -2.968  1.00  0.00     0.189 HD
HETATM    6  C7  UNL     1     -21.327  -9.552  -4.950  1.00  0.00     0.164 A 
HETATM    7  C8  UNL     1     -20.459  -9.022  -5.878  1.00  0.00     0.291 A 
HETATM    8  O1  UNL     1     -19.363  -8.556  -5.526  1.00  0.00    -0.265 OA
HETATM    9  N4  UNL     1     -20.786  -8.997  -7.199  1.00  0.00    -0.154 N 
ATOM     10  H4  UNL     1     -20.148  -8.604  -7.891  1.00  0.00     0.187 HD
HETATM   11  C9  UNL     1     -21.973  -9.504  -7.562  1.00  0.00     0.680 A 
HETATM   12  N6  UNL     1     -22.865 -10.035  -6.713  1.00  0.00    -0.173 N 
ATOM     13  H6  UNL     1     -23.756 -10.408  -7.039  1.00  0.00     0.186 HD
HETATM   14  C10 UNL     1     -22.525 -10.052  -5.396  1.00  0.00     0.172 A 
ENDROOT
BRANCH   1  15
HETATM   15  C6  UNL     1     -24.554 -11.136  -4.384  1.00  0.00     0.153 C 
BRANCH  15  16
HETATM   16  C5  UNL     1     -24.565 -12.153  -3.315  1.00  0.00     0.028 C 
BRANCH  16  17
HETATM   17  C4  UNL     1     -25.502 -12.017  -2.183  1.00  0.00     0.060 C 
BRANCH  17  18
HETATM   18  C3  UNL     1     -26.513 -10.976  -2.244  1.00  0.00     0.038 A 
HETATM   19  C2  UNL     1     -27.783 -11.125  -2.727  1.00  0.00     0.030 A 
HETATM   20  C1  UNL     1     -28.315 -12.459  -3.176  1.00  0.00     0.056 C 
HETATM   21  C12 UNL     1     -28.623 -10.010  -2.764  1.00  0.00     0.267 A 
HETATM   22  N9  UNL     1     -28.244  -8.796  -2.347  1.00  0.00    -0.156 N 
HETATM   23  O2  UNL     1     -29.806 -10.167  -3.218  1.00  0.00    -0.267 OA
HETATM   24  C11 UNL     1     -26.992  -8.674  -1.877  1.00  0.00     0.679 A 
ATOM     25  H9  UNL     1     -28.878  -7.998  -2.386  1.00  0.00     0.187 HD
HETATM   26  N7  UNL     1     -26.156  -9.726  -1.827  1.00  0.00    -0.195 N 
ATOM     27  H7  UNL     1     -25.214  -9.584  -1.461  1.00  0.00     0.184 HD
BRANCH  24  28
HETATM   28  N8  UNL     1     -26.622  -7.494  -1.472  1.00  0.00    -0.234 N 
ATOM     29  H82 UNL     1     -26.017  -6.957  -2.094  1.00  0.00     0.174 HD
ATOM     30  H81 UNL     1     -26.923  -7.122  -0.571  1.00  0.00     0.174 HD
ENDBRANCH  24  28
ENDBRANCH  17  18
ENDBRANCH  16  17
ENDBRANCH  15  16
ENDBRANCH   1  15
BRANCH  11  31
HETATM   31  N5  UNL     1     -22.279  -9.480  -8.804  1.00  0.00    -0.234 N 
ATOM     32  H52 UNL     1     -22.762 -10.292  -9.188  1.00  0.00     0.174 HD
ATOM     33  H51 UNL     1     -22.025  -8.652  -9.342  1.00  0.00     0.174 HD
ENDBRANCH  11  31
TORSDOF 6
ENDMDL
MODEL 3
REMARK VINA RESULT: -8.584228148      2.418      3.384
REMARK  6 active torsions:
REMARK  status: ('A' for Active; 'I' for Inactive)
REMARK    1  A    between atoms: C3_3  and  C4_4 
REMARK    2  A    between atoms: C4_4  and  C5_5 
REMARK    3  A    between atoms: C5_5  and  C6_6 
REMARK    4  A    between atoms: C6_6  and  N1_7 
REMARK    5  A    between atoms: C9_17  and  N5_18 
REMARK    6  A    between atoms: C11_26  and  N8_27 
ROOT
HETATM    1  N1  UNL     1     -21.833  -9.845  -6.317  1.00  0.00    -0.260 N 
HETATM    2  N2  UNL     1     -21.153 -10.776  -6.914  1.00  0.00    -0.238 N 
ATOM      3  H2  UNL     1     -21.139 -10.911  -7.926  1.00  0.00     0.208 HD
HETATM    4  N3  UNL     1     -20.483 -11.526  -6.064  1.00  0.00    -0.278 N 
ATOM      5  H3  UNL     1     -19.881 -12.317  -6.294  1.00  0.00     0.189 HD
HETATM    6  C7  UNL     1     -20.748 -11.047  -4.830  1.00  0.00     0.164 A 
HETATM    7  C8  UNL     1     -20.372 -11.376  -3.547  1.00  0.00     0.291 A 
HETATM    8  O1  UNL     1     -19.602 -12.328  -3.338  1.00  0.00    -0.265 OA
HETATM    9  N4  UNL     1     -20.836 -10.665  -2.484  1.00  0.00    -0.154 N 
ATOM     10  H4  UNL     1     -20.562 -10.904  -1.531  1.00  0.00     0.187 HD
HETATM   11  C9  UNL     1     -21.666  -9.640  -2.728  1.00  0.00     0.680 A 
HETATM   12  N6  UNL     1     -22.073  -9.264  -3.949  1.00  0.00    -0.173 N 
ATOM     13  H6  UNL     1     -22.707  -8.477  -4.083  1.00  0.00     0.186 HD
HETATM   14  C10 UNL     1     -21.601  -9.985  -5.002  1.00  0.00     0.172 A 
ENDROOT
BRANCH   1  15
HETATM   15  C6  UNL     1     -22.705  -8.810  -6.930  1.00  0.00     0.153 C 
BRANCH  15  16
HETATM   16  C5  UNL     1     -23.897  -8.726  -6.064  1.00  0.00     0.028 C 
BRANCH  16  17
HETATM   17  C4  UNL     1     -24.790  -9.893  -5.931  1.00  0.00     0.060 C 
BRANCH  17  18
HETATM   18  C3  UNL     1     -25.368 -10.175  -4.629  1.00  0.00     0.038 A 
HETATM   19  C2  UNL     1     -25.890 -11.374  -4.230  1.00  0.00     0.030 A 
HETATM   20  C1  UNL     1     -25.832 -12.599  -5.101  1.00  0.00     0.056 C 
HETATM   21  C12 UNL     1     -26.457 -11.470  -2.957  1.00  0.00     0.267 A 
HETATM   22  N9  UNL     1     -26.514 -10.441  -2.104  1.00  0.00    -0.156 N 
HETATM   23  O2  UNL     1     -26.940 -12.597  -2.602  1.00  0.00    -0.267 OA
HETATM   24  C11 UNL     1     -25.995  -9.273  -2.518  1.00  0.00     0.679 A 
ATOM     25  H9  UNL     1     -26.935 -10.538  -1.180  1.00  0.00     0.187 HD
HETATM   26  N7  UNL     1     -25.442  -9.145  -3.736  1.00  0.00    -0.195 N 
ATOM     27  H7  UNL     1     -25.060  -8.238  -4.005  1.00  0.00     0.184 HD
BRANCH  24  28
HETATM   28  N8  UNL     1     -26.051  -8.271  -1.689  1.00  0.00    -0.234 N 
ATOM     29  H82 UNL     1     -26.967  -7.852  -1.526  1.00  0.00     0.174 HD
ATOM     30  H81 UNL     1     -25.215  -7.920  -1.222  1.00  0.00     0.174 HD
ENDBRANCH  24  28
ENDBRANCH  17  18
ENDBRANCH  16  17
ENDBRANCH  15  16
ENDBRANCH   1  15
BRANCH  11  31
HETATM   31  N5  UNL     1     -22.102  -8.972  -1.727  1.00  0.00    -0.234 N 
ATOM     32  H52 UNL     1     -21.599  -8.123  -1.470  1.00  0.00     0.174 HD
ATOM     33  H51 UNL     1     -22.928  -9.324  -1.242  1.00  0.00     0.174 HD
ENDBRANCH  11  31
TORSDOF 6
ENDMDL
MODEL 4
REMARK VINA RESULT: -8.564081014      4.956      9.198
REMARK  6 active torsions:
REMARK  status: ('A' for Active; 'I' for Inactive)
REMARK    1  A    between atoms: C3_3  and  C4_4 
REMARK    2  A    between atoms: C4_4  and  C5_5 
REMARK    3  A    between atoms: C5_5  and  C6_6 
REMARK    4  A    between atoms: C6_6  and  N1_7 
REMARK    5  A    between atoms: C9_17  and  N5_18 
REMARK    6  A    between atoms: C11_26  and  N8_27 
ROOT
HETATM    1  N1  UNL     1     -21.021  -9.876  -6.803  1.00  0.00    -0.260 N 
HETATM    2  N2  UNL     1     -19.731  -9.740  -6.872  1.00  0.00    -0.238 N 
ATOM      3  H2  UNL     1     -19.255  -9.180  -7.580  1.00  0.00     0.208 HD
HETATM    4  N3  UNL     1     -19.108 -10.408  -5.924  1.00  0.00    -0.278 N 
ATOM      5  H3  UNL     1     -18.100 -10.456  -5.774  1.00  0.00     0.189 HD
HETATM    6  C7  UNL     1     -20.062 -11.020  -5.189  1.00  0.00     0.164 A 
HETATM    7  C8  UNL     1     -20.074 -11.845  -4.088  1.00  0.00     0.291 A 
HETATM    8  O1  UNL     1     -19.012 -12.186  -3.540  1.00  0.00    -0.265 OA
HETATM    9  N4  UNL     1     -21.248 -12.305  -3.577  1.00  0.00    -0.154 N 
ATOM     10  H4  UNL     1     -21.264 -12.918  -2.762  1.00  0.00     0.187 HD
HETATM   11  C9  UNL     1     -22.386 -11.928  -4.180  1.00  0.00     0.680 A 
HETATM   12  N6  UNL     1     -22.448 -11.128  -5.254  1.00  0.00    -0.173 N 
ATOM     13  H6  UNL     1     -23.339 -10.870  -5.677  1.00  0.00     0.186 HD
HETATM   14  C10 UNL     1     -21.265 -10.677  -5.753  1.00  0.00     0.172 A 
ENDROOT
BRANCH   1  15
HETATM   15  C6  UNL     1     -22.055  -9.282  -7.689  1.00  0.00     0.153 C 
BRANCH  15  16
HETATM   16  C5  UNL     1     -21.315  -8.584  -8.758  1.00  0.00     0.028 C 
BRANCH  16  17
HETATM   17  C4  UNL     1     -21.580  -8.917 -10.170  1.00  0.00     0.060 C 
BRANCH  17  18
HETATM   18  C3  UNL     1     -20.448  -9.088 -11.064  1.00  0.00     0.038 A 
HETATM   19  C2  UNL     1     -20.336  -8.565 -12.321  1.00  0.00     0.030 A 
HETATM   20  C1  UNL     1     -21.377  -7.643 -12.897  1.00  0.00     0.056 C 
HETATM   21  C12 UNL     1     -19.200  -8.864 -13.077  1.00  0.00     0.267 A 
HETATM   22  N9  UNL     1     -18.210  -9.643 -12.627  1.00  0.00    -0.156 N 
HETATM   23  O2  UNL     1     -19.114  -8.367 -14.249  1.00  0.00    -0.267 OA
HETATM   24  C11 UNL     1     -18.341 -10.145 -11.388  1.00  0.00     0.679 A 
ATOM     25  H9  UNL     1     -17.391  -9.846 -13.200  1.00  0.00     0.187 HD
HETATM   26  N7  UNL     1     -19.420  -9.878 -10.634  1.00  0.00    -0.195 N 
ATOM     27  H7  UNL     1     -19.474 -10.283  -9.699  1.00  0.00     0.184 HD
BRANCH  24  28
HETATM   28  N8  UNL     1     -17.377 -10.903 -10.950  1.00  0.00    -0.234 N 
ATOM     29  H82 UNL     1     -17.488 -11.306 -10.019  1.00  0.00     0.174 HD
ATOM     30  H81 UNL     1     -16.547 -11.086 -11.513  1.00  0.00     0.174 HD
ENDBRANCH  24  28
ENDBRANCH  17  18
ENDBRANCH  16  17
ENDBRANCH  15  16
ENDBRANCH   1  15
BRANCH  11  31
HETATM   31  N5  UNL     1     -23.490 -12.361  -3.699  1.00  0.00    -0.234 N 
ATOM     32  H52 UNL     1     -24.319 -12.300  -4.290  1.00  0.00     0.174 HD
ATOM     33  H51 UNL     1     -23.480 -12.743  -2.754  1.00  0.00     0.174 HD
ENDBRANCH  11  31
TORSDOF 6
ENDMDL
MODEL 5
REMARK VINA RESULT: -8.527011293      3.210      8.171
REMARK  6 active torsions:
REMARK  status: ('A' for Active; 'I' for Inactive)
REMARK    1  A    between atoms: C3_3  and  C4_4 
REMARK    2  A    between atoms: C4_4  and  C5_5 
REMARK    3  A    between atoms: C5_5  and  C6_6 
REMARK    4  A    between atoms: C6_6  and  N1_7 
REMARK    5  A    between atoms: C9_17  and  N5_18 
REMARK    6  A    between atoms: C11_26  and  N8_27 
ROOT
HETATM    1  N1  UNL     1     -22.200 -10.032  -3.391  1.00  0.00    -0.260 N 
HETATM    2  N2  UNL     1     -22.291  -9.219  -2.382  1.00  0.00    -0.238 N 
ATOM      3  H2  UNL     1     -21.494  -8.734  -1.969  1.00  0.00     0.208 HD
HETATM    4  N3  UNL     1     -23.529  -9.093  -1.954  1.00  0.00    -0.278 N 
ATOM      5  H3  UNL     1     -23.849  -8.514  -1.178  1.00  0.00     0.189 HD
HETATM    6  C7  UNL     1     -24.295  -9.879  -2.741  1.00  0.00     0.164 A 
HETATM    7  C8  UNL     1     -25.635 -10.185  -2.817  1.00  0.00     0.291 A 
HETATM    8  O1  UNL     1     -26.445  -9.680  -2.022  1.00  0.00    -0.265 OA
HETATM    9  N4  UNL     1     -26.097 -11.048  -3.762  1.00  0.00    -0.154 N 
ATOM     10  H4  UNL     1     -27.089 -11.280  -3.822  1.00  0.00     0.187 HD
HETATM   11  C9  UNL     1     -25.209 -11.584  -4.612  1.00  0.00     0.680 A 
HETATM   12  N6  UNL     1     -23.892 -11.330  -4.596  1.00  0.00    -0.173 N 
ATOM     13  H6  UNL     1     -23.257 -11.764  -5.265  1.00  0.00     0.186 HD
HETATM   14  C10 UNL     1     -23.445 -10.467  -3.645  1.00  0.00     0.172 A 
ENDROOT
BRANCH   1  15
HETATM   15  C6  UNL     1     -20.982 -10.428  -4.143  1.00  0.00     0.153 C 
BRANCH  15  16
HETATM   16  C5  UNL     1     -20.772  -9.373  -5.153  1.00  0.00     0.028 C 
BRANCH  16  17
HETATM   17  C4  UNL     1     -19.595  -9.431  -6.040  1.00  0.00     0.060 C 
BRANCH  17  18
HETATM   18  C3  UNL     1     -19.700  -8.847  -7.366  1.00  0.00     0.038 A 
HETATM   19  C2  UNL     1     -18.832  -7.943  -7.911  1.00  0.00     0.030 A 
HETATM   20  C1  UNL     1     -17.577  -7.513  -7.200  1.00  0.00     0.056 C 
HETATM   21  C12 UNL     1     -19.100  -7.436  -9.185  1.00  0.00     0.267 A 
HETATM   22  N9  UNL     1     -20.172  -7.795  -9.901  1.00  0.00    -0.156 N 
HETATM   23  O2  UNL     1     -18.279  -6.593  -9.677  1.00  0.00    -0.267 OA
HETATM   24  C11 UNL     1     -21.010  -8.685  -9.346  1.00  0.00     0.679 A 
ATOM     25  H9  UNL     1     -20.344  -7.409 -10.829  1.00  0.00     0.187 HD
HETATM   26  N7  UNL     1     -20.782  -9.193  -8.122  1.00  0.00    -0.195 N 
ATOM     27  H7  UNL     1     -21.448  -9.867  -7.742  1.00  0.00     0.184 HD
BRANCH  24  28
HETATM   28  N8  UNL     1     -22.052  -9.034 -10.043  1.00  0.00    -0.234 N 
ATOM     29  H82 UNL     1     -22.895  -8.468  -9.936  1.00  0.00     0.174 HD
ATOM     30  H81 UNL     1     -22.028  -9.839 -10.668  1.00  0.00     0.174 HD
ENDBRANCH  24  28
ENDBRANCH  17  18
ENDBRANCH  16  17
ENDBRANCH  15  16
ENDBRANCH   1  15
BRANCH  11  31
HETATM   31  N5  UNL     1     -25.646 -12.395  -5.501  1.00  0.00    -0.234 N 
ATOM     32  H52 UNL     1     -26.541 -12.850  -5.325  1.00  0.00     0.174 HD
ATOM     33  H51 UNL     1     -25.076 -12.541  -6.334  1.00  0.00     0.174 HD
ENDBRANCH  11  31
TORSDOF 6
ENDMDL
