MODEL 1
REMARK VINA RESULT: -9.073459186      0.000      0.000
REMARK  14 active torsions:
REMARK  status: ('A' for Active; 'I' for Inactive)
REMARK    1  A    between atoms: C2_2  and  C3_3 
REMARK    2  A    between atoms: C3_3  and  C4_4 
REMARK    3  A    between atoms: C4_4  and  C5_5 
REMARK    4  A    between atoms: C5_5  and  C6_6 
REMARK    5  A    between atoms: C6_6  and  N1_7 
REMARK       I    between atoms: N1_7  and  C7_8 
REMARK    6  A    between atoms: N1_7  and  C23_42 
REMARK    7  A    between atoms: C7_8  and  C8_10 
REMARK    8  A    between atoms: C8_10  and  N2_11 
REMARK    9  A    between atoms: C9_12  and  C10_13 
REMARK   10  A    between atoms: C10_13  and  C11_14 
REMARK   11  A    between atoms: N3_16  and  C13_17 
REMARK   12  A    between atoms: C13_17  and  C14_18 
REMARK       I    between atoms: C14_18  and  N4_20 
REMARK   13  A    between atoms: C16_22  and  O3_23 
REMARK   14  A    between atoms: C21_35  and  N7_36 
ROOT
HETATM    1  N2  UNL     1      15.864  22.709  16.258  1.00  0.00    -0.311 N 
HETATM    2  C9  UNL     1      16.897  22.644  15.413  1.00  0.00     0.086 A 
HETATM    3  N5  UNL     1      16.444  22.213  14.216  1.00  0.00    -0.338 N 
ATOM      4  H5  UNL     1      17.011  22.069  13.379  1.00  0.00     0.167 HD
HETATM    5  C19 UNL     1      15.134  22.008  14.313  1.00  0.00     0.148 A 
HETATM    6  C20 UNL     1      14.210  21.572  13.385  1.00  0.00     0.290 A 
HETATM    7  O5  UNL     1      14.511  21.282  12.216  1.00  0.00    -0.265 OA
HETATM    8  N6  UNL     1      12.925  21.468  13.811  1.00  0.00    -0.154 N 
ATOM      9  H6  UNL     1      12.213  21.149  13.154  1.00  0.00     0.187 HD
HETATM   10  C21 UNL     1      12.560  21.769  15.058  1.00  0.00     0.680 A 
HETATM   11  N8  UNL     1      13.464  22.194  15.956  1.00  0.00    -0.174 N 
ATOM     12  H8  UNL     1      13.173  22.421  16.907  1.00  0.00     0.186 HD
HETATM   13  C22 UNL     1      14.767  22.319  15.595  1.00  0.00     0.157 A 
ENDROOT
BRANCH   1  14
HETATM   14  C8  UNL     1      15.831  23.154  17.664  1.00  0.00     0.235 C 
BRANCH  14  15
HETATM   15  C7  UNL     1      15.071  22.162  18.465  1.00  0.00     0.238 C 
HETATM   16  N1  UNL     1      15.598  20.916  18.865  1.00  0.00    -0.346 N 
HETATM   17  O1  UNL     1      13.884  22.444  18.808  1.00  0.00    -0.272 OA
BRANCH  16  18
HETATM   18  C6  UNL     1      16.947  20.570  18.500  1.00  0.00     0.126 C 
BRANCH  18  19
HETATM   19  C5  UNL     1      17.982  20.952  19.502  1.00  0.00     0.020 C 
BRANCH  19  20
HETATM   20  C4  UNL     1      18.878  22.081  19.069  1.00  0.00     0.002 C 
BRANCH  20  21
HETATM   21  C3  UNL     1      19.875  22.434  20.144  1.00  0.00    -0.000 C 
BRANCH  21  22
HETATM   22  C2  UNL     1      19.756  23.894  20.549  1.00  0.00    -0.005 C 
HETATM   23  C1  UNL     1      18.385  24.247  21.017  1.00  0.00     0.005 C 
ENDBRANCH  21  22
ENDBRANCH  20  21
ENDBRANCH  19  20
ENDBRANCH  18  19
ENDBRANCH  16  18
BRANCH  16  24
HETATM   24  C23 UNL     1      14.787  20.008  19.618  1.00  0.00     0.087 C 
HETATM   25  C24 UNL     1      15.119  19.884  21.065  1.00  0.00     0.025 C 
HETATM   26  C25 UNL     1      13.916  19.212  21.737  1.00  0.00     0.002 C 
HETATM   27  C26 UNL     1      13.623  17.875  21.119  1.00  0.00     0.000 C 
HETATM   28  C27 UNL     1      13.630  17.871  19.626  1.00  0.00     0.002 C 
HETATM   29  C28 UNL     1      14.828  18.595  19.031  1.00  0.00     0.025 C 
ENDBRANCH  16  24
ENDBRANCH  14  15
ENDBRANCH   1  14
BRANCH   2  30
HETATM   30  C10 UNL     1      18.296  22.958  15.721  1.00  0.00     0.092 C 
BRANCH  30  31
HETATM   31  C11 UNL     1      18.725  24.359  15.537  1.00  0.00     0.103 C 
HETATM   32  C12 UNL     1      20.243  24.574  15.566  1.00  0.00     0.141 C 
HETATM   33  N3  UNL     1      19.914  25.892  16.024  1.00  0.00    -0.342 N 
HETATM   34  C18 UNL     1      18.763  25.296  16.662  1.00  0.00     0.226 C 
HETATM   35  O4  UNL     1      18.215  25.629  17.735  1.00  0.00    -0.273 OA
BRANCH  33  36
HETATM   36  C13 UNL     1      20.424  27.221  15.939  1.00  0.00     0.228 C 
BRANCH  36  37
HETATM   37  C14 UNL     1      21.495  27.417  16.950  1.00  0.00     0.237 C 
HETATM   38  O2  UNL     1      21.164  27.643  18.162  1.00  0.00    -0.272 OA
HETATM   39  N4  UNL     1      22.871  27.362  16.626  1.00  0.00    -0.346 N 
HETATM   40  C15 UNL     1      24.113  27.505  17.349  1.00  0.00     0.159 C 
HETATM   41  C17 UNL     1      23.636  27.139  15.420  1.00  0.00     0.159 C 
HETATM   42  C16 UNL     1      24.753  26.596  16.307  1.00  0.00     0.154 C 
BRANCH  42  43
HETATM   43  O3  UNL     1      26.025  26.932  15.925  1.00  0.00    -0.392 OA
ATOM     44  H3  UNL     1      26.124  27.215  15.024  1.00  0.00     0.210 HD
ENDBRANCH  42  43
ENDBRANCH  36  37
ENDBRANCH  33  36
ENDBRANCH  30  31
ENDBRANCH   2  30
BRANCH  10  45
HETATM   45  N7  UNL     1      11.333  21.663  15.441  1.00  0.00    -0.234 N 
ATOM     46  H72 UNL     1      10.683  22.400  15.169  1.00  0.00     0.174 HD
ATOM     47  H71 UNL     1      11.019  20.868  15.998  1.00  0.00     0.174 HD
ENDBRANCH  10  45
TORSDOF 14
ENDMDL
MODEL 2
REMARK VINA RESULT: -8.875044065      1.029      1.467
REMARK  14 active torsions:
REMARK  status: ('A' for Active; 'I' for Inactive)
REMARK    1  A    between atoms: C2_2  and  C3_3 
REMARK    2  A    between atoms: C3_3  and  C4_4 
REMARK    3  A    between atoms: C4_4  and  C5_5 
REMARK    4  A    between atoms: C5_5  and  C6_6 
REMARK    5  A    between atoms: C6_6  and  N1_7 
REMARK       I    between atoms: N1_7  and  C7_8 
REMARK    6  A    between atoms: N1_7  and  C23_42 
REMARK    7  A    between atoms: C7_8  and  C8_10 
REMARK    8  A    between atoms: C8_10  and  N2_11 
REMARK    9  A    between atoms: C9_12  and  C10_13 
REMARK   10  A    between atoms: C10_13  and  C11_14 
REMARK   11  A    between atoms: N3_16  and  C13_17 
REMARK   12  A    between atoms: C13_17  and  C14_18 
REMARK       I    between atoms: C14_18  and  N4_20 
REMARK   13  A    between atoms: C16_22  and  O3_23 
REMARK   14  A    between atoms: C21_35  and  N7_36 
ROOT
HETATM    1  N2  UNL     1      15.853  22.723  16.278  1.00  0.00    -0.311 N 
HETATM    2  C9  UNL     1      16.893  22.642  15.442  1.00  0.00     0.086 A 
HETATM    3  N5  UNL     1      16.444  22.222  14.240  1.00  0.00    -0.338 N 
ATOM      4  H5  UNL     1      17.017  22.071  13.408  1.00  0.00     0.167 HD
HETATM    5  C19 UNL     1      15.130  22.039  14.324  1.00  0.00     0.148 A 
HETATM    6  C20 UNL     1      14.207  21.621  13.387  1.00  0.00     0.290 A 
HETATM    7  O5  UNL     1      14.515  21.329  12.219  1.00  0.00    -0.265 OA
HETATM    8  N6  UNL     1      12.917  21.538  13.800  1.00  0.00    -0.154 N 
ATOM      9  H6  UNL     1      12.206  21.233  13.135  1.00  0.00     0.187 HD
HETATM   10  C21 UNL     1      12.545  21.842  15.044  1.00  0.00     0.680 A 
HETATM   11  N8  UNL     1      13.447  22.249  15.952  1.00  0.00    -0.174 N 
ATOM     12  H8  UNL     1      13.151  22.479  16.901  1.00  0.00     0.186 HD
HETATM   13  C22 UNL     1      14.755  22.354  15.603  1.00  0.00     0.157 A 
ENDROOT
BRANCH   1  14
HETATM   14  C8  UNL     1      15.814  23.164  17.685  1.00  0.00     0.235 C 
BRANCH  14  15
HETATM   15  C7  UNL     1      15.057  22.166  18.481  1.00  0.00     0.238 C 
HETATM   16  N1  UNL     1      15.599  20.934  18.902  1.00  0.00    -0.346 N 
HETATM   17  O1  UNL     1      13.860  22.432  18.803  1.00  0.00    -0.272 OA
BRANCH  16  18
HETATM   18  C6  UNL     1      16.959  20.607  18.561  1.00  0.00     0.126 C 
BRANCH  18  19
HETATM   19  C5  UNL     1      17.965  20.968  19.600  1.00  0.00     0.020 C 
BRANCH  19  20
HETATM   20  C4  UNL     1      18.909  22.067  19.196  1.00  0.00     0.002 C 
BRANCH  20  21
HETATM   21  C3  UNL     1      20.160  22.055  20.038  1.00  0.00    -0.000 C 
BRANCH  21  22
HETATM   22  C2  UNL     1      20.443  23.427  20.626  1.00  0.00    -0.005 C 
HETATM   23  C1  UNL     1      19.214  24.089  21.148  1.00  0.00     0.005 C 
ENDBRANCH  21  22
ENDBRANCH  20  21
ENDBRANCH  19  20
ENDBRANCH  18  19
ENDBRANCH  16  18
BRANCH  16  24
HETATM   24  C23 UNL     1      14.791  20.018  19.649  1.00  0.00     0.087 C 
HETATM   25  C24 UNL     1      15.128  19.880  21.093  1.00  0.00     0.025 C 
HETATM   26  C25 UNL     1      13.929  19.202  21.764  1.00  0.00     0.002 C 
HETATM   27  C26 UNL     1      13.633  17.871  21.134  1.00  0.00     0.000 C 
HETATM   28  C27 UNL     1      13.634  17.882  19.641  1.00  0.00     0.002 C 
HETATM   29  C28 UNL     1      14.828  18.611  19.048  1.00  0.00     0.025 C 
ENDBRANCH  16  24
ENDBRANCH  14  15
ENDBRANCH   1  14
BRANCH   2  30
HETATM   30  C10 UNL     1      18.293  22.932  15.765  1.00  0.00     0.092 C 
BRANCH  30  31
HETATM   31  C11 UNL     1      18.732  24.337  15.649  1.00  0.00     0.103 C 
HETATM   32  C12 UNL     1      20.250  24.529  15.548  1.00  0.00     0.141 C 
HETATM   33  N3  UNL     1      19.993  25.811  16.136  1.00  0.00    -0.342 N 
HETATM   34  C18 UNL     1      18.896  25.182  16.834  1.00  0.00     0.226 C 
HETATM   35  O4  UNL     1      18.461  25.436  17.978  1.00  0.00    -0.273 OA
BRANCH  33  36
HETATM   36  C13 UNL     1      20.520  27.136  16.104  1.00  0.00     0.228 C 
BRANCH  36  37
HETATM   37  C14 UNL     1      21.927  27.132  16.584  1.00  0.00     0.237 C 
HETATM   38  O2  UNL     1      22.864  27.355  15.747  1.00  0.00    -0.272 OA
HETATM   39  N4  UNL     1      22.272  26.891  17.935  1.00  0.00    -0.346 N 
HETATM   40  C15 UNL     1      23.498  26.821  18.694  1.00  0.00     0.159 C 
HETATM   41  C17 UNL     1      21.541  26.608  19.149  1.00  0.00     0.159 C 
HETATM   42  C16 UNL     1      22.694  27.250  19.915  1.00  0.00     0.154 C 
BRANCH  42  43
HETATM   43  O3  UNL     1      23.030  26.639  21.094  1.00  0.00    -0.392 OA
ATOM     44  H3  UNL     1      22.304  26.409  21.662  1.00  0.00     0.210 HD
ENDBRANCH  42  43
ENDBRANCH  36  37
ENDBRANCH  33  36
ENDBRANCH  30  31
ENDBRANCH   2  30
BRANCH  10  45
HETATM   45  N7  UNL     1      11.313  21.756  15.415  1.00  0.00    -0.234 N 
ATOM     46  H72 UNL     1      11.039  20.948  15.974  1.00  0.00     0.174 HD
ATOM     47  H71 UNL     1      10.632  22.471  15.159  1.00  0.00     0.174 HD
ENDBRANCH  10  45
TORSDOF 14
ENDMDL
MODEL 3
REMARK VINA RESULT: -8.813099476      2.735      9.026
REMARK  14 active torsions:
REMARK  status: ('A' for Active; 'I' for Inactive)
REMARK    1  A    between atoms: C2_2  and  C3_3 
REMARK    2  A    between atoms: C3_3  and  C4_4 
REMARK    3  A    between atoms: C4_4  and  C5_5 
REMARK    4  A    between atoms: C5_5  and  C6_6 
REMARK    5  A    between atoms: C6_6  and  N1_7 
REMARK       I    between atoms: N1_7  and  C7_8 
REMARK    6  A    between atoms: N1_7  and  C23_42 
REMARK    7  A    between atoms: C7_8  and  C8_10 
REMARK    8  A    between atoms: C8_10  and  N2_11 
REMARK    9  A    between atoms: C9_12  and  C10_13 
REMARK   10  A    between atoms: C10_13  and  C11_14 
REMARK   11  A    between atoms: N3_16  and  C13_17 
REMARK   12  A    between atoms: C13_17  and  C14_18 
REMARK       I    between atoms: C14_18  and  N4_20 
REMARK   13  A    between atoms: C16_22  and  O3_23 
REMARK   14  A    between atoms: C21_35  and  N7_36 
ROOT
HETATM    1  N2  UNL     1      17.722  23.871  18.965  1.00  0.00    -0.311 N 
HETATM    2  C9  UNL     1      17.565  22.805  19.756  1.00  0.00     0.086 A 
HETATM    3  N5  UNL     1      18.786  22.363  20.126  1.00  0.00    -0.338 N 
ATOM      4  H5  UNL     1      18.973  21.562  20.731  1.00  0.00     0.167 HD
HETATM    5  C19 UNL     1      19.702  23.148  19.569  1.00  0.00     0.148 A 
HETATM    6  C20 UNL     1      21.080  23.125  19.632  1.00  0.00     0.290 A 
HETATM    7  O5  UNL     1      21.714  22.278  20.284  1.00  0.00    -0.265 OA
HETATM    8  N6  UNL     1      21.737  24.088  18.934  1.00  0.00    -0.154 N 
ATOM      9  H6  UNL     1      22.756  24.103  18.956  1.00  0.00     0.187 HD
HETATM   10  C21 UNL     1      21.095  25.014  18.221  1.00  0.00     0.680 A 
HETATM   11  N8  UNL     1      19.754  25.033  18.164  1.00  0.00    -0.174 N 
ATOM     12  H8  UNL     1      19.274  25.747  17.615  1.00  0.00     0.186 HD
HETATM   13  C22 UNL     1      19.037  24.097  18.839  1.00  0.00     0.157 A 
ENDROOT
BRANCH   1  14
HETATM   14  C8  UNL     1      16.700  24.729  18.336  1.00  0.00     0.235 C 
BRANCH  14  15
HETATM   15  C7  UNL     1      15.785  23.879  17.534  1.00  0.00     0.238 C 
HETATM   16  N1  UNL     1      16.121  23.353  16.269  1.00  0.00    -0.346 N 
HETATM   17  O1  UNL     1      14.641  23.609  18.007  1.00  0.00    -0.272 OA
BRANCH  16  18
HETATM   18  C6  UNL     1      17.417  23.633  15.708  1.00  0.00     0.126 C 
BRANCH  18  19
HETATM   19  C5  UNL     1      17.550  24.982  15.090  1.00  0.00     0.020 C 
BRANCH  19  20
HETATM   20  C4  UNL     1      18.922  25.588  15.211  1.00  0.00     0.002 C 
BRANCH  20  21
HETATM   21  C3  UNL     1      19.071  26.795  14.319  1.00  0.00    -0.000 C 
BRANCH  21  22
HETATM   22  C2  UNL     1      20.128  27.748  14.851  1.00  0.00    -0.005 C 
HETATM   23  C1  UNL     1      21.419  27.639  14.112  1.00  0.00     0.005 C 
ENDBRANCH  21  22
ENDBRANCH  20  21
ENDBRANCH  19  20
ENDBRANCH  18  19
ENDBRANCH  16  18
BRANCH  16  24
HETATM   24  C23 UNL     1      15.169  22.559  15.552  1.00  0.00     0.087 C 
HETATM   25  C24 UNL     1      15.667  21.910  14.307  1.00  0.00     0.025 C 
HETATM   26  C25 UNL     1      14.654  20.820  13.943  1.00  0.00     0.002 C 
HETATM   27  C26 UNL     1      13.279  21.393  13.757  1.00  0.00     0.000 C 
HETATM   28  C27 UNL     1      12.861  22.350  14.824  1.00  0.00     0.002 C 
HETATM   29  C28 UNL     1      13.932  23.373  15.165  1.00  0.00     0.025 C 
ENDBRANCH  16  24
ENDBRANCH  14  15
ENDBRANCH   1  14
BRANCH   2  30
HETATM   30  C10 UNL     1      16.292  22.189  20.144  1.00  0.00     0.092 C 
BRANCH  30  31
HETATM   31  C11 UNL     1      16.094  20.771  19.782  1.00  0.00     0.103 C 
HETATM   32  C12 UNL     1      15.116  20.534  18.626  1.00  0.00     0.141 C 
HETATM   33  N3  UNL     1      14.894  19.263  19.249  1.00  0.00    -0.342 N 
HETATM   34  C18 UNL     1      15.143  19.926  20.508  1.00  0.00     0.226 C 
HETATM   35  O4  UNL     1      14.628  19.690  21.622  1.00  0.00    -0.273 OA
BRANCH  33  36
HETATM   36  C13 UNL     1      14.573  17.923  18.881  1.00  0.00     0.228 C 
BRANCH  36  37
HETATM   37  C14 UNL     1      13.117  17.685  19.057  1.00  0.00     0.237 C 
HETATM   38  O2  UNL     1      12.720  17.017  20.070  1.00  0.00    -0.272 OA
HETATM   39  N4  UNL     1      12.148  18.170  18.147  1.00  0.00    -0.346 N 
HETATM   40  C15 UNL     1      10.710  18.114  18.037  1.00  0.00     0.159 C 
HETATM   41  C17 UNL     1      12.180  18.939  16.924  1.00  0.00     0.159 C 
HETATM   42  C16 UNL     1      10.777  19.430  17.273  1.00  0.00     0.154 C 
BRANCH  42  43
HETATM   43  O3  UNL     1       9.915  19.549  16.215  1.00  0.00    -0.392 OA
ATOM     44  H3  UNL     1       9.082  19.963  16.406  1.00  0.00     0.210 HD
ENDBRANCH  42  43
ENDBRANCH  36  37
ENDBRANCH  33  36
ENDBRANCH  30  31
ENDBRANCH   2  30
BRANCH  10  45
HETATM   45  N7  UNL     1      21.739  25.919  17.565  1.00  0.00    -0.234 N 
ATOM     46  H72 UNL     1      22.758  25.901  17.603  1.00  0.00     0.174 HD
ATOM     47  H71 UNL     1      21.248  26.631  17.025  1.00  0.00     0.174 HD
ENDBRANCH  10  45
TORSDOF 14
ENDMDL
MODEL 4
REMARK VINA RESULT: -8.672106275      1.731      4.178
REMARK  14 active torsions:
REMARK  status: ('A' for Active; 'I' for Inactive)
REMARK    1  A    between atoms: C2_2  and  C3_3 
REMARK    2  A    between atoms: C3_3  and  C4_4 
REMARK    3  A    between atoms: C4_4  and  C5_5 
REMARK    4  A    between atoms: C5_5  and  C6_6 
REMARK    5  A    between atoms: C6_6  and  N1_7 
REMARK       I    between atoms: N1_7  and  C7_8 
REMARK    6  A    between atoms: N1_7  and  C23_42 
REMARK    7  A    between atoms: C7_8  and  C8_10 
REMARK    8  A    between atoms: C8_10  and  N2_11 
REMARK    9  A    between atoms: C9_12  and  C10_13 
REMARK   10  A    between atoms: C10_13  and  C11_14 
REMARK   11  A    between atoms: N3_16  and  C13_17 
REMARK   12  A    between atoms: C13_17  and  C14_18 
REMARK       I    between atoms: C14_18  and  N4_20 
REMARK   13  A    between atoms: C16_22  and  O3_23 
REMARK   14  A    between atoms: C21_35  and  N7_36 
ROOT
HETATM    1  N2  UNL     1      14.824  22.862  16.848  1.00  0.00    -0.311 N 
HETATM    2  C9  UNL     1      15.408  23.379  15.762  1.00  0.00     0.086 A 
HETATM    3  N5  UNL     1      15.160  22.565  14.713  1.00  0.00    -0.338 N 
ATOM      4  H5  UNL     1      15.481  22.710  13.756  1.00  0.00     0.167 HD
HETATM    5  C19 UNL     1      14.425  21.542  15.142  1.00  0.00     0.148 A 
HETATM    6  C20 UNL     1      13.912  20.449  14.476  1.00  0.00     0.290 A 
HETATM    7  O5  UNL     1      14.087  20.253  13.261  1.00  0.00    -0.265 OA
HETATM    8  N6  UNL     1      13.190  19.569  15.217  1.00  0.00    -0.154 N 
ATOM      9  H6  UNL     1      12.794  18.749  14.759  1.00  0.00     0.187 HD
HETATM   10  C21 UNL     1      12.980  19.742  16.523  1.00  0.00     0.680 A 
HETATM   11  N8  UNL     1      13.481  20.809  17.166  1.00  0.00    -0.174 N 
ATOM     12  H8  UNL     1      13.313  20.930  18.165  1.00  0.00     0.186 HD
HETATM   13  C22 UNL     1      14.213  21.726  16.482  1.00  0.00     0.157 A 
ENDROOT
BRANCH   1  14
HETATM   14  C8  UNL     1      14.772  23.389  18.224  1.00  0.00     0.235 C 
BRANCH  14  15
HETATM   15  C7  UNL     1      16.157  23.637  18.697  1.00  0.00     0.238 C 
HETATM   16  N1  UNL     1      17.011  22.622  19.175  1.00  0.00    -0.346 N 
HETATM   17  O1  UNL     1      16.601  24.825  18.671  1.00  0.00    -0.272 OA
BRANCH  16  18
HETATM   18  C6  UNL     1      16.540  21.261  19.207  1.00  0.00     0.126 C 
BRANCH  18  19
HETATM   19  C5  UNL     1      15.652  20.936  20.359  1.00  0.00     0.020 C 
BRANCH  19  20
HETATM   20  C4  UNL     1      14.771  19.736  20.144  1.00  0.00     0.002 C 
BRANCH  20  21
HETATM   21  C3  UNL     1      14.257  19.190  21.453  1.00  0.00    -0.000 C 
BRANCH  21  22
HETATM   22  C2  UNL     1      13.428  17.934  21.239  1.00  0.00    -0.005 C 
HETATM   23  C1  UNL     1      12.064  18.232  20.717  1.00  0.00     0.005 C 
ENDBRANCH  21  22
ENDBRANCH  20  21
ENDBRANCH  19  20
ENDBRANCH  18  19
ENDBRANCH  16  18
BRANCH  16  24
HETATM   24  C23 UNL     1      18.326  22.953  19.633  1.00  0.00     0.087 C 
HETATM   25  C24 UNL     1      19.224  21.801  19.924  1.00  0.00     0.025 C 
HETATM   26  C25 UNL     1      20.650  22.359  19.991  1.00  0.00     0.002 C 
HETATM   27  C26 UNL     1      20.767  23.430  21.037  1.00  0.00     0.000 C 
HETATM   28  C27 UNL     1      19.666  24.438  21.012  1.00  0.00     0.002 C 
HETATM   29  C28 UNL     1      18.284  23.814  20.897  1.00  0.00     0.025 C 
ENDBRANCH  16  24
ENDBRANCH  14  15
ENDBRANCH   1  14
BRANCH   2  30
HETATM   30  C10 UNL     1      16.208  24.606  15.705  1.00  0.00     0.092 C 
BRANCH  30  31
HETATM   31  C11 UNL     1      17.599  24.479  15.226  1.00  0.00     0.103 C 
HETATM   32  C12 UNL     1      18.668  24.622  16.316  1.00  0.00     0.141 C 
HETATM   33  N3  UNL     1      19.507  25.078  15.247  1.00  0.00    -0.342 N 
HETATM   34  C18 UNL     1      18.310  25.620  14.646  1.00  0.00     0.226 C 
HETATM   35  O4  UNL     1      18.192  26.656  13.957  1.00  0.00    -0.273 OA
BRANCH  33  36
HETATM   36  C13 UNL     1      20.882  25.054  14.871  1.00  0.00     0.228 C 
BRANCH  36  37
HETATM   37  C14 UNL     1      21.537  26.329  15.264  1.00  0.00     0.237 C 
HETATM   38  O2  UNL     1      21.826  27.178  14.356  1.00  0.00    -0.272 OA
HETATM   39  N4  UNL     1      21.853  26.643  16.607  1.00  0.00    -0.346 N 
HETATM   40  C15 UNL     1      22.466  27.754  17.294  1.00  0.00     0.159 C 
HETATM   41  C17 UNL     1      21.698  25.980  17.882  1.00  0.00     0.159 C 
HETATM   42  C16 UNL     1      21.651  27.365  18.521  1.00  0.00     0.154 C 
BRANCH  42  43
HETATM   43  O3  UNL     1      22.296  27.480  19.725  1.00  0.00    -0.392 OA
ATOM     44  H3  UNL     1      23.037  26.901  19.853  1.00  0.00     0.210 HD
ENDBRANCH  42  43
ENDBRANCH  36  37
ENDBRANCH  33  36
ENDBRANCH  30  31
ENDBRANCH   2  30
BRANCH  10  45
HETATM   45  N7  UNL     1      12.291  18.894  17.208  1.00  0.00    -0.234 N 
ATOM     46  H72 UNL     1      11.307  18.773  16.967  1.00  0.00     0.174 HD
ATOM     47  H71 UNL     1      12.713  18.359  17.967  1.00  0.00     0.174 HD
ENDBRANCH  10  45
TORSDOF 14
ENDMDL
MODEL 5
REMARK VINA RESULT: -8.559768629      3.581      9.877
REMARK  14 active torsions:
REMARK  status: ('A' for Active; 'I' for Inactive)
REMARK    1  A    between atoms: C2_2  and  C3_3 
REMARK    2  A    between atoms: C3_3  and  C4_4 
REMARK    3  A    between atoms: C4_4  and  C5_5 
REMARK    4  A    between atoms: C5_5  and  C6_6 
REMARK    5  A    between atoms: C6_6  and  N1_7 
REMARK       I    between atoms: N1_7  and  C7_8 
REMARK    6  A    between atoms: N1_7  and  C23_42 
REMARK    7  A    between atoms: C7_8  and  C8_10 
REMARK    8  A    between atoms: C8_10  and  N2_11 
REMARK    9  A    between atoms: C9_12  and  C10_13 
REMARK   10  A    between atoms: C10_13  and  C11_14 
REMARK   11  A    between atoms: N3_16  and  C13_17 
REMARK   12  A    between atoms: C13_17  and  C14_18 
REMARK       I    between atoms: C14_18  and  N4_20 
REMARK   13  A    between atoms: C16_22  and  O3_23 
REMARK   14  A    between atoms: C21_35  and  N7_36 
ROOT
HETATM    1  N2  UNL     1      22.269  26.003  19.482  1.00  0.00    -0.311 N 
HETATM    2  C9  UNL     1      21.033  25.551  19.248  1.00  0.00     0.086 A 
HETATM    3  N5  UNL     1      20.618  26.034  18.057  1.00  0.00    -0.338 N 
ATOM      4  H5  UNL     1      19.713  25.852  17.622  1.00  0.00     0.167 HD
HETATM    5  C19 UNL     1      21.589  26.786  17.549  1.00  0.00     0.148 A 
HETATM    6  C20 UNL     1      21.666  27.497  16.369  1.00  0.00     0.290 A 
HETATM    7  O5  UNL     1      20.742  27.534  15.540  1.00  0.00    -0.265 OA
HETATM    8  N6  UNL     1      22.821  28.175  16.143  1.00  0.00    -0.154 N 
ATOM      9  H6  UNL     1      22.915  28.713  15.281  1.00  0.00     0.187 HD
HETATM   10  C21 UNL     1      23.836  28.163  17.008  1.00  0.00     0.680 A 
HETATM   11  N8  UNL     1      23.756  27.469  18.154  1.00  0.00    -0.174 N 
ATOM     12  H8  UNL     1      24.539  27.467  18.808  1.00  0.00     0.186 HD
HETATM   13  C22 UNL     1      22.628  26.769  18.441  1.00  0.00     0.157 A 
ENDROOT
BRANCH   1  14
HETATM   14  C8  UNL     1      23.166  25.733  20.621  1.00  0.00     0.235 C 
BRANCH  14  15
HETATM   15  C7  UNL     1      23.838  24.428  20.405  1.00  0.00     0.238 C 
HETATM   16  N1  UNL     1      25.239  24.266  20.397  1.00  0.00    -0.346 N 
HETATM   17  O1  UNL     1      23.119  23.401  20.217  1.00  0.00    -0.272 OA
BRANCH  16  18
HETATM   18  C6  UNL     1      26.084  25.411  20.617  1.00  0.00     0.126 C 
BRANCH  18  19
HETATM   19  C5  UNL     1      26.555  26.086  19.375  1.00  0.00     0.020 C 
BRANCH  19  20
HETATM   20  C4  UNL     1      28.015  25.886  19.075  1.00  0.00     0.002 C 
BRANCH  20  21
HETATM   21  C3  UNL     1      28.219  25.316  17.693  1.00  0.00    -0.000 C 
BRANCH  21  22
HETATM   22  C2  UNL     1      27.038  25.626  16.789  1.00  0.00    -0.005 C 
HETATM   23  C1  UNL     1      27.445  26.327  15.538  1.00  0.00     0.005 C 
ENDBRANCH  21  22
ENDBRANCH  20  21
ENDBRANCH  19  20
ENDBRANCH  18  19
ENDBRANCH  16  18
BRANCH  16  24
HETATM   24  C23 UNL     1      25.806  22.973  20.159  1.00  0.00     0.087 C 
HETATM   25  C24 UNL     1      27.154  22.734  20.745  1.00  0.00     0.025 C 
HETATM   26  C25 UNL     1      27.380  21.219  20.730  1.00  0.00     0.002 C 
HETATM   27  C26 UNL     1      27.276  20.666  19.338  1.00  0.00     0.000 C 
HETATM   28  C27 UNL     1      26.101  21.165  18.563  1.00  0.00     0.002 C 
HETATM   29  C28 UNL     1      25.913  22.671  18.662  1.00  0.00     0.025 C 
ENDBRANCH  16  24
ENDBRANCH  14  15
ENDBRANCH   1  14
BRANCH   2  30
HETATM   30  C10 UNL     1      20.237  24.696  20.135  1.00  0.00     0.092 C 
BRANCH  30  31
HETATM   31  C11 UNL     1      19.418  23.646  19.496  1.00  0.00     0.103 C 
HETATM   32  C12 UNL     1      18.043  23.426  20.138  1.00  0.00     0.141 C 
HETATM   33  N3  UNL     1      18.169  22.089  19.634  1.00  0.00    -0.342 N 
HETATM   34  C18 UNL     1      19.592  22.232  19.839  1.00  0.00     0.226 C 
HETATM   35  O4  UNL     1      20.417  21.355  20.171  1.00  0.00    -0.273 OA
BRANCH  33  36
HETATM   36  C13 UNL     1      17.338  21.041  19.142  1.00  0.00     0.228 C 
BRANCH  36  37
HETATM   37  C14 UNL     1      17.132  21.204  17.679  1.00  0.00     0.237 C 
HETATM   38  O2  UNL     1      17.923  20.608  16.875  1.00  0.00    -0.272 OA
HETATM   39  N4  UNL     1      16.090  21.995  17.139  1.00  0.00    -0.346 N 
HETATM   40  C15 UNL     1      15.636  22.345  15.814  1.00  0.00     0.159 C 
HETATM   41  C17 UNL     1      15.022  22.801  17.684  1.00  0.00     0.159 C 
HETATM   42  C16 UNL     1      14.242  22.515  16.404  1.00  0.00     0.154 C 
BRANCH  42  43
HETATM   43  O3  UNL     1      13.512  23.566  15.912  1.00  0.00    -0.392 OA
ATOM     44  H3  UNL     1      13.014  23.389  15.123  1.00  0.00     0.210 HD
ENDBRANCH  42  43
ENDBRANCH  36  37
ENDBRANCH  33  36
ENDBRANCH  30  31
ENDBRANCH   2  30
BRANCH  10  45
HETATM   45  N7  UNL     1      24.924  28.815  16.773  1.00  0.00    -0.234 N 
ATOM     46  H72 UNL     1      24.997  29.767  17.133  1.00  0.00     0.174 HD
ATOM     47  H71 UNL     1      25.689  28.395  16.244  1.00  0.00     0.174 HD
ENDBRANCH  10  45
TORSDOF 14
ENDMDL
