MODEL 1
REMARK VINA RESULT: -10.246105497      0.000      0.000
REMARK  14 active torsions:
REMARK  status: ('A' for Active; 'I' for Inactive)
REMARK    1  A    between atoms: O1_2  and  N1_3 
REMARK    2  A    between atoms: C2_5  and  C3_6 
REMARK    3  A    between atoms: C2_5  and  C11_28 
REMARK       I    between atoms: C3_6  and  N2_8 
REMARK    4  A    between atoms: N2_8  and  C4_10 
REMARK    5  A    between atoms: C4_10  and  O3_12 
REMARK    6  A    between atoms: C4_10  and  C6_14 
REMARK    7  A    between atoms: C6_14  and  C7_15 
REMARK    8  A    between atoms: C7_15  and  C8_16 
REMARK    9  A    between atoms: C8_16  and  N3_17 
REMARK   10  A    between atoms: C9_19  and  N4_21 
REMARK   11  A    between atoms: N4_21  and  N5_23 
REMARK       I    between atoms: C11_28  and  N7_30 
REMARK   12  A    between atoms: C16_35  and  N8_36 
REMARK       I    between atoms: N8_36  and  C17_38 
REMARK   13  A    between atoms: C17_38  and  C18_40 
REMARK   14  A    between atoms: C18_40  and  C19_42 
ROOT
HETATM    1  N1  UNL     1      23.837  25.897  18.236  1.00  0.00    -0.257 N 
ATOM      2  H1  UNL     1      24.371  25.449  18.981  1.00  0.00     0.194 HD
HETATM    3  C2  UNL     1      22.583  26.215  18.488  1.00  0.00     0.190 C 
ENDROOT
BRANCH   3   4
HETATM    4  C3  UNL     1      21.855  26.842  17.431  1.00  0.00     0.278 C 
HETATM    5  O2  UNL     1      21.354  28.006  17.671  1.00  0.00    -0.266 OA
HETATM    6  N2  UNL     1      21.646  26.294  16.164  1.00  0.00    -0.324 N 
ATOM      7  H2  UNL     1      22.016  25.378  15.907  1.00  0.00     0.165 HD
BRANCH   6   8
HETATM    8  C4  UNL     1      20.849  27.124  15.203  1.00  0.00     0.130 C 
HETATM    9  C5  UNL     1      21.720  27.384  14.029  1.00  0.00     0.070 C 
BRANCH   8  10
HETATM   10  O3  UNL     1      20.602  28.358  15.854  1.00  0.00    -0.371 OA
ATOM     11  H3  UNL     1      20.888  29.037  15.255  1.00  0.00     0.212 HD
ENDBRANCH   8  10
BRANCH   8  12
HETATM   12  C6  UNL     1      19.560  26.445  14.936  1.00  0.00     0.062 C 
BRANCH  12  13
HETATM   13  C7  UNL     1      18.995  25.567  15.974  1.00  0.00     0.024 C 
BRANCH  13  14
HETATM   14  C8  UNL     1      18.147  24.476  15.416  1.00  0.00     0.121 C 
BRANCH  14  15
HETATM   15  N3  UNL     1      16.816  24.503  16.067  1.00  0.00    -0.379 N 
HETATM   16  C9  UNL     1      16.051  23.491  15.917  1.00  0.00     0.089 C 
HETATM   17  C10 UNL     1      16.459  22.312  15.120  1.00  0.00     0.090 C 
ATOM     18  H3  UNL     1      16.519  25.307  16.619  1.00  0.00     0.160 HD
BRANCH  16  19
HETATM   19  N4  UNL     1      14.774  23.508  16.537  1.00  0.00    -0.276 N 
ATOM     20  H4  UNL     1      14.721  23.511  17.555  1.00  0.00     0.189 HD
BRANCH  19  21
HETATM   21  N5  UNL     1      13.588  23.519  15.801  1.00  0.00    -0.248 N 
HETATM   22  N6  UNL     1      12.905  22.474  15.556  1.00  0.00    -0.331 N 
ATOM     23  H62 UNL     1      13.257  21.589  15.923  1.00  0.00     0.178 HD
ATOM     24  H61 UNL     1      12.038  22.482  15.018  1.00  0.00     0.178 HD
ATOM     25  H5  UNL     1      13.251  24.413  15.442  1.00  0.00     0.207 HD
ENDBRANCH  19  21
ENDBRANCH  16  19
ENDBRANCH  14  15
ENDBRANCH  13  14
ENDBRANCH  12  13
ENDBRANCH   8  12
ENDBRANCH   6   8
ENDBRANCH   3   4
BRANCH   3  26
HETATM   26  C11 UNL     1      22.008  25.937  19.783  1.00  0.00     0.277 C 
HETATM   27  O4  UNL     1      22.174  26.647  20.813  1.00  0.00    -0.266 OA
HETATM   28  N7  UNL     1      21.177  24.783  19.972  1.00  0.00    -0.346 N 
HETATM   29  C12 UNL     1      20.540  24.441  21.247  1.00  0.00     0.131 C 
HETATM   30  C28 UNL     1      20.863  23.817  18.968  1.00  0.00     0.131 C 
HETATM   31  C13 UNL     1      19.383  23.546  20.789  1.00  0.00     0.009 C 
HETATM   32  C14 UNL     1      18.292  24.453  20.297  1.00  0.00     0.009 C 
HETATM   33  C27 UNL     1      20.049  22.772  19.710  1.00  0.00     0.011 C 
HETATM   34  C15 UNL     1      17.346  23.767  19.342  1.00  0.00     0.026 C 
HETATM   35  C16 UNL     1      17.696  22.294  19.333  1.00  0.00     0.085 C 
HETATM   36  C26 UNL     1      19.077  22.176  18.716  1.00  0.00     0.032 C 
BRANCH  35  37
HETATM   37  N8  UNL     1      16.726  21.485  18.674  1.00  0.00    -0.350 N 
HETATM   38  C17 UNL     1      15.500  21.192  19.333  1.00  0.00     0.288 C 
HETATM   39  O5  UNL     1      15.265  21.644  20.498  1.00  0.00    -0.264 OA
ATOM     40  H8  UNL     1      16.909  21.118  17.740  1.00  0.00     0.163 HD
BRANCH  38  41
HETATM   41  C18 UNL     1      14.466  20.368  18.709  1.00  0.00     0.224 C 
HETATM   42  O6  UNL     1      13.890  20.875  17.687  1.00  0.00    -0.286 OA
BRANCH  41  43
HETATM   43  C19 UNL     1      14.108  19.018  19.234  1.00  0.00     0.026 C 
HETATM   44  C20 UNL     1      15.012  17.951  18.642  1.00  0.00     0.024 C 
HETATM   45  C21 UNL     1      14.271  19.016  20.716  1.00  0.00     0.017 C 
HETATM   46  C22 UNL     1      13.451  18.014  21.459  1.00  0.00     0.001 C 
HETATM   47  C23 UNL     1      12.102  17.736  20.886  1.00  0.00     0.000 C 
HETATM   48  C24 UNL     1      12.198  17.493  19.373  1.00  0.00     0.001 C 
HETATM   49  C25 UNL     1      12.671  18.780  18.777  1.00  0.00     0.017 C 
ENDBRANCH  41  43
ENDBRANCH  38  41
ENDBRANCH  35  37
ENDBRANCH   3  26
BRANCH   1  50
HETATM   50  O1  UNL     1      24.467  26.120  17.058  1.00  0.00    -0.285 OA
HETATM   51  C1  UNL     1      25.866  26.150  16.895  1.00  0.00     0.237 C 
ENDBRANCH   1  50
TORSDOF 14
ENDMDL
MODEL 2
REMARK VINA RESULT: -9.707012321      3.141     10.499
REMARK  14 active torsions:
REMARK  status: ('A' for Active; 'I' for Inactive)
REMARK    1  A    between atoms: O1_2  and  N1_3 
REMARK    2  A    between atoms: C2_5  and  C3_6 
REMARK    3  A    between atoms: C2_5  and  C11_28 
REMARK       I    between atoms: C3_6  and  N2_8 
REMARK    4  A    between atoms: N2_8  and  C4_10 
REMARK    5  A    between atoms: C4_10  and  O3_12 
REMARK    6  A    between atoms: C4_10  and  C6_14 
REMARK    7  A    between atoms: C6_14  and  C7_15 
REMARK    8  A    between atoms: C7_15  and  C8_16 
REMARK    9  A    between atoms: C8_16  and  N3_17 
REMARK   10  A    between atoms: C9_19  and  N4_21 
REMARK   11  A    between atoms: N4_21  and  N5_23 
REMARK       I    between atoms: C11_28  and  N7_30 
REMARK   12  A    between atoms: C16_35  and  N8_36 
REMARK       I    between atoms: N8_36  and  C17_38 
REMARK   13  A    between atoms: C17_38  and  C18_40 
REMARK   14  A    between atoms: C18_40  and  C19_42 
ROOT
HETATM    1  N1  UNL     1      10.244  17.778  15.756  1.00  0.00    -0.257 N 
ATOM      2  H1  UNL     1       9.741  17.891  14.877  1.00  0.00     0.194 HD
HETATM    3  C2  UNL     1      10.778  18.854  16.298  1.00  0.00     0.190 C 
ENDROOT
BRANCH   3   4
HETATM    4  C3  UNL     1      11.477  18.672  17.531  1.00  0.00     0.278 C 
HETATM    5  O2  UNL     1      10.865  19.021  18.612  1.00  0.00    -0.266 OA
HETATM    6  N2  UNL     1      12.765  18.148  17.654  1.00  0.00    -0.324 N 
ATOM      7  H2  UNL     1      13.305  17.852  16.841  1.00  0.00     0.165 HD
BRANCH   6   8
HETATM    8  C4  UNL     1      13.311  18.046  19.047  1.00  0.00     0.130 C 
HETATM    9  C5  UNL     1      14.566  17.257  18.964  1.00  0.00     0.070 C 
BRANCH   8  10
HETATM   10  O3  UNL     1      12.365  17.297  19.790  1.00  0.00    -0.371 OA
ATOM     11  H3  UNL     1      12.159  17.817  20.558  1.00  0.00     0.212 HD
ENDBRANCH   8  10
BRANCH   8  12
HETATM   12  C6  UNL     1      13.419  19.407  19.623  1.00  0.00     0.062 C 
BRANCH  12  13
HETATM   13  C7  UNL     1      14.236  20.409  18.919  1.00  0.00     0.024 C 
BRANCH  13  14
HETATM   14  C8  UNL     1      15.631  20.491  19.436  1.00  0.00     0.121 C 
BRANCH  14  15
HETATM   15  N3  UNL     1      15.932  21.888  19.829  1.00  0.00    -0.379 N 
HETATM   16  C9  UNL     1      17.026  22.406  19.422  1.00  0.00     0.089 C 
HETATM   17  C10 UNL     1      17.985  21.653  18.583  1.00  0.00     0.090 C 
ATOM     18  H3  UNL     1      15.283  22.421  20.407  1.00  0.00     0.160 HD
BRANCH  16  19
HETATM   19  N4  UNL     1      17.323  23.744  19.793  1.00  0.00    -0.276 N 
ATOM     20  H4  UNL     1      17.837  23.913  20.658  1.00  0.00     0.189 HD
BRANCH  19  21
HETATM   21  N5  UNL     1      16.936  24.836  19.015  1.00  0.00    -0.248 N 
HETATM   22  N6  UNL     1      15.733  25.055  18.663  1.00  0.00    -0.331 N 
ATOM     23  H62 UNL     1      15.027  24.387  18.973  1.00  0.00     0.178 HD
ATOM     24  H61 UNL     1      15.450  25.854  18.094  1.00  0.00     0.178 HD
ATOM     25  H5  UNL     1      17.656  25.494  18.715  1.00  0.00     0.207 HD
ENDBRANCH  19  21
ENDBRANCH  16  19
ENDBRANCH  14  15
ENDBRANCH  13  14
ENDBRANCH  12  13
ENDBRANCH   8  12
ENDBRANCH   6   8
ENDBRANCH   3   4
BRANCH   3  26
HETATM   26  C11 UNL     1      10.638  20.138  15.654  1.00  0.00     0.277 C 
HETATM   27  O4  UNL     1       9.566  20.802  15.595  1.00  0.00    -0.266 OA
HETATM   28  N7  UNL     1      11.767  20.757  15.021  1.00  0.00    -0.346 N 
HETATM   29  C12 UNL     1      11.713  22.066  14.365  1.00  0.00     0.131 C 
HETATM   30  C28 UNL     1      13.077  20.195  14.934  1.00  0.00     0.131 C 
HETATM   31  C13 UNL     1      13.186  22.491  14.391  1.00  0.00     0.009 C 
HETATM   32  C14 UNL     1      13.470  23.009  15.772  1.00  0.00     0.009 C 
HETATM   33  C27 UNL     1      13.847  21.195  14.092  1.00  0.00     0.011 C 
HETATM   34  C15 UNL     1      14.936  22.957  16.127  1.00  0.00     0.026 C 
HETATM   35  C16 UNL     1      15.694  22.566  14.876  1.00  0.00     0.085 C 
HETATM   36  C26 UNL     1      15.290  21.142  14.544  1.00  0.00     0.032 C 
BRANCH  35  37
HETATM   37  N8  UNL     1      17.105  22.725  14.995  1.00  0.00    -0.350 N 
HETATM   38  C17 UNL     1      17.628  23.950  15.494  1.00  0.00     0.288 C 
HETATM   39  O5  UNL     1      16.851  24.898  15.833  1.00  0.00    -0.264 OA
ATOM     40  H8  UNL     1      17.734  21.969  14.724  1.00  0.00     0.163 HD
BRANCH  38  41
HETATM   41  C18 UNL     1      19.066  24.173  15.640  1.00  0.00     0.224 C 
HETATM   42  O6  UNL     1      19.761  23.145  15.945  1.00  0.00    -0.286 OA
BRANCH  41  43
HETATM   43  C19 UNL     1      19.681  25.518  15.443  1.00  0.00     0.026 C 
HETATM   44  C20 UNL     1      18.800  26.392  14.567  1.00  0.00     0.024 C 
HETATM   45  C21 UNL     1      19.839  26.177  16.771  1.00  0.00     0.017 C 
HETATM   46  C22 UNL     1      20.908  27.215  16.859  1.00  0.00     0.001 C 
HETATM   47  C23 UNL     1      22.127  26.953  16.038  1.00  0.00     0.000 C 
HETATM   48  C24 UNL     1      21.738  26.549  14.609  1.00  0.00     0.001 C 
HETATM   49  C25 UNL     1      21.004  25.253  14.731  1.00  0.00     0.017 C 
ENDBRANCH  41  43
ENDBRANCH  38  41
ENDBRANCH  35  37
ENDBRANCH   3  26
BRANCH   1  50
HETATM   50  O1  UNL     1      10.316  16.532  16.284  1.00  0.00    -0.285 OA
HETATM   51  C1  UNL     1      10.914  15.428  15.644  1.00  0.00     0.237 C 
ENDBRANCH   1  50
TORSDOF 14
ENDMDL
MODEL 3
REMARK VINA RESULT: -9.335298294      0.978      1.105
REMARK  14 active torsions:
REMARK  status: ('A' for Active; 'I' for Inactive)
REMARK    1  A    between atoms: O1_2  and  N1_3 
REMARK    2  A    between atoms: C2_5  and  C3_6 
REMARK    3  A    between atoms: C2_5  and  C11_28 
REMARK       I    between atoms: C3_6  and  N2_8 
REMARK    4  A    between atoms: N2_8  and  C4_10 
REMARK    5  A    between atoms: C4_10  and  O3_12 
REMARK    6  A    between atoms: C4_10  and  C6_14 
REMARK    7  A    between atoms: C6_14  and  C7_15 
REMARK    8  A    between atoms: C7_15  and  C8_16 
REMARK    9  A    between atoms: C8_16  and  N3_17 
REMARK   10  A    between atoms: C9_19  and  N4_21 
REMARK   11  A    between atoms: N4_21  and  N5_23 
REMARK       I    between atoms: C11_28  and  N7_30 
REMARK   12  A    between atoms: C16_35  and  N8_36 
REMARK       I    between atoms: N8_36  and  C17_38 
REMARK   13  A    between atoms: C17_38  and  C18_40 
REMARK   14  A    between atoms: C18_40  and  C19_42 
ROOT
HETATM    1  N1  UNL     1      23.860  24.944  19.211  1.00  0.00    -0.257 N 
ATOM      2  H1  UNL     1      23.958  24.391  20.062  1.00  0.00     0.194 HD
HETATM    3  C2  UNL     1      22.817  25.744  19.118  1.00  0.00     0.190 C 
ENDROOT
BRANCH   3   4
HETATM    4  C3  UNL     1      22.702  26.511  17.917  1.00  0.00     0.278 C 
HETATM    5  O2  UNL     1      23.301  27.653  17.888  1.00  0.00    -0.266 OA
HETATM    6  N2  UNL     1      21.995  26.120  16.779  1.00  0.00    -0.324 N 
ATOM      7  H2  UNL     1      21.500  25.229  16.734  1.00  0.00     0.165 HD
BRANCH   6   8
HETATM    8  C4  UNL     1      22.003  27.080  15.628  1.00  0.00     0.130 C 
HETATM    9  C5  UNL     1      23.419  27.260  15.222  1.00  0.00     0.070 C 
BRANCH   8  10
HETATM   10  O3  UNL     1      21.527  28.314  16.137  1.00  0.00    -0.371 OA
ATOM     11  H3  UNL     1      21.775  28.337  17.054  1.00  0.00     0.212 HD
ENDBRANCH   8  10
BRANCH   8  12
HETATM   12  C6  UNL     1      21.071  26.590  14.586  1.00  0.00     0.062 C 
BRANCH  12  13
HETATM   13  C7  UNL     1      19.630  26.543  14.891  1.00  0.00     0.024 C 
BRANCH  13  14
HETATM   14  C8  UNL     1      19.169  25.191  15.314  1.00  0.00     0.121 C 
BRANCH  14  15
HETATM   15  N3  UNL     1      17.692  25.191  15.442  1.00  0.00    -0.379 N 
HETATM   16  C9  UNL     1      17.096  24.065  15.536  1.00  0.00     0.089 C 
HETATM   17  C10 UNL     1      17.834  22.783  15.521  1.00  0.00     0.090 C 
ATOM     18  H3  UNL     1      17.167  26.065  15.454  1.00  0.00     0.160 HD
BRANCH  16  19
HETATM   19  N4  UNL     1      15.681  24.055  15.659  1.00  0.00    -0.276 N 
ATOM     20  H4  UNL     1      15.139  24.765  15.167  1.00  0.00     0.189 HD
BRANCH  19  21
HETATM   21  N5  UNL     1      15.006  23.107  16.430  1.00  0.00    -0.248 N 
HETATM   22  N6  UNL     1      13.853  23.305  16.933  1.00  0.00    -0.331 N 
ATOM     23  H62 UNL     1      13.415  24.209  16.754  1.00  0.00     0.178 HD
ATOM     24  H61 UNL     1      13.360  22.612  17.496  1.00  0.00     0.178 HD
ATOM     25  H5  UNL     1      15.459  22.209  16.598  1.00  0.00     0.207 HD
ENDBRANCH  19  21
ENDBRANCH  16  19
ENDBRANCH  14  15
ENDBRANCH  13  14
ENDBRANCH  12  13
ENDBRANCH   8  12
ENDBRANCH   6   8
ENDBRANCH   3   4
BRANCH   3  26
HETATM   26  C11 UNL     1      21.861  25.822  20.196  1.00  0.00     0.277 C 
HETATM   27  O4  UNL     1      21.719  26.815  20.963  1.00  0.00    -0.266 OA
HETATM   28  N7  UNL     1      20.980  24.722  20.463  1.00  0.00    -0.346 N 
HETATM   29  C12 UNL     1      19.970  24.731  21.524  1.00  0.00     0.131 C 
HETATM   30  C28 UNL     1      20.965  23.484  19.752  1.00  0.00     0.131 C 
HETATM   31  C13 UNL     1      18.986  23.663  21.030  1.00  0.00     0.009 C 
HETATM   32  C14 UNL     1      18.128  24.308  19.979  1.00  0.00     0.009 C 
HETATM   33  C27 UNL     1      19.932  22.652  20.491  1.00  0.00     0.011 C 
HETATM   34  C15 UNL     1      17.506  23.307  19.036  1.00  0.00     0.026 C 
HETATM   35  C16 UNL     1      17.800  21.925  19.580  1.00  0.00     0.085 C 
HETATM   36  C26 UNL     1      19.299  21.724  19.478  1.00  0.00     0.032 C 
BRANCH  35  37
HETATM   37  N8  UNL     1      17.059  20.893  18.935  1.00  0.00    -0.350 N 
HETATM   38  C17 UNL     1      15.638  20.951  18.935  1.00  0.00     0.288 C 
HETATM   39  O5  UNL     1      15.027  21.911  19.504  1.00  0.00    -0.264 OA
ATOM     40  H8  UNL     1      17.543  20.120  18.477  1.00  0.00     0.163 HD
BRANCH  38  41
HETATM   41  C18 UNL     1      14.824  19.923  18.290  1.00  0.00     0.224 C 
HETATM   42  O6  UNL     1      14.625  20.073  17.036  1.00  0.00    -0.286 OA
BRANCH  41  43
HETATM   43  C19 UNL     1      14.260  18.768  19.050  1.00  0.00     0.026 C 
HETATM   44  C20 UNL     1      15.021  17.492  18.736  1.00  0.00     0.024 C 
HETATM   45  C21 UNL     1      14.375  19.047  20.510  1.00  0.00     0.017 C 
HETATM   46  C22 UNL     1      13.398  18.337  21.386  1.00  0.00     0.001 C 
HETATM   47  C23 UNL     1      12.042  18.130  20.800  1.00  0.00     0.000 C 
HETATM   48  C24 UNL     1      12.149  17.572  19.374  1.00  0.00     0.001 C 
HETATM   49  C25 UNL     1      12.819  18.635  18.565  1.00  0.00     0.017 C 
ENDBRANCH  41  43
ENDBRANCH  38  41
ENDBRANCH  35  37
ENDBRANCH   3  26
BRANCH   1  50
HETATM   50  O1  UNL     1      24.812  24.804  18.258  1.00  0.00    -0.285 OA
HETATM   51  C1  UNL     1      26.196  24.942  18.486  1.00  0.00     0.237 C 
ENDBRANCH   1  50
TORSDOF 14
ENDMDL
MODEL 4
REMARK VINA RESULT: -9.008262882      4.643     11.233
REMARK  14 active torsions:
REMARK  status: ('A' for Active; 'I' for Inactive)
REMARK    1  A    between atoms: O1_2  and  N1_3 
REMARK    2  A    between atoms: C2_5  and  C3_6 
REMARK    3  A    between atoms: C2_5  and  C11_28 
REMARK       I    between atoms: C3_6  and  N2_8 
REMARK    4  A    between atoms: N2_8  and  C4_10 
REMARK    5  A    between atoms: C4_10  and  O3_12 
REMARK    6  A    between atoms: C4_10  and  C6_14 
REMARK    7  A    between atoms: C6_14  and  C7_15 
REMARK    8  A    between atoms: C7_15  and  C8_16 
REMARK    9  A    between atoms: C8_16  and  N3_17 
REMARK   10  A    between atoms: C9_19  and  N4_21 
REMARK   11  A    between atoms: N4_21  and  N5_23 
REMARK       I    between atoms: C11_28  and  N7_30 
REMARK   12  A    between atoms: C16_35  and  N8_36 
REMARK       I    between atoms: N8_36  and  C17_38 
REMARK   13  A    between atoms: C17_38  and  C18_40 
REMARK   14  A    between atoms: C18_40  and  C19_42 
ROOT
HETATM    1  N1  UNL     1       9.927  19.788  16.553  1.00  0.00    -0.257 N 
ATOM      2  H1  UNL     1       9.930  20.462  17.318  1.00  0.00     0.194 HD
HETATM    3  C2  UNL     1      10.538  18.638  16.749  1.00  0.00     0.190 C 
ENDROOT
BRANCH   3   4
HETATM    4  C3  UNL     1      10.520  17.708  15.663  1.00  0.00     0.278 C 
HETATM    5  O2  UNL     1       9.589  16.815  15.668  1.00  0.00    -0.266 OA
HETATM    6  N2  UNL     1      11.429  17.694  14.603  1.00  0.00    -0.324 N 
ATOM      7  H2  UNL     1      12.188  18.371  14.537  1.00  0.00     0.165 HD
BRANCH   6   8
HETATM    8  C4  UNL     1      11.227  16.627  13.569  1.00  0.00     0.130 C 
HETATM    9  C5  UNL     1      11.899  17.091  12.330  1.00  0.00     0.070 C 
BRANCH   8  10
HETATM   10  O3  UNL     1       9.832  16.571  13.323  1.00  0.00    -0.371 OA
ATOM     11  H3  UNL     1       9.733  16.304  12.417  1.00  0.00     0.212 HD
ENDBRANCH   8  10
BRANCH   8  12
HETATM   12  C6  UNL     1      11.677  15.329  14.122  1.00  0.00     0.062 C 
BRANCH  12  13
HETATM   13  C7  UNL     1      10.881  14.123  13.835  1.00  0.00     0.024 C 
BRANCH  13  14
HETATM   14  C8  UNL     1      10.598  13.309  15.051  1.00  0.00     0.121 C 
BRANCH  14  15
HETATM   15  N3  UNL     1      10.488  14.201  16.229  1.00  0.00    -0.379 N 
HETATM   16  C9  UNL     1       9.750  13.827  17.202  1.00  0.00     0.089 C 
HETATM   17  C10 UNL     1       9.013  12.544  17.177  1.00  0.00     0.090 C 
ATOM     18  H3  UNL     1      10.989  15.090  16.262  1.00  0.00     0.160 HD
BRANCH  16  19
HETATM   19  N4  UNL     1       9.639  14.675  18.335  1.00  0.00    -0.276 N 
ATOM     20  H4  UNL     1      10.339  14.603  19.074  1.00  0.00     0.189 HD
BRANCH  19  21
HETATM   21  N5  UNL     1       8.607  15.604  18.474  1.00  0.00    -0.248 N 
HETATM   22  N6  UNL     1       7.500  15.342  19.044  1.00  0.00    -0.331 N 
ATOM     23  H62 UNL     1       7.377  14.399  19.414  1.00  0.00     0.178 HD
ATOM     24  H61 UNL     1       6.745  16.021  19.146  1.00  0.00     0.178 HD
ATOM     25  H5  UNL     1       8.748  16.542  18.099  1.00  0.00     0.207 HD
ENDBRANCH  19  21
ENDBRANCH  16  19
ENDBRANCH  14  15
ENDBRANCH  13  14
ENDBRANCH  12  13
ENDBRANCH   8  12
ENDBRANCH   6   8
ENDBRANCH   3   4
BRANCH   3  26
HETATM   26  C11 UNL     1      11.179  18.360  18.012  1.00  0.00     0.277 C 
HETATM   27  O4  UNL     1      10.867  17.413  18.786  1.00  0.00    -0.266 OA
HETATM   28  N7  UNL     1      12.257  19.186  18.473  1.00  0.00    -0.346 N 
HETATM   29  C12 UNL     1      12.973  18.959  19.732  1.00  0.00     0.131 C 
HETATM   30  C28 UNL     1      12.775  20.328  17.790  1.00  0.00     0.131 C 
HETATM   31  C13 UNL     1      14.301  19.681  19.473  1.00  0.00     0.009 C 
HETATM   32  C14 UNL     1      15.145  18.763  18.635  1.00  0.00     0.009 C 
HETATM   33  C27 UNL     1      13.818  20.882  18.743  1.00  0.00     0.011 C 
HETATM   34  C15 UNL     1      16.212  19.495  17.859  1.00  0.00     0.026 C 
HETATM   35  C16 UNL     1      16.212  20.934  18.331  1.00  0.00     0.085 C 
HETATM   36  C26 UNL     1      14.889  21.538  17.901  1.00  0.00     0.032 C 
BRANCH  35  37
HETATM   37  N8  UNL     1      17.335  21.681  17.871  1.00  0.00    -0.350 N 
HETATM   38  C17 UNL     1      17.926  22.650  18.729  1.00  0.00     0.288 C 
HETATM   39  O5  UNL     1      17.462  22.853  19.896  1.00  0.00    -0.264 OA
ATOM     40  H8  UNL     1      17.712  21.523  16.936  1.00  0.00     0.163 HD
BRANCH  38  41
HETATM   41  C18 UNL     1      19.080  23.446  18.314  1.00  0.00     0.224 C 
HETATM   42  O6  UNL     1      20.208  23.087  18.797  1.00  0.00    -0.286 OA
BRANCH  41  43
HETATM   43  C19 UNL     1      18.946  24.606  17.385  1.00  0.00     0.026 C 
HETATM   44  C20 UNL     1      17.559  25.217  17.479  1.00  0.00     0.024 C 
HETATM   45  C21 UNL     1      19.951  25.643  17.756  1.00  0.00     0.017 C 
HETATM   46  C22 UNL     1      20.366  26.569  16.662  1.00  0.00     0.001 C 
HETATM   47  C23 UNL     1      20.428  25.965  15.299  1.00  0.00     0.000 C 
HETATM   48  C24 UNL     1      19.157  25.154  15.008  1.00  0.00     0.001 C 
HETATM   49  C25 UNL     1      19.155  24.026  15.989  1.00  0.00     0.017 C 
ENDBRANCH  41  43
ENDBRANCH  38  41
ENDBRANCH  35  37
ENDBRANCH   3  26
BRANCH   1  50
HETATM   50  O1  UNL     1       9.294  20.140  15.407  1.00  0.00    -0.285 OA
HETATM   51  C1  UNL     1       9.734  21.153  14.532  1.00  0.00     0.237 C 
ENDBRANCH   1  50
TORSDOF 14
ENDMDL
MODEL 5
REMARK VINA RESULT: -8.941425729      3.728     10.572
REMARK  14 active torsions:
REMARK  status: ('A' for Active; 'I' for Inactive)
REMARK    1  A    between atoms: O1_2  and  N1_3 
REMARK    2  A    between atoms: C2_5  and  C3_6 
REMARK    3  A    between atoms: C2_5  and  C11_28 
REMARK       I    between atoms: C3_6  and  N2_8 
REMARK    4  A    between atoms: N2_8  and  C4_10 
REMARK    5  A    between atoms: C4_10  and  O3_12 
REMARK    6  A    between atoms: C4_10  and  C6_14 
REMARK    7  A    between atoms: C6_14  and  C7_15 
REMARK    8  A    between atoms: C7_15  and  C8_16 
REMARK    9  A    between atoms: C8_16  and  N3_17 
REMARK   10  A    between atoms: C9_19  and  N4_21 
REMARK   11  A    between atoms: N4_21  and  N5_23 
REMARK       I    between atoms: C11_28  and  N7_30 
REMARK   12  A    between atoms: C16_35  and  N8_36 
REMARK       I    between atoms: N8_36  and  C17_38 
REMARK   13  A    between atoms: C17_38  and  C18_40 
REMARK   14  A    between atoms: C18_40  and  C19_42 
ROOT
HETATM    1  N1  UNL     1      12.793  18.243  13.069  1.00  0.00    -0.257 N 
ATOM      2  H1  UNL     1      13.357  18.917  12.552  1.00  0.00     0.194 HD
HETATM    3  C2  UNL     1      11.862  18.712  13.874  1.00  0.00     0.190 C 
ENDROOT
BRANCH   3   4
HETATM    4  C3  UNL     1      11.085  17.748  14.586  1.00  0.00     0.278 C 
HETATM    5  O2  UNL     1       9.876  18.077  14.893  1.00  0.00    -0.266 OA
HETATM    6  N2  UNL     1      11.531  16.484  14.974  1.00  0.00    -0.324 N 
ATOM      7  H2  UNL     1      12.475  16.159  14.763  1.00  0.00     0.165 HD
BRANCH   6   8
HETATM    8  C4  UNL     1      10.548  15.630  15.717  1.00  0.00     0.130 C 
HETATM    9  C5  UNL     1      10.154  14.527  14.805  1.00  0.00     0.070 C 
BRANCH   8  10
HETATM   10  O3  UNL     1       9.411  16.443  15.948  1.00  0.00    -0.371 OA
ATOM     11  H3  UNL     1       9.292  16.472  16.890  1.00  0.00     0.212 HD
ENDBRANCH   8  10
BRANCH   8  12
HETATM   12  C6  UNL     1      11.140  15.236  17.018  1.00  0.00     0.062 C 
BRANCH  12  13
HETATM   13  C7  UNL     1      10.579  15.812  18.252  1.00  0.00     0.024 C 
BRANCH  13  14
HETATM   14  C8  UNL     1      11.312  17.023  18.715  1.00  0.00     0.121 C 
BRANCH  14  15
HETATM   15  N3  UNL     1      10.743  18.226  18.063  1.00  0.00    -0.379 N 
HETATM   16  C9  UNL     1      11.531  19.193  17.789  1.00  0.00     0.089 C 
HETATM   17  C10 UNL     1      12.976  19.140  18.105  1.00  0.00     0.090 C 
ATOM     18  H3  UNL     1       9.749  18.280  17.839  1.00  0.00     0.160 HD
BRANCH  16  19
HETATM   19  N4  UNL     1      10.994  20.350  17.164  1.00  0.00    -0.276 N 
ATOM     20  H4  UNL     1      11.616  21.132  16.960  1.00  0.00     0.189 HD
BRANCH  19  21
HETATM   21  N5  UNL     1       9.647  20.453  16.817  1.00  0.00    -0.248 N 
HETATM   22  N6  UNL     1       9.105  21.536  16.425  1.00  0.00    -0.331 N 
ATOM     23  H62 UNL     1       9.701  22.362  16.367  1.00  0.00     0.178 HD
ATOM     24  H61 UNL     1       8.119  21.612  16.172  1.00  0.00     0.178 HD
ATOM     25  H5  UNL     1       9.065  19.617  16.881  1.00  0.00     0.207 HD
ENDBRANCH  19  21
ENDBRANCH  16  19
ENDBRANCH  14  15
ENDBRANCH  13  14
ENDBRANCH  12  13
ENDBRANCH   8  12
ENDBRANCH   6   8
ENDBRANCH   3   4
BRANCH   3  26
HETATM   26  C11 UNL     1      11.660  20.136  14.000  1.00  0.00     0.277 C 
HETATM   27  O4  UNL     1      10.536  20.709  13.982  1.00  0.00    -0.266 OA
HETATM   28  N7  UNL     1      12.783  21.014  14.164  1.00  0.00    -0.346 N 
HETATM   29  C12 UNL     1      12.661  22.466  14.320  1.00  0.00     0.131 C 
HETATM   30  C28 UNL     1      14.152  20.609  14.191  1.00  0.00     0.131 C 
HETATM   31  C13 UNL     1      13.985  22.819  15.009  1.00  0.00     0.009 C 
HETATM   32  C14 UNL     1      13.829  22.483  16.464  1.00  0.00     0.009 C 
HETATM   33  C27 UNL     1      14.917  21.917  14.284  1.00  0.00     0.011 C 
HETATM   34  C15 UNL     1      15.149  22.256  17.158  1.00  0.00     0.026 C 
HETATM   35  C16 UNL     1      16.246  22.637  16.186  1.00  0.00     0.085 C 
HETATM   36  C26 UNL     1      16.191  21.636  15.048  1.00  0.00     0.032 C 
BRANCH  35  37
HETATM   37  N8  UNL     1      17.535  22.718  16.789  1.00  0.00    -0.350 N 
HETATM   38  C17 UNL     1      18.019  23.980  17.232  1.00  0.00     0.288 C 
HETATM   39  O5  UNL     1      17.314  25.030  17.095  1.00  0.00    -0.264 OA
ATOM     40  H8  UNL     1      18.105  21.880  16.901  1.00  0.00     0.163 HD
BRANCH  38  41
HETATM   41  C18 UNL     1      19.332  24.126  17.858  1.00  0.00     0.224 C 
HETATM   42  O6  UNL     1      20.262  24.573  17.104  1.00  0.00    -0.286 OA
BRANCH  41  43
HETATM   43  C19 UNL     1      19.568  23.775  19.289  1.00  0.00     0.026 C 
HETATM   44  C20 UNL     1      18.363  24.136  20.140  1.00  0.00     0.024 C 
HETATM   45  C21 UNL     1      19.806  22.307  19.395  1.00  0.00     0.017 C 
HETATM   46  C22 UNL     1      20.600  21.860  20.576  1.00  0.00     0.001 C 
HETATM   47  C23 UNL     1      21.677  22.794  21.018  1.00  0.00     0.000 C 
HETATM   48  C24 UNL     1      21.141  24.231  21.109  1.00  0.00     0.001 C 
HETATM   49  C25 UNL     1      20.766  24.620  19.715  1.00  0.00     0.017 C 
ENDBRANCH  41  43
ENDBRANCH  38  41
ENDBRANCH  35  37
ENDBRANCH   3  26
BRANCH   1  50
HETATM   50  O1  UNL     1      13.057  16.927  12.878  1.00  0.00    -0.285 OA
HETATM   51  C1  UNL     1      12.840  16.238  11.668  1.00  0.00     0.237 C 
ENDBRANCH   1  50
TORSDOF 14
ENDMDL
