MODEL 1
REMARK VINA RESULT: -7.178730037      0.000      0.000
REMARK  3 active torsions:
REMARK  status: ('A' for Active; 'I' for Inactive)
REMARK    1  A    between atoms: C2_5  and  C3_6 
REMARK    2  A    between atoms: C6_15  and  N6_16 
REMARK    3  A    between atoms: C10_29  and  N9_30 
ROOT
HETATM    1  C3  UNL     1      23.201  20.402  52.690  1.00  0.00     0.185 A 
HETATM    2  N3  UNL     1      24.417  19.982  53.082  1.00  0.00    -0.318 N 
ATOM      3  H3  UNL     1      24.770  19.992  54.039  1.00  0.00     0.169 HD
HETATM    4  C4  UNL     1      25.090  19.547  52.001  1.00  0.00     0.163 A 
HETATM    5  N4  UNL     1      26.332  19.036  51.867  1.00  0.00    -0.172 N 
ATOM      6  H4  UNL     1      26.940  18.921  52.677  1.00  0.00     0.186 HD
HETATM    7  C5  UNL     1      26.745  18.682  50.643  1.00  0.00     0.712 A 
HETATM    8  N5  UNL     1      27.989  18.159  50.446  1.00  0.00    -0.021 N 
ATOM      9  H5  UNL     1      28.600  18.044  51.256  1.00  0.00     0.203 HD
HETATM   10  C6  UNL     1      28.449  17.789  49.245  1.00  0.00     0.694 A 
HETATM   11  N7  UNL     1      27.635  17.947  48.190  1.00  0.00    -0.140 N 
ATOM     12  H7  UNL     1      27.951  17.677  47.259  1.00  0.00     0.189 HD
HETATM   13  C7  UNL     1      26.409  18.457  48.358  1.00  0.00     0.362 A 
HETATM   14  O1  UNL     1      25.657  18.600  47.370  1.00  0.00    -0.245 OA
HETATM   15  N8  UNL     1      25.938  18.835  49.582  1.00  0.00    -0.055 N 
HETATM   16  C8  UNL     1      24.697  19.342  49.685  1.00  0.00     0.308 A 
HETATM   17  O2  UNL     1      23.928  19.491  48.700  1.00  0.00    -0.264 OA
HETATM   18  C9  UNL     1      24.244  19.714  50.926  1.00  0.00     0.191 A 
HETATM   19  O3  UNL     1      23.139  20.227  51.417  1.00  0.00    -0.281 OA
ENDROOT
BRANCH   1  20
HETATM   20  C2  UNL     1      22.191  20.946  53.615  1.00  0.00     0.144 A 
HETATM   21  N2  UNL     1      21.569  22.112  53.624  1.00  0.00    -0.286 N 
HETATM   22  N1  UNL     1      20.718  22.380  54.531  1.00  0.00    -0.275 N 
ATOM     23  H2  UNL     1      21.773  22.801  52.900  1.00  0.00     0.188 HD
HETATM   24  C1  UNL     1      20.003  23.676  54.569  1.00  0.00     0.180 C 
HETATM   25  C10 UNL     1      20.468  21.464  55.468  1.00  0.00     0.161 A 
HETATM   26  S1  UNL     1      21.514  20.192  54.986  1.00  0.00    -0.029 SA
BRANCH  25  27
HETATM   27  N9  UNL     1      19.633  21.545  56.479  1.00  0.00    -0.378 N 
ATOM     28  H92 UNL     1      19.464  20.900  57.250  1.00  0.00     0.158 HD
ATOM     29  H91 UNL     1      18.970  22.291  56.692  1.00  0.00     0.158 HD
ENDBRANCH  25  27
ENDBRANCH   1  20
BRANCH  10  30
HETATM   30  N6  UNL     1      29.628  17.298  49.081  1.00  0.00    -0.234 N 
ATOM     31  H62 UNL     1      29.856  16.380  49.464  1.00  0.00     0.174 HD
ATOM     32  H61 UNL     1      30.360  17.795  48.574  1.00  0.00     0.174 HD
ENDBRANCH  10  30
TORSDOF 3
ENDMDL
MODEL 2
REMARK VINA RESULT: -7.143702176      1.245      1.537
REMARK  3 active torsions:
REMARK  status: ('A' for Active; 'I' for Inactive)
REMARK    1  A    between atoms: C2_5  and  C3_6 
REMARK    2  A    between atoms: C6_15  and  N6_16 
REMARK    3  A    between atoms: C10_29  and  N9_30 
ROOT
HETATM    1  C3  UNL     1      22.464  20.980  53.834  1.00  0.00     0.185 A 
HETATM    2  N3  UNL     1      23.679  20.506  54.158  1.00  0.00    -0.318 N 
ATOM      3  H3  UNL     1      24.080  20.485  55.096  1.00  0.00     0.169 HD
HETATM    4  C4  UNL     1      24.280  20.063  53.038  1.00  0.00     0.163 A 
HETATM    5  N4  UNL     1      25.492  19.505  52.834  1.00  0.00    -0.172 N 
ATOM      6  H4  UNL     1      26.135  19.353  53.610  1.00  0.00     0.186 HD
HETATM    7  C5  UNL     1      25.828  19.155  51.586  1.00  0.00     0.712 A 
HETATM    8  N5  UNL     1      27.039  18.587  51.319  1.00  0.00    -0.021 N 
ATOM      9  H5  UNL     1      27.684  18.434  52.095  1.00  0.00     0.203 HD
HETATM   10  C6  UNL     1      27.424  18.219  50.090  1.00  0.00     0.694 A 
HETATM   11  N7  UNL     1      26.565  18.427  49.081  1.00  0.00    -0.140 N 
ATOM     12  H7  UNL     1      26.823  18.161  48.131  1.00  0.00     0.189 HD
HETATM   13  C7  UNL     1      25.370  18.983  49.317  1.00  0.00     0.362 A 
HETATM   14  O1  UNL     1      24.576  19.172  48.371  1.00  0.00    -0.245 OA
HETATM   15  N8  UNL     1      24.977  19.358  50.569  1.00  0.00    -0.055 N 
HETATM   16  C8  UNL     1      23.763  19.912  50.743  1.00  0.00     0.308 A 
HETATM   17  O2  UNL     1      22.953  20.108  49.799  1.00  0.00    -0.264 OA
HETATM   18  C9  UNL     1      23.388  20.281  52.009  1.00  0.00     0.191 A 
HETATM   19  O3  UNL     1      22.331  20.829  52.563  1.00  0.00    -0.281 OA
ENDROOT
BRANCH   1  20
HETATM   20  C2  UNL     1      21.524  21.547  54.817  1.00  0.00     0.144 A 
HETATM   21  N2  UNL     1      20.434  22.275  54.647  1.00  0.00    -0.286 N 
HETATM   22  N1  UNL     1      19.758  22.667  55.652  1.00  0.00    -0.275 N 
ATOM     23  H2  UNL     1      20.132  22.525  53.705  1.00  0.00     0.188 HD
HETATM   24  C1  UNL     1      18.533  23.483  55.496  1.00  0.00     0.180 C 
HETATM   25  C10 UNL     1      20.172  22.330  56.874  1.00  0.00     0.161 A 
HETATM   26  S1  UNL     1      21.581  21.418  56.516  1.00  0.00    -0.029 SA
BRANCH  25  27
HETATM   27  N9  UNL     1      19.621  22.630  58.028  1.00  0.00    -0.378 N 
ATOM     28  H92 UNL     1      18.704  23.021  58.243  1.00  0.00     0.158 HD
ATOM     29  H91 UNL     1      20.020  22.529  58.962  1.00  0.00     0.158 HD
ENDBRANCH  25  27
ENDBRANCH   1  20
BRANCH  10  30
HETATM   30  N6  UNL     1      28.572  17.685  49.860  1.00  0.00    -0.234 N 
ATOM     31  H62 UNL     1      29.207  17.487  50.633  1.00  0.00     0.174 HD
ATOM     32  H61 UNL     1      28.882  17.443  48.918  1.00  0.00     0.174 HD
ENDBRANCH  10  30
TORSDOF 3
ENDMDL
MODEL 3
REMARK VINA RESULT: -7.018610801      1.444      1.745
REMARK  3 active torsions:
REMARK  status: ('A' for Active; 'I' for Inactive)
REMARK    1  A    between atoms: C2_5  and  C3_6 
REMARK    2  A    between atoms: C6_15  and  N6_16 
REMARK    3  A    between atoms: C10_29  and  N9_30 
ROOT
HETATM    1  C3  UNL     1      22.704  20.926  53.702  1.00  0.00     0.185 A 
HETATM    2  N3  UNL     1      23.912  20.409  53.988  1.00  0.00    -0.318 N 
ATOM      3  H3  UNL     1      24.339  20.372  54.914  1.00  0.00     0.169 HD
HETATM    4  C4  UNL     1      24.464  19.951  52.849  1.00  0.00     0.163 A 
HETATM    5  N4  UNL     1      25.650  19.353  52.608  1.00  0.00    -0.172 N 
ATOM      6  H4  UNL     1      26.310  19.176  53.365  1.00  0.00     0.186 HD
HETATM    7  C5  UNL     1      25.938  18.997  51.350  1.00  0.00     0.712 A 
HETATM    8  N5  UNL     1      27.120  18.389  51.046  1.00  0.00    -0.021 N 
ATOM      9  H5  UNL     1      27.782  18.211  51.802  1.00  0.00     0.203 HD
HETATM   10  C6  UNL     1      27.456  18.014  49.805  1.00  0.00     0.694 A 
HETATM   11  N7  UNL     1      26.575  18.254  48.822  1.00  0.00    -0.140 N 
ATOM     12  H7  UNL     1      26.796  17.983  47.864  1.00  0.00     0.189 HD
HETATM   13  C7  UNL     1      25.408  18.849  49.095  1.00  0.00     0.362 A 
HETATM   14  O1  UNL     1      24.593  19.069  48.173  1.00  0.00    -0.245 OA
HETATM   15  N8  UNL     1      25.064  19.233  50.359  1.00  0.00    -0.055 N 
HETATM   16  C8  UNL     1      23.876  19.827  50.570  1.00  0.00     0.308 A 
HETATM   17  O2  UNL     1      23.045  20.054  49.651  1.00  0.00    -0.264 OA
HETATM   18  C9  UNL     1      23.551  20.203  51.848  1.00  0.00     0.191 A 
HETATM   19  O3  UNL     1      22.529  20.785  52.434  1.00  0.00    -0.281 OA
ENDROOT
BRANCH   1  20
HETATM   20  C2  UNL     1      21.813  21.521  54.713  1.00  0.00     0.144 A 
HETATM   21  N2  UNL     1      21.511  21.125  55.937  1.00  0.00    -0.286 N 
HETATM   22  N1  UNL     1      20.704  21.801  56.652  1.00  0.00    -0.275 N 
ATOM     23  H2  UNL     1      21.927  20.272  56.311  1.00  0.00     0.188 HD
HETATM   24  C1  UNL     1      20.345  21.385  58.026  1.00  0.00     0.180 C 
HETATM   25  C10 UNL     1      20.172  22.913  56.142  1.00  0.00     0.161 A 
HETATM   26  S1  UNL     1      20.886  22.946  54.582  1.00  0.00    -0.029 SA
BRANCH  25  27
HETATM   27  N9  UNL     1      19.327  23.743  56.711  1.00  0.00    -0.378 N 
ATOM     28  H92 UNL     1      18.350  23.616  56.973  1.00  0.00     0.158 HD
ATOM     29  H91 UNL     1      19.492  24.705  57.007  1.00  0.00     0.158 HD
ENDBRANCH  25  27
ENDBRANCH   1  20
BRANCH  10  30
HETATM   30  N6  UNL     1      28.578  17.441  49.539  1.00  0.00    -0.234 N 
ATOM     31  H62 UNL     1      29.328  17.444  50.230  1.00  0.00     0.174 HD
ATOM     32  H61 UNL     1      28.754  16.973  48.650  1.00  0.00     0.174 HD
ENDBRANCH  10  30
TORSDOF 3
ENDMDL
MODEL 4
REMARK VINA RESULT: -6.980180594      1.025      1.035
REMARK  3 active torsions:
REMARK  status: ('A' for Active; 'I' for Inactive)
REMARK    1  A    between atoms: C2_5  and  C3_6 
REMARK    2  A    between atoms: C6_15  and  N6_16 
REMARK    3  A    between atoms: C10_29  and  N9_30 
ROOT
HETATM    1  C3  UNL     1      24.024  19.995  52.428  1.00  0.00     0.185 A 
HETATM    2  N3  UNL     1      25.186  19.381  52.712  1.00  0.00    -0.318 N 
ATOM      3  H3  UNL     1      25.574  19.246  53.646  1.00  0.00     0.169 HD
HETATM    4  C4  UNL     1      25.751  18.975  51.560  1.00  0.00     0.163 A 
HETATM    5  N4  UNL     1      26.905  18.322  51.312  1.00  0.00    -0.172 N 
ATOM      6  H4  UNL     1      27.524  18.046  52.074  1.00  0.00     0.186 HD
HETATM    7  C5  UNL     1      27.218  18.045  50.040  1.00  0.00     0.712 A 
HETATM    8  N5  UNL     1      28.371  17.386  49.728  1.00  0.00    -0.021 N 
ATOM      9  H5  UNL     1      28.991  17.109  50.489  1.00  0.00     0.203 HD
HETATM   10  C6  UNL     1      28.729  17.085  48.473  1.00  0.00     0.694 A 
HETATM   11  N7  UNL     1      27.903  17.456  47.484  1.00  0.00    -0.140 N 
ATOM     12  H7  UNL     1      28.142  17.245  46.516  1.00  0.00     0.189 HD
HETATM   13  C7  UNL     1      26.765  18.103  47.764  1.00  0.00     0.362 A 
HETATM   14  O1  UNL     1      26.001  18.444  46.836  1.00  0.00    -0.245 OA
HETATM   15  N8  UNL     1      26.398  18.411  49.043  1.00  0.00    -0.055 N 
HETATM   16  C8  UNL     1      25.242  19.063  49.260  1.00  0.00     0.308 A 
HETATM   17  O2  UNL     1      24.463  19.413  48.335  1.00  0.00    -0.264 OA
HETATM   18  C9  UNL     1      24.893  19.362  50.552  1.00  0.00     0.191 A 
HETATM   19  O3  UNL     1      23.889  19.962  51.148  1.00  0.00    -0.281 OA
ENDROOT
BRANCH   1  20
HETATM   20  C2  UNL     1      23.134  20.569  53.453  1.00  0.00     0.144 A 
HETATM   21  N2  UNL     1      22.199  21.497  53.361  1.00  0.00    -0.286 N 
HETATM   22  N1  UNL     1      21.537  21.849  54.389  1.00  0.00    -0.275 N 
ATOM     23  H2  UNL     1      22.005  21.935  52.460  1.00  0.00     0.188 HD
HETATM   24  C1  UNL     1      20.482  22.885  54.320  1.00  0.00     0.180 C 
HETATM   25  C10 UNL     1      21.808  21.264  55.557  1.00  0.00     0.161 A 
HETATM   26  S1  UNL     1      23.060  20.179  55.111  1.00  0.00    -0.029 SA
BRANCH  25  27
HETATM   27  N9  UNL     1      21.244  21.482  56.724  1.00  0.00    -0.378 N 
ATOM     28  H92 UNL     1      21.180  22.335  57.278  1.00  0.00     0.158 HD
ATOM     29  H91 UNL     1      20.749  20.817  57.319  1.00  0.00     0.158 HD
ENDBRANCH  25  27
ENDBRANCH   1  20
BRANCH  10  30
HETATM   30  N6  UNL     1      29.822  16.462  48.201  1.00  0.00    -0.234 N 
ATOM     31  H62 UNL     1      30.025  15.567  48.647  1.00  0.00     0.174 HD
ATOM     32  H61 UNL     1      30.510  16.831  47.543  1.00  0.00     0.174 HD
ENDBRANCH  10  30
TORSDOF 3
ENDMDL
MODEL 5
REMARK VINA RESULT: -6.873090573      1.663      2.208
REMARK  3 active torsions:
REMARK  status: ('A' for Active; 'I' for Inactive)
REMARK    1  A    between atoms: C2_5  and  C3_6 
REMARK    2  A    between atoms: C6_15  and  N6_16 
REMARK    3  A    between atoms: C10_29  and  N9_30 
ROOT
HETATM    1  C3  UNL     1      23.374  20.295  52.663  1.00  0.00     0.185 A 
HETATM    2  N3  UNL     1      23.096  20.256  51.348  1.00  0.00    -0.318 N 
ATOM      3  H3  UNL     1      22.229  20.573  50.914  1.00  0.00     0.169 HD
HETATM    4  C4  UNL     1      24.152  19.730  50.701  1.00  0.00     0.163 A 
HETATM    5  N4  UNL     1      24.366  19.483  49.391  1.00  0.00    -0.172 N 
ATOM      6  H4  UNL     1      23.654  19.702  48.695  1.00  0.00     0.186 HD
HETATM    7  C5  UNL     1      25.536  18.942  49.030  1.00  0.00     0.712 A 
HETATM    8  N5  UNL     1      25.809  18.670  47.721  1.00  0.00    -0.021 N 
ATOM      9  H5  UNL     1      25.098  18.888  47.023  1.00  0.00     0.203 HD
HETATM   10  C6  UNL     1      26.962  18.130  47.308  1.00  0.00     0.694 A 
HETATM   11  N7  UNL     1      27.887  17.848  48.238  1.00  0.00    -0.140 N 
ATOM     12  H7  UNL     1      28.777  17.436  47.961  1.00  0.00     0.189 HD
HETATM   13  C7  UNL     1      27.643  18.106  49.528  1.00  0.00     0.362 A 
HETATM   14  O1  UNL     1      28.510  17.841  50.388  1.00  0.00    -0.245 OA
HETATM   15  N8  UNL     1      26.468  18.656  49.952  1.00  0.00    -0.055 N 
HETATM   16  C8  UNL     1      26.282  18.891  51.263  1.00  0.00     0.308 A 
HETATM   17  O2  UNL     1      27.147  18.630  52.140  1.00  0.00    -0.264 OA
HETATM   18  C9  UNL     1      25.094  19.445  51.667  1.00  0.00     0.191 A 
HETATM   19  O3  UNL     1      24.557  19.810  52.808  1.00  0.00    -0.281 OA
ENDROOT
BRANCH   1  20
HETATM   20  C2  UNL     1      22.440  20.813  53.678  1.00  0.00     0.144 A 
HETATM   21  N2  UNL     1      21.694  21.904  53.686  1.00  0.00    -0.286 N 
HETATM   22  N1  UNL     1      20.945  22.164  54.681  1.00  0.00    -0.275 N 
ATOM     23  H2  UNL     1      21.717  22.541  52.890  1.00  0.00     0.188 HD
HETATM   24  C1  UNL     1      20.097  23.377  54.722  1.00  0.00     0.180 C 
HETATM   25  C10 UNL     1      20.930  21.318  55.712  1.00  0.00     0.161 A 
HETATM   26  S1  UNL     1      22.044  20.123  55.185  1.00  0.00    -0.029 SA
BRANCH  25  27
HETATM   27  N9  UNL     1      20.234  21.404  56.823  1.00  0.00    -0.378 N 
ATOM     28  H92 UNL     1      19.279  21.724  56.982  1.00  0.00     0.158 HD
ATOM     29  H91 UNL     1      20.525  21.160  57.770  1.00  0.00     0.158 HD
ENDBRANCH  25  27
ENDBRANCH   1  20
BRANCH  10  30
HETATM   30  N6  UNL     1      27.199  17.881  46.067  1.00  0.00    -0.234 N 
ATOM     31  H62 UNL     1      27.976  17.272  45.808  1.00  0.00     0.174 HD
ATOM     32  H61 UNL     1      26.631  18.271  45.314  1.00  0.00     0.174 HD
ENDBRANCH  10  30
TORSDOF 3
ENDMDL
