MODEL 1
REMARK VINA RESULT: -5.550745230      0.000      0.000
REMARK  3 active torsions:
REMARK  status: ('A' for Active; 'I' for Inactive)
REMARK       I    between atoms: C1_4  and  N2_5 
REMARK       I    between atoms: C1_4  and  N4_10 
REMARK    1  A    between atoms: N2_5  and  N3_7 
REMARK    2  A    between atoms: N4_10  and  S1_12 
REMARK    3  A    between atoms: S1_12  and  N5_13 
ROOT
HETATM    1  N1  UNL     1      56.723  67.609  61.242  1.00  0.00    -0.233 N 
ATOM      2  H11 UNL     1      57.473  67.365  60.595  1.00  0.00     0.174 HD
ATOM      3  H12 UNL     1      55.874  67.054  61.343  1.00  0.00     0.174 HD
HETATM    4  C1  UNL     1      56.852  68.668  61.969  1.00  0.00     0.700 C 
HETATM    5  N2  UNL     1      55.811  69.007  62.867  1.00  0.00    -0.138 N 
ATOM      6  H2  UNL     1      55.868  68.643  63.819  1.00  0.00     0.205 HD
HETATM    7  N4  UNL     1      58.035  69.441  61.828  1.00  0.00    -0.099 N 
ATOM      8  H4  UNL     1      58.033  70.414  62.136  1.00  0.00     0.199 HD
ENDROOT
BRANCH   5   9
HETATM    9  N3  UNL     1      54.716  69.801  62.543  1.00  0.00    -0.331 N 
ATOM     10  H32 UNL     1      54.810  70.802  62.715  1.00  0.00     0.177 HD
ATOM     11  H31 UNL     1      53.842  69.450  62.151  1.00  0.00     0.177 HD
ENDBRANCH   5   9
BRANCH   7  12
HETATM   12  S1  UNL     1      59.473  68.777  61.150  1.00  0.00     0.330 S 
HETATM   13  O1  UNL     1      59.222  68.285  59.752  1.00  0.00    -0.182 OA
HETATM   14  O2  UNL     1      60.496  69.848  61.089  1.00  0.00    -0.182 OA
BRANCH  12  15
HETATM   15  N5  UNL     1      60.032  67.492  62.153  1.00  0.00    -0.311 N 
ATOM     16  H52 UNL     1      59.427  66.819  62.624  1.00  0.00     0.170 HD
ATOM     17  H51 UNL     1      61.051  67.517  62.195  1.00  0.00     0.170 HD
ENDBRANCH  12  15
ENDBRANCH   7  12
TORSDOF 3
ENDMDL
MODEL 2
REMARK VINA RESULT: -5.519339605      1.236      1.561
REMARK  3 active torsions:
REMARK  status: ('A' for Active; 'I' for Inactive)
REMARK       I    between atoms: C1_4  and  N2_5 
REMARK       I    between atoms: C1_4  and  N4_10 
REMARK    1  A    between atoms: N2_5  and  N3_7 
REMARK    2  A    between atoms: N4_10  and  S1_12 
REMARK    3  A    between atoms: S1_12  and  N5_13 
ROOT
HETATM    1  N1  UNL     1      56.732  67.501  61.526  1.00  0.00    -0.233 N 
ATOM      2  H11 UNL     1      57.462  67.201  60.881  1.00  0.00     0.174 HD
ATOM      3  H12 UNL     1      55.930  66.918  61.767  1.00  0.00     0.174 HD
HETATM    4  C1  UNL     1      56.822  68.670  62.066  1.00  0.00     0.700 C 
HETATM    5  N2  UNL     1      55.808  69.086  62.962  1.00  0.00    -0.138 N 
ATOM      6  H2  UNL     1      55.940  68.887  63.954  1.00  0.00     0.205 HD
HETATM    7  N4  UNL     1      57.939  69.482  61.730  1.00  0.00    -0.099 N 
ATOM      8  H4  UNL     1      57.884  70.489  61.878  1.00  0.00     0.199 HD
ENDROOT
BRANCH   5   9
HETATM    9  N3  UNL     1      54.644  69.748  62.584  1.00  0.00    -0.331 N 
ATOM     10  H32 UNL     1      54.135  69.361  61.790  1.00  0.00     0.177 HD
ATOM     11  H31 UNL     1      54.277  70.581  63.045  1.00  0.00     0.177 HD
ENDBRANCH   5   9
BRANCH   7  12
HETATM   12  S1  UNL     1      59.384  68.806  61.077  1.00  0.00     0.330 S 
HETATM   13  O1  UNL     1      60.537  69.754  61.247  1.00  0.00    -0.182 OA
HETATM   14  O2  UNL     1      59.692  67.562  61.822  1.00  0.00    -0.182 OA
BRANCH  12  15
HETATM   15  N5  UNL     1      59.137  68.442  59.410  1.00  0.00    -0.311 N 
ATOM     16  H52 UNL     1      59.485  69.009  58.637  1.00  0.00     0.170 HD
ATOM     17  H51 UNL     1      58.596  67.582  59.331  1.00  0.00     0.170 HD
ENDBRANCH  12  15
ENDBRANCH   7  12
TORSDOF 3
ENDMDL
MODEL 3
REMARK VINA RESULT: -5.502879774      3.583      4.510
REMARK  3 active torsions:
REMARK  status: ('A' for Active; 'I' for Inactive)
REMARK       I    between atoms: C1_4  and  N2_5 
REMARK       I    between atoms: C1_4  and  N4_10 
REMARK    1  A    between atoms: N2_5  and  N3_7 
REMARK    2  A    between atoms: N4_10  and  S1_12 
REMARK    3  A    between atoms: S1_12  and  N5_13 
ROOT
HETATM    1  N1  UNL     1      59.607  67.240  58.665  1.00  0.00    -0.233 N 
ATOM      2  H11 UNL     1      59.065  66.424  58.381  1.00  0.00     0.174 HD
ATOM      3  H12 UNL     1      60.466  67.527  58.195  1.00  0.00     0.174 HD
HETATM    4  C1  UNL     1      59.192  67.945  59.662  1.00  0.00     0.700 C 
HETATM    5  N2  UNL     1      59.945  69.078  60.056  1.00  0.00    -0.138 N 
ATOM      6  H2  UNL     1      59.705  69.976  59.636  1.00  0.00     0.205 HD
HETATM    7  N4  UNL     1      57.996  67.545  60.317  1.00  0.00    -0.099 N 
ATOM      8  H4  UNL     1      57.815  67.873  61.266  1.00  0.00     0.199 HD
ENDROOT
BRANCH   5   9
HETATM    9  N3  UNL     1      60.988  69.051  60.976  1.00  0.00    -0.331 N 
ATOM     10  H32 UNL     1      61.787  69.652  60.778  1.00  0.00     0.177 HD
ATOM     11  H31 UNL     1      61.001  68.477  61.819  1.00  0.00     0.177 HD
ENDBRANCH   5   9
BRANCH   7  12
HETATM   12  S1  UNL     1      56.844  66.520  59.547  1.00  0.00     0.330 S 
HETATM   13  O1  UNL     1      56.199  67.225  58.386  1.00  0.00    -0.182 OA
HETATM   14  O2  UNL     1      57.555  65.328  59.029  1.00  0.00    -0.182 OA
BRANCH  12  15
HETATM   15  N5  UNL     1      55.656  66.037  60.698  1.00  0.00    -0.311 N 
ATOM     16  H52 UNL     1      55.826  65.937  61.699  1.00  0.00     0.170 HD
ATOM     17  H51 UNL     1      54.771  65.871  60.218  1.00  0.00     0.170 HD
ENDBRANCH  12  15
ENDBRANCH   7  12
TORSDOF 3
ENDMDL
MODEL 4
REMARK VINA RESULT: -5.480530031      2.375      3.314
REMARK  3 active torsions:
REMARK  status: ('A' for Active; 'I' for Inactive)
REMARK       I    between atoms: C1_4  and  N2_5 
REMARK       I    between atoms: C1_4  and  N4_10 
REMARK    1  A    between atoms: N2_5  and  N3_7 
REMARK    2  A    between atoms: N4_10  and  S1_12 
REMARK    3  A    between atoms: S1_12  and  N5_13 
ROOT
HETATM    1  N1  UNL     1      59.243  67.603  61.759  1.00  0.00    -0.233 N 
ATOM      2  H11 UNL     1      59.427  66.707  61.307  1.00  0.00     0.174 HD
ATOM      3  H12 UNL     1      59.753  67.925  62.582  1.00  0.00     0.174 HD
HETATM    4  C1  UNL     1      58.325  68.367  61.271  1.00  0.00     0.700 C 
HETATM    5  N2  UNL     1      58.069  69.611  61.899  1.00  0.00    -0.138 N 
ATOM      6  H2  UNL     1      58.584  70.426  61.565  1.00  0.00     0.205 HD
HETATM    7  N4  UNL     1      57.614  67.919  60.126  1.00  0.00    -0.099 N 
ATOM      8  H4  UNL     1      56.706  68.330  59.911  1.00  0.00     0.199 HD
ENDROOT
BRANCH   5   9
HETATM    9  N3  UNL     1      57.166  69.798  62.940  1.00  0.00    -0.331 N 
ATOM     10  H32 UNL     1      56.177  69.798  62.693  1.00  0.00     0.177 HD
ATOM     11  H31 UNL     1      57.428  69.932  63.917  1.00  0.00     0.177 HD
ENDBRANCH   5   9
BRANCH   7  12
HETATM   12  S1  UNL     1      58.251  66.697  59.089  1.00  0.00     0.330 S 
HETATM   13  O1  UNL     1      59.591  66.229  59.582  1.00  0.00    -0.182 OA
HETATM   14  O2  UNL     1      57.321  65.543  59.105  1.00  0.00    -0.182 OA
BRANCH  12  15
HETATM   15  N5  UNL     1      58.378  67.322  57.488  1.00  0.00    -0.311 N 
ATOM     16  H52 UNL     1      58.146  68.279  57.219  1.00  0.00     0.170 HD
ATOM     17  H51 UNL     1      58.717  66.588  56.867  1.00  0.00     0.170 HD
ENDBRANCH  12  15
ENDBRANCH   7  12
TORSDOF 3
ENDMDL
MODEL 5
REMARK VINA RESULT: -5.370751304      2.251      3.082
REMARK  3 active torsions:
REMARK  status: ('A' for Active; 'I' for Inactive)
REMARK       I    between atoms: C1_4  and  N2_5 
REMARK       I    between atoms: C1_4  and  N4_10 
REMARK    1  A    between atoms: N2_5  and  N3_7 
REMARK    2  A    between atoms: N4_10  and  S1_12 
REMARK    3  A    between atoms: S1_12  and  N5_13 
ROOT
HETATM    1  N1  UNL     1      57.301  67.124  60.955  1.00  0.00    -0.233 N 
ATOM      2  H11 UNL     1      57.858  67.243  61.801  1.00  0.00     0.174 HD
ATOM      3  H12 UNL     1      56.418  66.614  60.939  1.00  0.00     0.174 HD
HETATM    4  C1  UNL     1      57.729  67.640  59.852  1.00  0.00     0.700 C 
HETATM    5  N2  UNL     1      56.955  67.475  58.678  1.00  0.00    -0.138 N 
ATOM      6  H2  UNL     1      56.263  68.192  58.460  1.00  0.00     0.205 HD
HETATM    7  N4  UNL     1      58.959  68.350  59.875  1.00  0.00    -0.099 N 
ATOM      8  H4  UNL     1      59.468  68.492  59.002  1.00  0.00     0.199 HD
ENDROOT
BRANCH   5   9
HETATM    9  N3  UNL     1      57.074  66.403  57.800  1.00  0.00    -0.331 N 
ATOM     10  H32 UNL     1      57.004  65.470  58.205  1.00  0.00     0.177 HD
ATOM     11  H31 UNL     1      57.224  66.492  56.795  1.00  0.00     0.177 HD
ENDBRANCH   5   9
BRANCH   7  12
HETATM   12  S1  UNL     1      59.613  68.978  61.341  1.00  0.00     0.330 S 
HETATM   13  O1  UNL     1      60.690  69.986  61.052  1.00  0.00    -0.182 OA
HETATM   14  O2  UNL     1      58.525  69.659  62.081  1.00  0.00    -0.182 OA
BRANCH  12  15
HETATM   15  N5  UNL     1      60.237  67.678  62.286  1.00  0.00    -0.311 N 
ATOM     16  H52 UNL     1      60.697  66.852  61.902  1.00  0.00     0.170 HD
ATOM     17  H51 UNL     1      60.072  67.871  63.273  1.00  0.00     0.170 HD
ENDBRANCH  12  15
ENDBRANCH   7  12
TORSDOF 3
ENDMDL
