MODEL 1
REMARK VINA RESULT: -6.482161338      0.000      0.000
REMARK  6 active torsions:
REMARK  status: ('A' for Active; 'I' for Inactive)
REMARK    1  A    between atoms: C2_2  and  C4_4 
REMARK    2  A    between atoms: C4_4  and  C5_5 
REMARK    3  A    between atoms: N3_12  and  C7_13 
REMARK    4  A    between atoms: C9_15  and  C10_16 
REMARK    5  A    between atoms: C10_16  and  O1_18 
REMARK    6  A    between atoms: C13_22  and  O3_23 
ROOT
HETATM    1  C5  UNL     1      16.657   3.129  15.568  1.00  0.00     0.078 A 
HETATM    2  N1  UNL     1      17.917   3.471  15.846  1.00  0.00    -0.191 N 
ATOM      3  H1  UNL     1      18.490   3.103  16.605  1.00  0.00     0.184 HD
HETATM    4  C6  UNL     1      18.290   4.393  14.936  1.00  0.00     0.682 A 
HETATM    5  N2  UNL     1      19.474   4.928  14.939  1.00  0.00    -0.234 N 
ATOM      6  H21 UNL     1      19.756   5.625  14.251  1.00  0.00     0.174 HD
ATOM      7  H22 UNL     1      20.241   4.742  15.585  1.00  0.00     0.174 HD
HETATM    8  N3  UNL     1      17.282   4.637  14.088  1.00  0.00    -0.133 N 
HETATM    9  C13 UNL     1      16.243   3.865  14.451  1.00  0.00     0.184 A 
ENDROOT
BRANCH   8  10
HETATM   10  C7  UNL     1      17.303   5.552  12.993  1.00  0.00     0.248 C 
HETATM   11  C8  UNL     1      16.493   6.816  13.253  1.00  0.00     0.064 C 
HETATM   12  C9  UNL     1      16.336   7.349  11.844  1.00  0.00     0.042 C 
HETATM   13  C12 UNL     1      16.431   6.110  11.018  1.00  0.00     0.177 C 
HETATM   14  O2  UNL     1      16.668   5.048  11.860  1.00  0.00    -0.365 OA
BRANCH  12  15
HETATM   15  C10 UNL     1      15.030   8.084  11.649  1.00  0.00     0.120 C 
HETATM   16  C11 UNL     1      14.566   8.053  10.216  1.00  0.00     0.040 C 
BRANCH  15  17
HETATM   17  O1  UNL     1      14.050   7.636  12.528  1.00  0.00    -0.396 OA
ATOM     18  H1  UNL     1      13.488   8.344  12.819  1.00  0.00     0.210 HD
ENDBRANCH  15  17
ENDBRANCH  12  15
ENDBRANCH   8  10
BRANCH   9  19
HETATM   19  O3  UNL     1      15.005   3.821  13.825  1.00  0.00    -0.344 OA
ATOM     20  H3  UNL     1      14.815   3.995  12.911  1.00  0.00     0.219 HD
ENDBRANCH   9  19
BRANCH   1  21
HETATM   21  C4  UNL     1      15.759   2.175  16.230  1.00  0.00     0.066 C 
BRANCH  21  22
HETATM   22  C2  UNL     1      14.653   2.791  17.011  1.00  0.00    -0.017 C 
HETATM   23  C1  UNL     1      13.323   2.129  16.807  1.00  0.00     0.010 C 
HETATM   24  C3  UNL     1      15.018   2.894  18.484  1.00  0.00     0.010 C 
ENDBRANCH  21  22
ENDBRANCH   1  21
TORSDOF 6
ENDMDL
MODEL 2
REMARK VINA RESULT: -6.360833114      1.477      1.723
REMARK  6 active torsions:
REMARK  status: ('A' for Active; 'I' for Inactive)
REMARK    1  A    between atoms: C2_2  and  C4_4 
REMARK    2  A    between atoms: C4_4  and  C5_5 
REMARK    3  A    between atoms: N3_12  and  C7_13 
REMARK    4  A    between atoms: C9_15  and  C10_16 
REMARK    5  A    between atoms: C10_16  and  O1_18 
REMARK    6  A    between atoms: C13_22  and  O3_23 
ROOT
HETATM    1  C5  UNL     1      16.749   3.299  14.837  1.00  0.00     0.078 A 
HETATM    2  N1  UNL     1      17.843   3.865  15.351  1.00  0.00    -0.191 N 
ATOM      3  H1  UNL     1      18.179   3.771  16.310  1.00  0.00     0.184 HD
HETATM    4  C6  UNL     1      18.420   4.584  14.368  1.00  0.00     0.682 A 
HETATM    5  N2  UNL     1      19.513   5.259  14.556  1.00  0.00    -0.234 N 
ATOM      6  H21 UNL     1      19.950   5.803  13.811  1.00  0.00     0.174 HD
ATOM      7  H22 UNL     1      20.058   5.339  15.414  1.00  0.00     0.174 HD
HETATM    8  N3  UNL     1      17.704   4.478  13.240  1.00  0.00    -0.133 N 
HETATM    9  C13 UNL     1      16.652   3.682  13.494  1.00  0.00     0.184 A 
ENDROOT
BRANCH   8  10
HETATM   10  C7  UNL     1      18.003   5.098  11.990  1.00  0.00     0.248 C 
HETATM   11  C8  UNL     1      17.193   6.365  11.740  1.00  0.00     0.064 C 
HETATM   12  C9  UNL     1      17.380   6.533  10.247  1.00  0.00     0.042 C 
HETATM   13  C12 UNL     1      17.624   5.132   9.793  1.00  0.00     0.177 C 
HETATM   14  O2  UNL     1      17.629   4.316  10.900  1.00  0.00    -0.365 OA
BRANCH  12  15
HETATM   15  C10 UNL     1      16.176   7.161   9.584  1.00  0.00     0.120 C 
HETATM   16  C11 UNL     1      16.358   7.316   8.096  1.00  0.00     0.040 C 
BRANCH  15  17
HETATM   17  O1  UNL     1      15.001   6.487   9.902  1.00  0.00    -0.396 OA
ATOM     18  H1  UNL     1      14.320   6.645   9.260  1.00  0.00     0.210 HD
ENDBRANCH  15  17
ENDBRANCH  12  15
ENDBRANCH   8  10
BRANCH   9  19
HETATM   19  O3  UNL     1      15.667   3.322  12.585  1.00  0.00    -0.344 OA
ATOM     20  H3  UNL     1      15.787   3.043  11.685  1.00  0.00     0.219 HD
ENDBRANCH   9  19
BRANCH   1  21
HETATM   21  C4  UNL     1      15.750   2.419  15.455  1.00  0.00     0.066 C 
BRANCH  21  22
HETATM   22  C2  UNL     1      14.979   3.029  16.572  1.00  0.00    -0.017 C 
HETATM   23  C1  UNL     1      14.420   4.384  16.253  1.00  0.00     0.010 C 
HETATM   24  C3  UNL     1      13.909   2.076  17.081  1.00  0.00     0.010 C 
ENDBRANCH  21  22
ENDBRANCH   1  21
TORSDOF 6
ENDMDL
MODEL 3
REMARK VINA RESULT: -6.353361332      2.583      6.160
REMARK  6 active torsions:
REMARK  status: ('A' for Active; 'I' for Inactive)
REMARK    1  A    between atoms: C2_2  and  C4_4 
REMARK    2  A    between atoms: C4_4  and  C5_5 
REMARK    3  A    between atoms: N3_12  and  C7_13 
REMARK    4  A    between atoms: C9_15  and  C10_16 
REMARK    5  A    between atoms: C10_16  and  O1_18 
REMARK    6  A    between atoms: C13_22  and  O3_23 
ROOT
HETATM    1  C5  UNL     1      18.611   7.640  13.443  1.00  0.00     0.078 A 
HETATM    2  N1  UNL     1      19.531   6.864  14.018  1.00  0.00    -0.191 N 
ATOM      3  H1  UNL     1      20.495   7.121  14.227  1.00  0.00     0.184 HD
HETATM    4  C6  UNL     1      18.948   5.675  14.270  1.00  0.00     0.682 A 
HETATM    5  N2  UNL     1      19.590   4.695  14.831  1.00  0.00    -0.234 N 
ATOM      6  H21 UNL     1      19.149   3.795  15.021  1.00  0.00     0.174 HD
ATOM      7  H22 UNL     1      20.562   4.682  15.141  1.00  0.00     0.174 HD
HETATM    8  N3  UNL     1      17.672   5.692  13.861  1.00  0.00    -0.133 N 
HETATM    9  C13 UNL     1      17.425   6.905  13.339  1.00  0.00     0.184 A 
ENDROOT
BRANCH   8  10
HETATM   10  C7  UNL     1      16.740   4.617  13.961  1.00  0.00     0.248 C 
HETATM   11  C8  UNL     1      16.113   4.492  15.344  1.00  0.00     0.064 C 
HETATM   12  C9  UNL     1      15.555   3.087  15.279  1.00  0.00     0.042 C 
HETATM   13  C12 UNL     1      16.451   2.429  14.283  1.00  0.00     0.177 C 
HETATM   14  O2  UNL     1      17.343   3.369  13.821  1.00  0.00    -0.365 OA
BRANCH  12  15
HETATM   15  C10 UNL     1      15.572   2.398  16.625  1.00  0.00     0.120 C 
HETATM   16  C11 UNL     1      14.212   1.882  17.020  1.00  0.00     0.040 C 
BRANCH  15  17
HETATM   17  O1  UNL     1      16.547   1.408  16.686  1.00  0.00    -0.396 OA
ATOM     18  H1  UNL     1      17.040   1.448  17.496  1.00  0.00     0.210 HD
ENDBRANCH  15  17
ENDBRANCH  12  15
ENDBRANCH   8  10
BRANCH   9  19
HETATM   19  O3  UNL     1      16.216   7.328  12.803  1.00  0.00    -0.344 OA
ATOM     20  H3  UNL     1      15.344   7.145  13.131  1.00  0.00     0.219 HD
ENDBRANCH   9  19
BRANCH   1  21
HETATM   21  C4  UNL     1      18.697   9.025  12.962  1.00  0.00     0.066 C 
BRANCH  21  22
HETATM   22  C2  UNL     1      19.583   9.914  13.761  1.00  0.00    -0.017 C 
HETATM   23  C1  UNL     1      19.661  11.319  13.242  1.00  0.00     0.010 C 
HETATM   24  C3  UNL     1      19.212   9.871  15.235  1.00  0.00     0.010 C 
ENDBRANCH  21  22
ENDBRANCH   1  21
TORSDOF 6
ENDMDL
MODEL 4
REMARK VINA RESULT: -6.346509212      2.051      2.927
REMARK  6 active torsions:
REMARK  status: ('A' for Active; 'I' for Inactive)
REMARK    1  A    between atoms: C2_2  and  C4_4 
REMARK    2  A    between atoms: C4_4  and  C5_5 
REMARK    3  A    between atoms: N3_12  and  C7_13 
REMARK    4  A    between atoms: C9_15  and  C10_16 
REMARK    5  A    between atoms: C10_16  and  O1_18 
REMARK    6  A    between atoms: C13_22  and  O3_23 
ROOT
HETATM    1  C5  UNL     1      16.404   2.234  15.437  1.00  0.00     0.078 A 
HETATM    2  N1  UNL     1      16.533   1.190  14.615  1.00  0.00    -0.191 N 
ATOM      3  H1  UNL     1      16.485   0.206  14.876  1.00  0.00     0.184 HD
HETATM    4  C6  UNL     1      16.740   1.681  13.377  1.00  0.00     0.682 A 
HETATM    5  N2  UNL     1      16.906   0.908  12.346  1.00  0.00    -0.234 N 
ATOM      6  H21 UNL     1      17.062   1.280  11.409  1.00  0.00     0.174 HD
ATOM      7  H22 UNL     1      16.904  -0.111  12.324  1.00  0.00     0.174 HD
HETATM    8  N3  UNL     1      16.743   3.020  13.408  1.00  0.00    -0.133 N 
HETATM    9  C13 UNL     1      16.535   3.403  14.679  1.00  0.00     0.184 A 
ENDROOT
BRANCH   8  10
HETATM   10  C7  UNL     1      16.932   3.889  12.291  1.00  0.00     0.248 C 
HETATM   11  C8  UNL     1      18.368   4.379  12.148  1.00  0.00     0.064 C 
HETATM   12  C9  UNL     1      18.176   5.558  11.219  1.00  0.00     0.042 C 
HETATM   13  C12 UNL     1      16.771   5.970  11.505  1.00  0.00     0.177 C 
HETATM   14  O2  UNL     1      16.245   5.094  12.426  1.00  0.00    -0.365 OA
BRANCH  12  15
HETATM   15  C10 UNL     1      19.174   6.663  11.478  1.00  0.00     0.120 C 
HETATM   16  C11 UNL     1      18.549   7.847  12.171  1.00  0.00     0.040 C 
BRANCH  15  17
HETATM   17  O1  UNL     1      20.298   6.196  12.150  1.00  0.00    -0.396 OA
ATOM     18  H1  UNL     1      20.852   6.908  12.449  1.00  0.00     0.210 HD
ENDBRANCH  15  17
ENDBRANCH  12  15
ENDBRANCH   8  10
BRANCH   9  19
HETATM   19  O3  UNL     1      16.468   4.713  15.132  1.00  0.00    -0.344 OA
ATOM     20  H3  UNL     1      16.967   5.105  15.840  1.00  0.00     0.219 HD
ENDBRANCH   9  19
BRANCH   1  21
HETATM   21  C4  UNL     1      16.166   2.285  16.885  1.00  0.00     0.066 C 
BRANCH  21  22
HETATM   22  C2  UNL     1      14.824   2.788  17.284  1.00  0.00    -0.017 C 
HETATM   23  C1  UNL     1      13.695   1.884  16.886  1.00  0.00     0.010 C 
HETATM   24  C3  UNL     1      14.787   3.127  18.766  1.00  0.00     0.010 C 
ENDBRANCH  21  22
ENDBRANCH   1  21
TORSDOF 6
ENDMDL
MODEL 5
REMARK VINA RESULT: -6.329205637      2.792      6.818
REMARK  6 active torsions:
REMARK  status: ('A' for Active; 'I' for Inactive)
REMARK    1  A    between atoms: C2_2  and  C4_4 
REMARK    2  A    between atoms: C4_4  and  C5_5 
REMARK    3  A    between atoms: N3_12  and  C7_13 
REMARK    4  A    between atoms: C9_15  and  C10_16 
REMARK    5  A    between atoms: C10_16  and  O1_18 
REMARK    6  A    between atoms: C13_22  and  O3_23 
ROOT
HETATM    1  C5  UNL     1      18.368   5.918  10.158  1.00  0.00     0.078 A 
HETATM    2  N1  UNL     1      19.442   5.521  10.843  1.00  0.00    -0.191 N 
ATOM      3  H1  UNL     1      20.402   5.834  10.698  1.00  0.00     0.184 HD
HETATM    4  C6  UNL     1      19.022   4.628  11.761  1.00  0.00     0.682 A 
HETATM    5  N2  UNL     1      19.839   4.052  12.590  1.00  0.00    -0.234 N 
ATOM      6  H21 UNL     1      19.521   3.376  13.285  1.00  0.00     0.174 HD
ATOM      7  H22 UNL     1      20.848   4.182  12.664  1.00  0.00     0.174 HD
HETATM    8  N3  UNL     1      17.696   4.457  11.663  1.00  0.00    -0.133 N 
HETATM    9  C13 UNL     1      17.252   5.248  10.672  1.00  0.00     0.184 A 
ENDROOT
BRANCH   8  10
HETATM   10  C7  UNL     1      16.896   3.591  12.467  1.00  0.00     0.248 C 
HETATM   11  C8  UNL     1      16.736   4.080  13.901  1.00  0.00     0.064 C 
HETATM   12  C9  UNL     1      16.257   2.817  14.583  1.00  0.00     0.042 C 
HETATM   13  C12 UNL     1      16.832   1.745  13.717  1.00  0.00     0.177 C 
HETATM   14  O2  UNL     1      17.488   2.346  12.668  1.00  0.00    -0.365 OA
BRANCH  12  15
HETATM   15  C10 UNL     1      16.725   2.723  16.017  1.00  0.00     0.120 C 
HETATM   16  C11 UNL     1      15.578   2.737  16.994  1.00  0.00     0.040 C 
BRANCH  15  17
HETATM   17  O1  UNL     1      17.569   1.636  16.214  1.00  0.00    -0.396 OA
ATOM     18  H1  UNL     1      17.127   0.812  16.051  1.00  0.00     0.210 HD
ENDBRANCH  15  17
ENDBRANCH  12  15
ENDBRANCH   8  10
BRANCH   9  19
HETATM   19  O3  UNL     1      15.934   5.363  10.253  1.00  0.00    -0.344 OA
ATOM     20  H3  UNL     1      15.334   6.079  10.426  1.00  0.00     0.219 HD
ENDBRANCH   9  19
BRANCH   1  21
HETATM   21  C4  UNL     1      18.242   6.874   9.050  1.00  0.00     0.066 C 
BRANCH  21  22
HETATM   22  C2  UNL     1      18.369   6.280   7.692  1.00  0.00    -0.017 C 
HETATM   23  C1  UNL     1      17.084   6.253   6.918  1.00  0.00     0.010 C 
HETATM   24  C3  UNL     1      19.491   6.944   6.909  1.00  0.00     0.010 C 
ENDBRANCH  21  22
ENDBRANCH   1  21
TORSDOF 6
ENDMDL
