MODEL 1
REMARK VINA RESULT: -7.534419899      0.000      0.000
REMARK  7 active torsions:
REMARK  status: ('A' for Active; 'I' for Inactive)
REMARK    1  A    between atoms: C2_2  and  O1_5 
REMARK    2  A    between atoms: O1_5  and  C5_6 
REMARK    3  A    between atoms: C7_9  and  C8_10 
REMARK    4  A    between atoms: C8_10  and  C9_11 
REMARK       I    between atoms: C9_11  and  N1_13 
REMARK    5  A    between atoms: C10_16  and  C11_17 
REMARK    6  A    between atoms: C11_17  and  O5_18 
REMARK    7  A    between atoms: N2_20  and  O6_22 
ROOT
HETATM    1  C9  UNL     1      16.369   2.312  15.808  1.00  0.00     0.323 C 
HETATM    2  O3  UNL     1      17.519   2.004  16.184  1.00  0.00    -0.254 OA
HETATM    3  N1  UNL     1      15.225   1.679  16.212  1.00  0.00    -0.244 NA
HETATM    4  O4  UNL     1      14.181   1.101  16.581  1.00  0.00    -0.215 OA
ATOM      5  H4  UNL     1      13.387   0.662  16.861  1.00  0.00     0.261 HD
ENDROOT
BRANCH   1   6
HETATM    6  C8  UNL     1      16.175   3.457  14.842  1.00  0.00     0.154 C 
BRANCH   6   7
HETATM    7  C7  UNL     1      16.736   3.254  13.504  1.00  0.00     0.146 C 
HETATM    8  O2  UNL     1      18.047   3.792  13.517  1.00  0.00    -0.382 OA
HETATM    9  C6  UNL     1      17.881   5.161  13.397  1.00  0.00     0.201 C 
HETATM   10  C5  UNL     1      16.887   5.292  12.231  1.00  0.00     0.160 C 
HETATM   11  C10 UNL     1      16.133   3.986  12.354  1.00  0.00     0.122 C 
BRANCH  10  12
HETATM   12  O1  UNL     1      15.985   6.304  12.454  1.00  0.00    -0.373 OA
BRANCH  12  13
HETATM   13  C2  UNL     1      15.939   7.335  11.587  1.00  0.00     0.050 C 
HETATM   14  C1  UNL     1      15.876   7.039  10.132  1.00  0.00     0.045 C 
HETATM   15  C3  UNL     1      14.621   8.093  11.905  1.00  0.00     0.045 C 
HETATM   16  C4  UNL     1      17.056   8.308  11.857  1.00  0.00     0.045 C 
ENDBRANCH  12  13
ENDBRANCH  10  12
BRANCH  11  17
HETATM   17  C11 UNL     1      16.302   3.128  11.155  1.00  0.00     0.144 C 
HETATM   18  N2  UNL     1      15.985   1.882  11.088  1.00  0.00    -0.251 N 
ATOM     19  H2  UNL     1      15.584   1.428  11.909  1.00  0.00     0.196 HD
BRANCH  17  20
HETATM   20  O5  UNL     1      16.842   3.698  10.012  1.00  0.00    -0.348 OA
ATOM     21  H5  UNL     1      17.141   3.120   9.320  1.00  0.00     0.219 HD
ENDBRANCH  17  20
BRANCH  18  22
HETATM   22  O6  UNL     1      16.170   1.148   9.944  1.00  0.00    -0.288 OA
ATOM     23  H6  UNL     1      16.423   0.232   9.971  1.00  0.00     0.244 HD
ENDBRANCH  18  22
ENDBRANCH  11  17
ENDBRANCH   6   7
ENDBRANCH   1   6
TORSDOF 7
ENDMDL
MODEL 2
REMARK VINA RESULT: -7.299711465      1.101      1.651
REMARK  7 active torsions:
REMARK  status: ('A' for Active; 'I' for Inactive)
REMARK    1  A    between atoms: C2_2  and  O1_5 
REMARK    2  A    between atoms: O1_5  and  C5_6 
REMARK    3  A    between atoms: C7_9  and  C8_10 
REMARK    4  A    between atoms: C8_10  and  C9_11 
REMARK       I    between atoms: C9_11  and  N1_13 
REMARK    5  A    between atoms: C10_16  and  C11_17 
REMARK    6  A    between atoms: C11_17  and  O5_18 
REMARK    7  A    between atoms: N2_20  and  O6_22 
ROOT
HETATM    1  C9  UNL     1      15.463   2.560  16.464  1.00  0.00     0.323 C 
HETATM    2  O3  UNL     1      14.851   2.743  17.537  1.00  0.00    -0.254 OA
HETATM    3  N1  UNL     1      15.877   1.339  16.007  1.00  0.00    -0.244 NA
HETATM    4  O4  UNL     1      16.256   0.224  15.589  1.00  0.00    -0.215 OA
ATOM      5  H4  UNL     1      16.543  -0.624  15.271  1.00  0.00     0.261 HD
ENDROOT
BRANCH   1   6
HETATM    6  C8  UNL     1      15.792   3.736  15.574  1.00  0.00     0.154 C 
BRANCH   6   7
HETATM    7  C7  UNL     1      16.591   3.423  14.387  1.00  0.00     0.146 C 
HETATM    8  O2  UNL     1      17.866   4.012  14.577  1.00  0.00    -0.382 OA
HETATM    9  C6  UNL     1      17.696   5.354  14.285  1.00  0.00     0.201 C 
HETATM   10  C5  UNL     1      16.927   5.327  12.954  1.00  0.00     0.160 C 
HETATM   11  C10 UNL     1      16.192   4.012  13.078  1.00  0.00     0.122 C 
BRANCH  10  12
HETATM   12  O1  UNL     1      15.978   6.320  12.904  1.00  0.00    -0.373 OA
BRANCH  12  13
HETATM   13  C2  UNL     1      16.103   7.291  11.977  1.00  0.00     0.050 C 
HETATM   14  C1  UNL     1      17.246   8.234  12.083  1.00  0.00     0.045 C 
HETATM   15  C3  UNL     1      16.306   6.555  10.624  1.00  0.00     0.045 C 
HETATM   16  C4  UNL     1      14.818   8.065  11.842  1.00  0.00     0.045 C 
ENDBRANCH  12  13
ENDBRANCH  10  12
BRANCH  11  17
HETATM   17  C11 UNL     1      16.595   3.045  12.025  1.00  0.00     0.144 C 
HETATM   18  N2  UNL     1      15.961   2.850  10.922  1.00  0.00    -0.251 N 
ATOM     19  H2  UNL     1      15.116   3.389  10.733  1.00  0.00     0.196 HD
BRANCH  17  20
HETATM   20  O5  UNL     1      17.738   2.288  12.233  1.00  0.00    -0.348 OA
ATOM     21  H5  UNL     1      17.918   1.573  11.634  1.00  0.00     0.219 HD
ENDBRANCH  17  20
BRANCH  18  22
HETATM   22  O6  UNL     1      16.391   1.937   9.992  1.00  0.00    -0.288 OA
ATOM     23  H6  UNL     1      17.085   2.139   9.374  1.00  0.00     0.244 HD
ENDBRANCH  18  22
ENDBRANCH  11  17
ENDBRANCH   6   7
ENDBRANCH   1   6
TORSDOF 7
ENDMDL
MODEL 3
REMARK VINA RESULT: -7.283720850      2.600      5.350
REMARK  7 active torsions:
REMARK  status: ('A' for Active; 'I' for Inactive)
REMARK    1  A    between atoms: C2_2  and  O1_5 
REMARK    2  A    between atoms: O1_5  and  C5_6 
REMARK    3  A    between atoms: C7_9  and  C8_10 
REMARK    4  A    between atoms: C8_10  and  C9_11 
REMARK       I    between atoms: C9_11  and  N1_13 
REMARK    5  A    between atoms: C10_16  and  C11_17 
REMARK    6  A    between atoms: C11_17  and  O5_18 
REMARK    7  A    between atoms: N2_20  and  O6_22 
ROOT
HETATM    1  C9  UNL     1      19.046   5.828  13.709  1.00  0.00     0.323 C 
HETATM    2  O3  UNL     1      19.540   6.970  13.818  1.00  0.00    -0.254 OA
HETATM    3  N1  UNL     1      19.607   4.806  12.993  1.00  0.00    -0.244 NA
HETATM    4  O4  UNL     1      20.119   3.873  12.339  1.00  0.00    -0.215 OA
ATOM      5  H4  UNL     1      20.507   3.163  11.841  1.00  0.00     0.261 HD
ENDROOT
BRANCH   1   6
HETATM    6  C8  UNL     1      17.741   5.503  14.399  1.00  0.00     0.154 C 
BRANCH   6   7
HETATM    7  C7  UNL     1      16.861   4.581  13.678  1.00  0.00     0.146 C 
HETATM    8  O2  UNL     1      15.567   5.159  13.674  1.00  0.00    -0.382 OA
HETATM    9  C6  UNL     1      15.048   4.900  14.931  1.00  0.00     0.201 C 
HETATM   10  C5  UNL     1      15.344   3.404  15.129  1.00  0.00     0.160 C 
HETATM   11  C10 UNL     1      16.580   3.244  14.273  1.00  0.00     0.122 C 
BRANCH  10  12
HETATM   12  O1  UNL     1      15.710   3.135  16.426  1.00  0.00    -0.373 OA
BRANCH  12  13
HETATM   13  C2  UNL     1      14.847   2.471  17.220  1.00  0.00     0.050 C 
HETATM   14  C1  UNL     1      13.453   2.271  16.746  1.00  0.00     0.045 C 
HETATM   15  C3  UNL     1      15.433   1.041  17.372  1.00  0.00     0.045 C 
HETATM   16  C4  UNL     1      14.830   3.065  18.603  1.00  0.00     0.045 C 
ENDBRANCH  12  13
ENDBRANCH  10  12
BRANCH  11  17
HETATM   17  C11 UNL     1      16.360   2.303  13.146  1.00  0.00     0.144 C 
HETATM   18  N2  UNL     1      15.981   2.643  11.964  1.00  0.00    -0.251 N 
ATOM     19  H2  UNL     1      15.812   3.628  11.761  1.00  0.00     0.196 HD
BRANCH  17  20
HETATM   20  O5  UNL     1      16.576   0.951  13.368  1.00  0.00    -0.348 OA
ATOM     21  H5  UNL     1      16.895   0.423  12.647  1.00  0.00     0.219 HD
ENDBRANCH  17  20
BRANCH  18  22
HETATM   22  O6  UNL     1      15.796   1.717  10.968  1.00  0.00    -0.288 OA
ATOM     23  H6  UNL     1      16.363   1.681  10.206  1.00  0.00     0.244 HD
ENDBRANCH  18  22
ENDBRANCH  11  17
ENDBRANCH   6   7
ENDBRANCH   1   6
TORSDOF 7
ENDMDL
MODEL 4
REMARK VINA RESULT: -7.281233431      1.467      1.744
REMARK  7 active torsions:
REMARK  status: ('A' for Active; 'I' for Inactive)
REMARK    1  A    between atoms: C2_2  and  O1_5 
REMARK    2  A    between atoms: O1_5  and  C5_6 
REMARK    3  A    between atoms: C7_9  and  C8_10 
REMARK    4  A    between atoms: C8_10  and  C9_11 
REMARK       I    between atoms: C9_11  and  N1_13 
REMARK    5  A    between atoms: C10_16  and  C11_17 
REMARK    6  A    between atoms: C11_17  and  O5_18 
REMARK    7  A    between atoms: N2_20  and  O6_22 
ROOT
HETATM    1  C9  UNL     1      14.897   2.317  16.761  1.00  0.00     0.323 C 
HETATM    2  O3  UNL     1      14.629   1.156  16.386  1.00  0.00    -0.254 OA
HETATM    3  N1  UNL     1      14.938   2.720  18.068  1.00  0.00    -0.244 NA
HETATM    4  O4  UNL     1      14.976   3.088  19.261  1.00  0.00    -0.215 OA
ATOM      5  H4  UNL     1      15.004   3.368  20.168  1.00  0.00     0.261 HD
ENDROOT
BRANCH   1   6
HETATM    6  C8  UNL     1      15.205   3.385  15.738  1.00  0.00     0.154 C 
BRANCH   6   7
HETATM    7  C7  UNL     1      16.126   2.988  14.670  1.00  0.00     0.146 C 
HETATM    8  O2  UNL     1      17.425   3.385  15.072  1.00  0.00    -0.382 OA
HETATM    9  C6  UNL     1      17.487   4.745  14.816  1.00  0.00     0.201 C 
HETATM   10  C5  UNL     1      16.933   4.855  13.385  1.00  0.00     0.160 C 
HETATM   11  C10 UNL     1      16.015   3.655  13.343  1.00  0.00     0.122 C 
BRANCH  10  12
HETATM   12  O1  UNL     1      16.149   5.974  13.238  1.00  0.00    -0.373 OA
BRANCH  12  13
HETATM   13  C2  UNL     1      16.456   6.860  12.269  1.00  0.00     0.050 C 
HETATM   14  C1  UNL     1      16.772   6.347  10.910  1.00  0.00     0.045 C 
HETATM   15  C3  UNL     1      15.188   7.738  12.087  1.00  0.00     0.045 C 
HETATM   16  C4  UNL     1      17.548   7.790  12.726  1.00  0.00     0.045 C 
ENDBRANCH  12  13
ENDBRANCH  10  12
BRANCH  11  17
HETATM   17  C11 UNL     1      16.438   2.664  12.321  1.00  0.00     0.144 C 
HETATM   18  N2  UNL     1      15.816   2.431  11.218  1.00  0.00    -0.251 N 
ATOM     19  H2  UNL     1      14.967   2.955  11.007  1.00  0.00     0.196 HD
BRANCH  17  20
HETATM   20  O5  UNL     1      17.587   1.926  12.559  1.00  0.00    -0.348 OA
ATOM     21  H5  UNL     1      17.624   1.393  13.344  1.00  0.00     0.219 HD
ENDBRANCH  17  20
BRANCH  18  22
HETATM   22  O6  UNL     1      16.264   1.497  10.318  1.00  0.00    -0.288 OA
ATOM     23  H6  UNL     1      16.107   1.585   9.384  1.00  0.00     0.244 HD
ENDBRANCH  18  22
ENDBRANCH  11  17
ENDBRANCH   6   7
ENDBRANCH   1   6
TORSDOF 7
ENDMDL
MODEL 5
REMARK VINA RESULT: -7.257191234      1.231      1.473
REMARK  7 active torsions:
REMARK  status: ('A' for Active; 'I' for Inactive)
REMARK    1  A    between atoms: C2_2  and  O1_5 
REMARK    2  A    between atoms: O1_5  and  C5_6 
REMARK    3  A    between atoms: C7_9  and  C8_10 
REMARK    4  A    between atoms: C8_10  and  C9_11 
REMARK       I    between atoms: C9_11  and  N1_13 
REMARK    5  A    between atoms: C10_16  and  C11_17 
REMARK    6  A    between atoms: C11_17  and  O5_18 
REMARK    7  A    between atoms: N2_20  and  O6_22 
ROOT
HETATM    1  C9  UNL     1      15.101   2.727  16.819  1.00  0.00     0.323 C 
HETATM    2  O3  UNL     1      14.773   3.148  17.947  1.00  0.00    -0.254 OA
HETATM    3  N1  UNL     1      15.339   1.412  16.521  1.00  0.00    -0.244 NA
HETATM    4  O4  UNL     1      15.557   0.212  16.250  1.00  0.00    -0.215 OA
ATOM      5  H4  UNL     1      15.723  -0.700  16.043  1.00  0.00     0.261 HD
ENDROOT
BRANCH   1   6
HETATM    6  C8  UNL     1      15.257   3.695  15.669  1.00  0.00     0.154 C 
BRANCH   6   7
HETATM    7  C7  UNL     1      16.162   3.263  14.601  1.00  0.00     0.146 C 
HETATM    8  O2  UNL     1      17.462   3.703  14.955  1.00  0.00    -0.382 OA
HETATM    9  C6  UNL     1      17.491   5.050  14.633  1.00  0.00     0.201 C 
HETATM   10  C5  UNL     1      16.906   5.081  13.211  1.00  0.00     0.160 C 
HETATM   11  C10 UNL     1      16.011   3.863  13.246  1.00  0.00     0.122 C 
BRANCH  10  12
HETATM   12  O1  UNL     1      16.097   6.177  13.028  1.00  0.00    -0.373 OA
BRANCH  12  13
HETATM   13  C2  UNL     1      16.350   7.006  11.996  1.00  0.00     0.050 C 
HETATM   14  C1  UNL     1      16.593   6.417  10.653  1.00  0.00     0.045 C 
HETATM   15  C3  UNL     1      15.074   7.875  11.834  1.00  0.00     0.045 C 
HETATM   16  C4  UNL     1      17.465   7.958  12.340  1.00  0.00     0.045 C 
ENDBRANCH  12  13
ENDBRANCH  10  12
BRANCH  11  17
HETATM   17  C11 UNL     1      16.431   2.832  12.264  1.00  0.00     0.144 C 
HETATM   18  N2  UNL     1      15.817   2.568  11.164  1.00  0.00    -0.251 N 
ATOM     19  H2  UNL     1      14.976   3.094  10.926  1.00  0.00     0.196 HD
BRANCH  17  20
HETATM   20  O5  UNL     1      17.569   2.089  12.539  1.00  0.00    -0.348 OA
ATOM     21  H5  UNL     1      18.226   2.469  13.111  1.00  0.00     0.219 HD
ENDBRANCH  17  20
BRANCH  18  22
HETATM   22  O6  UNL     1      16.262   1.598  10.301  1.00  0.00    -0.288 OA
ATOM     23  H6  UNL     1      16.111   0.674  10.464  1.00  0.00     0.244 HD
ENDBRANCH  18  22
ENDBRANCH  11  17
ENDBRANCH   6   7
ENDBRANCH   1   6
TORSDOF 7
ENDMDL
