MODEL 1
REMARK VINA RESULT: -9.925181164      0.000      0.000
REMARK  9 active torsions:
REMARK  status: ('A' for Active; 'I' for Inactive)
REMARK    1  A    between atoms: N1_1  and  C1_4 
REMARK    2  A    between atoms: C3_6  and  N2_7 
REMARK    3  A    between atoms: C4_8  and  C5_9 
REMARK    4  A    between atoms: C5_9  and  N3_10 
REMARK    5  A    between atoms: N3_10  and  C6_11 
REMARK    6  A    between atoms: N4_15  and  C9_16 
REMARK    7  A    between atoms: C11_18  and  C12_19 
REMARK    8  A    between atoms: C15_22  and  C16_23 
REMARK    9  A    between atoms: N5_25  and  C18_26 
ROOT
HETATM    1  C9  UNL     1      29.568  -8.837  46.938  1.00  0.00     0.140 A 
HETATM    2  C10 UNL     1      29.023  -8.775  48.224  1.00  0.00     0.081 A 
HETATM    3  C11 UNL     1      28.558  -9.860  48.909  1.00  0.00     0.064 A 
HETATM    4  N12 UNL     1      28.656 -11.051  48.262  1.00  0.00    -0.191 N 
ATOM      5  H12 UNL     1      28.325 -11.897  48.724  1.00  0.00     0.184 HD
HETATM    6  C21 UNL     1      29.183 -11.138  47.020  1.00  0.00     0.677 A 
HETATM    7  N13 UNL     1      29.288 -12.263  46.384  1.00  0.00    -0.234 N 
ATOM      8 1H13 UNL     1      29.685 -12.329  45.447  1.00  0.00     0.174 HD
ATOM      9 2H13 UNL     1      28.948 -13.090  46.876  1.00  0.00     0.174 HD
HETATM   10  N14 UNL     1      29.638 -10.030  46.361  1.00  0.00    -0.175 N 
ATOM     11  H14 UNL     1      30.030 -10.121  45.424  1.00  0.00     0.186 HD
ENDROOT
BRANCH   3  12
HETATM   12  C12 UNL     1      27.919  -9.835  50.207  1.00  0.00     0.007 A 
HETATM   13  C13 UNL     1      28.208  -8.810  51.095  1.00  0.00     0.017 A 
HETATM   14  C14 UNL     1      27.579  -8.718  52.308  1.00  0.00     0.033 A 
HETATM   15  C15 UNL     1      26.629  -9.672  52.655  1.00  0.00     0.061 A 
HETATM   16  N11 UNL     1      26.388 -10.631  51.779  1.00  0.00    -0.363 N 
HETATM   17  C20 UNL     1      26.971 -10.775  50.581  1.00  0.00     0.102 A 
ATOM     18  H11 UNL     1      25.692 -11.329  52.040  1.00  0.00     0.165 HD
BRANCH  15  19
HETATM   19  C16 UNL     1      25.945  -9.498  53.930  1.00  0.00     0.093 A 
HETATM   20  C17 UNL     1      24.948 -10.316  54.441  1.00  0.00     0.153 A 
HETATM   21  N5  UNL     1      24.559  -9.789  55.586  1.00  0.00    -0.229 N 
HETATM   22  N9  UNL     1      25.287  -8.682  55.790  1.00  0.00    -0.234 N 
HETATM   23  N10 UNL     1      26.117  -8.494  54.812  1.00  0.00    -0.282 N 
ATOM     24  H9  UNL     1      25.200  -8.072  56.603  1.00  0.00     0.209 HD
ATOM     25  H10 UNL     1      26.781  -7.725  54.726  1.00  0.00     0.188 HD
BRANCH  21  26
HETATM   26  C18 UNL     1      23.544 -10.206  56.485  1.00  0.00     0.195 A 
HETATM   27  N6  UNL     1      23.646 -10.161  57.849  1.00  0.00    -0.220 N 
HETATM   28  O2  UNL     1      22.557 -10.615  58.332  1.00  0.00    -0.153 OA
ATOM     29  H6  UNL     1      24.448  -9.826  58.382  1.00  0.00     0.198 HD
HETATM   30  N7  UNL     1      21.726 -10.962  57.432  1.00  0.00    -0.222 N 
HETATM   31  C19 UNL     1      22.306 -10.724  56.234  1.00  0.00     0.169 A 
ATOM     32  H7  UNL     1      20.794 -11.348  57.586  1.00  0.00     0.198 HD
HETATM   33  N8  UNL     1      21.758 -10.956  55.084  1.00  0.00    -0.381 N 
ATOM     34  H82 UNL     1      22.196 -10.777  54.181  1.00  0.00     0.157 HD
ATOM     35  H81 UNL     1      20.833 -11.343  54.896  1.00  0.00     0.157 HD
ENDBRANCH  21  26
ENDBRANCH  15  19
ENDBRANCH   3  12
BRANCH   1  36
HETATM   36  N4  UNL     1      29.942  -7.658  46.280  1.00  0.00    -0.272 N 
HETATM   37  N2  UNL     1      30.355  -6.368  46.745  1.00  0.00    -0.262 N 
HETATM   38  C4  UNL     1      31.397  -6.023  45.873  1.00  0.00     0.164 C 
HETATM   39  C7  UNL     1      30.756  -6.358  44.501  1.00  0.00     0.056 C 
HETATM   40  C8  UNL     1      30.015  -7.606  44.788  1.00  0.00     0.153 C 
BRANCH  37  41
HETATM   41  C3  UNL     1      29.693  -5.780  47.860  1.00  0.00     0.127 A 
HETATM   42  C2  UNL     1      30.216  -5.666  49.107  1.00  0.00     0.098 A 
HETATM   43  C1  UNL     1      29.523  -5.047  50.107  1.00  0.00     0.103 A 
HETATM   44  N16 UNL     1      28.284  -4.511  49.925  1.00  0.00    -0.339 N 
HETATM   45  C22 UNL     1      27.787  -4.630  48.696  1.00  0.00     0.183 A 
ATOM     46  H16 UNL     1      27.774  -4.050  50.678  1.00  0.00     0.168 HD
HETATM   47  N15 UNL     1      28.434  -5.229  47.702  1.00  0.00    -0.337 N 
ATOM     48  H15 UNL     1      27.985  -5.283  46.788  1.00  0.00     0.168 HD
BRANCH  43  49
HETATM   49  N1  UNL     1      30.025  -4.942  51.290  1.00  0.00    -0.385 N 
ATOM     50  H12 UNL     1      30.281  -5.814  51.753  1.00  0.00     0.157 HD
ATOM     51  H11 UNL     1      30.152  -4.027  51.724  1.00  0.00     0.157 HD
ENDBRANCH  43  49
ENDBRANCH  37  41
BRANCH  38  52
HETATM   52  C5  UNL     1      31.998  -4.708  45.708  1.00  0.00     0.185 C 
BRANCH  52  53
HETATM   53  N3  UNL     1      31.615  -3.797  44.742  1.00  0.00    -0.393 NA
BRANCH  53  54
HETATM   54  C6  UNL     1      31.243  -2.912  43.804  1.00  0.00     0.440 C 
HETATM   55  O1  UNL     1      30.294  -2.028  43.863  1.00  0.00    -0.268 OA
ENDBRANCH  53  54
ENDBRANCH  52  53
ENDBRANCH  38  52
ENDBRANCH   1  36
TORSDOF 9
ENDMDL
MODEL 2
REMARK VINA RESULT: -9.593895355      2.645     11.589
REMARK  9 active torsions:
REMARK  status: ('A' for Active; 'I' for Inactive)
REMARK    1  A    between atoms: N1_1  and  C1_4 
REMARK    2  A    between atoms: C3_6  and  N2_7 
REMARK    3  A    between atoms: C4_8  and  C5_9 
REMARK    4  A    between atoms: C5_9  and  N3_10 
REMARK    5  A    between atoms: N3_10  and  C6_11 
REMARK    6  A    between atoms: N4_15  and  C9_16 
REMARK    7  A    between atoms: C11_18  and  C12_19 
REMARK    8  A    between atoms: C15_22  and  C16_23 
REMARK    9  A    between atoms: N5_25  and  C18_26 
ROOT
HETATM    1  C9  UNL     1      26.674 -10.328  53.380  1.00  0.00     0.140 A 
HETATM    2  C10 UNL     1      27.344  -9.873  52.241  1.00  0.00     0.081 A 
HETATM    3  C11 UNL     1      27.628  -8.561  51.995  1.00  0.00     0.064 A 
HETATM    4  N12 UNL     1      27.218  -7.682  52.946  1.00  0.00    -0.191 N 
ATOM      5  H12 UNL     1      27.403  -6.687  52.818  1.00  0.00     0.184 HD
HETATM    6  C21 UNL     1      26.572  -8.097  54.059  1.00  0.00     0.677 A 
HETATM    7  N13 UNL     1      26.174  -7.276  54.980  1.00  0.00    -0.234 N 
ATOM      8 1H13 UNL     1      25.686  -7.589  55.820  1.00  0.00     0.174 HD
ATOM      9 2H13 UNL     1      26.375  -6.290  54.820  1.00  0.00     0.174 HD
HETATM   10  N14 UNL     1      26.301  -9.419  54.273  1.00  0.00    -0.175 N 
ATOM     11  H14 UNL     1      25.812  -9.708  55.120  1.00  0.00     0.186 HD
ENDROOT
BRANCH   3  12
HETATM   12  C12 UNL     1      28.251  -8.037  50.799  1.00  0.00     0.007 A 
HETATM   13  C13 UNL     1      29.350  -8.685  50.256  1.00  0.00     0.017 A 
HETATM   14  C14 UNL     1      29.929  -8.255  49.092  1.00  0.00     0.033 A 
HETATM   15  C15 UNL     1      29.402  -7.146  48.439  1.00  0.00     0.061 A 
HETATM   16  N11 UNL     1      28.357  -6.560  48.994  1.00  0.00    -0.363 N 
HETATM   17  C20 UNL     1      27.749  -6.932  50.130  1.00  0.00     0.102 A 
ATOM     18  H11 UNL     1      27.975  -5.745  48.513  1.00  0.00     0.165 HD
BRANCH  15  19
HETATM   19  C16 UNL     1      30.016  -6.763  47.175  1.00  0.00     0.093 A 
HETATM   20  C17 UNL     1      31.043  -5.846  47.010  1.00  0.00     0.153 A 
HETATM   21  N5  UNL     1      31.273  -5.745  45.714  1.00  0.00    -0.229 N 
HETATM   22  N9  UNL     1      30.424  -6.572  45.088  1.00  0.00    -0.234 N 
HETATM   23  N10 UNL     1      29.668  -7.185  45.943  1.00  0.00    -0.282 N 
ATOM     24  H9  UNL     1      30.380  -6.702  44.077  1.00  0.00     0.209 HD
ATOM     25  H10 UNL     1      28.939  -7.865  45.724  1.00  0.00     0.188 HD
BRANCH  21  26
HETATM   26  C18 UNL     1      32.188  -4.921  45.010  1.00  0.00     0.195 A 
HETATM   27  N6  UNL     1      33.519  -4.807  45.304  1.00  0.00    -0.220 N 
HETATM   28  O2  UNL     1      34.027  -3.982  44.476  1.00  0.00    -0.153 OA
ATOM     29  H6  UNL     1      34.014  -5.293  46.051  1.00  0.00     0.198 HD
HETATM   30  N7  UNL     1      33.174  -3.526  43.648  1.00  0.00    -0.222 N 
HETATM   31  C19 UNL     1      31.982  -4.091  43.946  1.00  0.00     0.169 A 
ATOM     32  H7  UNL     1      33.355  -2.858  42.899  1.00  0.00     0.198 HD
HETATM   33  N8  UNL     1      30.874  -3.863  43.315  1.00  0.00    -0.381 N 
ATOM     34  H82 UNL     1      29.975  -4.290  43.540  1.00  0.00     0.157 HD
ATOM     35  H81 UNL     1      30.720  -3.244  42.520  1.00  0.00     0.157 HD
ENDBRANCH  21  26
ENDBRANCH  15  19
ENDBRANCH   3  12
BRANCH   1  36
HETATM   36  N4  UNL     1      26.352 -11.686  53.507  1.00  0.00    -0.272 N 
HETATM   37  N2  UNL     1      25.182 -12.447  53.184  1.00  0.00    -0.262 N 
HETATM   38  C4  UNL     1      25.700 -13.629  52.638  1.00  0.00     0.164 C 
HETATM   39  C7  UNL     1      26.784 -13.987  53.689  1.00  0.00     0.056 C 
HETATM   40  C8  UNL     1      27.355 -12.665  54.025  1.00  0.00     0.153 C 
BRANCH  37  41
HETATM   41  C3  UNL     1      23.895 -11.903  53.457  1.00  0.00     0.127 A 
HETATM   42  C2  UNL     1      23.182 -11.121  52.609  1.00  0.00     0.098 A 
HETATM   43  C1  UNL     1      21.933 -10.679  52.940  1.00  0.00     0.103 A 
HETATM   44  N16 UNL     1      21.329 -10.988  54.121  1.00  0.00    -0.339 N 
HETATM   45  C22 UNL     1      22.042 -11.758  54.941  1.00  0.00     0.183 A 
ATOM     46  H16 UNL     1      20.396 -10.653  54.360  1.00  0.00     0.168 HD
HETATM   47  N15 UNL     1      23.260 -12.201  54.650  1.00  0.00    -0.337 N 
ATOM     48  H15 UNL     1      23.745 -12.785  55.332  1.00  0.00     0.168 HD
BRANCH  43  49
HETATM   49  N1  UNL     1      21.260  -9.935  52.130  1.00  0.00    -0.385 N 
ATOM     50  H12 UNL     1      20.581 -10.411  51.535  1.00  0.00     0.157 HD
ATOM     51  H11 UNL     1      21.411  -8.927  52.099  1.00  0.00     0.157 HD
ENDBRANCH  43  49
ENDBRANCH  37  41
BRANCH  38  52
HETATM   52  C5  UNL     1      24.977 -14.868  52.393  1.00  0.00     0.185 C 
BRANCH  52  53
HETATM   53  N3  UNL     1      23.995 -15.370  53.226  1.00  0.00    -0.393 NA
BRANCH  53  54
HETATM   54  C6  UNL     1      23.041 -15.856  54.035  1.00  0.00     0.440 C 
HETATM   55  O1  UNL     1      22.145 -15.201  54.709  1.00  0.00    -0.268 OA
ENDBRANCH  53  54
ENDBRANCH  52  53
ENDBRANCH  38  52
ENDBRANCH   1  36
TORSDOF 9
ENDMDL
MODEL 3
REMARK VINA RESULT: -9.440296355     10.946     15.554
REMARK  9 active torsions:
REMARK  status: ('A' for Active; 'I' for Inactive)
REMARK    1  A    between atoms: N1_1  and  C1_4 
REMARK    2  A    between atoms: C3_6  and  N2_7 
REMARK    3  A    between atoms: C4_8  and  C5_9 
REMARK    4  A    between atoms: C5_9  and  N3_10 
REMARK    5  A    between atoms: N3_10  and  C6_11 
REMARK    6  A    between atoms: N4_15  and  C9_16 
REMARK    7  A    between atoms: C11_18  and  C12_19 
REMARK    8  A    between atoms: C15_22  and  C16_23 
REMARK    9  A    between atoms: N5_25  and  C18_26 
ROOT
HETATM    1  C9  UNL     1      26.772  -8.986  37.621  1.00  0.00     0.140 A 
HETATM    2  C10 UNL     1      28.110  -9.376  37.734  1.00  0.00     0.081 A 
HETATM    3  C11 UNL     1      29.159  -8.503  37.773  1.00  0.00     0.064 A 
HETATM    4  N12 UNL     1      28.832  -7.187  37.697  1.00  0.00    -0.191 N 
ATOM      5  H12 UNL     1      29.574  -6.488  37.721  1.00  0.00     0.184 HD
HETATM    6  C21 UNL     1      27.546  -6.784  37.590  1.00  0.00     0.677 A 
HETATM    7  N13 UNL     1      27.211  -5.533  37.518  1.00  0.00    -0.234 N 
ATOM      8 1H13 UNL     1      26.240  -5.229  37.437  1.00  0.00     0.174 HD
ATOM      9 2H13 UNL     1      27.977  -4.861  37.546  1.00  0.00     0.174 HD
HETATM   10  N14 UNL     1      26.519  -7.685  37.552  1.00  0.00    -0.175 N 
ATOM     11  H14 UNL     1      25.556  -7.357  37.471  1.00  0.00     0.186 HD
ENDROOT
BRANCH   3  12
HETATM   12  C12 UNL     1      30.560  -8.862  37.815  1.00  0.00     0.007 A 
HETATM   13  C13 UNL     1      31.475  -8.142  37.062  1.00  0.00     0.017 A 
HETATM   14  C14 UNL     1      32.817  -8.411  37.122  1.00  0.00     0.033 A 
HETATM   15  C15 UNL     1      33.271  -9.427  37.956  1.00  0.00     0.061 A 
HETATM   16  N11 UNL     1      32.362 -10.086  38.652  1.00  0.00    -0.363 N 
HETATM   17  C20 UNL     1      31.039  -9.871  38.635  1.00  0.00     0.102 A 
ATOM     18  H11 UNL     1      32.700 -10.832  39.262  1.00  0.00     0.165 HD
BRANCH  15  19
HETATM   19  C16 UNL     1      34.710  -9.636  38.030  1.00  0.00     0.093 A 
HETATM   20  C17 UNL     1      35.353 -10.665  38.702  1.00  0.00     0.153 A 
HETATM   21  N5  UNL     1      36.651 -10.468  38.569  1.00  0.00    -0.229 N 
HETATM   22  N9  UNL     1      36.818  -9.357  37.837  1.00  0.00    -0.234 N 
HETATM   23  N10 UNL     1      35.672  -8.849  37.508  1.00  0.00    -0.282 N 
ATOM     24  H9  UNL     1      37.723  -8.966  37.574  1.00  0.00     0.209 HD
ATOM     25  H10 UNL     1      35.524  -8.005  36.954  1.00  0.00     0.188 HD
BRANCH  21  26
HETATM   26  C18 UNL     1      37.746 -11.201  39.095  1.00  0.00     0.195 A 
HETATM   27  N6  UNL     1      38.992 -11.251  38.533  1.00  0.00    -0.220 N 
HETATM   28  O2  UNL     1      39.716 -12.002  39.265  1.00  0.00    -0.153 OA
ATOM     29  H6  UNL     1      39.288 -10.773  37.681  1.00  0.00     0.198 HD
HETATM   30  N7  UNL     1      39.085 -12.467  40.269  1.00  0.00    -0.222 N 
HETATM   31  C19 UNL     1      37.822 -11.988  40.207  1.00  0.00     0.169 A 
ATOM     32  H7  UNL     1      39.463 -13.085  40.987  1.00  0.00     0.198 HD
HETATM   33  N8  UNL     1      36.886 -12.250  41.064  1.00  0.00    -0.381 N 
ATOM     34  H82 UNL     1      35.934 -11.889  41.017  1.00  0.00     0.157 HD
ATOM     35  H81 UNL     1      36.943 -12.837  41.896  1.00  0.00     0.157 HD
ENDBRANCH  21  26
ENDBRANCH  15  19
ENDBRANCH   3  12
BRANCH   1  36
HETATM   36  N4  UNL     1      25.769  -9.957  37.504  1.00  0.00    -0.272 N 
HETATM   37  N2  UNL     1      24.458 -10.080  38.067  1.00  0.00    -0.262 N 
HETATM   38  C4  UNL     1      23.688 -10.567  37.002  1.00  0.00     0.164 C 
HETATM   39  C7  UNL     1      24.592 -11.717  36.486  1.00  0.00     0.056 C 
HETATM   40  C8  UNL     1      25.948 -11.137  36.604  1.00  0.00     0.153 C 
BRANCH  37  41
HETATM   41  C3  UNL     1      24.244  -9.726  39.430  1.00  0.00     0.127 A 
HETATM   42  C2  UNL     1      23.339  -8.815  39.867  1.00  0.00     0.098 A 
HETATM   43  C1  UNL     1      23.173  -8.571  41.200  1.00  0.00     0.103 A 
HETATM   44  N16 UNL     1      23.890  -9.214  42.163  1.00  0.00    -0.339 N 
HETATM   45  C22 UNL     1      24.773 -10.106  41.717  1.00  0.00     0.183 A 
ATOM     46  H16 UNL     1      23.760  -9.025  43.157  1.00  0.00     0.168 HD
HETATM   47  N15 UNL     1      24.960 -10.364  40.427  1.00  0.00    -0.337 N 
ATOM     48  H15 UNL     1      25.658 -11.060  40.163  1.00  0.00     0.168 HD
BRANCH  43  49
HETATM   49  N1  UNL     1      22.312  -7.704  41.610  1.00  0.00    -0.385 N 
ATOM     50  H12 UNL     1      22.022  -7.778  42.585  1.00  0.00     0.157 HD
ATOM     51  H11 UNL     1      21.951  -6.988  40.979  1.00  0.00     0.157 HD
ENDBRANCH  43  49
ENDBRANCH  37  41
BRANCH  38  52
HETATM   52  C5  UNL     1      22.349 -11.134  37.079  1.00  0.00     0.185 C 
BRANCH  52  53
HETATM   53  N3  UNL     1      22.030 -12.269  37.797  1.00  0.00    -0.393 NA
BRANCH  53  54
HETATM   54  C6  UNL     1      21.719 -13.373  38.495  1.00  0.00     0.440 C 
HETATM   55  O1  UNL     1      21.149 -14.460  38.072  1.00  0.00    -0.268 OA
ENDBRANCH  53  54
ENDBRANCH  52  53
ENDBRANCH  38  52
ENDBRANCH   1  36
TORSDOF 9
ENDMDL
MODEL 4
REMARK VINA RESULT: -9.407144829      2.221     11.684
REMARK  9 active torsions:
REMARK  status: ('A' for Active; 'I' for Inactive)
REMARK    1  A    between atoms: N1_1  and  C1_4 
REMARK    2  A    between atoms: C3_6  and  N2_7 
REMARK    3  A    between atoms: C4_8  and  C5_9 
REMARK    4  A    between atoms: C5_9  and  N3_10 
REMARK    5  A    between atoms: N3_10  and  C6_11 
REMARK    6  A    between atoms: N4_15  and  C9_16 
REMARK    7  A    between atoms: C11_18  and  C12_19 
REMARK    8  A    between atoms: C15_22  and  C16_23 
REMARK    9  A    between atoms: N5_25  and  C18_26 
ROOT
HETATM    1  C9  UNL     1      27.135  -9.808  53.225  1.00  0.00     0.140 A 
HETATM    2  C10 UNL     1      27.779  -9.422  52.046  1.00  0.00     0.081 A 
HETATM    3  C11 UNL     1      28.039  -8.126  51.708  1.00  0.00     0.064 A 
HETATM    4  N12 UNL     1      27.631  -7.190  52.605  1.00  0.00    -0.191 N 
ATOM      5  H12 UNL     1      27.799  -6.204  52.406  1.00  0.00     0.184 HD
HETATM    6  C21 UNL     1      27.009  -7.538  53.754  1.00  0.00     0.677 A 
HETATM    7  N13 UNL     1      26.613  -6.662  54.624  1.00  0.00    -0.234 N 
ATOM      8 1H13 UNL     1      26.143  -6.924  55.491  1.00  0.00     0.174 HD
ATOM      9 2H13 UNL     1      26.797  -5.686  54.395  1.00  0.00     0.174 HD
HETATM   10  N14 UNL     1      26.762  -8.846  54.061  1.00  0.00    -0.175 N 
ATOM     11  H14 UNL     1      26.291  -9.084  54.934  1.00  0.00     0.186 HD
ENDROOT
BRANCH   3  12
HETATM   12  C12 UNL     1      28.635  -7.675  50.469  1.00  0.00     0.007 A 
HETATM   13  C13 UNL     1      29.382  -8.558  49.705  1.00  0.00     0.017 A 
HETATM   14  C14 UNL     1      29.911  -8.187  48.497  1.00  0.00     0.033 A 
HETATM   15  C15 UNL     1      29.692  -6.896  48.027  1.00  0.00     0.061 A 
HETATM   16  N11 UNL     1      28.976  -6.090  48.789  1.00  0.00    -0.363 N 
HETATM   17  C20 UNL     1      28.435  -6.394  49.978  1.00  0.00     0.102 A 
ATOM     18  H11 UNL     1      28.820  -5.144  48.440  1.00  0.00     0.165 HD
BRANCH  15  19
HETATM   19  C16 UNL     1      30.224  -6.568  46.711  1.00  0.00     0.093 A 
HETATM   20  C17 UNL     1      31.186  -5.607  46.436  1.00  0.00     0.153 A 
HETATM   21  N5  UNL     1      31.351  -5.584  45.127  1.00  0.00    -0.229 N 
HETATM   22  N9  UNL     1      30.526  -6.499  44.599  1.00  0.00    -0.234 N 
HETATM   23  N10 UNL     1      29.847  -7.093  45.529  1.00  0.00    -0.282 N 
ATOM     24  H9  UNL     1      30.445  -6.700  43.602  1.00  0.00     0.209 HD
ATOM     25  H10 UNL     1      29.151  -7.827  45.391  1.00  0.00     0.188 HD
BRANCH  21  26
HETATM   26  C18 UNL     1      32.182  -4.759  44.326  1.00  0.00     0.195 A 
HETATM   27  N6  UNL     1      33.550  -4.769  44.355  1.00  0.00    -0.220 N 
HETATM   28  O2  UNL     1      33.960  -3.904  43.514  1.00  0.00    -0.153 OA
ATOM     29  H6  UNL     1      34.135  -5.363  44.943  1.00  0.00     0.198 HD
HETATM   30  N7  UNL     1      33.007  -3.307  42.917  1.00  0.00    -0.222 N 
HETATM   31  C19 UNL     1      31.850  -3.814  43.399  1.00  0.00     0.169 A 
ATOM     32  H7  UNL     1      33.099  -2.582  42.206  1.00  0.00     0.198 HD
HETATM   33  N8  UNL     1      30.665  -3.446  43.025  1.00  0.00    -0.381 N 
ATOM     34  H82 UNL     1      29.793  -3.828  43.389  1.00  0.00     0.157 HD
ATOM     35  H81 UNL     1      30.417  -2.740  42.333  1.00  0.00     0.157 HD
ENDBRANCH  21  26
ENDBRANCH  15  19
ENDBRANCH   3  12
BRANCH   1  36
HETATM   36  N4  UNL     1      26.835 -11.159  53.448  1.00  0.00    -0.272 N 
HETATM   37  N2  UNL     1      25.709 -11.827  54.030  1.00  0.00    -0.262 N 
HETATM   38  C4  UNL     1      25.519 -12.937  53.195  1.00  0.00     0.164 C 
HETATM   39  C7  UNL     1      26.970 -13.476  53.088  1.00  0.00     0.056 C 
HETATM   40  C8  UNL     1      27.768 -12.234  52.994  1.00  0.00     0.153 C 
BRANCH  37  41
HETATM   41  C3  UNL     1      25.099 -11.285  55.197  1.00  0.00     0.127 A 
HETATM   42  C2  UNL     1      25.685 -11.200  56.417  1.00  0.00     0.098 A 
HETATM   43  C1  UNL     1      25.038 -10.623  57.471  1.00  0.00     0.103 A 
HETATM   44  N16 UNL     1      23.783 -10.102  57.372  1.00  0.00    -0.339 N 
HETATM   45  C22 UNL     1      23.223 -10.192  56.167  1.00  0.00     0.183 A 
ATOM     46  H16 UNL     1      23.306  -9.673  58.164  1.00  0.00     0.168 HD
HETATM   47  N15 UNL     1      23.825 -10.749  55.122  1.00  0.00    -0.337 N 
ATOM     48  H15 UNL     1      23.330 -10.783  54.231  1.00  0.00     0.168 HD
BRANCH  43  49
HETATM   49  N1  UNL     1      25.600 -10.546  58.629  1.00  0.00    -0.385 N 
ATOM     50  H12 UNL     1      26.080 -11.385  58.957  1.00  0.00     0.157 HD
ATOM     51  H11 UNL     1      25.557  -9.685  59.174  1.00  0.00     0.157 HD
ENDBRANCH  43  49
ENDBRANCH  37  41
BRANCH  38  52
HETATM   52  C5  UNL     1      24.694 -14.103  53.468  1.00  0.00     0.185 C 
BRANCH  52  53
HETATM   53  N3  UNL     1      23.627 -14.109  54.346  1.00  0.00    -0.393 NA
BRANCH  53  54
HETATM   54  C6  UNL     1      22.590 -14.114  55.198  1.00  0.00     0.440 C 
HETATM   55  O1  UNL     1      21.652 -13.226  55.332  1.00  0.00    -0.268 OA
ENDBRANCH  53  54
ENDBRANCH  52  53
ENDBRANCH  38  52
ENDBRANCH   1  36
TORSDOF 9
ENDMDL
MODEL 5
REMARK VINA RESULT: -9.383606768      4.017     11.076
REMARK  9 active torsions:
REMARK  status: ('A' for Active; 'I' for Inactive)
REMARK    1  A    between atoms: N1_1  and  C1_4 
REMARK    2  A    between atoms: C3_6  and  N2_7 
REMARK    3  A    between atoms: C4_8  and  C5_9 
REMARK    4  A    between atoms: C5_9  and  N3_10 
REMARK    5  A    between atoms: N3_10  and  C6_11 
REMARK    6  A    between atoms: N4_15  and  C9_16 
REMARK    7  A    between atoms: C11_18  and  C12_19 
REMARK    8  A    between atoms: C15_22  and  C16_23 
REMARK    9  A    between atoms: N5_25  and  C18_26 
ROOT
HETATM    1  C9  UNL     1      25.646 -12.882  53.966  1.00  0.00     0.140 A 
HETATM    2  C10 UNL     1      25.839 -11.512  53.770  1.00  0.00     0.081 A 
HETATM    3  C11 UNL     1      26.912 -10.977  53.119  1.00  0.00     0.064 A 
HETATM    4  N12 UNL     1      27.819 -11.872  52.647  1.00  0.00    -0.191 N 
ATOM      5  H12 UNL     1      28.643 -11.531  52.152  1.00  0.00     0.184 HD
HETATM    6  C21 UNL     1      27.654 -13.202  52.820  1.00  0.00     0.677 A 
HETATM    7  N13 UNL     1      28.506 -14.074  52.377  1.00  0.00    -0.234 N 
ATOM      8 1H13 UNL     1      28.382 -15.078  52.508  1.00  0.00     0.174 HD
ATOM      9 2H13 UNL     1      29.317 -13.699  51.886  1.00  0.00     0.174 HD
HETATM   10  N14 UNL     1      26.567 -13.704  53.479  1.00  0.00    -0.175 N 
ATOM     11  H14 UNL     1      26.464 -14.712  53.598  1.00  0.00     0.186 HD
ENDROOT
BRANCH   3  12
HETATM   12  C12 UNL     1      27.192  -9.567  52.958  1.00  0.00     0.007 A 
HETATM   13  C13 UNL     1      26.843  -8.678  53.964  1.00  0.00     0.017 A 
HETATM   14  C14 UNL     1      27.145  -7.345  53.874  1.00  0.00     0.033 A 
HETATM   15  C15 UNL     1      27.818  -6.873  52.752  1.00  0.00     0.061 A 
HETATM   16  N11 UNL     1      28.127  -7.756  51.820  1.00  0.00    -0.363 N 
HETATM   17  C20 UNL     1      27.858  -9.069  51.849  1.00  0.00     0.102 A 
ATOM     18  H11 UNL     1      28.619  -7.404  50.998  1.00  0.00     0.165 HD
BRANCH  15  19
HETATM   19  C16 UNL     1      28.168  -5.460  52.731  1.00  0.00     0.093 A 
HETATM   20  C17 UNL     1      28.777  -4.784  51.684  1.00  0.00     0.153 A 
HETATM   21  N5  UNL     1      28.969  -3.540  52.080  1.00  0.00    -0.229 N 
HETATM   22  N9  UNL     1      28.494  -3.436  53.329  1.00  0.00    -0.234 N 
HETATM   23  N10 UNL     1      28.015  -4.571  53.732  1.00  0.00    -0.282 N 
ATOM     24  H9  UNL     1      28.508  -2.581  53.885  1.00  0.00     0.209 HD
ATOM     25  H10 UNL     1      27.596  -4.757  54.644  1.00  0.00     0.188 HD
BRANCH  21  26
HETATM   26  C18 UNL     1      29.588  -2.454  51.410  1.00  0.00     0.195 A 
HETATM   27  N6  UNL     1      29.534  -1.151  51.824  1.00  0.00    -0.220 N 
HETATM   28  O2  UNL     1      30.192  -0.452  50.987  1.00  0.00    -0.153 OA
ATOM     29  H6  UNL     1      29.053  -0.803  52.654  1.00  0.00     0.198 HD
HETATM   30  N7  UNL     1      30.689  -1.151  50.045  1.00  0.00    -0.222 N 
HETATM   31  C19 UNL     1      30.332  -2.436  50.266  1.00  0.00     0.169 A 
ATOM     32  H7  UNL     1      31.253  -0.805  49.268  1.00  0.00     0.198 HD
HETATM   33  N8  UNL     1      30.655  -3.437  49.510  1.00  0.00    -0.381 N 
ATOM     34  H82 UNL     1      30.385  -4.406  49.677  1.00  0.00     0.157 HD
ATOM     35  H81 UNL     1      31.211  -3.424  48.655  1.00  0.00     0.157 HD
ENDBRANCH  21  26
ENDBRANCH  15  19
ENDBRANCH   3  12
BRANCH   1  36
HETATM   36  N4  UNL     1      24.555 -13.334  54.721  1.00  0.00    -0.272 N 
HETATM   37  N2  UNL     1      23.889 -12.821  55.880  1.00  0.00    -0.262 N 
HETATM   38  C4  UNL     1      22.533 -13.040  55.603  1.00  0.00     0.164 C 
HETATM   39  C7  UNL     1      22.565 -14.515  55.124  1.00  0.00     0.056 C 
HETATM   40  C8  UNL     1      23.807 -14.565  54.322  1.00  0.00     0.153 C 
BRANCH  37  41
HETATM   41  C3  UNL     1      24.659 -12.266  56.942  1.00  0.00     0.127 A 
HETATM   42  C2  UNL     1      24.533 -11.002  57.419  1.00  0.00     0.098 A 
HETATM   43  C1  UNL     1      25.286 -10.569  58.472  1.00  0.00     0.103 A 
HETATM   44  N16 UNL     1      26.197 -11.361  59.104  1.00  0.00    -0.339 N 
HETATM   45  C22 UNL     1      26.306 -12.599  58.624  1.00  0.00     0.183 A 
ATOM     46  H16 UNL     1      26.756 -11.030  59.890  1.00  0.00     0.168 HD
HETATM   47  N15 UNL     1      25.590 -13.049  57.600  1.00  0.00    -0.337 N 
ATOM     48  H15 UNL     1      25.733 -14.010  57.287  1.00  0.00     0.168 HD
BRANCH  43  49
HETATM   49  N1  UNL     1      25.164  -9.367  58.921  1.00  0.00    -0.385 N 
ATOM     50  H12 UNL     1      24.222  -8.975  58.915  1.00  0.00     0.157 HD
ATOM     51  H11 UNL     1      25.975  -8.851  59.260  1.00  0.00     0.157 HD
ENDBRANCH  43  49
ENDBRANCH  37  41
BRANCH  38  52
HETATM   52  C5  UNL     1      21.426 -12.965  56.546  1.00  0.00     0.185 C 
BRANCH  52  53
HETATM   53  N3  UNL     1      20.878 -11.783  57.004  1.00  0.00    -0.393 NA
BRANCH  53  54
HETATM   54  C6  UNL     1      20.346 -10.634  57.451  1.00  0.00     0.440 C 
HETATM   55  O1  UNL     1      20.803  -9.838  58.369  1.00  0.00    -0.268 OA
ENDBRANCH  53  54
ENDBRANCH  52  53
ENDBRANCH  38  52
ENDBRANCH   1  36
TORSDOF 9
ENDMDL
