MODEL 1
REMARK VINA RESULT: -5.275217331      0.000      0.000
REMARK  1 active torsions:
REMARK  status: ('A' for Active; 'I' for Inactive)
REMARK    1  A    between atoms: C1_2  and  C2_4 
ROOT
HETATM    1  C2  UNL     1       3.433  14.156  43.949  1.00  0.00     0.030 A 
HETATM    2  C3  UNL     1       3.632  14.359  42.629  1.00  0.00     0.022 A 
HETATM    3  C4  UNL     1       4.315  13.384  41.949  1.00  0.00     0.052 A 
HETATM    4  S1  UNL     1       4.652  12.231  43.157  1.00  0.00    -0.094 SA
HETATM    5  C5  UNL     1       3.927  13.003  44.487  1.00  0.00     0.063 A 
HETATM    6 BR1  UNL     1       3.802  12.439  46.317  1.00  0.00    -0.042 Br
ENDROOT
BRANCH   1   7
HETATM    7  C1  UNL     1       2.687  15.167  44.811  1.00  0.00     0.388 C 
HETATM    8  F1  UNL     1       3.279  16.396  44.738  1.00  0.00    -0.209 F 
HETATM    9  F2  UNL     1       1.370  15.267  44.339  1.00  0.00    -0.209 F 
ENDBRANCH   1   7
TORSDOF 1
ENDMDL
MODEL 2
REMARK VINA RESULT: -5.014464306      1.919      2.755
REMARK  1 active torsions:
REMARK  status: ('A' for Active; 'I' for Inactive)
REMARK    1  A    between atoms: C1_2  and  C2_4 
ROOT
HETATM    1  C2  UNL     1       3.459  13.665  44.575  1.00  0.00     0.030 A 
HETATM    2  C3  UNL     1       3.260  13.366  45.876  1.00  0.00     0.022 A 
HETATM    3  C4  UNL     1       3.901  12.255  46.362  1.00  0.00     0.052 A 
HETATM    4  S1  UNL     1       4.751  11.673  45.004  1.00  0.00    -0.094 SA
HETATM    5  C5  UNL     1       4.279  12.839  43.860  1.00  0.00     0.063 A 
HETATM    6 BR1  UNL     1       4.749  13.004  42.008  1.00  0.00    -0.042 Br
ENDROOT
BRANCH   1   7
HETATM    7  C1  UNL     1       2.802  14.874  43.922  1.00  0.00     0.388 C 
HETATM    8  F1  UNL     1       1.634  15.192  44.556  1.00  0.00    -0.209 F 
HETATM    9  F2  UNL     1       3.681  15.962  44.013  1.00  0.00    -0.209 F 
ENDBRANCH   1   7
TORSDOF 1
ENDMDL
MODEL 3
REMARK VINA RESULT: -4.986380299      2.712      3.180
REMARK  1 active torsions:
REMARK  status: ('A' for Active; 'I' for Inactive)
REMARK    1  A    between atoms: C1_2  and  C2_4 
ROOT
HETATM    1  C2  UNL     1       3.942  12.653  44.677  1.00  0.00     0.030 A 
HETATM    2  C3  UNL     1       4.634  11.705  44.009  1.00  0.00     0.022 A 
HETATM    3  C4  UNL     1       4.903  11.951  42.687  1.00  0.00     0.052 A 
HETATM    4  S1  UNL     1       4.194  13.477  42.424  1.00  0.00    -0.094 SA
HETATM    5  C5  UNL     1       3.575  13.768  43.980  1.00  0.00     0.063 A 
HETATM    6 BR1  UNL     1       2.593  15.274  44.651  1.00  0.00    -0.042 Br
ENDROOT
BRANCH   1   7
HETATM    7  C1  UNL     1       3.583  12.494  46.149  1.00  0.00     0.388 C 
HETATM    8  F1  UNL     1       2.251  12.229  46.297  1.00  0.00    -0.209 F 
HETATM    9  F2  UNL     1       4.321  11.423  46.673  1.00  0.00    -0.209 F 
ENDBRANCH   1   7
TORSDOF 1
ENDMDL
MODEL 4
REMARK VINA RESULT: -4.916359621      0.992      1.023
REMARK  1 active torsions:
REMARK  status: ('A' for Active; 'I' for Inactive)
REMARK    1  A    between atoms: C1_2  and  C2_4 
ROOT
HETATM    1  C2  UNL     1       3.749  14.068  43.074  1.00  0.00     0.030 A 
HETATM    2  C3  UNL     1       3.712  14.394  41.764  1.00  0.00     0.022 A 
HETATM    3  C4  UNL     1       4.319  13.526  40.893  1.00  0.00     0.052 A 
HETATM    4  S1  UNL     1       4.913  12.300  41.917  1.00  0.00    -0.094 SA
HETATM    5  C5  UNL     1       4.384  12.909  43.414  1.00  0.00     0.063 A 
HETATM    6 BR1  UNL     1       4.598  12.187  45.178  1.00  0.00    -0.042 Br
ENDROOT
BRANCH   1   7
HETATM    7  C1  UNL     1       3.108  14.952  44.137  1.00  0.00     0.388 C 
HETATM    8  F1  UNL     1       3.726  16.170  44.191  1.00  0.00    -0.209 F 
HETATM    9  F2  UNL     1       1.759  15.141  43.805  1.00  0.00    -0.209 F 
ENDBRANCH   1   7
TORSDOF 1
ENDMDL
MODEL 5
REMARK VINA RESULT: -4.882838813      2.298      2.825
REMARK  1 active torsions:
REMARK  status: ('A' for Active; 'I' for Inactive)
REMARK    1  A    between atoms: C1_2  and  C2_4 
ROOT
HETATM    1  C2  UNL     1       3.849  13.607  43.312  1.00  0.00     0.030 A 
HETATM    2  C3  UNL     1       4.214  12.690  44.233  1.00  0.00     0.022 A 
HETATM    3  C4  UNL     1       4.985  11.645  43.794  1.00  0.00     0.052 A 
HETATM    4  S1  UNL     1       5.174  11.972  42.133  1.00  0.00    -0.094 SA
HETATM    5  C5  UNL     1       4.278  13.414  42.031  1.00  0.00     0.063 A 
HETATM    6 BR1  UNL     1       3.925  14.535  40.515  1.00  0.00    -0.042 Br
ENDROOT
BRANCH   1   7
HETATM    7  C1  UNL     1       2.993  14.813  43.679  1.00  0.00     0.388 C 
HETATM    8  F1  UNL     1       2.273  14.569  44.814  1.00  0.00    -0.209 F 
HETATM    9  F2  UNL     1       3.840  15.908  43.903  1.00  0.00    -0.209 F 
ENDBRANCH   1   7
TORSDOF 1
ENDMDL
