MODEL 1
REMARK VINA RESULT: -8.543738351      0.000      0.000
REMARK  6 active torsions:
REMARK  status: ('A' for Active; 'I' for Inactive)
REMARK    1  A    between atoms: O1_1  and  N1_3 
REMARK    2  A    between atoms: C1_5  and  C2_6 
REMARK    3  A    between atoms: C1_5  and  N2_19 
REMARK    4  A    between atoms: C7_11  and  O2_12 
REMARK    5  A    between atoms: O2_12  and  C8_13 
REMARK    6  A    between atoms: C16_24  and  C17_25 
ROOT
HETATM    1  C2  UNL     1       5.142  11.322  46.657  1.00  0.00     0.045 A 
HETATM    2  C3  UNL     1       4.311  11.485  47.799  1.00  0.00     0.018 A 
HETATM    3  C4  UNL     1       3.361  12.459  47.887  1.00  0.00     0.001 A 
HETATM    4  C5  UNL     1       3.215  13.306  46.822  1.00  0.00     0.003 A 
HETATM    5  C6  UNL     1       3.970  13.210  45.694  1.00  0.00     0.038 A 
HETATM    6  C7  UNL     1       4.946  12.191  45.628  1.00  0.00     0.090 A 
ENDROOT
BRANCH   1   7
HETATM    7  C1  UNL     1       6.201  10.343  46.790  1.00  0.00     0.160 C 
HETATM    8  N1  UNL     1       6.626   9.928  47.899  1.00  0.00    -0.251 N 
ATOM      9  H1  UNL     1       6.182  10.318  48.731  1.00  0.00     0.196 HD
BRANCH   8  10
HETATM   10  O1  UNL     1       7.608   9.021  48.109  1.00  0.00    -0.288 OA
ATOM     11  H1  UNL     1       7.675   8.150  47.733  1.00  0.00     0.244 HD
ENDBRANCH   8  10
BRANCH   7  12
HETATM   12  N2  UNL     1       6.844   9.781  45.632  1.00  0.00    -0.240 N 
HETATM   13  N3  UNL     1       7.832  10.328  44.959  1.00  0.00    -0.303 N 
HETATM   14  C14 UNL     1       8.207   9.560  43.938  1.00  0.00     0.110 A 
ATOM     15  H3  UNL     1       8.257  11.226  45.189  1.00  0.00     0.186 HD
HETATM   16  C15 UNL     1       7.395   8.450  43.975  1.00  0.00     0.048 A 
HETATM   17  C16 UNL     1       6.555   8.626  45.051  1.00  0.00     0.066 A 
BRANCH  17  18
HETATM   18  C17 UNL     1       5.507   7.650  45.458  1.00  0.00     0.281 C 
HETATM   19  F1  UNL     1       5.793   6.394  44.958  1.00  0.00    -0.249 F 
ENDBRANCH  17  18
ENDBRANCH   7  12
ENDBRANCH   1   7
BRANCH   6  20
HETATM   20  O2  UNL     1       5.693  12.116  44.469  1.00  0.00    -0.310 OA
BRANCH  20  21
HETATM   21  C8  UNL     1       5.109  12.029  43.220  1.00  0.00     0.076 A 
HETATM   22  C9  UNL     1       5.039  10.810  42.533  1.00  0.00     0.037 A 
HETATM   23  C10 UNL     1       4.469  10.701  41.290  1.00  0.00     0.003 A 
HETATM   24  C11 UNL     1       3.939  11.793  40.661  1.00  0.00     0.000 A 
HETATM   25  C12 UNL     1       3.984  12.997  41.288  1.00  0.00     0.003 A 
HETATM   26  C13 UNL     1       4.555  13.117  42.536  1.00  0.00     0.037 A 
ENDBRANCH  20  21
ENDBRANCH   6  20
TORSDOF 6
ENDMDL
MODEL 2
REMARK VINA RESULT: -8.407674574      2.421      4.180
REMARK  6 active torsions:
REMARK  status: ('A' for Active; 'I' for Inactive)
REMARK    1  A    between atoms: O1_1  and  N1_3 
REMARK    2  A    between atoms: C1_5  and  C2_6 
REMARK    3  A    between atoms: C1_5  and  N2_19 
REMARK    4  A    between atoms: C7_11  and  O2_12 
REMARK    5  A    between atoms: O2_12  and  C8_13 
REMARK    6  A    between atoms: C16_24  and  C17_25 
ROOT
HETATM    1  C2  UNL     1       8.648  10.715  43.961  1.00  0.00     0.045 A 
HETATM    2  C3  UNL     1       9.993  11.034  43.630  1.00  0.00     0.018 A 
HETATM    3  C4  UNL     1      10.556  12.242  43.917  1.00  0.00     0.001 A 
HETATM    4  C5  UNL     1       9.779  13.175  44.548  1.00  0.00     0.003 A 
HETATM    5  C6  UNL     1       8.485  12.942  44.899  1.00  0.00     0.038 A 
HETATM    6  C7  UNL     1       7.926  11.681  44.593  1.00  0.00     0.090 A 
ENDROOT
BRANCH   1   7
HETATM    7  C1  UNL     1       8.162   9.452  43.447  1.00  0.00     0.160 C 
HETATM    8  N1  UNL     1       7.368   9.357  42.476  1.00  0.00    -0.251 N 
ATOM      9  H1  UNL     1       7.068  10.233  42.047  1.00  0.00     0.196 HD
BRANCH   8  10
HETATM   10  O1  UNL     1       6.867   8.221  41.938  1.00  0.00    -0.288 OA
ATOM     11  H1  UNL     1       6.005   7.848  42.084  1.00  0.00     0.244 HD
ENDBRANCH   8  10
BRANCH   7  12
HETATM   12  N2  UNL     1       8.568   8.202  44.035  1.00  0.00    -0.240 N 
HETATM   13  N3  UNL     1       9.537   7.426  43.601  1.00  0.00    -0.303 N 
HETATM   14  C14 UNL     1       9.666   6.340  44.361  1.00  0.00     0.110 A 
ATOM     15  H3  UNL     1      10.115   7.630  42.786  1.00  0.00     0.186 HD
HETATM   16  C15 UNL     1       8.708   6.446  45.343  1.00  0.00     0.048 A 
HETATM   17  C16 UNL     1       8.042   7.625  45.105  1.00  0.00     0.066 A 
BRANCH  17  18
HETATM   18  C17 UNL     1       6.919   8.131  45.940  1.00  0.00     0.281 C 
HETATM   19  F1  UNL     1       5.724   8.045  45.253  1.00  0.00    -0.249 F 
ENDBRANCH  17  18
ENDBRANCH   7  12
ENDBRANCH   1   7
BRANCH   6  20
HETATM   20  O2  UNL     1       6.613  11.472  44.966  1.00  0.00    -0.310 OA
BRANCH  20  21
HETATM   21  C8  UNL     1       5.585  12.287  44.532  1.00  0.00     0.076 A 
HETATM   22  C9  UNL     1       5.194  12.310  43.187  1.00  0.00     0.037 A 
HETATM   23  C10 UNL     1       4.180  13.114  42.732  1.00  0.00     0.003 A 
HETATM   24  C11 UNL     1       3.501  13.939  43.584  1.00  0.00     0.000 A 
HETATM   25  C12 UNL     1       3.845  13.952  44.898  1.00  0.00     0.003 A 
HETATM   26  C13 UNL     1       4.862  13.148  45.365  1.00  0.00     0.037 A 
ENDBRANCH  20  21
ENDBRANCH   6  20
TORSDOF 6
ENDMDL
MODEL 3
REMARK VINA RESULT: -8.387989416      3.645      5.894
REMARK  6 active torsions:
REMARK  status: ('A' for Active; 'I' for Inactive)
REMARK    1  A    between atoms: O1_1  and  N1_3 
REMARK    2  A    between atoms: C1_5  and  C2_6 
REMARK    3  A    between atoms: C1_5  and  N2_19 
REMARK    4  A    between atoms: C7_11  and  O2_12 
REMARK    5  A    between atoms: O2_12  and  C8_13 
REMARK    6  A    between atoms: C16_24  and  C17_25 
ROOT
HETATM    1  C2  UNL     1       8.283   7.783  42.678  1.00  0.00     0.045 A 
HETATM    2  C3  UNL     1       7.711   6.936  41.690  1.00  0.00     0.018 A 
HETATM    3  C4  UNL     1       6.721   7.348  40.849  1.00  0.00     0.001 A 
HETATM    4  C5  UNL     1       6.268   8.633  40.976  1.00  0.00     0.003 A 
HETATM    5  C6  UNL     1       6.767   9.503  41.895  1.00  0.00     0.038 A 
HETATM    6  C7  UNL     1       7.795   9.053  42.753  1.00  0.00     0.090 A 
ENDROOT
BRANCH   1   7
HETATM    7  C1  UNL     1       9.210   7.144  43.588  1.00  0.00     0.160 C 
HETATM    8  N1  UNL     1       9.066   7.143  44.838  1.00  0.00    -0.251 N 
ATOM      9  H1  UNL     1       8.242   7.624  45.200  1.00  0.00     0.196 HD
BRANCH   8  10
HETATM   10  O1  UNL     1       9.883   6.573  45.754  1.00  0.00    -0.288 OA
ATOM     11  H1  UNL     1       9.628   6.027  46.489  1.00  0.00     0.244 HD
ENDBRANCH   8  10
BRANCH   7  12
HETATM   12  N2  UNL     1      10.379   6.461  43.101  1.00  0.00    -0.240 N 
HETATM   13  N3  UNL     1      10.551   5.157  43.069  1.00  0.00    -0.303 N 
HETATM   14  C14 UNL     1      11.740   4.837  42.563  1.00  0.00     0.110 A 
ATOM     15  H3  UNL     1       9.862   4.478  43.391  1.00  0.00     0.186 HD
HETATM   16  C15 UNL     1      12.358   6.028  42.255  1.00  0.00     0.048 A 
HETATM   17  C16 UNL     1      11.473   7.021  42.607  1.00  0.00     0.066 A 
BRANCH  17  18
HETATM   18  C17 UNL     1      11.743   8.475  42.440  1.00  0.00     0.281 C 
HETATM   19  F1  UNL     1      11.016   8.987  41.383  1.00  0.00    -0.249 F 
ENDBRANCH  17  18
ENDBRANCH   7  12
ENDBRANCH   1   7
BRANCH   6  20
HETATM   20  O2  UNL     1       8.286   9.960  43.671  1.00  0.00    -0.310 OA
BRANCH  20  21
HETATM   21  C8  UNL     1       7.476  10.567  44.612  1.00  0.00     0.076 A 
HETATM   22  C9  UNL     1       6.838   9.821  45.612  1.00  0.00     0.037 A 
HETATM   23  C10 UNL     1       6.026  10.401  46.553  1.00  0.00     0.003 A 
HETATM   24  C11 UNL     1       5.801  11.750  46.554  1.00  0.00     0.000 A 
HETATM   25  C12 UNL     1       6.398  12.514  45.603  1.00  0.00     0.003 A 
HETATM   26  C13 UNL     1       7.216  11.941  44.653  1.00  0.00     0.037 A 
ENDBRANCH  20  21
ENDBRANCH   6  20
TORSDOF 6
ENDMDL
MODEL 4
REMARK VINA RESULT: -8.351818749      2.786      3.771
REMARK  6 active torsions:
REMARK  status: ('A' for Active; 'I' for Inactive)
REMARK    1  A    between atoms: O1_1  and  N1_3 
REMARK    2  A    between atoms: C1_5  and  C2_6 
REMARK    3  A    between atoms: C1_5  and  N2_19 
REMARK    4  A    between atoms: C7_11  and  O2_12 
REMARK    5  A    between atoms: O2_12  and  C8_13 
REMARK    6  A    between atoms: C16_24  and  C17_25 
ROOT
HETATM    1  C2  UNL     1       6.815   9.545  46.311  1.00  0.00     0.045 A 
HETATM    2  C3  UNL     1       5.923   9.737  47.400  1.00  0.00     0.018 A 
HETATM    3  C4  UNL     1       5.204  10.883  47.572  1.00  0.00     0.001 A 
HETATM    4  C5  UNL     1       5.361  11.880  46.648  1.00  0.00     0.003 A 
HETATM    5  C6  UNL     1       6.194  11.769  45.578  1.00  0.00     0.038 A 
HETATM    6  C7  UNL     1       6.926  10.571  45.422  1.00  0.00     0.090 A 
ENDROOT
BRANCH   1   7
HETATM    7  C1  UNL     1       7.615   8.340  46.364  1.00  0.00     0.160 C 
HETATM    8  N1  UNL     1       8.187   7.932  47.408  1.00  0.00    -0.251 N 
ATOM      9  H1  UNL     1       8.061   8.500  48.246  1.00  0.00     0.196 HD
BRANCH   8  10
HETATM   10  O1  UNL     1       8.950   6.822  47.540  1.00  0.00    -0.288 OA
ATOM     11  H1  UNL     1       9.496   6.587  48.281  1.00  0.00     0.244 HD
ENDBRANCH   8  10
BRANCH   7  12
HETATM   12  N2  UNL     1       7.809   7.523  45.195  1.00  0.00    -0.240 N 
HETATM   13  N3  UNL     1       8.849   7.563  44.392  1.00  0.00    -0.303 N 
HETATM   14  C14 UNL     1       8.730   6.683  43.399  1.00  0.00     0.110 A 
ATOM     15  H3  UNL     1       9.646   8.187  44.514  1.00  0.00     0.186 HD
HETATM   16  C15 UNL     1       7.527   6.045  43.596  1.00  0.00     0.048 A 
HETATM   17  C16 UNL     1       6.980   6.600  44.731  1.00  0.00     0.066 A 
BRANCH  17  18
HETATM   18  C17 UNL     1       5.669   6.195  45.307  1.00  0.00     0.281 C 
HETATM   19  F1  UNL     1       4.802   7.270  45.347  1.00  0.00    -0.249 F 
ENDBRANCH  17  18
ENDBRANCH   7  12
ENDBRANCH   1   7
BRANCH   6  20
HETATM   20  O2  UNL     1       7.758  10.485  44.323  1.00  0.00    -0.310 OA
BRANCH  20  21
HETATM   21  C8  UNL     1       8.853  11.314  44.162  1.00  0.00     0.076 A 
HETATM   22  C9  UNL     1       9.987  10.889  43.459  1.00  0.00     0.037 A 
HETATM   23  C10 UNL     1      11.087  11.692  43.290  1.00  0.00     0.003 A 
HETATM   24  C11 UNL     1      11.122  12.956  43.810  1.00  0.00     0.000 A 
HETATM   25  C12 UNL     1      10.044  13.411  44.500  1.00  0.00     0.003 A 
HETATM   26  C13 UNL     1       8.935  12.613  44.675  1.00  0.00     0.037 A 
ENDBRANCH  20  21
ENDBRANCH   6  20
TORSDOF 6
ENDMDL
MODEL 5
REMARK VINA RESULT: -8.223035076      3.018      4.883
REMARK  6 active torsions:
REMARK  status: ('A' for Active; 'I' for Inactive)
REMARK    1  A    between atoms: O1_1  and  N1_3 
REMARK    2  A    between atoms: C1_5  and  C2_6 
REMARK    3  A    between atoms: C1_5  and  N2_19 
REMARK    4  A    between atoms: C7_11  and  O2_12 
REMARK    5  A    between atoms: O2_12  and  C8_13 
REMARK    6  A    between atoms: C16_24  and  C17_25 
ROOT
HETATM    1  C2  UNL     1       8.986  10.721  43.771  1.00  0.00     0.045 A 
HETATM    2  C3  UNL     1      10.295  11.155  43.429  1.00  0.00     0.018 A 
HETATM    3  C4  UNL     1      10.780  12.381  43.777  1.00  0.00     0.001 A 
HETATM    4  C5  UNL     1       9.958  13.216  44.483  1.00  0.00     0.003 A 
HETATM    5  C6  UNL     1       8.694  12.870  44.849  1.00  0.00     0.038 A 
HETATM    6  C7  UNL     1       8.216  11.594  44.478  1.00  0.00     0.090 A 
ENDROOT
BRANCH   1   7
HETATM    7  C1  UNL     1       8.575   9.459  43.191  1.00  0.00     0.160 C 
HETATM    8  N1  UNL     1       7.783   9.368  42.218  1.00  0.00    -0.251 N 
ATOM      9  H1  UNL     1       7.429  10.246  41.837  1.00  0.00     0.196 HD
BRANCH   8  10
HETATM   10  O1  UNL     1       7.350   8.233  41.621  1.00  0.00    -0.288 OA
ATOM     11  H1  UNL     1       7.869   7.614  41.121  1.00  0.00     0.244 HD
ENDBRANCH   8  10
BRANCH   7  12
HETATM   12  N2  UNL     1       9.059   8.208  43.712  1.00  0.00    -0.240 N 
HETATM   13  N3  UNL     1       8.525   7.529  44.704  1.00  0.00    -0.303 N 
HETATM   14  C14 UNL     1       9.207   6.412  44.949  1.00  0.00     0.110 A 
ATOM     15  H3  UNL     1       7.696   7.821  45.219  1.00  0.00     0.186 HD
HETATM   16  C15 UNL     1      10.243   6.390  44.043  1.00  0.00     0.048 A 
HETATM   17  C16 UNL     1      10.116   7.532  43.287  1.00  0.00     0.066 A 
BRANCH  17  18
HETATM   18  C17 UNL     1      11.038   7.904  42.180  1.00  0.00     0.281 C 
HETATM   19  F1  UNL     1      12.181   8.499  42.678  1.00  0.00    -0.249 F 
ENDBRANCH  17  18
ENDBRANCH   7  12
ENDBRANCH   1   7
BRANCH   6  20
HETATM   20  O2  UNL     1       6.932  11.269  44.868  1.00  0.00    -0.310 OA
BRANCH  20  21
HETATM   21  C8  UNL     1       5.849  12.081  44.588  1.00  0.00     0.076 A 
HETATM   22  C9  UNL     1       5.104  12.678  45.612  1.00  0.00     0.037 A 
HETATM   23  C10 UNL     1       4.022  13.483  45.358  1.00  0.00     0.003 A 
HETATM   24  C11 UNL     1       3.620  13.738  44.076  1.00  0.00     0.000 A 
HETATM   25  C12 UNL     1       4.312  13.179  43.049  1.00  0.00     0.003 A 
HETATM   26  C13 UNL     1       5.400  12.369  43.294  1.00  0.00     0.037 A 
ENDBRANCH  20  21
ENDBRANCH   6  20
TORSDOF 6
ENDMDL
