MODEL 1
REMARK VINA RESULT: -5.593389777      0.000      0.000
REMARK  2 active torsions:
REMARK  status: ('A' for Active; 'I' for Inactive)
REMARK    1  A    between atoms: N1_2  and  C2_4 
REMARK    2  A    between atoms: C2_4  and  C4_12 
REMARK       I    between atoms: N2_5  and  C3_7 
ROOT
HETATM    1  C2  UNL     1       6.807  14.398  30.037  1.00  0.00     0.149 C 
HETATM    2  N2  UNL     1       5.959  13.490  30.369  1.00  0.00    -0.314 N 
ATOM      3  H2  UNL     1       6.289  12.750  30.990  1.00  0.00     0.170 HD
HETATM    4  C3  UNL     1       4.624  13.426  29.952  1.00  0.00     0.187 C 
HETATM    5  N3  UNL     1       4.039  12.292  29.901  1.00  0.00    -0.373 N 
ATOM      6  H31 UNL     1       3.067  12.245  29.598  1.00  0.00     0.158 HD
ATOM      7  H32 UNL     1       4.542  11.443  30.161  1.00  0.00     0.158 HD
HETATM    8  N4  UNL     1       3.929  14.598  29.593  1.00  0.00    -0.064 NA
ENDROOT
BRANCH   1   9
HETATM    9  N1  UNL     1       6.493  15.491  29.180  1.00  0.00    -0.378 N 
HETATM   10  C1  UNL     1       7.533  16.165  28.436  1.00  0.00     0.148 C 
ATOM     11  H1  UNL     1       5.525  15.801  29.089  1.00  0.00     0.160 HD
ENDBRANCH   1   9
BRANCH   1  12
HETATM   12  C4  UNL     1       8.153  14.290  30.576  1.00  0.00     0.189 C 
HETATM   13  C5  UNL     1       8.576  13.096  31.361  1.00  0.00     0.100 C 
HETATM   14  O1  UNL     1       8.985  15.191  30.399  1.00  0.00    -0.290 OA
ENDBRANCH   1  12
TORSDOF 2
ENDMDL
MODEL 2
REMARK VINA RESULT: -5.488266260      5.272      6.734
REMARK  2 active torsions:
REMARK  status: ('A' for Active; 'I' for Inactive)
REMARK    1  A    between atoms: N1_2  and  C2_4 
REMARK    2  A    between atoms: C2_4  and  C4_12 
REMARK       I    between atoms: N2_5  and  C3_7 
ROOT
HETATM    1  C2  UNL     1      11.071  16.887  27.708  1.00  0.00     0.149 C 
HETATM    2  N2  UNL     1      10.586  16.843  26.518  1.00  0.00    -0.314 N 
ATOM      3  H2  UNL     1       9.576  16.956  26.422  1.00  0.00     0.170 HD
HETATM    4  C3  UNL     1      11.322  16.655  25.341  1.00  0.00     0.187 C 
HETATM    5  N3  UNL     1      10.751  16.132  24.325  1.00  0.00    -0.373 N 
ATOM      6  H31 UNL     1      11.287  15.995  23.469  1.00  0.00     0.158 HD
ATOM      7  H32 UNL     1       9.770  15.857  24.373  1.00  0.00     0.158 HD
HETATM    8  N4  UNL     1      12.677  17.035  25.276  1.00  0.00    -0.064 NA
ENDROOT
BRANCH   1   9
HETATM    9  N1  UNL     1      12.458  16.745  27.997  1.00  0.00    -0.378 N 
HETATM   10  C1  UNL     1      12.937  15.621  28.770  1.00  0.00     0.148 C 
ATOM     11  H1  UNL     1      13.119  17.443  27.657  1.00  0.00     0.160 HD
ENDBRANCH   1   9
BRANCH   1  12
HETATM   12  C4  UNL     1      10.140  17.093  28.806  1.00  0.00     0.189 C 
HETATM   13  C5  UNL     1       9.184  16.025  29.218  1.00  0.00     0.100 C 
HETATM   14  O1  UNL     1      10.114  18.164  29.428  1.00  0.00    -0.290 OA
ENDBRANCH   1  12
TORSDOF 2
ENDMDL
MODEL 3
REMARK VINA RESULT: -5.415380008      2.444      4.164
REMARK  2 active torsions:
REMARK  status: ('A' for Active; 'I' for Inactive)
REMARK    1  A    between atoms: N1_2  and  C2_4 
REMARK    2  A    between atoms: C2_4  and  C4_12 
REMARK       I    between atoms: N2_5  and  C3_7 
ROOT
HETATM    1  C2  UNL     1       6.664  13.658  30.547  1.00  0.00     0.149 C 
HETATM    2  N2  UNL     1       7.903  13.787  30.866  1.00  0.00    -0.314 N 
ATOM      3  H2  UNL     1       8.414  14.564  30.445  1.00  0.00     0.170 HD
HETATM    4  C3  UNL     1       8.613  12.955  31.740  1.00  0.00     0.187 C 
HETATM    5  N3  UNL     1       9.878  12.841  31.604  1.00  0.00    -0.373 N 
ATOM      6  H31 UNL     1      10.395  12.235  32.240  1.00  0.00     0.158 HD
ATOM      7  H32 UNL     1      10.363  13.351  30.865  1.00  0.00     0.158 HD
HETATM    8  N4  UNL     1       7.944  12.249  32.759  1.00  0.00    -0.064 NA
ENDROOT
BRANCH   1   9
HETATM    9  N1  UNL     1       5.825  12.625  31.053  1.00  0.00    -0.378 N 
HETATM   10  C1  UNL     1       5.609  11.415  30.293  1.00  0.00     0.148 C 
ATOM     11  H1  UNL     1       5.373  12.740  31.960  1.00  0.00     0.160 HD
ENDBRANCH   1   9
BRANCH   1  12
HETATM   12  C4  UNL     1       6.105  14.629  29.619  1.00  0.00     0.189 C 
HETATM   13  C5  UNL     1       6.958  15.679  28.994  1.00  0.00     0.100 C 
HETATM   14  O1  UNL     1       4.902  14.609  29.325  1.00  0.00    -0.290 OA
ENDBRANCH   1  12
TORSDOF 2
ENDMDL
MODEL 4
REMARK VINA RESULT: -5.348759768      7.812      9.189
REMARK  2 active torsions:
REMARK  status: ('A' for Active; 'I' for Inactive)
REMARK    1  A    between atoms: N1_2  and  C2_4 
REMARK    2  A    between atoms: C2_4  and  C4_12 
REMARK       I    between atoms: N2_5  and  C3_7 
ROOT
HETATM    1  C2  UNL     1       9.102  21.875  32.005  1.00  0.00     0.149 C 
HETATM    2  N2  UNL     1       9.535  22.776  32.813  1.00  0.00    -0.314 N 
ATOM      3  H2  UNL     1      10.513  22.715  33.098  1.00  0.00     0.170 HD
HETATM    4  C3  UNL     1       8.783  23.835  33.338  1.00  0.00     0.187 C 
HETATM    5  N3  UNL     1       9.116  24.340  34.463  1.00  0.00    -0.373 N 
ATOM      6  H31 UNL     1       8.569  25.110  34.844  1.00  0.00     0.158 HD
ATOM      7  H32 UNL     1       9.922  23.974  34.971  1.00  0.00     0.158 HD
HETATM    8  N4  UNL     1       7.670  24.339  32.636  1.00  0.00    -0.064 NA
ENDROOT
BRANCH   1   9
HETATM    9  N1  UNL     1       7.763  21.832  31.521  1.00  0.00    -0.378 N 
HETATM   10  C1  UNL     1       6.749  21.084  32.230  1.00  0.00     0.148 C 
ATOM     11  H1  UNL     1       7.517  22.332  30.667  1.00  0.00     0.160 HD
ENDBRANCH   1   9
BRANCH   1  12
HETATM   12  C4  UNL     1      10.041  20.854  31.570  1.00  0.00     0.189 C 
HETATM   13  C5  UNL     1      11.495  20.961  31.880  1.00  0.00     0.100 C 
HETATM   14  O1  UNL     1       9.658  19.868  30.927  1.00  0.00    -0.290 OA
ENDBRANCH   1  12
TORSDOF 2
ENDMDL
MODEL 5
REMARK VINA RESULT: -5.312205894      2.339      3.658
REMARK  2 active torsions:
REMARK  status: ('A' for Active; 'I' for Inactive)
REMARK    1  A    between atoms: N1_2  and  C2_4 
REMARK    2  A    between atoms: C2_4  and  C4_12 
REMARK       I    between atoms: N2_5  and  C3_7 
ROOT
HETATM    1  C2  UNL     1       6.799  14.099  30.253  1.00  0.00     0.149 C 
HETATM    2  N2  UNL     1       7.445  13.177  30.875  1.00  0.00    -0.314 N 
ATOM      3  H2  UNL     1       6.931  12.329  31.114  1.00  0.00     0.170 HD
HETATM    4  C3  UNL     1       8.793  13.235  31.251  1.00  0.00     0.187 C 
HETATM    5  N3  UNL     1       9.190  12.554  32.256  1.00  0.00    -0.373 N 
ATOM      6  H31 UNL     1      10.171  12.596  32.530  1.00  0.00     0.158 HD
ATOM      7  H32 UNL     1       8.531  11.974  32.776  1.00  0.00     0.158 HD
HETATM    8  N4  UNL     1       9.703  14.035  30.533  1.00  0.00    -0.064 NA
ENDROOT
BRANCH   1   9
HETATM    9  N1  UNL     1       7.382  15.335  29.854  1.00  0.00    -0.378 N 
HETATM   10  C1  UNL     1       7.115  15.885  28.544  1.00  0.00     0.148 C 
ATOM     11  H1  UNL     1       7.993  15.837  30.498  1.00  0.00     0.160 HD
ENDBRANCH   1   9
BRANCH   1  12
HETATM   12  C4  UNL     1       5.399  13.849  29.949  1.00  0.00     0.189 C 
HETATM   13  C5  UNL     1       4.758  12.544  30.279  1.00  0.00     0.100 C 
HETATM   14  O1  UNL     1       4.701  14.715  29.404  1.00  0.00    -0.290 OA
ENDBRANCH   1  12
TORSDOF 2
ENDMDL
