MODEL 1
REMARK VINA RESULT: -3.925802280      0.000      0.000
REMARK  2 active torsions:
REMARK  status: ('A' for Active; 'I' for Inactive)
REMARK    1  A    between atoms: S1_2  and  N1_4 
REMARK    2  A    between atoms: N1_4  and  C2_6 
ROOT
HETATM    1  N1  UNL     1       8.132  21.117  32.551  1.00  0.00    -0.285 N 
ATOM      2  H1  UNL     1       7.973  20.667  33.452  1.00  0.00     0.178 HD
ENDROOT
BRANCH   1   3
HETATM    3  S1  UNL     1       7.177  22.480  32.128  1.00  0.00     0.112 S 
HETATM    4  C1  UNL     1       8.113  23.676  31.205  1.00  0.00     0.152 C 
HETATM    5  O1  UNL     1       5.855  21.982  31.250  1.00  0.00    -0.236 OA
ENDBRANCH   1   3
BRANCH   1   6
HETATM    6  C2  UNL     1       9.134  20.591  31.696  1.00  0.00     0.192 C 
HETATM    7  N2  UNL     1       8.809  19.530  30.799  1.00  0.00    -0.069 NA
HETATM    8  S2  UNL     1      10.654  21.137  31.679  1.00  0.00    -0.044 SA
ENDBRANCH   1   6
TORSDOF 2
ENDMDL
MODEL 2
REMARK VINA RESULT: -3.779169522      2.702      4.046
REMARK  2 active torsions:
REMARK  status: ('A' for Active; 'I' for Inactive)
REMARK    1  A    between atoms: S1_2  and  N1_4 
REMARK    2  A    between atoms: N1_4  and  C2_6 
ROOT
HETATM    1  N1  UNL     1      10.180  22.819  32.060  1.00  0.00    -0.285 N 
ATOM      2  H1  UNL     1      10.876  23.515  31.794  1.00  0.00     0.178 HD
ENDROOT
BRANCH   1   3
HETATM    3  S1  UNL     1      10.517  21.161  31.765  1.00  0.00     0.112 S 
HETATM    4  C1  UNL     1      12.179  20.737  32.231  1.00  0.00     0.152 C 
HETATM    5  O1  UNL     1       9.427  20.216  32.595  1.00  0.00    -0.236 OA
ENDBRANCH   1   3
BRANCH   1   6
HETATM    6  C2  UNL     1       8.972  23.258  32.659  1.00  0.00     0.192 C 
HETATM    7  N2  UNL     1       8.994  23.782  33.986  1.00  0.00    -0.069 NA
HETATM    8  S2  UNL     1       7.543  23.199  31.908  1.00  0.00    -0.044 SA
ENDBRANCH   1   6
TORSDOF 2
ENDMDL
MODEL 3
REMARK VINA RESULT: -3.656849309      2.011      2.011
REMARK  2 active torsions:
REMARK  status: ('A' for Active; 'I' for Inactive)
REMARK    1  A    between atoms: S1_2  and  N1_4 
REMARK    2  A    between atoms: N1_4  and  C2_6 
ROOT
HETATM    1  N1  UNL     1       8.838  21.574  32.613  1.00  0.00    -0.285 N 
ATOM      2  H1  UNL     1       8.228  21.142  33.306  1.00  0.00     0.178 HD
ENDROOT
BRANCH   1   3
HETATM    3  S1  UNL     1       9.022  23.282  32.627  1.00  0.00     0.112 S 
HETATM    4  C1  UNL     1       7.739  24.087  31.697  1.00  0.00     0.152 C 
HETATM    5  O1  UNL     1       9.023  23.828  34.198  1.00  0.00    -0.236 OA
ENDBRANCH   1   3
BRANCH   1   6
HETATM    6  C2  UNL     1       9.502  20.743  31.676  1.00  0.00     0.192 C 
HETATM    7  N2  UNL     1       8.771  19.717  31.004  1.00  0.00    -0.069 NA
HETATM    8  S2  UNL     1      11.069  20.893  31.319  1.00  0.00    -0.044 SA
ENDBRANCH   1   6
TORSDOF 2
ENDMDL
MODEL 4
REMARK VINA RESULT: -3.632480715      6.622      6.963
REMARK  2 active torsions:
REMARK  status: ('A' for Active; 'I' for Inactive)
REMARK    1  A    between atoms: S1_2  and  N1_4 
REMARK    2  A    between atoms: N1_4  and  C2_6 
ROOT
HETATM    1  N1  UNL     1      10.181  16.774  27.182  1.00  0.00    -0.285 N 
ATOM      2  H1  UNL     1       9.609  16.659  26.346  1.00  0.00     0.178 HD
ENDROOT
BRANCH   1   3
HETATM    3  S1  UNL     1       9.419  16.696  28.720  1.00  0.00     0.112 S 
HETATM    4  C1  UNL     1       7.705  16.249  28.580  1.00  0.00     0.152 C 
HETATM    5  O1  UNL     1      10.222  15.605  29.684  1.00  0.00    -0.236 OA
ENDBRANCH   1   3
BRANCH   1   6
HETATM    6  C2  UNL     1      11.573  16.991  27.030  1.00  0.00     0.192 C 
HETATM    7  N2  UNL     1      12.363  16.032  26.327  1.00  0.00    -0.069 NA
HETATM    8  S2  UNL     1      12.333  18.288  27.619  1.00  0.00    -0.044 SA
ENDBRANCH   1   6
TORSDOF 2
ENDMDL
MODEL 5
REMARK VINA RESULT: -3.613575702      2.796      2.878
REMARK  2 active torsions:
REMARK  status: ('A' for Active; 'I' for Inactive)
REMARK    1  A    between atoms: S1_2  and  N1_4 
REMARK    2  A    between atoms: N1_4  and  C2_6 
ROOT
HETATM    1  N1  UNL     1      10.510  21.444  31.401  1.00  0.00    -0.285 N 
ATOM      2  H1  UNL     1      10.575  22.423  31.123  1.00  0.00     0.178 HD
ENDROOT
BRANCH   1   3
HETATM    3  S1  UNL     1       8.990  20.834  31.919  1.00  0.00     0.112 S 
HETATM    4  C1  UNL     1       7.791  22.132  32.105  1.00  0.00     0.152 C 
HETATM    5  O1  UNL     1       8.447  19.699  30.832  1.00  0.00    -0.236 OA
ENDBRANCH   1   3
BRANCH   1   6
HETATM    6  C2  UNL     1      11.677  20.641  31.346  1.00  0.00     0.192 C 
HETATM    7  N2  UNL     1      12.340  20.277  32.557  1.00  0.00    -0.069 NA
HETATM    8  S2  UNL     1      12.312  20.103  29.962  1.00  0.00    -0.044 SA
ENDBRANCH   1   6
TORSDOF 2
ENDMDL
