MODEL 1
REMARK VINA RESULT: -4.232208432      0.000      0.000
REMARK  1 active torsions:
REMARK  status: ('A' for Active; 'I' for Inactive)
REMARK    1  A    between atoms: S1_2  and  C2_3 
ROOT
HETATM    1  C2  UNL     1      32.225   0.304  83.290  1.00  0.00     0.155 A 
HETATM    2  N1  UNL     1      33.320   0.542  82.565  1.00  0.00    -0.275 N 
ATOM      3  H1  UNL     1      33.357   1.165  81.758  1.00  0.00     0.189 HD
HETATM    4  N2  UNL     1      34.348  -0.137  83.036  1.00  0.00    -0.239 N 
ATOM      5  H2  UNL     1      35.299  -0.136  82.668  1.00  0.00     0.208 HD
HETATM    6  N3  UNL     1      33.906  -0.817  84.074  1.00  0.00    -0.249 N 
ATOM      7  H3  UNL     1      34.479  -1.436  84.647  1.00  0.00     0.192 HD
HETATM    8  C3  UNL     1      32.606  -0.583  84.276  1.00  0.00     0.295 A 
HETATM    9  O1  UNL     1      31.851  -1.068  85.185  1.00  0.00    -0.264 OA
ENDROOT
BRANCH   1  10
HETATM   10  S1  UNL     1      30.569   0.952  83.101  1.00  0.00    -0.110 SA
HETATM   11  C1  UNL     1      30.224   1.960  84.577  1.00  0.00     0.097 C 
ENDBRANCH   1  10
TORSDOF 1
ENDMDL
MODEL 2
REMARK VINA RESULT: -4.089938725     11.284     11.971
REMARK  1 active torsions:
REMARK  status: ('A' for Active; 'I' for Inactive)
REMARK    1  A    between atoms: S1_2  and  C2_3 
ROOT
HETATM    1  C2  UNL     1      23.874   3.801  77.170  1.00  0.00     0.155 A 
HETATM    2  N1  UNL     1      23.420   4.999  76.795  1.00  0.00    -0.275 N 
ATOM      3  H1  UNL     1      23.562   5.863  77.320  1.00  0.00     0.189 HD
HETATM    4  N2  UNL     1      22.763   4.913  75.655  1.00  0.00    -0.239 N 
ATOM      5  H2  UNL     1      22.315   5.678  75.151  1.00  0.00     0.208 HD
HETATM    6  N3  UNL     1      22.798   3.646  75.295  1.00  0.00    -0.249 N 
ATOM      7  H3  UNL     1      22.372   3.274  74.446  1.00  0.00     0.192 HD
HETATM    8  C3  UNL     1      23.469   2.917  76.191  1.00  0.00     0.295 A 
HETATM    9  O1  UNL     1      23.701   1.661  76.169  1.00  0.00    -0.264 OA
ENDROOT
BRANCH   1  10
HETATM   10  S1  UNL     1      24.817   3.342  78.617  1.00  0.00    -0.110 SA
HETATM   11  C1  UNL     1      23.630   3.151  79.985  1.00  0.00     0.097 C 
ENDBRANCH   1  10
TORSDOF 1
ENDMDL
MODEL 3
REMARK VINA RESULT: -4.072305228     11.570     12.087
REMARK  1 active torsions:
REMARK  status: ('A' for Active; 'I' for Inactive)
REMARK    1  A    between atoms: S1_2  and  C2_3 
ROOT
HETATM    1  C2  UNL     1      24.751   3.801  76.066  1.00  0.00     0.155 A 
HETATM    2  N1  UNL     1      24.129   4.956  75.822  1.00  0.00    -0.275 N 
ATOM      3  H1  UNL     1      24.580   5.871  75.833  1.00  0.00     0.189 HD
HETATM    4  N2  UNL     1      22.851   4.753  75.565  1.00  0.00    -0.239 N 
ATOM      5  H2  UNL     1      22.153   5.463  75.348  1.00  0.00     0.208 HD
HETATM    6  N3  UNL     1      22.654   3.453  75.643  1.00  0.00    -0.249 N 
ATOM      7  H3  UNL     1      21.756   2.993  75.490  1.00  0.00     0.192 HD
HETATM    8  C3  UNL     1      23.789   2.818  75.950  1.00  0.00     0.295 A 
HETATM    9  O1  UNL     1      23.971   1.563  76.107  1.00  0.00    -0.264 OA
ENDROOT
BRANCH   1  10
HETATM   10  S1  UNL     1      26.466   3.492  76.467  1.00  0.00    -0.110 SA
HETATM   11  C1  UNL     1      27.430   4.866  75.762  1.00  0.00     0.097 C 
ENDBRANCH   1  10
TORSDOF 1
ENDMDL
MODEL 4
REMARK VINA RESULT: -4.010501735     11.118     11.876
REMARK  1 active torsions:
REMARK  status: ('A' for Active; 'I' for Inactive)
REMARK    1  A    between atoms: S1_2  and  C2_3 
ROOT
HETATM    1  C2  UNL     1      24.910   3.424  75.937  1.00  0.00     0.155 A 
HETATM    2  N1  UNL     1      26.189   3.803  75.885  1.00  0.00    -0.275 N 
ATOM      3  H1  UNL     1      26.966   3.277  76.284  1.00  0.00     0.189 HD
HETATM    4  N2  UNL     1      26.309   4.951  75.246  1.00  0.00    -0.239 N 
ATOM      5  H2  UNL     1      27.174   5.460  75.068  1.00  0.00     0.208 HD
HETATM    6  N3  UNL     1      25.095   5.310  74.884  1.00  0.00    -0.249 N 
ATOM      7  H3  UNL     1      24.872   6.161  74.368  1.00  0.00     0.192 HD
HETATM    8  C3  UNL     1      24.194   4.407  75.284  1.00  0.00     0.295 A 
HETATM    9  O1  UNL     1      22.929   4.427  75.110  1.00  0.00    -0.264 OA
ENDROOT
BRANCH   1  10
HETATM   10  S1  UNL     1      24.182   1.968  76.675  1.00  0.00    -0.110 SA
HETATM   11  C1  UNL     1      25.519   0.746  76.864  1.00  0.00     0.097 C 
ENDBRANCH   1  10
TORSDOF 1
ENDMDL
MODEL 5
REMARK VINA RESULT: -3.988569244     11.695     12.081
REMARK  1 active torsions:
REMARK  status: ('A' for Active; 'I' for Inactive)
REMARK    1  A    between atoms: S1_2  and  C2_3 
ROOT
HETATM    1  C2  UNL     1      24.148   2.895  76.347  1.00  0.00     0.155 A 
HETATM    2  N1  UNL     1      23.085   2.762  75.552  1.00  0.00    -0.275 N 
ATOM      3  H1  UNL     1      22.741   1.873  75.188  1.00  0.00     0.189 HD
HETATM    4  N2  UNL     1      22.540   3.936  75.301  1.00  0.00    -0.239 N 
ATOM      5  H2  UNL     1      21.720   4.117  74.723  1.00  0.00     0.208 HD
HETATM    6  N3  UNL     1      23.262   4.831  75.945  1.00  0.00    -0.249 N 
ATOM      7  H3  UNL     1      23.078   5.835  75.940  1.00  0.00     0.192 HD
HETATM    8  C3  UNL     1      24.266   4.246  76.605  1.00  0.00     0.295 A 
HETATM    9  O1  UNL     1      25.159   4.800  77.330  1.00  0.00    -0.264 OA
ENDROOT
BRANCH   1  10
HETATM   10  S1  UNL     1      25.251   1.646  76.996  1.00  0.00    -0.110 SA
HETATM   11  C1  UNL     1      24.735   0.057  76.271  1.00  0.00     0.097 C 
ENDBRANCH   1  10
TORSDOF 1
ENDMDL
