MODEL 1
REMARK VINA RESULT: -7.604368630      0.000      0.000
REMARK  7 active torsions:
REMARK  status: ('A' for Active; 'I' for Inactive)
REMARK       I    between atoms: C1_2  and  N1_3 
REMARK       I    between atoms: C1_2  and  N4_17 
REMARK    1  A    between atoms: N1_3  and  N2_5 
REMARK    2  A    between atoms: C2_7  and  C3_8 
REMARK    3  A    between atoms: C6_11  and  N3_12 
REMARK    4  A    between atoms: N4_17  and  S1_19 
REMARK    5  A    between atoms: S1_19  and  C9_22 
REMARK    6  A    between atoms: C12_25  and  N5_26 
REMARK    7  A    between atoms: C13_28  and  C14_29 
ROOT
HETATM    1  O1  UNL     1     -51.976  -1.505 -24.248  1.00  0.00    -0.245 OA
HETATM    2  C1  UNL     1     -52.583  -0.672 -24.953  1.00  0.00     0.348 C 
HETATM    3  N1  UNL     1     -53.172   0.451 -24.346  1.00  0.00    -0.251 N 
ATOM      4  H1  UNL     1     -53.665   1.121 -24.936  1.00  0.00     0.191 HD
HETATM    5  N4  UNL     1     -52.673  -0.868 -26.337  1.00  0.00    -0.231 N 
ATOM      6  H4  UNL     1     -53.176  -0.146 -26.852  1.00  0.00     0.183 HD
ENDROOT
BRANCH   5   7
HETATM    7  S1  UNL     1     -52.059  -2.146 -27.271  1.00  0.00     0.266 S 
HETATM    8  O4  UNL     1     -53.131  -3.167 -27.494  1.00  0.00    -0.200 OA
HETATM    9  O5  UNL     1     -51.634  -1.587 -28.627  1.00  0.00    -0.200 OA
BRANCH   7  10
HETATM   10  C9  UNL     1     -50.689  -2.940 -26.521  1.00  0.00     0.080 A 
HETATM   11  C10 UNL     1     -50.785  -4.132 -25.844  1.00  0.00     0.027 A 
HETATM   12  C11 UNL     1     -49.682  -4.737 -25.260  1.00  0.00     0.031 A 
HETATM   13  C12 UNL     1     -48.422  -4.166 -25.331  1.00  0.00     0.031 A 
HETATM   14  C17 UNL     1     -48.320  -2.966 -26.010  1.00  0.00     0.031 A 
HETATM   15  C18 UNL     1     -49.423  -2.367 -26.590  1.00  0.00     0.027 A 
BRANCH  13  16
HETATM   16  N5  UNL     1     -47.282  -4.761 -24.754  1.00  0.00    -0.369 N 
HETATM   17  C13 UNL     1     -46.801  -4.496 -23.606  1.00  0.00     0.066 C 
ATOM     18  H5  UNL     1     -46.799  -5.469 -25.307  1.00  0.00     0.165 HD
BRANCH  17  19
HETATM   19  C14 UNL     1     -47.391  -3.507 -22.713  1.00  0.00     0.024 A 
HETATM   20  C15 UNL     1     -46.873  -2.111 -22.663  1.00  0.00     0.010 A 
HETATM   21  C16 UNL     1     -46.517  -3.036 -21.548  1.00  0.00     0.010 A 
ENDBRANCH  17  19
ENDBRANCH  13  16
ENDBRANCH   7  10
ENDBRANCH   5   7
BRANCH   3  22
HETATM   22  N2  UNL     1     -53.113   0.685 -22.994  1.00  0.00    -0.307 N 
HETATM   23  C2  UNL     1     -52.141   1.242 -22.363  1.00  0.00     0.118 C 
ATOM     24  H2  UNL     1     -53.916   0.388 -22.439  1.00  0.00     0.186 HD
BRANCH  23  25
HETATM   25  C3  UNL     1     -52.246   1.411 -20.909  1.00  0.00    -0.019 A 
HETATM   26  C4  UNL     1     -51.348   0.724 -20.086  1.00  0.00     0.015 A 
HETATM   27  C5  UNL     1     -51.397   0.818 -18.713  1.00  0.00     0.037 A 
HETATM   28  C6  UNL     1     -52.393   1.637 -18.170  1.00  0.00     0.102 A 
HETATM   29  C7  UNL     1     -53.276   2.312 -18.987  1.00  0.00     0.037 A 
HETATM   30  C8  UNL     1     -53.214   2.209 -20.376  1.00  0.00     0.015 A 
BRANCH  28  31
HETATM   31  N3  UNL     1     -52.474   1.749 -16.767  1.00  0.00    -0.116 N 
HETATM   32  O2  UNL     1     -52.496   0.731 -16.069  1.00  0.00    -0.532 OA
HETATM   33  O3  UNL     1     -52.515   2.975 -16.179  1.00  0.00    -0.532 OA
ENDBRANCH  28  31
ENDBRANCH  23  25
ENDBRANCH   3  22
TORSDOF 7
ENDMDL
MODEL 2
REMARK VINA RESULT: -7.594349037      0.118      1.077
REMARK  7 active torsions:
REMARK  status: ('A' for Active; 'I' for Inactive)
REMARK       I    between atoms: C1_2  and  N1_3 
REMARK       I    between atoms: C1_2  and  N4_17 
REMARK    1  A    between atoms: N1_3  and  N2_5 
REMARK    2  A    between atoms: C2_7  and  C3_8 
REMARK    3  A    between atoms: C6_11  and  N3_12 
REMARK    4  A    between atoms: N4_17  and  S1_19 
REMARK    5  A    between atoms: S1_19  and  C9_22 
REMARK    6  A    between atoms: C12_25  and  N5_26 
REMARK    7  A    between atoms: C13_28  and  C14_29 
ROOT
HETATM    1  O1  UNL     1     -51.928  -1.554 -24.234  1.00  0.00    -0.245 OA
HETATM    2  C1  UNL     1     -52.536  -0.697 -24.908  1.00  0.00     0.348 C 
HETATM    3  N1  UNL     1     -53.107   0.415 -24.264  1.00  0.00    -0.251 N 
ATOM      4  H1  UNL     1     -53.602   1.105 -24.829  1.00  0.00     0.191 HD
HETATM    5  N4  UNL     1     -52.646  -0.855 -26.295  1.00  0.00    -0.231 N 
ATOM      6  H4  UNL     1     -53.148  -0.114 -26.785  1.00  0.00     0.183 HD
ENDROOT
BRANCH   5   7
HETATM    7  S1  UNL     1     -52.056  -2.113 -27.271  1.00  0.00     0.266 S 
HETATM    8  O4  UNL     1     -53.144  -3.111 -27.518  1.00  0.00    -0.200 OA
HETATM    9  O5  UNL     1     -51.632  -1.520 -28.613  1.00  0.00    -0.200 OA
BRANCH   7  10
HETATM   10  C9  UNL     1     -50.692  -2.948 -26.554  1.00  0.00     0.080 A 
HETATM   11  C10 UNL     1     -50.799  -4.165 -25.925  1.00  0.00     0.027 A 
HETATM   12  C11 UNL     1     -49.701  -4.802 -25.366  1.00  0.00     0.031 A 
HETATM   13  C12 UNL     1     -48.436  -4.240 -25.415  1.00  0.00     0.031 A 
HETATM   14  C17 UNL     1     -48.324  -3.015 -26.047  1.00  0.00     0.031 A 
HETATM   15  C18 UNL     1     -49.422  -2.383 -26.602  1.00  0.00     0.027 A 
BRANCH  13  16
HETATM   16  N5  UNL     1     -47.301  -4.867 -24.863  1.00  0.00    -0.369 N 
HETATM   17  C13 UNL     1     -46.811  -4.644 -23.710  1.00  0.00     0.066 C 
ATOM     18  H5  UNL     1     -46.830  -5.564 -25.440  1.00  0.00     0.165 HD
BRANCH  17  19
HETATM   19  C14 UNL     1     -47.384  -3.675 -22.784  1.00  0.00     0.024 A 
HETATM   20  C15 UNL     1     -46.828  -2.298 -22.672  1.00  0.00     0.010 A 
HETATM   21  C16 UNL     1     -46.509  -3.277 -21.593  1.00  0.00     0.010 A 
ENDBRANCH  17  19
ENDBRANCH  13  16
ENDBRANCH   7  10
ENDBRANCH   5   7
BRANCH   3  22
HETATM   22  N2  UNL     1     -53.029   0.612 -22.908  1.00  0.00    -0.307 N 
HETATM   23  C2  UNL     1     -52.151   1.326 -22.295  1.00  0.00     0.118 C 
ATOM     24  H2  UNL     1     -53.732   0.149 -22.332  1.00  0.00     0.186 HD
BRANCH  23  25
HETATM   25  C3  UNL     1     -52.217   1.424 -20.832  1.00  0.00    -0.019 A 
HETATM   26  C4  UNL     1     -53.184   2.257 -20.258  1.00  0.00     0.015 A 
HETATM   27  C5  UNL     1     -53.295   2.414 -18.894  1.00  0.00     0.037 A 
HETATM   28  C6  UNL     1     -52.391   1.702 -18.099  1.00  0.00     0.102 A 
HETATM   29  C7  UNL     1     -51.440   0.883 -18.671  1.00  0.00     0.037 A 
HETATM   30  C8  UNL     1     -51.340   0.731 -20.054  1.00  0.00     0.015 A 
BRANCH  28  31
HETATM   31  N3  UNL     1     -52.474   1.848 -16.699  1.00  0.00    -0.116 N 
HETATM   32  O2  UNL     1     -52.525   2.976 -16.200  1.00  0.00    -0.532 OA
HETATM   33  O3  UNL     1     -52.511   0.750 -15.897  1.00  0.00    -0.532 OA
ENDBRANCH  28  31
ENDBRANCH  23  25
ENDBRANCH   3  22
TORSDOF 7
ENDMDL
MODEL 3
REMARK VINA RESULT: -7.544734789      3.784      4.800
REMARK  7 active torsions:
REMARK  status: ('A' for Active; 'I' for Inactive)
REMARK       I    between atoms: C1_2  and  N1_3 
REMARK       I    between atoms: C1_2  and  N4_17 
REMARK    1  A    between atoms: N1_3  and  N2_5 
REMARK    2  A    between atoms: C2_7  and  C3_8 
REMARK    3  A    between atoms: C6_11  and  N3_12 
REMARK    4  A    between atoms: N4_17  and  S1_19 
REMARK    5  A    between atoms: S1_19  and  C9_22 
REMARK    6  A    between atoms: C12_25  and  N5_26 
REMARK    7  A    between atoms: C13_28  and  C14_29 
ROOT
HETATM    1  O1  UNL     1     -51.033  -3.194 -24.012  1.00  0.00    -0.245 OA
HETATM    2  C1  UNL     1     -50.254  -2.497 -24.696  1.00  0.00     0.348 C 
HETATM    3  N1  UNL     1     -49.927  -1.199 -24.265  1.00  0.00    -0.251 N 
ATOM      4  H1  UNL     1     -49.290  -0.642 -24.835  1.00  0.00     0.191 HD
HETATM    5  N4  UNL     1     -49.719  -3.014 -25.882  1.00  0.00    -0.231 N 
ATOM      6  H4  UNL     1     -49.084  -2.395 -26.386  1.00  0.00     0.183 HD
ENDROOT
BRANCH   5   7
HETATM    7  S1  UNL     1     -49.985  -4.532 -26.593  1.00  0.00     0.266 S 
HETATM    8  O4  UNL     1     -49.707  -5.613 -25.594  1.00  0.00    -0.200 OA
HETATM    9  O5  UNL     1     -51.453  -4.619 -27.002  1.00  0.00    -0.200 OA
BRANCH   7  10
HETATM   10  C9  UNL     1     -48.978  -4.811 -28.000  1.00  0.00     0.080 A 
HETATM   11  C10 UNL     1     -49.484  -5.055 -29.255  1.00  0.00     0.027 A 
HETATM   12  C11 UNL     1     -48.661  -5.272 -30.350  1.00  0.00     0.031 A 
HETATM   13  C12 UNL     1     -47.281  -5.254 -30.232  1.00  0.00     0.031 A 
HETATM   14  C17 UNL     1     -46.767  -5.010 -28.972  1.00  0.00     0.031 A 
HETATM   15  C18 UNL     1     -47.592  -4.794 -27.883  1.00  0.00     0.027 A 
BRANCH  13  16
HETATM   16  N5  UNL     1     -46.420  -5.464 -31.328  1.00  0.00    -0.369 N 
HETATM   17  C13 UNL     1     -46.167  -4.625 -32.251  1.00  0.00     0.066 C 
ATOM     18  H5  UNL     1     -45.958  -6.371 -31.387  1.00  0.00     0.165 HD
BRANCH  17  19
HETATM   19  C14 UNL     1     -46.759  -3.293 -32.289  1.00  0.00     0.024 A 
HETATM   20  C15 UNL     1     -47.014  -2.603 -33.585  1.00  0.00     0.010 A 
HETATM   21  C16 UNL     1     -45.848  -2.159 -32.767  1.00  0.00     0.010 A 
ENDBRANCH  17  19
ENDBRANCH  13  16
ENDBRANCH   7  10
ENDBRANCH   5   7
BRANCH   3  22
HETATM   22  N2  UNL     1     -50.428  -0.647 -23.112  1.00  0.00    -0.307 N 
HETATM   23  C2  UNL     1     -51.386   0.207 -23.035  1.00  0.00     0.118 C 
ATOM     24  H2  UNL     1     -49.999  -0.942 -22.235  1.00  0.00     0.186 HD
BRANCH  23  25
HETATM   25  C3  UNL     1     -51.793   0.695 -21.712  1.00  0.00    -0.019 A 
HETATM   26  C4  UNL     1     -51.016   0.350 -20.601  1.00  0.00     0.015 A 
HETATM   27  C5  UNL     1     -51.345   0.755 -19.326  1.00  0.00     0.037 A 
HETATM   28  C6  UNL     1     -52.501   1.531 -19.187  1.00  0.00     0.102 A 
HETATM   29  C7  UNL     1     -53.263   1.867 -20.286  1.00  0.00     0.037 A 
HETATM   30  C8  UNL     1     -52.917   1.452 -21.572  1.00  0.00     0.015 A 
BRANCH  28  31
HETATM   31  N3  UNL     1     -52.869   1.954 -17.894  1.00  0.00    -0.116 N 
HETATM   32  O2  UNL     1     -52.829   1.158 -16.951  1.00  0.00    -0.532 OA
HETATM   33  O3  UNL     1     -53.254   3.241 -17.678  1.00  0.00    -0.532 OA
ENDBRANCH  28  31
ENDBRANCH  23  25
ENDBRANCH   3  22
TORSDOF 7
ENDMDL
MODEL 4
REMARK VINA RESULT: -7.542658318      3.328      9.298
REMARK  7 active torsions:
REMARK  status: ('A' for Active; 'I' for Inactive)
REMARK       I    between atoms: C1_2  and  N1_3 
REMARK       I    between atoms: C1_2  and  N4_17 
REMARK    1  A    between atoms: N1_3  and  N2_5 
REMARK    2  A    between atoms: C2_7  and  C3_8 
REMARK    3  A    between atoms: C6_11  and  N3_12 
REMARK    4  A    between atoms: N4_17  and  S1_19 
REMARK    5  A    between atoms: S1_19  and  C9_22 
REMARK    6  A    between atoms: C12_25  and  N5_26 
REMARK    7  A    between atoms: C13_28  and  C14_29 
ROOT
HETATM    1  O1  UNL     1     -52.142  -1.033 -22.408  1.00  0.00    -0.245 OA
HETATM    2  C1  UNL     1     -51.985   0.108 -22.891  1.00  0.00     0.348 C 
HETATM    3  N1  UNL     1     -51.326   0.253 -24.125  1.00  0.00    -0.251 N 
ATOM      4  H1  UNL     1     -51.205   1.192 -24.505  1.00  0.00     0.191 HD
HETATM    5  N4  UNL     1     -52.464   1.227 -22.199  1.00  0.00    -0.231 N 
ATOM      6  H4  UNL     1     -52.310   2.126 -22.655  1.00  0.00     0.183 HD
ENDROOT
BRANCH   5   7
HETATM    7  S1  UNL     1     -53.267   1.288 -20.704  1.00  0.00     0.266 S 
HETATM    8  O4  UNL     1     -53.940   2.617 -20.548  1.00  0.00    -0.200 OA
HETATM    9  O5  UNL     1     -54.337   0.200 -20.690  1.00  0.00    -0.200 OA
BRANCH   7  10
HETATM   10  C9  UNL     1     -52.189   1.053 -19.343  1.00  0.00     0.080 A 
HETATM   11  C10 UNL     1     -51.027   0.322 -19.417  1.00  0.00     0.027 A 
HETATM   12  C11 UNL     1     -50.194   0.153 -18.321  1.00  0.00     0.031 A 
HETATM   13  C12 UNL     1     -50.494   0.716 -17.091  1.00  0.00     0.031 A 
HETATM   14  C17 UNL     1     -51.662   1.451 -17.011  1.00  0.00     0.031 A 
HETATM   15  C18 UNL     1     -52.489   1.617 -18.107  1.00  0.00     0.027 A 
BRANCH  13  16
HETATM   16  N5  UNL     1     -49.663   0.568 -15.963  1.00  0.00    -0.369 N 
HETATM   17  C13 UNL     1     -49.792  -0.309 -15.050  1.00  0.00     0.066 C 
ATOM     18  H5  UNL     1     -48.887   1.223 -15.869  1.00  0.00     0.165 HD
BRANCH  17  19
HETATM   19  C14 UNL     1     -50.856  -1.306 -15.058  1.00  0.00     0.024 A 
HETATM   20  C15 UNL     1     -52.057  -1.155 -14.190  1.00  0.00     0.010 A 
HETATM   21  C16 UNL     1     -51.013  -2.141 -13.786  1.00  0.00     0.010 A 
ENDBRANCH  17  19
ENDBRANCH  13  16
ENDBRANCH   7  10
ENDBRANCH   5   7
BRANCH   3  22
HETATM   22  N2  UNL     1     -50.837  -0.813 -24.839  1.00  0.00    -0.307 N 
HETATM   23  C2  UNL     1     -50.521  -0.808 -26.086  1.00  0.00     0.118 C 
ATOM     24  H2  UNL     1     -50.713  -1.690 -24.333  1.00  0.00     0.186 HD
BRANCH  23  25
HETATM   25  C3  UNL     1     -50.012  -2.046 -26.690  1.00  0.00    -0.019 A 
HETATM   26  C4  UNL     1     -50.928  -2.958 -27.224  1.00  0.00     0.015 A 
HETATM   27  C5  UNL     1     -50.527  -4.148 -27.790  1.00  0.00     0.037 A 
HETATM   28  C6  UNL     1     -49.153  -4.409 -27.808  1.00  0.00     0.102 A 
HETATM   29  C7  UNL     1     -48.255  -3.505 -27.280  1.00  0.00     0.037 A 
HETATM   30  C8  UNL     1     -48.674  -2.303 -26.711  1.00  0.00     0.015 A 
BRANCH  28  31
HETATM   31  N3  UNL     1     -48.711  -5.622 -28.375  1.00  0.00    -0.116 N 
HETATM   32  O2  UNL     1     -48.306  -6.531 -27.644  1.00  0.00    -0.532 OA
HETATM   33  O3  UNL     1     -48.744  -5.801 -29.723  1.00  0.00    -0.532 OA
ENDBRANCH  28  31
ENDBRANCH  23  25
ENDBRANCH   3  22
TORSDOF 7
ENDMDL
MODEL 5
REMARK VINA RESULT: -7.517605718      2.061      3.182
REMARK  7 active torsions:
REMARK  status: ('A' for Active; 'I' for Inactive)
REMARK       I    between atoms: C1_2  and  N1_3 
REMARK       I    between atoms: C1_2  and  N4_17 
REMARK    1  A    between atoms: N1_3  and  N2_5 
REMARK    2  A    between atoms: C2_7  and  C3_8 
REMARK    3  A    between atoms: C6_11  and  N3_12 
REMARK    4  A    between atoms: N4_17  and  S1_19 
REMARK    5  A    between atoms: S1_19  and  C9_22 
REMARK    6  A    between atoms: C12_25  and  N5_26 
REMARK    7  A    between atoms: C13_28  and  C14_29 
ROOT
HETATM    1  O1  UNL     1     -51.594  -1.809 -24.168  1.00  0.00    -0.245 OA
HETATM    2  C1  UNL     1     -51.715  -0.710 -24.748  1.00  0.00     0.348 C 
HETATM    3  N1  UNL     1     -51.746   0.474 -23.989  1.00  0.00    -0.251 N 
ATOM      4  H1  UNL     1     -51.846   1.364 -24.477  1.00  0.00     0.191 HD
HETATM    5  N4  UNL     1     -51.821  -0.669 -26.143  1.00  0.00    -0.231 N 
ATOM      6  H4  UNL     1     -51.908   0.262 -26.551  1.00  0.00     0.183 HD
ENDROOT
BRANCH   5   7
HETATM    7  S1  UNL     1     -51.823  -1.959 -27.246  1.00  0.00     0.266 S 
HETATM    8  O4  UNL     1     -53.079  -2.757 -27.085  1.00  0.00    -0.200 OA
HETATM    9  O5  UNL     1     -51.795  -1.382 -28.659  1.00  0.00    -0.200 OA
BRANCH   7  10
HETATM   10  C9  UNL     1     -50.456  -3.036 -27.038  1.00  0.00     0.080 A 
HETATM   11  C10 UNL     1     -49.171  -2.593 -26.833  1.00  0.00     0.027 A 
HETATM   12  C11 UNL     1     -48.108  -3.471 -26.671  1.00  0.00     0.031 A 
HETATM   13  C12 UNL     1     -48.292  -4.843 -26.710  1.00  0.00     0.031 A 
HETATM   14  C17 UNL     1     -49.583  -5.293 -26.917  1.00  0.00     0.031 A 
HETATM   15  C18 UNL     1     -50.639  -4.415 -27.077  1.00  0.00     0.027 A 
BRANCH  13  16
HETATM   16  N5  UNL     1     -47.233  -5.758 -26.541  1.00  0.00    -0.369 N 
HETATM   17  C13 UNL     1     -46.438  -6.155 -27.451  1.00  0.00     0.066 C 
ATOM     18  H5  UNL     1     -47.092  -6.136 -25.605  1.00  0.00     0.165 HD
BRANCH  17  19
HETATM   19  C14 UNL     1     -46.527  -5.696 -28.832  1.00  0.00     0.024 A 
HETATM   20  C15 UNL     1     -46.911  -6.629 -29.928  1.00  0.00     0.010 A 
HETATM   21  C16 UNL     1     -45.475  -6.246 -29.799  1.00  0.00     0.010 A 
ENDBRANCH  17  19
ENDBRANCH  13  16
ENDBRANCH   7  10
ENDBRANCH   5   7
BRANCH   3  22
HETATM   22  N2  UNL     1     -51.649   0.485 -22.619  1.00  0.00    -0.307 N 
HETATM   23  C2  UNL     1     -52.220   1.320 -21.826  1.00  0.00     0.118 C 
ATOM     24  H2  UNL     1     -51.068  -0.237 -22.192  1.00  0.00     0.186 HD
BRANCH  23  25
HETATM   25  C3  UNL     1     -52.003   1.183 -20.380  1.00  0.00    -0.019 A 
HETATM   26  C4  UNL     1     -52.834   1.893 -19.506  1.00  0.00     0.015 A 
HETATM   27  C5  UNL     1     -52.680   1.829 -18.139  1.00  0.00     0.037 A 
HETATM   28  C6  UNL     1     -51.647   1.018 -17.656  1.00  0.00     0.102 A 
HETATM   29  C7  UNL     1     -50.831   0.321 -18.523  1.00  0.00     0.037 A 
HETATM   30  C8  UNL     1     -51.000   0.394 -19.906  1.00  0.00     0.015 A 
BRANCH  28  31
HETATM   31  N3  UNL     1     -51.458   0.938 -16.261  1.00  0.00    -0.116 N 
HETATM   32  O2  UNL     1     -50.384   1.289 -15.764  1.00  0.00    -0.532 OA
HETATM   33  O3  UNL     1     -52.461   0.488 -15.459  1.00  0.00    -0.532 OA
ENDBRANCH  28  31
ENDBRANCH  23  25
ENDBRANCH   3  22
TORSDOF 7
ENDMDL
