MODEL 1
REMARK VINA RESULT: -6.710048916      0.000      0.000
REMARK  7 active torsions:
REMARK  status: ('A' for Active; 'I' for Inactive)
REMARK    1  A    between atoms: C2_2  and  C5_5 
REMARK    2  A    between atoms: C7_7  and  O1_8 
REMARK    3  A    between atoms: C8_10  and  C9_11 
REMARK    4  A    between atoms: C9_11  and  O2_12 
REMARK    5  A    between atoms: O2_12  and  C10_13 
REMARK    6  A    between atoms: C10_13  and  C11_14 
REMARK    7  A    between atoms: C11_14  and  C12_15 
ROOT
HETATM    1  C10 UNL     1     -49.705  -4.710 -20.902  1.00  0.00     0.172 C 
ENDROOT
BRANCH   1   2
HETATM    2  O2  UNL     1     -49.707  -5.205 -22.180  1.00  0.00    -0.390 OA
BRANCH   2   3
HETATM    3  C9  UNL     1     -50.878  -4.976 -22.827  1.00  0.00     0.185 C 
BRANCH   3   4
HETATM    4  C8  UNL     1     -50.778  -5.034 -24.311  1.00  0.00     0.100 C 
HETATM    5  C7  UNL     1     -49.839  -3.959 -24.815  1.00  0.00     0.135 C 
HETATM    6  C6  UNL     1     -50.435  -2.638 -24.561  1.00  0.00     0.049 C 
HETATM    7  C5  UNL     1     -51.880  -2.619 -24.830  1.00  0.00     0.057 C 
HETATM    8  S1  UNL     1     -52.354  -4.368 -24.988  1.00  0.00    -0.154 SA
BRANCH   5   9
HETATM    9  O1  UNL     1     -49.461  -4.203 -26.124  1.00  0.00    -0.394 OA
ATOM     10  H1  UNL     1     -49.546  -5.103 -26.416  1.00  0.00     0.210 HD
ENDBRANCH   5   9
BRANCH   7  11
HETATM   11  C2  UNL     1     -52.322  -1.798 -25.991  1.00  0.00    -0.039 C 
HETATM   12  C1  UNL     1     -53.530  -0.962 -25.719  1.00  0.00     0.015 C 
HETATM   13  C3  UNL     1     -51.158  -0.877 -26.368  1.00  0.00     0.015 C 
HETATM   14  C4  UNL     1     -52.574  -2.689 -27.162  1.00  0.00     0.015 C 
ENDBRANCH   7  11
ENDBRANCH   3   4
ENDBRANCH   2   3
ENDBRANCH   1   2
BRANCH   1  15
HETATM   15  C11 UNL     1     -50.900  -3.823 -20.671  1.00  0.00     0.093 C 
BRANCH  15  16
HETATM   16  C12 UNL     1     -50.614  -2.870 -19.502  1.00  0.00     0.335 C 
HETATM   17  O3  UNL     1     -49.790  -1.851 -19.961  1.00  0.00    -0.202 OA
HETATM   18  O4  UNL     1     -50.333  -1.318 -21.016  1.00  0.00    -0.195 OA
HETATM   19  C13 UNL     1     -51.584  -0.740 -20.693  1.00  0.00     0.230 C 
HETATM   20  C14 UNL     1     -52.226  -0.306 -21.964  1.00  0.00     0.077 C 
HETATM   21  C18 UNL     1     -51.307   0.377 -19.734  1.00  0.00     0.077 C 
HETATM   22  O5  UNL     1     -52.394  -1.740 -20.119  1.00  0.00    -0.195 OA
HETATM   23  C15 UNL     1     -52.220   1.193 -22.098  1.00  0.00     0.042 C 
HETATM   24  C16 UNL     1     -53.027   1.751 -20.944  1.00  0.00     0.170 C 
HETATM   25  F1  UNL     1     -54.291   1.177 -21.016  1.00  0.00    -0.249 F 
HETATM   26  C17 UNL     1     -52.444   1.357 -19.612  1.00  0.00     0.042 C 
HETATM   27  O6  UNL     1     -51.817  -2.305 -19.105  1.00  0.00    -0.202 OA
ENDBRANCH  15  16
ENDBRANCH   1  15
TORSDOF 7
ENDMDL
MODEL 2
REMARK VINA RESULT: -6.628662744      1.166      1.579
REMARK  7 active torsions:
REMARK  status: ('A' for Active; 'I' for Inactive)
REMARK    1  A    between atoms: C2_2  and  C5_5 
REMARK    2  A    between atoms: C7_7  and  O1_8 
REMARK    3  A    between atoms: C8_10  and  C9_11 
REMARK    4  A    between atoms: C9_11  and  O2_12 
REMARK    5  A    between atoms: O2_12  and  C10_13 
REMARK    6  A    between atoms: C10_13  and  C11_14 
REMARK    7  A    between atoms: C11_14  and  C12_15 
ROOT
HETATM    1  C10 UNL     1     -50.227  -4.507 -20.637  1.00  0.00     0.172 C 
ENDROOT
BRANCH   1   2
HETATM    2  O2  UNL     1     -51.142  -4.984 -21.539  1.00  0.00    -0.390 OA
BRANCH   2   3
HETATM    3  C9  UNL     1     -51.368  -4.120 -22.562  1.00  0.00     0.185 C 
BRANCH   3   4
HETATM    4  C8  UNL     1     -51.196  -4.716 -23.915  1.00  0.00     0.100 C 
HETATM    5  C7  UNL     1     -49.743  -4.656 -24.334  1.00  0.00     0.135 C 
HETATM    6  C6  UNL     1     -49.350  -3.251 -24.523  1.00  0.00     0.049 C 
HETATM    7  C5  UNL     1     -50.400  -2.466 -25.189  1.00  0.00     0.057 C 
HETATM    8  S1  UNL     1     -51.885  -3.515 -25.127  1.00  0.00    -0.154 SA
BRANCH   5   9
HETATM    9  O1  UNL     1     -49.501  -5.495 -25.408  1.00  0.00    -0.394 OA
ATOM     10  H1  UNL     1     -49.550  -6.426 -25.222  1.00  0.00     0.210 HD
ENDBRANCH   5   9
BRANCH   7  11
HETATM   11  C2  UNL     1     -50.092  -1.989 -26.565  1.00  0.00    -0.039 C 
HETATM   12  C1  UNL     1     -48.664  -2.169 -26.966  1.00  0.00     0.015 C 
HETATM   13  C3  UNL     1     -50.980  -2.777 -27.531  1.00  0.00     0.015 C 
HETATM   14  C4  UNL     1     -50.477  -0.551 -26.689  1.00  0.00     0.015 C 
ENDBRANCH   7  11
ENDBRANCH   3   4
ENDBRANCH   2   3
ENDBRANCH   1   2
BRANCH   1  15
HETATM   15  C11 UNL     1     -49.911  -3.060 -20.912  1.00  0.00     0.093 C 
BRANCH  15  16
HETATM   16  C12 UNL     1     -49.974  -2.262 -19.603  1.00  0.00     0.335 C 
HETATM   17  O3  UNL     1     -49.372  -1.028 -19.814  1.00  0.00    -0.202 OA
HETATM   18  O4  UNL     1     -49.919  -0.469 -20.854  1.00  0.00    -0.195 OA
HETATM   19  C13 UNL     1     -51.296  -0.237 -20.626  1.00  0.00     0.230 C 
HETATM   20  C14 UNL     1     -51.894   0.238 -21.904  1.00  0.00     0.077 C 
HETATM   21  C18 UNL     1     -51.387   0.751 -19.503  1.00  0.00     0.077 C 
HETATM   22  O5  UNL     1     -51.900  -1.467 -20.298  1.00  0.00    -0.195 OA
HETATM   23  C15 UNL     1     -52.228   1.704 -21.841  1.00  0.00     0.042 C 
HETATM   24  C16 UNL     1     -53.254   1.886 -20.741  1.00  0.00     0.170 C 
HETATM   25  F1  UNL     1     -54.334   1.068 -21.053  1.00  0.00    -0.249 F 
HETATM   26  C17 UNL     1     -52.729   1.427 -19.406  1.00  0.00     0.042 C 
HETATM   27  O6  UNL     1     -51.309  -2.042 -19.298  1.00  0.00    -0.202 OA
ENDBRANCH  15  16
ENDBRANCH   1  15
TORSDOF 7
ENDMDL
MODEL 3
REMARK VINA RESULT: -6.421532444      2.690      4.516
REMARK  7 active torsions:
REMARK  status: ('A' for Active; 'I' for Inactive)
REMARK    1  A    between atoms: C2_2  and  C5_5 
REMARK    2  A    between atoms: C7_7  and  O1_8 
REMARK    3  A    between atoms: C8_10  and  C9_11 
REMARK    4  A    between atoms: C9_11  and  O2_12 
REMARK    5  A    between atoms: O2_12  and  C10_13 
REMARK    6  A    between atoms: C10_13  and  C11_14 
REMARK    7  A    between atoms: C11_14  and  C12_15 
ROOT
HETATM    1  C10 UNL     1     -54.308   1.199 -24.368  1.00  0.00     0.172 C 
ENDROOT
BRANCH   1   2
HETATM    2  O2  UNL     1     -54.248   0.384 -25.467  1.00  0.00    -0.390 OA
BRANCH   2   3
HETATM    3  C9  UNL     1     -53.487  -0.721 -25.257  1.00  0.00     0.185 C 
BRANCH   3   4
HETATM    4  C8  UNL     1     -52.670  -1.133 -26.431  1.00  0.00     0.100 C 
HETATM    5  C7  UNL     1     -52.522  -2.639 -26.464  1.00  0.00     0.135 C 
HETATM    6  C6  UNL     1     -51.716  -3.073 -25.313  1.00  0.00     0.049 C 
HETATM    7  C5  UNL     1     -50.584  -2.171 -25.056  1.00  0.00     0.057 C 
HETATM    8  S1  UNL     1     -50.923  -0.690 -26.056  1.00  0.00    -0.154 SA
BRANCH   5   9
HETATM    9  O1  UNL     1     -52.076  -3.066 -27.703  1.00  0.00    -0.394 OA
ATOM     10  H1  UNL     1     -51.570  -2.433 -28.199  1.00  0.00     0.210 HD
ENDBRANCH   5   9
BRANCH   7  11
HETATM   11  C2  UNL     1     -49.227  -2.732 -25.303  1.00  0.00    -0.039 C 
HETATM   12  C1  UNL     1     -49.201  -4.218 -25.454  1.00  0.00     0.015 C 
HETATM   13  C3  UNL     1     -48.698  -2.095 -26.592  1.00  0.00     0.015 C 
HETATM   14  C4  UNL     1     -48.310  -2.316 -24.201  1.00  0.00     0.015 C 
ENDBRANCH   7  11
ENDBRANCH   3   4
ENDBRANCH   2   3
ENDBRANCH   1   2
BRANCH   1  15
HETATM   15  C11 UNL     1     -53.202   0.874 -23.399  1.00  0.00     0.093 C 
BRANCH  15  16
HETATM   16  C12 UNL     1     -53.297   1.799 -22.178  1.00  0.00     0.335 C 
HETATM   17  O3  UNL     1     -54.004   1.136 -21.183  1.00  0.00    -0.202 OA
HETATM   18  O4  UNL     1     -53.453  -0.025 -20.981  1.00  0.00    -0.195 OA
HETATM   19  C13 UNL     1     -52.121   0.130 -20.526  1.00  0.00     0.230 C 
HETATM   20  C14 UNL     1     -51.496  -1.221 -20.483  1.00  0.00     0.077 C 
HETATM   21  C18 UNL     1     -52.198   0.813 -19.195  1.00  0.00     0.077 C 
HETATM   22  O5  UNL     1     -51.420   0.900 -21.475  1.00  0.00    -0.195 OA
HETATM   23  C15 UNL     1     -51.313  -1.694 -19.066  1.00  0.00     0.042 C 
HETATM   24  C16 UNL     1     -50.379  -0.717 -18.382  1.00  0.00     0.170 C 
HETATM   25  F1  UNL     1     -49.207  -0.683 -19.128  1.00  0.00    -0.249 F 
HETATM   26  C17 UNL     1     -50.937   0.682 -18.381  1.00  0.00     0.042 C 
HETATM   27  O6  UNL     1     -52.012   2.029 -21.712  1.00  0.00    -0.202 OA
ENDBRANCH  15  16
ENDBRANCH   1  15
TORSDOF 7
ENDMDL
MODEL 4
REMARK VINA RESULT: -6.378068366      1.019      1.363
REMARK  7 active torsions:
REMARK  status: ('A' for Active; 'I' for Inactive)
REMARK    1  A    between atoms: C2_2  and  C5_5 
REMARK    2  A    between atoms: C7_7  and  O1_8 
REMARK    3  A    between atoms: C8_10  and  C9_11 
REMARK    4  A    between atoms: C9_11  and  O2_12 
REMARK    5  A    between atoms: O2_12  and  C10_13 
REMARK    6  A    between atoms: C10_13  and  C11_14 
REMARK    7  A    between atoms: C11_14  and  C12_15 
ROOT
HETATM    1  C10 UNL     1     -48.550  -4.001 -21.385  1.00  0.00     0.172 C 
ENDROOT
BRANCH   1   2
HETATM    2  O2  UNL     1     -49.040  -4.807 -22.379  1.00  0.00    -0.390 OA
BRANCH   2   3
HETATM    3  C9  UNL     1     -50.196  -4.334 -22.912  1.00  0.00     0.185 C 
BRANCH   3   4
HETATM    4  C8  UNL     1     -50.388  -4.670 -24.349  1.00  0.00     0.100 C 
HETATM    5  C7  UNL     1     -49.554  -3.753 -25.218  1.00  0.00     0.135 C 
HETATM    6  C6  UNL     1     -50.073  -2.381 -25.113  1.00  0.00     0.049 C 
HETATM    7  C5  UNL     1     -51.543  -2.343 -25.102  1.00  0.00     0.057 C 
HETATM    8  S1  UNL     1     -52.058  -4.066 -24.830  1.00  0.00    -0.154 SA
BRANCH   5   9
HETATM    9  O1  UNL     1     -49.442  -4.253 -26.504  1.00  0.00    -0.394 OA
ATOM     10  H1  UNL     1     -49.680  -3.653 -27.201  1.00  0.00     0.210 HD
ENDBRANCH   5   9
BRANCH   7  11
HETATM   11  C2  UNL     1     -52.194  -1.730 -26.292  1.00  0.00    -0.039 C 
HETATM   12  C1  UNL     1     -52.773  -2.723 -27.247  1.00  0.00     0.015 C 
HETATM   13  C3  UNL     1     -53.317  -0.823 -25.781  1.00  0.00     0.015 C 
HETATM   14  C4  UNL     1     -51.212  -0.856 -27.000  1.00  0.00     0.015 C 
ENDBRANCH   7  11
ENDBRANCH   3   4
ENDBRANCH   2   3
ENDBRANCH   1   2
BRANCH   1  15
HETATM   15  C11 UNL     1     -48.892  -2.558 -21.648  1.00  0.00     0.093 C 
BRANCH  15  16
HETATM   16  C12 UNL     1     -48.860  -1.773 -20.330  1.00  0.00     0.335 C 
HETATM   17  O3  UNL     1     -48.631  -0.435 -20.625  1.00  0.00    -0.202 OA
HETATM   18  O4  UNL     1     -49.507  -0.045 -21.504  1.00  0.00    -0.195 OA
HETATM   19  C13 UNL     1     -50.817  -0.146 -20.978  1.00  0.00     0.230 C 
HETATM   20  C14 UNL     1     -51.774   0.145 -22.082  1.00  0.00     0.077 C 
HETATM   21  C18 UNL     1     -50.896   0.813 -19.830  1.00  0.00     0.077 C 
HETATM   22  O5  UNL     1     -51.024  -1.479 -20.568  1.00  0.00    -0.195 OA
HETATM   23  C15 UNL     1     -52.427   1.488 -21.900  1.00  0.00     0.042 C 
HETATM   24  C16 UNL     1     -53.203   1.440 -20.600  1.00  0.00     0.170 C 
HETATM   25  F1  UNL     1     -54.097   0.379 -20.699  1.00  0.00    -0.249 F 
HETATM   26  C17 UNL     1     -52.307   1.148 -19.425  1.00  0.00     0.042 C 
HETATM   27  O6  UNL     1     -50.110  -1.875 -19.739  1.00  0.00    -0.202 OA
ENDBRANCH  15  16
ENDBRANCH   1  15
TORSDOF 7
ENDMDL
MODEL 5
REMARK VINA RESULT: -6.305024404      2.313      5.575
REMARK  7 active torsions:
REMARK  status: ('A' for Active; 'I' for Inactive)
REMARK    1  A    between atoms: C2_2  and  C5_5 
REMARK    2  A    between atoms: C7_7  and  O1_8 
REMARK    3  A    between atoms: C8_10  and  C9_11 
REMARK    4  A    between atoms: C9_11  and  O2_12 
REMARK    5  A    between atoms: O2_12  and  C10_13 
REMARK    6  A    between atoms: C10_13  and  C11_14 
REMARK    7  A    between atoms: C11_14  and  C12_15 
ROOT
HETATM    1  C10 UNL     1     -49.178  -5.263 -22.123  1.00  0.00     0.172 C 
ENDROOT
BRANCH   1   2
HETATM    2  O2  UNL     1     -48.809  -4.564 -21.004  1.00  0.00    -0.390 OA
BRANCH   2   3
HETATM    3  C9  UNL     1     -49.132  -3.247 -21.081  1.00  0.00     0.185 C 
BRANCH   3   4
HETATM    4  C8  UNL     1     -49.522  -2.637 -19.780  1.00  0.00     0.100 C 
HETATM    5  C7  UNL     1     -50.997  -2.859 -19.519  1.00  0.00     0.135 C 
HETATM    6  C6  UNL     1     -51.784  -2.102 -20.505  1.00  0.00     0.049 C 
HETATM    7  C5  UNL     1     -51.216  -0.771 -20.764  1.00  0.00     0.057 C 
HETATM    8  S1  UNL     1     -49.555  -0.813 -20.025  1.00  0.00    -0.154 SA
BRANCH   5   9
HETATM    9  O1  UNL     1     -51.308  -2.617 -18.192  1.00  0.00    -0.394 OA
ATOM     10  H1  UNL     1     -50.767  -3.067 -17.554  1.00  0.00     0.210 HD
ENDBRANCH   5   9
BRANCH   7  11
HETATM   11  C2  UNL     1     -52.023   0.390 -20.298  1.00  0.00    -0.039 C 
HETATM   12  C1  UNL     1     -51.558   0.972 -19.002  1.00  0.00     0.015 C 
HETATM   13  C3  UNL     1     -51.940   1.468 -21.382  1.00  0.00     0.015 C 
HETATM   14  C4  UNL     1     -53.457  -0.013 -20.189  1.00  0.00     0.015 C 
ENDBRANCH   7  11
ENDBRANCH   3   4
ENDBRANCH   2   3
ENDBRANCH   1   2
BRANCH   1  15
HETATM   15  C11 UNL     1     -50.604  -4.957 -22.499  1.00  0.00     0.093 C 
BRANCH  15  16
HETATM   16  C12 UNL     1     -50.868  -5.421 -23.938  1.00  0.00     0.335 C 
HETATM   17  O3  UNL     1     -52.214  -5.225 -24.219  1.00  0.00    -0.202 OA
HETATM   18  O4  UNL     1     -52.522  -3.991 -23.949  1.00  0.00    -0.195 OA
HETATM   19  C13 UNL     1     -51.783  -3.104 -24.769  1.00  0.00     0.230 C 
HETATM   20  C14 UNL     1     -52.049  -1.718 -24.294  1.00  0.00     0.077 C 
HETATM   21  C18 UNL     1     -52.213  -3.361 -26.180  1.00  0.00     0.077 C 
HETATM   22  O5  UNL     1     -50.412  -3.370 -24.578  1.00  0.00    -0.195 OA
HETATM   23  C15 UNL     1     -52.921  -0.965 -25.262  1.00  0.00     0.042 C 
HETATM   24  C16 UNL     1     -52.169  -0.881 -26.575  1.00  0.00     0.170 C 
HETATM   25  F1  UNL     1     -50.951  -0.267 -26.307  1.00  0.00    -0.249 F 
HETATM   26  C17 UNL     1     -51.857  -2.247 -27.128  1.00  0.00     0.042 C 
HETATM   27  O6  UNL     1     -50.129  -4.617 -24.791  1.00  0.00    -0.202 OA
ENDBRANCH  15  16
ENDBRANCH   1  15
TORSDOF 7
ENDMDL
