MODEL 1
REMARK VINA RESULT: -8.399800333      0.000      0.000
REMARK  6 active torsions:
REMARK  status: ('A' for Active; 'I' for Inactive)
REMARK    1  A    between atoms: C1_4  and  C2_5 
REMARK    2  A    between atoms: C1_4  and  C7_16 
REMARK    3  A    between atoms: C3_6  and  C4_8 
REMARK    4  A    between atoms: N4_18  and  C9_19 
REMARK    5  A    between atoms: C9_19  and  C10_20 
REMARK    6  A    between atoms: N5_22  and  C12_23 
ROOT
HETATM    1  C7  UNL     1     -50.405  -5.582 -22.787  1.00  0.00     0.089 A 
HETATM    2  C8  UNL     1     -49.770  -4.560 -22.113  1.00  0.00     0.141 A 
HETATM    3  N4  UNL     1     -49.626  -4.900 -20.806  1.00  0.00    -0.279 N 
HETATM    4  N8  UNL     1     -50.165  -6.100 -20.697  1.00  0.00    -0.020 NA
HETATM    5  N9  UNL     1     -50.633  -6.525 -21.858  1.00  0.00    -0.281 N 
ATOM      6  H9  UNL     1     -51.091  -7.421 -22.021  1.00  0.00     0.184 HD
ENDROOT
BRANCH   3   7
HETATM    7  C9  UNL     1     -49.006  -4.086 -19.773  1.00  0.00     0.206 C 
BRANCH   7   8
HETATM    8  C10 UNL     1     -49.344  -2.664 -19.906  1.00  0.00     0.064 A 
HETATM    9  C11 UNL     1     -50.589  -2.049 -19.903  1.00  0.00     0.146 A 
HETATM   10  N5  UNL     1     -50.437  -0.724 -20.052  1.00  0.00    -0.250 N 
HETATM   11  N6  UNL     1     -49.144  -0.510 -20.145  1.00  0.00    -0.236 N 
HETATM   12  N7  UNL     1     -48.466  -1.657 -20.061  1.00  0.00    -0.287 N 
ATOM     13  H6  UNL     1     -48.716   0.408 -20.266  1.00  0.00     0.209 HD
ATOM     14  H7  UNL     1     -47.452  -1.753 -20.107  1.00  0.00     0.188 HD
BRANCH  10  15
HETATM   15  C12 UNL     1     -51.470   0.253 -20.099  1.00  0.00     0.080 A 
HETATM   16  C13 UNL     1     -52.157   0.514 -21.286  1.00  0.00     0.033 A 
HETATM   17  C14 UNL     1     -53.156   1.464 -21.312  1.00  0.00     0.004 A 
HETATM   18  C15 UNL     1     -53.517   2.186 -20.194  1.00  0.00     0.026 A 
HETATM   19  C16 UNL     1     -52.849   1.938 -19.021  1.00  0.00     0.058 A 
HETATM   20 CL3  UNL     1     -53.292   2.846 -17.587  1.00  0.00    -0.082 Cl
HETATM   21  C17 UNL     1     -51.850   0.987 -19.000  1.00  0.00     0.084 A 
HETATM   22 CL4  UNL     1     -50.993   0.673 -17.486  1.00  0.00    -0.080 Cl
ENDBRANCH  10  15
ENDBRANCH   7   8
ENDBRANCH   3   7
BRANCH   1  23
HETATM   23  C1  UNL     1     -50.736  -5.593 -24.197  1.00  0.00     0.057 C 
HETATM   24  N1  UNL     1     -50.223  -6.497 -24.936  1.00  0.00    -0.397 N 
ATOM     25  H12 UNL     1     -50.456  -6.504 -25.929  1.00  0.00     0.156 HD
ATOM     26  H11 UNL     1     -49.595  -7.192 -24.532  1.00  0.00     0.156 HD
BRANCH  23  27
HETATM   27  C2  UNL     1     -51.628  -4.605 -24.772  1.00  0.00     0.057 C 
HETATM   28  C3  UNL     1     -51.262  -3.495 -25.354  1.00  0.00     0.064 C 
HETATM   29 CL1  UNL     1     -49.574  -3.098 -25.489  1.00  0.00    -0.082 Cl
BRANCH  28  30
HETATM   30  C4  UNL     1     -52.243  -2.579 -25.894  1.00  0.00     0.072 A 
HETATM   31  C5  UNL     1     -52.743  -2.495 -27.181  1.00  0.00     0.121 A 
HETATM   32  N2  UNL     1     -53.641  -1.497 -27.255  1.00  0.00    -0.340 N 
HETATM   33  C6  UNL     1     -53.710  -0.954 -26.032  1.00  0.00     0.179 A 
ATOM     34  H2  UNL     1     -54.167  -1.210 -28.081  1.00  0.00     0.167 HD
HETATM   35 CL2  UNL     1     -54.761   0.395 -25.646  1.00  0.00    -0.045 Cl
HETATM   36  N3  UNL     1     -52.871  -1.602 -25.215  1.00  0.00    -0.330 N 
ATOM     37  H3  UNL     1     -52.729  -1.389 -24.227  1.00  0.00     0.168 HD
ENDBRANCH  28  30
ENDBRANCH  23  27
ENDBRANCH   1  23
TORSDOF 6
ENDMDL
MODEL 2
REMARK VINA RESULT: -8.364478383      1.282      1.542
REMARK  6 active torsions:
REMARK  status: ('A' for Active; 'I' for Inactive)
REMARK    1  A    between atoms: C1_4  and  C2_5 
REMARK    2  A    between atoms: C1_4  and  C7_16 
REMARK    3  A    between atoms: C3_6  and  C4_8 
REMARK    4  A    between atoms: N4_18  and  C9_19 
REMARK    5  A    between atoms: C9_19  and  C10_20 
REMARK    6  A    between atoms: N5_22  and  C12_23 
ROOT
HETATM    1  C7  UNL     1     -50.376  -5.553 -22.815  1.00  0.00     0.089 A 
HETATM    2  C8  UNL     1     -49.659  -4.557 -22.185  1.00  0.00     0.141 A 
HETATM    3  N4  UNL     1     -49.501  -4.874 -20.874  1.00  0.00    -0.279 N 
HETATM    4  N8  UNL     1     -50.111  -6.034 -20.720  1.00  0.00    -0.020 NA
HETATM    5  N9  UNL     1     -50.637  -6.456 -21.856  1.00  0.00    -0.281 N 
ATOM      6  H9  UNL     1     -51.156  -7.325 -21.984  1.00  0.00     0.184 HD
ENDROOT
BRANCH   3   7
HETATM    7  C9  UNL     1     -48.801  -4.077 -19.879  1.00  0.00     0.206 C 
BRANCH   7   8
HETATM    8  C10 UNL     1     -49.190  -2.663 -19.924  1.00  0.00     0.064 A 
HETATM    9  C11 UNL     1     -50.434  -2.082 -19.717  1.00  0.00     0.146 A 
HETATM   10  N5  UNL     1     -50.339  -0.750 -19.855  1.00  0.00    -0.250 N 
HETATM   11  N6  UNL     1     -49.081  -0.500 -20.140  1.00  0.00    -0.236 N 
HETATM   12  N7  UNL     1     -48.371  -1.629 -20.188  1.00  0.00    -0.287 N 
ATOM     13  H6  UNL     1     -48.700   0.432 -20.303  1.00  0.00     0.209 HD
ATOM     14  H7  UNL     1     -47.373  -1.696 -20.391  1.00  0.00     0.188 HD
BRANCH  10  15
HETATM   15  C12 UNL     1     -51.390   0.198 -19.720  1.00  0.00     0.080 A 
HETATM   16  C13 UNL     1     -51.614   0.852 -18.507  1.00  0.00     0.033 A 
HETATM   17  C14 UNL     1     -52.637   1.769 -18.395  1.00  0.00     0.004 A 
HETATM   18  C15 UNL     1     -53.471   2.078 -19.450  1.00  0.00     0.026 A 
HETATM   19  C16 UNL     1     -53.260   1.441 -20.647  1.00  0.00     0.058 A 
HETATM   20 CL3  UNL     1     -54.308   1.819 -22.002  1.00  0.00    -0.082 Cl
HETATM   21  C17 UNL     1     -52.235   0.524 -20.755  1.00  0.00     0.084 A 
HETATM   22 CL4  UNL     1     -51.969  -0.292 -22.299  1.00  0.00    -0.080 Cl
ENDBRANCH  10  15
ENDBRANCH   7   8
ENDBRANCH   3   7
BRANCH   1  23
HETATM   23  C1  UNL     1     -50.746  -5.576 -24.216  1.00  0.00     0.057 C 
HETATM   24  N1  UNL     1     -50.272  -6.501 -24.955  1.00  0.00    -0.397 N 
ATOM     25  H12 UNL     1     -50.532  -6.517 -25.941  1.00  0.00     0.156 HD
ATOM     26  H11 UNL     1     -49.647  -7.202 -24.559  1.00  0.00     0.156 HD
BRANCH  23  27
HETATM   27  C2  UNL     1     -51.635  -4.579 -24.780  1.00  0.00     0.057 C 
HETATM   28  C3  UNL     1     -51.266  -3.535 -25.472  1.00  0.00     0.064 C 
HETATM   29 CL1  UNL     1     -49.580  -3.248 -25.784  1.00  0.00    -0.082 Cl
BRANCH  28  30
HETATM   30  C4  UNL     1     -52.243  -2.602 -25.988  1.00  0.00     0.072 A 
HETATM   31  C5  UNL     1     -52.716  -2.458 -27.281  1.00  0.00     0.121 A 
HETATM   32  N2  UNL     1     -53.621  -1.465 -27.326  1.00  0.00    -0.340 N 
HETATM   33  C6  UNL     1     -53.723  -0.984 -26.079  1.00  0.00     0.179 A 
ATOM     34  H2  UNL     1     -54.131  -1.142 -28.148  1.00  0.00     0.167 HD
HETATM   35 CL2  UNL     1     -54.796   0.334 -25.651  1.00  0.00    -0.045 Cl
HETATM   36  N3  UNL     1     -52.896  -1.665 -25.276  1.00  0.00    -0.330 N 
ATOM     37  H3  UNL     1     -52.779  -1.500 -24.276  1.00  0.00     0.168 HD
ENDBRANCH  28  30
ENDBRANCH  23  27
ENDBRANCH   1  23
TORSDOF 6
ENDMDL
MODEL 3
REMARK VINA RESULT: -8.172640973      2.058      2.997
REMARK  6 active torsions:
REMARK  status: ('A' for Active; 'I' for Inactive)
REMARK    1  A    between atoms: C1_4  and  C2_5 
REMARK    2  A    between atoms: C1_4  and  C7_16 
REMARK    3  A    between atoms: C3_6  and  C4_8 
REMARK    4  A    between atoms: N4_18  and  C9_19 
REMARK    5  A    between atoms: C9_19  and  C10_20 
REMARK    6  A    between atoms: N5_22  and  C12_23 
ROOT
HETATM    1  C7  UNL     1     -51.427  -3.972 -25.254  1.00  0.00     0.089 A 
HETATM    2  C8  UNL     1     -50.540  -3.543 -24.289  1.00  0.00     0.141 A 
HETATM    3  N4  UNL     1     -50.216  -4.584 -23.478  1.00  0.00    -0.279 N 
HETATM    4  N8  UNL     1     -50.894  -5.615 -23.947  1.00  0.00    -0.020 NA
HETATM    5  N9  UNL     1     -51.619  -5.276 -24.999  1.00  0.00    -0.281 N 
ATOM      6  H9  UNL     1     -52.224  -5.903 -25.530  1.00  0.00     0.184 HD
ENDROOT
BRANCH   3   7
HETATM    7  C9  UNL     1     -49.309  -4.534 -22.343  1.00  0.00     0.206 C 
BRANCH   7   8
HETATM    8  C10 UNL     1     -49.340  -3.233 -21.662  1.00  0.00     0.064 A 
HETATM    9  C11 UNL     1     -50.365  -2.639 -20.939  1.00  0.00     0.146 A 
HETATM   10  N5  UNL     1     -49.962  -1.441 -20.488  1.00  0.00    -0.250 N 
HETATM   11  N6  UNL     1     -48.728  -1.285 -20.911  1.00  0.00    -0.236 N 
HETATM   12  N7  UNL     1     -48.331  -2.345 -21.618  1.00  0.00    -0.287 N 
ATOM     13  H6  UNL     1     -48.152  -0.465 -20.724  1.00  0.00     0.209 HD
ATOM     14  H7  UNL     1     -47.415  -2.461 -22.051  1.00  0.00     0.188 HD
BRANCH  10  15
HETATM   15  C12 UNL     1     -50.720  -0.524 -19.707  1.00  0.00     0.080 A 
HETATM   16  C13 UNL     1     -50.545  -0.445 -18.324  1.00  0.00     0.033 A 
HETATM   17  C14 UNL     1     -51.289   0.450 -17.585  1.00  0.00     0.004 A 
HETATM   18  C15 UNL     1     -52.220   1.290 -18.161  1.00  0.00     0.026 A 
HETATM   19  C16 UNL     1     -52.400   1.220 -19.519  1.00  0.00     0.058 A 
HETATM   20 CL3  UNL     1     -53.579   2.279 -20.272  1.00  0.00    -0.082 Cl
HETATM   21  C17 UNL     1     -51.654   0.323 -20.255  1.00  0.00     0.084 A 
HETATM   22 CL4  UNL     1     -51.890   0.239 -22.004  1.00  0.00    -0.080 Cl
ENDBRANCH  10  15
ENDBRANCH   7   8
ENDBRANCH   3   7
BRANCH   1  23
HETATM   23  C1  UNL     1     -52.002  -3.153 -26.302  1.00  0.00     0.057 C 
HETATM   24  N1  UNL     1     -51.601  -3.326 -27.500  1.00  0.00    -0.397 N 
ATOM     25  H12 UNL     1     -52.005  -2.750 -28.237  1.00  0.00     0.156 HD
ATOM     26  H11 UNL     1     -50.889  -4.028 -27.705  1.00  0.00     0.156 HD
BRANCH  23  27
HETATM   27  C2  UNL     1     -53.013  -2.155 -26.013  1.00  0.00     0.057 C 
HETATM   28  C3  UNL     1     -52.784  -0.912 -25.684  1.00  0.00     0.064 C 
HETATM   29 CL1  UNL     1     -51.149  -0.330 -25.561  1.00  0.00    -0.082 Cl
BRANCH  28  30
HETATM   30  C4  UNL     1     -53.874   0.000 -25.415  1.00  0.00     0.072 A 
HETATM   31  C5  UNL     1     -53.992   0.951 -24.418  1.00  0.00     0.121 A 
HETATM   32  N2  UNL     1     -55.172   1.584 -24.530  1.00  0.00    -0.340 N 
HETATM   33  C6  UNL     1     -55.797   1.043 -25.584  1.00  0.00     0.179 A 
ATOM     34  H2  UNL     1     -55.523   2.331 -23.930  1.00  0.00     0.167 HD
HETATM   35 CL2  UNL     1     -57.386   1.557 -26.119  1.00  0.00    -0.045 Cl
HETATM   36  N3  UNL     1     -55.019   0.092 -26.116  1.00  0.00    -0.330 N 
ATOM     37  H3  UNL     1     -55.258  -0.477 -26.929  1.00  0.00     0.168 HD
ENDBRANCH  28  30
ENDBRANCH  23  27
ENDBRANCH   1  23
TORSDOF 6
ENDMDL
MODEL 4
REMARK VINA RESULT: -8.041631323      2.463      6.519
REMARK  6 active torsions:
REMARK  status: ('A' for Active; 'I' for Inactive)
REMARK    1  A    between atoms: C1_4  and  C2_5 
REMARK    2  A    between atoms: C1_4  and  C7_16 
REMARK    3  A    between atoms: C3_6  and  C4_8 
REMARK    4  A    between atoms: N4_18  and  C9_19 
REMARK    5  A    between atoms: C9_19  and  C10_20 
REMARK    6  A    between atoms: N5_22  and  C12_23 
ROOT
HETATM    1  C7  UNL     1     -52.575   0.283 -20.371  1.00  0.00     0.089 A 
HETATM    2  C8  UNL     1     -52.705  -1.072 -20.596  1.00  0.00     0.141 A 
HETATM    3  N4  UNL     1     -51.660  -1.727 -20.026  1.00  0.00    -0.279 N 
HETATM    4  N8  UNL     1     -50.918  -0.785 -19.473  1.00  0.00    -0.020 NA
HETATM    5  N9  UNL     1     -51.441   0.414 -19.664  1.00  0.00    -0.281 N 
ATOM      6  H9  UNL     1     -51.048   1.294 -19.330  1.00  0.00     0.184 HD
ENDROOT
BRANCH   3   7
HETATM    7  C9  UNL     1     -51.438  -3.164 -20.044  1.00  0.00     0.206 C 
BRANCH   7   8
HETATM    8  C10 UNL     1     -51.389  -3.703 -21.408  1.00  0.00     0.064 A 
HETATM    9  C11 UNL     1     -51.199  -3.041 -22.613  1.00  0.00     0.146 A 
HETATM   10  N5  UNL     1     -51.225  -3.925 -23.622  1.00  0.00    -0.250 N 
HETATM   11  N6  UNL     1     -51.425  -5.102 -23.075  1.00  0.00    -0.236 N 
HETATM   12  N7  UNL     1     -51.527  -4.997 -21.748  1.00  0.00    -0.287 N 
ATOM     13  H6  UNL     1     -51.493  -5.977 -23.593  1.00  0.00     0.209 HD
ATOM     14  H7  UNL     1     -51.684  -5.770 -21.100  1.00  0.00     0.188 HD
BRANCH  10  15
HETATM   15  C12 UNL     1     -51.068  -3.642 -25.008  1.00  0.00     0.080 A 
HETATM   16  C13 UNL     1     -52.177  -3.400 -25.820  1.00  0.00     0.033 A 
HETATM   17  C14 UNL     1     -52.005  -3.127 -27.161  1.00  0.00     0.004 A 
HETATM   18  C15 UNL     1     -50.759  -3.082 -27.751  1.00  0.00     0.026 A 
HETATM   19  C16 UNL     1     -49.661  -3.318 -26.961  1.00  0.00     0.058 A 
HETATM   20 CL3  UNL     1     -48.067  -3.266 -27.692  1.00  0.00    -0.082 Cl
HETATM   21  C17 UNL     1     -49.838  -3.591 -25.621  1.00  0.00     0.084 A 
HETATM   22 CL4  UNL     1     -48.421  -3.895 -24.610  1.00  0.00    -0.080 Cl
ENDBRANCH  10  15
ENDBRANCH   7   8
ENDBRANCH   3   7
BRANCH   1  23
HETATM   23  C1  UNL     1     -53.493   1.309 -20.822  1.00  0.00     0.057 C 
HETATM   24  N1  UNL     1     -53.635   2.356 -20.107  1.00  0.00    -0.397 N 
ATOM     25  H12 UNL     1     -54.281   3.078 -20.425  1.00  0.00     0.156 HD
ATOM     26  H11 UNL     1     -53.110   2.457 -19.239  1.00  0.00     0.156 HD
BRANCH  23  27
HETATM   27  C2  UNL     1     -54.241   1.166 -22.057  1.00  0.00     0.057 C 
HETATM   28  C3  UNL     1     -53.724   1.014 -23.246  1.00  0.00     0.064 C 
HETATM   29 CL1  UNL     1     -51.997   0.970 -23.447  1.00  0.00    -0.082 Cl
BRANCH  28  30
HETATM   30  C4  UNL     1     -54.569   0.882 -24.413  1.00  0.00     0.072 A 
HETATM   31  C5  UNL     1     -54.435   0.030 -25.495  1.00  0.00     0.121 A 
HETATM   32  N2  UNL     1     -55.443   0.234 -26.361  1.00  0.00    -0.340 N 
HETATM   33  C6  UNL     1     -56.207   1.202 -25.836  1.00  0.00     0.179 A 
ATOM     34  H2  UNL     1     -55.597  -0.253 -27.244  1.00  0.00     0.167 HD
HETATM   35 CL2  UNL     1     -57.652   1.809 -26.623  1.00  0.00    -0.045 Cl
HETATM   36  N3  UNL     1     -55.683   1.592 -24.668  1.00  0.00    -0.330 N 
ATOM     37  H3  UNL     1     -56.069   2.316 -24.062  1.00  0.00     0.168 HD
ENDBRANCH  28  30
ENDBRANCH  23  27
ENDBRANCH   1  23
TORSDOF 6
ENDMDL
MODEL 5
REMARK VINA RESULT: -7.877238754      2.130      6.477
REMARK  6 active torsions:
REMARK  status: ('A' for Active; 'I' for Inactive)
REMARK    1  A    between atoms: C1_4  and  C2_5 
REMARK    2  A    between atoms: C1_4  and  C7_16 
REMARK    3  A    between atoms: C3_6  and  C4_8 
REMARK    4  A    between atoms: N4_18  and  C9_19 
REMARK    5  A    between atoms: C9_19  and  C10_20 
REMARK    6  A    between atoms: N5_22  and  C12_23 
ROOT
HETATM    1  C7  UNL     1     -50.235  -1.283 -18.878  1.00  0.00     0.089 A 
HETATM    2  C8  UNL     1     -50.756  -2.524 -19.180  1.00  0.00     0.141 A 
HETATM    3  N4  UNL     1     -49.746  -3.425 -19.285  1.00  0.00    -0.279 N 
HETATM    4  N8  UNL     1     -48.642  -2.740 -19.052  1.00  0.00    -0.020 NA
HETATM    5  N9  UNL     1     -48.907  -1.469 -18.807  1.00  0.00    -0.281 N 
ATOM      6  H9  UNL     1     -48.216  -0.747 -18.600  1.00  0.00     0.184 HD
ENDROOT
BRANCH   3   7
HETATM    7  C9  UNL     1     -49.889  -4.839 -19.593  1.00  0.00     0.206 C 
BRANCH   7   8
HETATM    8  C10 UNL     1     -50.226  -5.072 -21.002  1.00  0.00     0.064 A 
HETATM    9  C11 UNL     1     -50.209  -4.187 -22.071  1.00  0.00     0.146 A 
HETATM   10  N5  UNL     1     -50.593  -4.823 -23.189  1.00  0.00    -0.250 N 
HETATM   11  N6  UNL     1     -50.843  -6.064 -22.838  1.00  0.00    -0.236 N 
HETATM   12  N7  UNL     1     -50.632  -6.239 -21.532  1.00  0.00    -0.287 N 
ATOM     13  H6  UNL     1     -51.157  -6.794 -23.477  1.00  0.00     0.209 HD
ATOM     14  H7  UNL     1     -50.757  -7.114 -21.022  1.00  0.00     0.188 HD
BRANCH  10  15
HETATM   15  C12 UNL     1     -50.706  -4.264 -24.493  1.00  0.00     0.080 A 
HETATM   16  C13 UNL     1     -51.956  -3.977 -25.043  1.00  0.00     0.033 A 
HETATM   17  C14 UNL     1     -52.046  -3.435 -26.308  1.00  0.00     0.004 A 
HETATM   18  C15 UNL     1     -50.931  -3.156 -27.072  1.00  0.00     0.026 A 
HETATM   19  C16 UNL     1     -49.697  -3.434 -26.541  1.00  0.00     0.058 A 
HETATM   20 CL3  UNL     1     -48.267  -3.088 -27.496  1.00  0.00    -0.082 Cl
HETATM   21  C17 UNL     1     -49.612  -3.977 -25.275  1.00  0.00     0.084 A 
HETATM   22 CL4  UNL     1     -48.020  -4.332 -24.596  1.00  0.00    -0.080 Cl
ENDBRANCH  10  15
ENDBRANCH   7   8
ENDBRANCH   3   7
BRANCH   1  23
HETATM   23  C1  UNL     1     -50.998  -0.066 -18.685  1.00  0.00     0.057 C 
HETATM   24  N1  UNL     1     -50.756   0.648 -17.656  1.00  0.00    -0.397 N 
ATOM     25  H12 UNL     1     -51.292   1.504 -17.521  1.00  0.00     0.156 HD
ATOM     26  H11 UNL     1     -50.040   0.358 -16.990  1.00  0.00     0.156 HD
BRANCH  23  27
HETATM   27  C2  UNL     1     -52.016   0.346 -19.632  1.00  0.00     0.057 C 
HETATM   28  C3  UNL     1     -51.817   0.617 -20.893  1.00  0.00     0.064 C 
HETATM   29 CL1  UNL     1     -50.219   0.495 -21.570  1.00  0.00    -0.082 Cl
BRANCH  28  30
HETATM   30  C4  UNL     1     -52.911   1.021 -21.749  1.00  0.00     0.072 A 
HETATM   31  C5  UNL     1     -54.053   1.733 -21.428  1.00  0.00     0.121 A 
HETATM   32  N2  UNL     1     -54.812   1.893 -22.526  1.00  0.00    -0.340 N 
HETATM   33  C6  UNL     1     -54.161   1.292 -23.531  1.00  0.00     0.179 A 
ATOM     34  H2  UNL     1     -55.708   2.378 -22.583  1.00  0.00     0.167 HD
HETATM   35 CL2  UNL     1     -54.777   1.243 -25.172  1.00  0.00    -0.045 Cl
HETATM   36  N3  UNL     1     -53.021   0.768 -23.066  1.00  0.00    -0.330 N 
ATOM     37  H3  UNL     1     -52.338   0.255 -23.624  1.00  0.00     0.168 HD
ENDBRANCH  28  30
ENDBRANCH  23  27
ENDBRANCH   1  23
TORSDOF 6
ENDMDL
