MODEL 1
REMARK VINA RESULT: -5.476022678      0.000      0.000
REMARK  5 active torsions:
REMARK  status: ('A' for Active; 'I' for Inactive)
REMARK    1  A    between atoms: N1_2  and  C2_5 
REMARK    2  A    between atoms: C2_5  and  C3_6 
REMARK    3  A    between atoms: C3_6  and  N2_7 
REMARK    4  A    between atoms: N2_7  and  C4_9 
REMARK    5  A    between atoms: C12_20  and  N4_21 
ROOT
HETATM    1  C4  UNL     1     175.998  15.453  84.724  1.00  0.00     0.092 C 
HETATM    2  C5  UNL     1     175.894  16.175  86.037  1.00  0.00     0.034 C 
HETATM    3  C6  UNL     1     176.819  17.389  85.937  1.00  0.00     0.050 C 
HETATM    4  C7  UNL     1     177.885  17.403  87.021  1.00  0.00     0.239 C 
HETATM    5  N3  UNL     1     179.215  17.679  86.507  1.00  0.00    -0.074 N 
ATOM      6  H31 UNL     1     179.888  17.749  87.269  1.00  0.00     0.277 HD
ATOM      7  H32 UNL     1     179.269  18.631  86.144  1.00  0.00     0.277 HD
HETATM    8  C8  UNL     1     179.670  16.714  85.501  1.00  0.00     0.240 C 
HETATM    9  C9  UNL     1     178.484  15.871  85.230  1.00  0.00     0.061 A 
HETATM   10  C10 UNL     1     177.464  15.674  84.291  1.00  0.00     0.018 A 
HETATM   11  C11 UNL     1     177.711  15.298  82.852  1.00  0.00     0.020 C 
HETATM   12  C12 UNL     1     177.592  17.025  84.713  1.00  0.00     0.146 A 
ENDROOT
BRANCH   1  13
HETATM   13  N2  UNL     1     175.755  14.067  84.714  1.00  0.00    -0.395 N 
ATOM     14  H2  UNL     1     176.504  13.432  84.435  1.00  0.00     0.159 HD
BRANCH  13  15
HETATM   15  C3  UNL     1     174.514  13.539  85.075  1.00  0.00     0.083 C 
BRANCH  15  16
HETATM   16  C2  UNL     1     173.294  13.991  84.331  1.00  0.00     0.275 C 
BRANCH  16  17
HETATM   17  N1  UNL     1     172.133  13.143  84.671  1.00  0.00    -0.075 N 
HETATM   18  C1  UNL     1     170.922  13.914  84.351  1.00  0.00     0.267 C 
ATOM     19  H12 UNL     1     172.150  12.810  85.635  1.00  0.00     0.277 HD
ATOM     20  H11 UNL     1     172.158  12.231  84.216  1.00  0.00     0.277 HD
ENDBRANCH  16  17
ENDBRANCH  15  16
ENDBRANCH  13  15
ENDBRANCH   1  13
BRANCH  12  21
HETATM   21  N4  UNL     1     178.039  18.000  83.813  1.00  0.00    -0.068 N 
HETATM   22  C13 UNL     1     176.992  18.995  83.671  1.00  0.00     0.267 C 
ATOM     23  H42 UNL     1     178.934  18.406  84.084  1.00  0.00     0.277 HD
ATOM     24  H41 UNL     1     178.333  17.606  82.919  1.00  0.00     0.277 HD
ENDBRANCH  12  21
TORSDOF 5
ENDMDL
MODEL 2
REMARK VINA RESULT: -5.429509988      1.401      2.913
REMARK  5 active torsions:
REMARK  status: ('A' for Active; 'I' for Inactive)
REMARK    1  A    between atoms: N1_2  and  C2_5 
REMARK    2  A    between atoms: C2_5  and  C3_6 
REMARK    3  A    between atoms: C3_6  and  N2_7 
REMARK    4  A    between atoms: N2_7  and  C4_9 
REMARK    5  A    between atoms: C12_20  and  N4_21 
ROOT
HETATM    1  C4  UNL     1     176.871  15.731  84.847  1.00  0.00     0.092 C 
HETATM    2  C5  UNL     1     176.564  15.794  83.378  1.00  0.00     0.034 C 
HETATM    3  C6  UNL     1     177.569  16.772  82.769  1.00  0.00     0.050 C 
HETATM    4  C7  UNL     1     176.896  17.936  82.059  1.00  0.00     0.239 C 
HETATM    5  N3  UNL     1     177.466  19.224  82.413  1.00  0.00    -0.074 N 
ATOM      6  H31 UNL     1     177.036  19.970  81.867  1.00  0.00     0.277 HD
ATOM      7  H32 UNL     1     178.425  19.298  82.076  1.00  0.00     0.277 HD
HETATM    8  C8  UNL     1     177.395  19.526  83.846  1.00  0.00     0.240 C 
HETATM    9  C9  UNL     1     176.907  18.274  84.466  1.00  0.00     0.061 A 
HETATM   10  C10 UNL     1     177.348  17.159  85.191  1.00  0.00     0.018 A 
HETATM   11  C11 UNL     1     178.002  17.246  86.546  1.00  0.00     0.020 C 
HETATM   12  C12 UNL     1     178.103  17.403  84.012  1.00  0.00     0.146 A 
ENDROOT
BRANCH   1  13
HETATM   13  N2  UNL     1     175.819  15.410  85.726  1.00  0.00    -0.395 N 
ATOM     14  H2  UNL     1     175.983  15.447  86.732  1.00  0.00     0.159 HD
BRANCH  13  15
HETATM   15  C3  UNL     1     174.559  15.040  85.255  1.00  0.00     0.083 C 
BRANCH  15  16
HETATM   16  C2  UNL     1     174.230  13.583  85.138  1.00  0.00     0.275 C 
BRANCH  16  17
HETATM   17  N1  UNL     1     173.301  13.346  84.015  1.00  0.00    -0.075 N 
HETATM   18  C1  UNL     1     172.797  14.658  83.582  1.00  0.00     0.267 C 
ATOM     19  H12 UNL     1     172.555  12.689  84.246  1.00  0.00     0.277 HD
ATOM     20  H11 UNL     1     173.720  12.809  83.256  1.00  0.00     0.277 HD
ENDBRANCH  16  17
ENDBRANCH  15  16
ENDBRANCH  13  15
ENDBRANCH   1  13
BRANCH  12  21
HETATM   21  N4  UNL     1     179.437  17.816  84.108  1.00  0.00    -0.068 N 
HETATM   22  C13 UNL     1     180.253  16.879  83.358  1.00  0.00     0.267 C 
ATOM     23  H42 UNL     1     179.573  18.782  83.811  1.00  0.00     0.277 HD
ATOM     24  H41 UNL     1     179.748  17.925  85.073  1.00  0.00     0.277 HD
ENDBRANCH  12  21
TORSDOF 5
ENDMDL
MODEL 3
REMARK VINA RESULT: -5.429208348      0.985      2.566
REMARK  5 active torsions:
REMARK  status: ('A' for Active; 'I' for Inactive)
REMARK    1  A    between atoms: N1_2  and  C2_5 
REMARK    2  A    between atoms: C2_5  and  C3_6 
REMARK    3  A    between atoms: C3_6  and  N2_7 
REMARK    4  A    between atoms: N2_7  and  C4_9 
REMARK    5  A    between atoms: C12_20  and  N4_21 
ROOT
HETATM    1  C4  UNL     1     176.325  14.963  84.716  1.00  0.00     0.092 C 
HETATM    2  C5  UNL     1     177.574  14.733  83.915  1.00  0.00     0.034 C 
HETATM    3  C6  UNL     1     178.516  15.892  84.242  1.00  0.00     0.050 C 
HETATM    4  C7  UNL     1     178.928  16.677  83.007  1.00  0.00     0.239 C 
HETATM    5  N3  UNL     1     178.814  18.114  83.183  1.00  0.00    -0.074 N 
ATOM      6  H31 UNL     1     179.164  18.607  82.361  1.00  0.00     0.277 HD
ATOM      7  H32 UNL     1     179.484  18.445  83.877  1.00  0.00     0.277 HD
HETATM    8  C8  UNL     1     177.459  18.563  83.517  1.00  0.00     0.240 C 
HETATM    9  C9  UNL     1     176.698  17.312  83.739  1.00  0.00     0.061 A 
HETATM   10  C10 UNL     1     176.187  16.501  84.760  1.00  0.00     0.018 A 
HETATM   11  C11 UNL     1     175.173  16.968  85.773  1.00  0.00     0.020 C 
HETATM   12  C12 UNL     1     177.563  16.816  84.924  1.00  0.00     0.146 A 
ENDROOT
BRANCH   1  13
HETATM   13  N2  UNL     1     175.116  14.441  84.217  1.00  0.00    -0.395 N 
ATOM     14  H2  UNL     1     174.796  14.727  83.291  1.00  0.00     0.159 HD
BRANCH  13  15
HETATM   15  C3  UNL     1     174.347  13.542  84.957  1.00  0.00     0.083 C 
BRANCH  15  16
HETATM   16  C2  UNL     1     172.936  13.912  85.300  1.00  0.00     0.275 C 
BRANCH  16  17
HETATM   17  N1  UNL     1     171.980  13.129  84.491  1.00  0.00    -0.075 N 
HETATM   18  C1  UNL     1     170.876  14.029  84.128  1.00  0.00     0.267 C 
ATOM     19  H12 UNL     1     171.664  12.279  84.959  1.00  0.00     0.277 HD
ATOM     20  H11 UNL     1     172.413  12.681  83.683  1.00  0.00     0.277 HD
ENDBRANCH  16  17
ENDBRANCH  15  16
ENDBRANCH  13  15
ENDBRANCH   1  13
BRANCH  12  21
HETATM   21  N4  UNL     1     177.971  17.642  85.977  1.00  0.00    -0.068 N 
HETATM   22  C13 UNL     1     178.794  16.852  86.875  1.00  0.00     0.267 C 
ATOM     23  H42 UNL     1     178.440  18.489  85.656  1.00  0.00     0.277 HD
ATOM     24  H41 UNL     1     177.188  18.092  86.452  1.00  0.00     0.277 HD
ENDBRANCH  12  21
TORSDOF 5
ENDMDL
MODEL 4
REMARK VINA RESULT: -5.367396031      1.215      1.370
REMARK  5 active torsions:
REMARK  status: ('A' for Active; 'I' for Inactive)
REMARK    1  A    between atoms: N1_2  and  C2_5 
REMARK    2  A    between atoms: C2_5  and  C3_6 
REMARK    3  A    between atoms: C3_6  and  N2_7 
REMARK    4  A    between atoms: N2_7  and  C4_9 
REMARK    5  A    between atoms: C12_20  and  N4_21 
ROOT
HETATM    1  C4  UNL     1     176.350  16.455  85.378  1.00  0.00     0.092 C 
HETATM    2  C5  UNL     1     176.562  17.691  86.206  1.00  0.00     0.034 C 
HETATM    3  C6  UNL     1     177.816  18.370  85.653  1.00  0.00     0.050 C 
HETATM    4  C7  UNL     1     178.897  18.548  86.708  1.00  0.00     0.239 C 
HETATM    5  N3  UNL     1     180.211  18.132  86.251  1.00  0.00    -0.074 N 
ATOM      6  H31 UNL     1     180.918  18.330  86.958  1.00  0.00     0.277 HD
ATOM      7  H32 UNL     1     180.542  18.741  85.503  1.00  0.00     0.277 HD
HETATM    8  C8  UNL     1     180.274  16.726  85.838  1.00  0.00     0.240 C 
HETATM    9  C9  UNL     1     178.867  16.266  85.870  1.00  0.00     0.061 A 
HETATM   10  C10 UNL     1     177.780  15.988  85.031  1.00  0.00     0.018 A 
HETATM   11  C11 UNL     1     177.805  14.939  83.948  1.00  0.00     0.020 C 
HETATM   12  C12 UNL     1     178.356  17.267  84.805  1.00  0.00     0.146 A 
ENDROOT
BRANCH   1  13
HETATM   13  N2  UNL     1     175.679  15.371  85.974  1.00  0.00    -0.395 N 
ATOM     14  H2  UNL     1     176.100  14.907  86.780  1.00  0.00     0.159 HD
BRANCH  13  15
HETATM   15  C3  UNL     1     174.453  14.913  85.489  1.00  0.00     0.083 C 
BRANCH  15  16
HETATM   16  C2  UNL     1     174.326  13.475  85.089  1.00  0.00     0.275 C 
BRANCH  16  17
HETATM   17  N1  UNL     1     173.352  13.323  83.990  1.00  0.00    -0.075 N 
HETATM   18  C1  UNL     1     172.867  14.669  83.648  1.00  0.00     0.267 C 
ATOM     19  H12 UNL     1     172.598  12.672  84.211  1.00  0.00     0.277 HD
ATOM     20  H11 UNL     1     173.730  12.820  83.188  1.00  0.00     0.277 HD
ENDBRANCH  16  17
ENDBRANCH  15  16
ENDBRANCH  13  15
ENDBRANCH   1  13
BRANCH  12  21
HETATM   21  N4  UNL     1     179.032  17.529  83.607  1.00  0.00    -0.068 N 
HETATM   22  C13 UNL     1     178.415  18.687  82.987  1.00  0.00     0.267 C 
ATOM     23  H42 UNL     1     180.037  17.640  83.738  1.00  0.00     0.277 HD
ATOM     24  H41 UNL     1     179.063  16.720  82.987  1.00  0.00     0.277 HD
ENDBRANCH  12  21
TORSDOF 5
ENDMDL
MODEL 5
REMARK VINA RESULT: -5.365299734      1.747      2.156
REMARK  5 active torsions:
REMARK  status: ('A' for Active; 'I' for Inactive)
REMARK    1  A    between atoms: N1_2  and  C2_5 
REMARK    2  A    between atoms: C2_5  and  C3_6 
REMARK    3  A    between atoms: C3_6  and  N2_7 
REMARK    4  A    between atoms: N2_7  and  C4_9 
REMARK    5  A    between atoms: C12_20  and  N4_21 
ROOT
HETATM    1  C4  UNL     1     176.155  16.633  84.453  1.00  0.00     0.092 C 
HETATM    2  C5  UNL     1     176.494  16.593  85.916  1.00  0.00     0.034 C 
HETATM    3  C6  UNL     1     177.763  17.428  86.087  1.00  0.00     0.050 C 
HETATM    4  C7  UNL     1     178.904  16.635  86.705  1.00  0.00     0.239 C 
HETATM    5  N3  UNL     1     180.162  16.805  85.999  1.00  0.00    -0.074 N 
ATOM      6  H31 UNL     1     180.915  16.315  86.482  1.00  0.00     0.277 HD
ATOM      7  H32 UNL     1     180.498  17.764  86.087  1.00  0.00     0.277 HD
HETATM    8  C8  UNL     1     180.105  16.404  84.589  1.00  0.00     0.240 C 
HETATM    9  C9  UNL     1     178.673  16.127  84.339  1.00  0.00     0.061 A 
HETATM   10  C10 UNL     1     177.529  16.683  83.752  1.00  0.00     0.018 A 
HETATM   11  C11 UNL     1     177.428  17.039  82.290  1.00  0.00     0.020 C 
HETATM   12  C12 UNL     1     178.182  17.559  84.661  1.00  0.00     0.146 A 
ENDROOT
BRANCH   1  13
HETATM   13  N2  UNL     1     175.439  15.548  83.913  1.00  0.00    -0.395 N 
ATOM     14  H2  UNL     1     175.588  15.291  82.937  1.00  0.00     0.159 HD
BRANCH  13  15
HETATM   15  C3  UNL     1     174.532  14.815  84.679  1.00  0.00     0.083 C 
BRANCH  15  16
HETATM   16  C2  UNL     1     174.837  13.380  84.982  1.00  0.00     0.275 C 
BRANCH  16  17
HETATM   17  N1  UNL     1     176.259  13.082  84.719  1.00  0.00    -0.075 N 
HETATM   18  C1  UNL     1     176.389  11.619  84.630  1.00  0.00     0.267 C 
ATOM     19  H12 UNL     1     176.889  13.497  85.406  1.00  0.00     0.277 HD
ATOM     20  H11 UNL     1     176.623  13.565  83.898  1.00  0.00     0.277 HD
ENDBRANCH  16  17
ENDBRANCH  15  16
ENDBRANCH  13  15
ENDBRANCH   1  13
BRANCH  12  21
HETATM   21  N4  UNL     1     178.815  18.714  84.188  1.00  0.00    -0.068 N 
HETATM   22  C13 UNL     1     178.213  19.859  84.845  1.00  0.00     0.267 C 
ATOM     23  H42 UNL     1     179.828  18.683  84.300  1.00  0.00     0.277 HD
ATOM     24  H41 UNL     1     178.793  18.787  83.170  1.00  0.00     0.277 HD
ENDBRANCH  12  21
TORSDOF 5
ENDMDL
