MODEL 1
REMARK VINA RESULT: -6.133822139      0.000      0.000
REMARK  6 active torsions:
REMARK  status: ('A' for Active; 'I' for Inactive)
REMARK    1  A    between atoms: C2_2  and  O1_3 
REMARK    2  A    between atoms: O1_3  and  C3_4 
REMARK    3  A    between atoms: C6_7  and  N1_8 
REMARK    4  A    between atoms: N1_8  and  C7_10 
REMARK    5  A    between atoms: C7_10  and  N2_12 
REMARK    6  A    between atoms: N2_12  and  C8_14 
ROOT
HETATM    1  N1  UNL     1      58.432  -5.554  41.863  1.00  0.00    -0.363 N 
ATOM      2  H1  UNL     1      58.394  -5.227  42.829  1.00  0.00     0.162 HD
ENDROOT
BRANCH   1   3
HETATM    3  C6  UNL     1      58.012  -4.649  40.833  1.00  0.00     0.084 C 
HETATM    4  C5  UNL     1      58.653  -4.889  39.521  1.00  0.00     0.028 C 
HETATM    5  C4  UNL     1      59.014  -3.687  38.714  1.00  0.00     0.034 C 
HETATM    6  C3  UNL     1      58.103  -2.512  38.871  1.00  0.00     0.121 C 
HETATM    7  C12 UNL     1      57.557  -2.361  40.267  1.00  0.00     0.034 C 
HETATM    8  C11 UNL     1      58.333  -3.220  41.253  1.00  0.00     0.028 C 
BRANCH   6   9
HETATM    9  O1  UNL     1      57.014  -2.604  38.010  1.00  0.00    -0.386 OA
BRANCH   9  10
HETATM   10  C2  UNL     1      56.555  -1.361  37.596  1.00  0.00     0.163 C 
HETATM   11  C1  UNL     1      57.616  -0.764  36.699  1.00  0.00     0.033 C 
ENDBRANCH   9  10
ENDBRANCH   6   9
ENDBRANCH   1   3
BRANCH   1  12
HETATM   12  C7  UNL     1      58.891  -6.861  41.631  1.00  0.00     0.168 C 
HETATM   13  S1  UNL     1      57.844  -7.968  41.061  1.00  0.00    -0.041 SA
BRANCH  12  14
HETATM   14  N2  UNL     1      60.225  -7.216  41.888  1.00  0.00    -0.359 N 
ATOM     15  H2  UNL     1      60.864  -7.188  41.093  1.00  0.00     0.162 HD
BRANCH  14  16
HETATM   16  C8  UNL     1      60.786  -7.615  43.145  1.00  0.00     0.135 C 
HETATM   17  C9  UNL     1      60.313  -6.892  44.377  1.00  0.00     0.259 C 
HETATM   18  N3  UNL     1      60.343  -8.189  45.075  1.00  0.00    -0.071 N 
HETATM   19  C10 UNL     1      60.066  -8.802  43.793  1.00  0.00     0.259 C 
ATOM     20  H32 UNL     1      61.148  -8.471  45.634  1.00  0.00     0.277 HD
ATOM     21  H31 UNL     1      59.750  -8.367  45.886  1.00  0.00     0.277 HD
ENDBRANCH  14  16
ENDBRANCH  12  14
ENDBRANCH   1  12
TORSDOF 6
ENDMDL
MODEL 2
REMARK VINA RESULT: -5.937616809      3.587      6.521
REMARK  6 active torsions:
REMARK  status: ('A' for Active; 'I' for Inactive)
REMARK    1  A    between atoms: C2_2  and  O1_3 
REMARK    2  A    between atoms: O1_3  and  C3_4 
REMARK    3  A    between atoms: C6_7  and  N1_8 
REMARK    4  A    between atoms: N1_8  and  C7_10 
REMARK    5  A    between atoms: C7_10  and  N2_12 
REMARK    6  A    between atoms: N2_12  and  C8_14 
ROOT
HETATM    1  N1  UNL     1      57.995  -3.999  38.644  1.00  0.00    -0.363 N 
ATOM      2  H1  UNL     1      57.646  -4.551  37.860  1.00  0.00     0.162 HD
ENDROOT
BRANCH   1   3
HETATM    3  C6  UNL     1      58.478  -4.705  39.795  1.00  0.00     0.084 C 
HETATM    4  C5  UNL     1      58.401  -6.178  39.676  1.00  0.00     0.028 C 
HETATM    5  C4  UNL     1      58.024  -6.938  40.903  1.00  0.00     0.034 C 
HETATM    6  C3  UNL     1      58.484  -6.339  42.194  1.00  0.00     0.121 C 
HETATM    7  C12 UNL     1      58.470  -4.832  42.192  1.00  0.00     0.034 C 
HETATM    8  C11 UNL     1      57.667  -4.295  41.018  1.00  0.00     0.028 C 
BRANCH   6   9
HETATM    9  O1  UNL     1      59.780  -6.740  42.499  1.00  0.00    -0.386 OA
BRANCH   9  10
HETATM   10  C2  UNL     1      59.911  -7.164  43.815  1.00  0.00     0.163 C 
HETATM   11  C1  UNL     1      59.888  -8.677  43.806  1.00  0.00     0.033 C 
ENDBRANCH   9  10
ENDBRANCH   6   9
ENDBRANCH   1   3
BRANCH   1  12
HETATM   12  C7  UNL     1      57.972  -2.600  38.524  1.00  0.00     0.168 C 
HETATM   13  S1  UNL     1      56.698  -1.899  37.792  1.00  0.00    -0.041 SA
BRANCH  12  14
HETATM   14  N2  UNL     1      59.025  -1.813  39.017  1.00  0.00    -0.359 N 
ATOM     15  H2  UNL     1      59.950  -1.998  38.630  1.00  0.00     0.162 HD
BRANCH  14  16
HETATM   16  C8  UNL     1      58.940  -0.777  40.005  1.00  0.00     0.135 C 
HETATM   17  C9  UNL     1      59.585  -1.036  41.339  1.00  0.00     0.259 C 
HETATM   18  N3  UNL     1      60.023   0.371  41.331  1.00  0.00    -0.071 N 
HETATM   19  C10 UNL     1      60.044   0.279  39.885  1.00  0.00     0.259 C 
ATOM     20  H32 UNL     1      59.487   1.095  41.808  1.00  0.00     0.277 HD
ATOM     21  H31 UNL     1      60.846   0.672  41.854  1.00  0.00     0.277 HD
ENDBRANCH  14  16
ENDBRANCH  12  14
ENDBRANCH   1  12
TORSDOF 6
ENDMDL
MODEL 3
REMARK VINA RESULT: -5.917024329      5.291      7.068
REMARK  6 active torsions:
REMARK  status: ('A' for Active; 'I' for Inactive)
REMARK    1  A    between atoms: C2_2  and  O1_3 
REMARK    2  A    between atoms: O1_3  and  C3_4 
REMARK    3  A    between atoms: C6_7  and  N1_8 
REMARK    4  A    between atoms: N1_8  and  C7_10 
REMARK    5  A    between atoms: C7_10  and  N2_12 
REMARK    6  A    between atoms: N2_12  and  C8_14 
ROOT
HETATM    1  N1  UNL     1      59.844   1.350  40.404  1.00  0.00    -0.363 N 
ATOM      2  H1  UNL     1      59.144   2.089  40.463  1.00  0.00     0.162 HD
ENDROOT
BRANCH   1   3
HETATM    3  C6  UNL     1      59.414   0.054  39.966  1.00  0.00     0.084 C 
HETATM    4  C5  UNL     1      58.078   0.045  39.329  1.00  0.00     0.028 C 
HETATM    5  C4  UNL     1      57.198  -1.124  39.618  1.00  0.00     0.034 C 
HETATM    6  C3  UNL     1      57.907  -2.423  39.831  1.00  0.00     0.121 C 
HETATM    7  C12 UNL     1      59.234  -2.272  40.528  1.00  0.00     0.034 C 
HETATM    8  C11 UNL     1      59.366  -0.894  41.157  1.00  0.00     0.028 C 
BRANCH   6   9
HETATM    9  O1  UNL     1      58.148  -3.067  38.621  1.00  0.00    -0.386 OA
BRANCH   9  10
HETATM   10  C2  UNL     1      59.170  -4.001  38.710  1.00  0.00     0.163 C 
HETATM   11  C1  UNL     1      58.533  -5.343  38.992  1.00  0.00     0.033 C 
ENDBRANCH   9  10
ENDBRANCH   6   9
ENDBRANCH   1   3
BRANCH   1  12
HETATM   12  C7  UNL     1      61.166   1.669  40.757  1.00  0.00     0.168 C 
HETATM   13  S1  UNL     1      61.502   1.986  42.318  1.00  0.00    -0.041 SA
BRANCH  12  14
HETATM   14  N2  UNL     1      62.182   1.721  39.791  1.00  0.00    -0.359 N 
ATOM     15  H2  UNL     1      62.038   2.366  39.014  1.00  0.00     0.162 HD
BRANCH  14  16
HETATM   16  C8  UNL     1      63.401   0.966  39.777  1.00  0.00     0.135 C 
HETATM   17  C9  UNL     1      63.300  -0.521  39.980  1.00  0.00     0.259 C 
HETATM   18  N3  UNL     1      64.353  -0.670  38.961  1.00  0.00    -0.071 N 
HETATM   19  C10 UNL     1      63.855   0.556  38.372  1.00  0.00     0.259 C 
ATOM     20  H32 UNL     1      65.333  -0.771  39.224  1.00  0.00     0.277 HD
ATOM     21  H31 UNL     1      64.440  -1.525  38.411  1.00  0.00     0.277 HD
ENDBRANCH  14  16
ENDBRANCH  12  14
ENDBRANCH   1  12
TORSDOF 6
ENDMDL
MODEL 4
REMARK VINA RESULT: -5.892281624      4.995      7.177
REMARK  6 active torsions:
REMARK  status: ('A' for Active; 'I' for Inactive)
REMARK    1  A    between atoms: C2_2  and  O1_3 
REMARK    2  A    between atoms: O1_3  and  C3_4 
REMARK    3  A    between atoms: C6_7  and  N1_8 
REMARK    4  A    between atoms: N1_8  and  C7_10 
REMARK    5  A    between atoms: C7_10  and  N2_12 
REMARK    6  A    between atoms: N2_12  and  C8_14 
ROOT
HETATM    1  N1  UNL     1      59.090  -0.254  40.185  1.00  0.00    -0.363 N 
ATOM      2  H1  UNL     1      58.234   0.289  40.067  1.00  0.00     0.162 HD
ENDROOT
BRANCH   1   3
HETATM    3  C6  UNL     1      58.987  -1.683  40.136  1.00  0.00     0.084 C 
HETATM    4  C5  UNL     1      58.712  -2.223  38.786  1.00  0.00     0.028 C 
HETATM    5  C4  UNL     1      57.787  -3.390  38.698  1.00  0.00     0.034 C 
HETATM    6  C3  UNL     1      57.830  -4.331  39.858  1.00  0.00     0.121 C 
HETATM    7  C12 UNL     1      58.072  -3.643  41.177  1.00  0.00     0.034 C 
HETATM    8  C11 UNL     1      57.862  -2.142  41.056  1.00  0.00     0.028 C 
BRANCH   6   9
HETATM    9  O1  UNL     1      58.835  -5.280  39.698  1.00  0.00    -0.386 OA
BRANCH   9  10
HETATM   10  C2  UNL     1      58.875  -6.194  40.742  1.00  0.00     0.163 C 
HETATM   11  C1  UNL     1      57.893  -7.297  40.414  1.00  0.00     0.033 C 
ENDBRANCH   9  10
ENDBRANCH   6   9
ENDBRANCH   1   3
BRANCH   1  12
HETATM   12  C7  UNL     1      60.290   0.448  40.383  1.00  0.00     0.168 C 
HETATM   13  S1  UNL     1      61.689  -0.384  40.401  1.00  0.00    -0.041 SA
BRANCH  12  14
HETATM   14  N2  UNL     1      60.294   1.839  40.569  1.00  0.00    -0.359 N 
ATOM     15  H2  UNL     1      59.643   2.377  39.996  1.00  0.00     0.162 HD
BRANCH  14  16
HETATM   16  C8  UNL     1      61.112   2.588  41.479  1.00  0.00     0.135 C 
HETATM   17  C9  UNL     1      60.584   3.912  41.959  1.00  0.00     0.259 C 
HETATM   18  N3  UNL     1      61.137   3.583  43.284  1.00  0.00    -0.071 N 
HETATM   19  C10 UNL     1      60.922   2.191  42.947  1.00  0.00     0.259 C 
ATOM     20  H32 UNL     1      62.054   3.921  43.574  1.00  0.00     0.277 HD
ATOM     21  H31 UNL     1      60.747   3.987  44.136  1.00  0.00     0.277 HD
ENDBRANCH  14  16
ENDBRANCH  12  14
ENDBRANCH   1  12
TORSDOF 6
ENDMDL
MODEL 5
REMARK VINA RESULT: -5.878079008      1.785      2.403
REMARK  6 active torsions:
REMARK  status: ('A' for Active; 'I' for Inactive)
REMARK    1  A    between atoms: C2_2  and  O1_3 
REMARK    2  A    between atoms: O1_3  and  C3_4 
REMARK    3  A    between atoms: C6_7  and  N1_8 
REMARK    4  A    between atoms: N1_8  and  C7_10 
REMARK    5  A    between atoms: C7_10  and  N2_12 
REMARK    6  A    between atoms: N2_12  and  C8_14 
ROOT
HETATM    1  N1  UNL     1      58.843  -5.957  39.548  1.00  0.00    -0.363 N 
ATOM      2  H1  UNL     1      58.762  -6.252  38.575  1.00  0.00     0.162 HD
ENDROOT
BRANCH   1   3
HETATM    3  C6  UNL     1      58.882  -4.550  39.820  1.00  0.00     0.084 C 
HETATM    4  C5  UNL     1      58.294  -4.171  41.125  1.00  0.00     0.028 C 
HETATM    5  C4  UNL     1      57.510  -2.903  41.172  1.00  0.00     0.034 C 
HETATM    6  C3  UNL     1      57.979  -1.824  40.248  1.00  0.00     0.121 C 
HETATM    7  C12 UNL     1      58.511  -2.348  38.939  1.00  0.00     0.034 C 
HETATM    8  C11 UNL     1      58.118  -3.803  38.733  1.00  0.00     0.028 C 
BRANCH   6   9
HETATM    9  O1  UNL     1      58.991  -1.069  40.832  1.00  0.00    -0.386 OA
BRANCH   9  10
HETATM   10  C2  UNL     1      59.990  -0.729  39.929  1.00  0.00     0.163 C 
HETATM   11  C1  UNL     1      60.429   0.682  40.252  1.00  0.00     0.033 C 
ENDBRANCH   9  10
ENDBRANCH   6   9
ENDBRANCH   1   3
BRANCH   1  12
HETATM   12  C7  UNL     1      58.910  -6.957  40.533  1.00  0.00     0.168 C 
HETATM   13  S1  UNL     1      57.629  -7.941  40.735  1.00  0.00    -0.041 SA
BRANCH  12  14
HETATM   14  N2  UNL     1      60.051  -7.109  41.335  1.00  0.00    -0.359 N 
ATOM     15  H2  UNL     1      60.948  -6.905  40.894  1.00  0.00     0.162 HD
BRANCH  14  16
HETATM   16  C8  UNL     1      60.094  -7.520  42.708  1.00  0.00     0.135 C 
HETATM   17  C9  UNL     1      61.391  -7.336  43.448  1.00  0.00     0.259 C 
HETATM   18  N3  UNL     1      60.595  -6.935  44.621  1.00  0.00    -0.071 N 
HETATM   19  C10 UNL     1      59.600  -6.449  43.687  1.00  0.00     0.259 C 
ATOM     20  H32 UNL     1      60.353  -7.604  45.351  1.00  0.00     0.277 HD
ATOM     21  H31 UNL     1      60.985  -6.328  45.342  1.00  0.00     0.277 HD
ENDBRANCH  14  16
ENDBRANCH  12  14
ENDBRANCH   1  12
TORSDOF 6
ENDMDL
