MODEL 1
REMARK VINA RESULT: -4.606739053      0.000      0.000
REMARK  5 active torsions:
REMARK  status: ('A' for Active; 'I' for Inactive)
REMARK    1  A    between atoms: C2_3  and  N2_4 
REMARK    2  A    between atoms: N2_4  and  C3_7 
REMARK    3  A    between atoms: C3_7  and  C4_8 
REMARK    4  A    between atoms: C5_9  and  N3_10 
REMARK    5  A    between atoms: N4_14  and  N5_15 
ROOT
HETATM    1  N1  UNL     1     116.703  31.509  24.341  1.00  0.00    -0.196 NA
HETATM    2  C1  UNL     1     116.217  31.119  25.326  1.00  0.00     0.086 C 
HETATM    3  C2  UNL     1     115.630  30.609  26.576  1.00  0.00     0.355 C 
ENDROOT
BRANCH   3   4
HETATM    4  N2  UNL     1     116.643  30.748  27.607  1.00  0.00    -0.061 N 
ATOM      5  H22 UNL     1     117.378  30.045  27.530  1.00  0.00     0.278 HD
ATOM      6  H21 UNL     1     117.225  31.575  27.474  1.00  0.00     0.278 HD
BRANCH   4   7
HETATM    7  C3  UNL     1     115.993  30.730  28.897  1.00  0.00     0.264 C 
BRANCH   7   8
HETATM    8  C4  UNL     1     115.202  29.488  29.128  1.00  0.00     0.183 A 
HETATM    9  C5  UNL     1     114.294  29.189  30.208  1.00  0.00     0.326 A 
HETATM   10  N4  UNL     1     115.635  28.712  30.377  1.00  0.00    -0.271 N 
BRANCH   9  11
HETATM   11  N3  UNL     1     113.198  28.318  29.931  1.00  0.00    -0.055 N 
ATOM     12  H33 UNL     1     113.269  27.983  28.971  1.00  0.00     0.276 HD
ATOM     13  H32 UNL     1     113.321  27.447  30.447  1.00  0.00     0.276 HD
ATOM     14  H31 UNL     1     112.256  28.675  30.094  1.00  0.00     0.276 HD
ENDBRANCH   9  11
BRANCH  10  15
HETATM   15  N5  UNL     1     116.667  28.082  31.048  1.00  0.00    -0.249 N 
HETATM   16  N6  UNL     1     116.935  28.091  32.238  1.00  0.00    -0.331 N 
ATOM     17  H62 UNL     1     116.296  28.649  32.805  1.00  0.00     0.178 HD
ATOM     18  H61 UNL     1     117.696  27.627  32.733  1.00  0.00     0.178 HD
ATOM     19  H5  UNL     1     117.294  27.530  30.464  1.00  0.00     0.207 HD
ENDBRANCH  10  15
ENDBRANCH   7   8
ENDBRANCH   4   7
ENDBRANCH   3   4
TORSDOF 5
ENDMDL
MODEL 2
REMARK VINA RESULT: -4.606285722      3.796      5.046
REMARK  5 active torsions:
REMARK  status: ('A' for Active; 'I' for Inactive)
REMARK    1  A    between atoms: C2_3  and  N2_4 
REMARK    2  A    between atoms: N2_4  and  C3_7 
REMARK    3  A    between atoms: C3_7  and  C4_8 
REMARK    4  A    between atoms: C5_9  and  N3_10 
REMARK    5  A    between atoms: N4_14  and  N5_15 
ROOT
HETATM    1  N1  UNL     1     116.723  31.550  24.357  1.00  0.00    -0.196 NA
HETATM    2  C1  UNL     1     116.177  31.023  25.242  1.00  0.00     0.086 C 
HETATM    3  C2  UNL     1     115.481  30.388  26.373  1.00  0.00     0.355 C 
ENDROOT
BRANCH   3   4
HETATM    4  N2  UNL     1     114.230  31.101  26.556  1.00  0.00    -0.061 N 
ATOM      5  H22 UNL     1     114.036  31.751  25.795  1.00  0.00     0.278 HD
ATOM      6  H21 UNL     1     113.416  30.498  26.438  1.00  0.00     0.278 HD
BRANCH   4   7
HETATM    7  C3  UNL     1     114.255  31.751  27.846  1.00  0.00     0.264 C 
BRANCH   7   8
HETATM    8  C4  UNL     1     114.165  33.236  27.746  1.00  0.00     0.183 A 
HETATM    9  C5  UNL     1     114.325  34.068  26.580  1.00  0.00     0.326 A 
HETATM   10  N4  UNL     1     115.497  33.904  27.388  1.00  0.00    -0.271 N 
BRANCH   9  11
HETATM   11  N3  UNL     1     113.590  35.291  26.533  1.00  0.00    -0.055 N 
ATOM     12  H33 UNL     1     113.960  35.877  25.785  1.00  0.00     0.276 HD
ATOM     13  H32 UNL     1     112.650  35.105  26.184  1.00  0.00     0.276 HD
ATOM     14  H31 UNL     1     113.527  35.840  27.391  1.00  0.00     0.276 HD
ENDBRANCH   9  11
BRANCH  10  15
HETATM   15  N5  UNL     1     116.827  34.088  27.721  1.00  0.00    -0.249 N 
HETATM   16  N6  UNL     1     117.507  35.098  27.660  1.00  0.00    -0.331 N 
ATOM     17  H62 UNL     1     117.007  35.917  27.311  1.00  0.00     0.178 HD
ATOM     18  H61 UNL     1     118.487  35.234  27.905  1.00  0.00     0.178 HD
ATOM     19  H5  UNL     1     117.309  33.258  28.067  1.00  0.00     0.207 HD
ENDBRANCH  10  15
ENDBRANCH   7   8
ENDBRANCH   4   7
ENDBRANCH   3   4
TORSDOF 5
ENDMDL
MODEL 3
REMARK VINA RESULT: -4.600053725      5.352      7.510
REMARK  5 active torsions:
REMARK  status: ('A' for Active; 'I' for Inactive)
REMARK    1  A    between atoms: C2_3  and  N2_4 
REMARK    2  A    between atoms: N2_4  and  C3_7 
REMARK    3  A    between atoms: C3_7  and  C4_8 
REMARK    4  A    between atoms: C5_9  and  N3_10 
REMARK    5  A    between atoms: N4_14  and  N5_15 
ROOT
HETATM    1  N1  UNL     1     114.845  30.063  24.984  1.00  0.00    -0.196 NA
HETATM    2  C1  UNL     1     114.489  30.747  25.857  1.00  0.00     0.086 C 
HETATM    3  C2  UNL     1     114.069  31.626  26.962  1.00  0.00     0.355 C 
ENDROOT
BRANCH   3   4
HETATM    4  N2  UNL     1     114.475  32.974  26.609  1.00  0.00    -0.061 N 
ATOM      5  H22 UNL     1     115.345  33.251  27.063  1.00  0.00     0.278 HD
ATOM      6  H21 UNL     1     114.793  33.045  25.642  1.00  0.00     0.278 HD
BRANCH   4   7
HETATM    7  C3  UNL     1     113.386  33.876  26.901  1.00  0.00     0.264 C 
BRANCH   7   8
HETATM    8  C4  UNL     1     113.731  35.302  26.641  1.00  0.00     0.183 A 
HETATM    9  C5  UNL     1     113.452  36.457  27.458  1.00  0.00     0.326 A 
HETATM   10  N4  UNL     1     112.506  36.195  26.414  1.00  0.00    -0.271 N 
BRANCH   9  11
HETATM   11  N3  UNL     1     114.374  37.546  27.405  1.00  0.00    -0.055 N 
ATOM     12  H33 UNL     1     113.906  38.397  27.715  1.00  0.00     0.276 HD
ATOM     13  H32 UNL     1     115.072  37.432  28.139  1.00  0.00     0.276 HD
ATOM     14  H31 UNL     1     114.845  37.725  26.517  1.00  0.00     0.276 HD
ENDBRANCH   9  11
BRANCH  10  15
HETATM   15  N5  UNL     1     111.361  36.422  25.673  1.00  0.00    -0.249 N 
HETATM   16  N6  UNL     1     111.189  37.167  24.723  1.00  0.00    -0.331 N 
ATOM     17  H62 UNL     1     112.021  37.690  24.447  1.00  0.00     0.178 HD
ATOM     18  H61 UNL     1     110.345  37.335  24.177  1.00  0.00     0.178 HD
ATOM     19  H5  UNL     1     110.541  35.890  25.964  1.00  0.00     0.207 HD
ENDBRANCH  10  15
ENDBRANCH   7   8
ENDBRANCH   4   7
ENDBRANCH   3   4
TORSDOF 5
ENDMDL
MODEL 4
REMARK VINA RESULT: -4.563846036      6.118      7.132
REMARK  5 active torsions:
REMARK  status: ('A' for Active; 'I' for Inactive)
REMARK    1  A    between atoms: C2_3  and  N2_4 
REMARK    2  A    between atoms: N2_4  and  C3_7 
REMARK    3  A    between atoms: C3_7  and  C4_8 
REMARK    4  A    between atoms: C5_9  and  N3_10 
REMARK    5  A    between atoms: N4_14  and  N5_15 
ROOT
HETATM    1  N1  UNL     1     113.804  34.693  25.854  1.00  0.00    -0.196 NA
HETATM    2  C1  UNL     1     113.563  35.528  26.630  1.00  0.00     0.086 C 
HETATM    3  C2  UNL     1     113.290  36.582  27.621  1.00  0.00     0.355 C 
ENDROOT
BRANCH   3   4
HETATM    4  N2  UNL     1     114.379  37.537  27.536  1.00  0.00    -0.061 N 
ATOM      5  H22 UNL     1     114.996  37.357  26.743  1.00  0.00     0.278 HD
ATOM      6  H21 UNL     1     114.063  38.467  27.259  1.00  0.00     0.278 HD
BRANCH   4   7
HETATM    7  C3  UNL     1     115.086  37.546  28.796  1.00  0.00     0.264 C 
BRANCH   7   8
HETATM    8  C4  UNL     1     116.321  36.712  28.770  1.00  0.00     0.183 A 
HETATM    9  C5  UNL     1     116.470  35.316  29.097  1.00  0.00     0.326 A 
HETATM   10  N4  UNL     1     116.763  36.234  30.158  1.00  0.00    -0.271 N 
BRANCH   9  11
HETATM   11  N3  UNL     1     117.485  34.579  28.416  1.00  0.00    -0.055 N 
ATOM     12  H33 UNL     1     118.189  34.277  29.088  1.00  0.00     0.276 HD
ATOM     13  H32 UNL     1     117.106  33.681  28.118  1.00  0.00     0.276 HD
ATOM     14  H31 UNL     1     117.946  35.028  27.624  1.00  0.00     0.276 HD
ENDBRANCH   9  11
BRANCH  10  15
HETATM   15  N5  UNL     1     117.128  36.590  31.443  1.00  0.00    -0.249 N 
HETATM   16  N6  UNL     1     116.471  37.143  32.309  1.00  0.00    -0.331 N 
ATOM     17  H62 UNL     1     115.516  37.368  32.028  1.00  0.00     0.178 HD
ATOM     18  H61 UNL     1     116.740  37.406  33.257  1.00  0.00     0.178 HD
ATOM     19  H5  UNL     1     118.086  36.357  31.705  1.00  0.00     0.207 HD
ENDBRANCH  10  15
ENDBRANCH   7   8
ENDBRANCH   4   7
ENDBRANCH   3   4
TORSDOF 5
ENDMDL
MODEL 5
REMARK VINA RESULT: -4.556745496      5.928      7.042
REMARK  5 active torsions:
REMARK  status: ('A' for Active; 'I' for Inactive)
REMARK    1  A    between atoms: C2_3  and  N2_4 
REMARK    2  A    between atoms: N2_4  and  C3_7 
REMARK    3  A    between atoms: C3_7  and  C4_8 
REMARK    4  A    between atoms: C5_9  and  N3_10 
REMARK    5  A    between atoms: N4_14  and  N5_15 
ROOT
HETATM    1  N1  UNL     1     114.048  34.419  25.900  1.00  0.00    -0.196 NA
HETATM    2  C1  UNL     1     113.425  35.350  26.219  1.00  0.00     0.086 C 
HETATM    3  C2  UNL     1     112.632  36.513  26.653  1.00  0.00     0.355 C 
ENDROOT
BRANCH   3   4
HETATM    4  N2  UNL     1     113.104  36.878  27.976  1.00  0.00    -0.061 N 
ATOM      5  H22 UNL     1     112.555  37.629  28.394  1.00  0.00     0.278 HD
ATOM      6  H21 UNL     1     112.910  36.158  28.672  1.00  0.00     0.278 HD
BRANCH   4   7
HETATM    7  C3  UNL     1     114.509  37.201  27.892  1.00  0.00     0.264 C 
BRANCH   7   8
HETATM    8  C4  UNL     1     115.320  36.531  28.949  1.00  0.00     0.183 A 
HETATM    9  C5  UNL     1     116.679  36.805  29.346  1.00  0.00     0.326 A 
HETATM   10  N4  UNL     1     116.514  35.745  28.395  1.00  0.00    -0.271 N 
BRANCH   9  11
HETATM   11  N3  UNL     1     117.032  36.566  30.708  1.00  0.00    -0.055 N 
ATOM     12  H33 UNL     1     116.206  36.259  31.221  1.00  0.00     0.276 HD
ATOM     13  H32 UNL     1     117.614  35.730  30.764  1.00  0.00     0.276 HD
ATOM     14  H31 UNL     1     117.484  37.324  31.221  1.00  0.00     0.276 HD
ENDBRANCH   9  11
BRANCH  10  15
HETATM   15  N5  UNL     1     116.948  34.746  27.544  1.00  0.00    -0.249 N 
HETATM   16  N6  UNL     1     116.551  33.598  27.433  1.00  0.00    -0.331 N 
ATOM     17  H62 UNL     1     115.789  33.357  28.067  1.00  0.00     0.178 HD
ATOM     18  H61 UNL     1     116.871  32.861  26.805  1.00  0.00     0.178 HD
ATOM     19  H5  UNL     1     117.710  35.006  26.918  1.00  0.00     0.207 HD
ENDBRANCH  10  15
ENDBRANCH   7   8
ENDBRANCH   4   7
ENDBRANCH   3   4
TORSDOF 5
ENDMDL
