MODEL 1
REMARK VINA RESULT: -4.268089421      0.000      0.000
REMARK  5 active torsions:
REMARK  status: ('A' for Active; 'I' for Inactive)
REMARK    1  A    between atoms: N1_1  and  C1_5 
REMARK    2  A    between atoms: C1_5  and  C2_6 
REMARK    3  A    between atoms: C2_6  and  N2_7 
REMARK    4  A    between atoms: C4_9  and  N3_10 
REMARK    5  A    between atoms: N3_10  and  N4_11 
ROOT
HETATM    1  N2  UNL     1     113.998  29.990  27.639  1.00  0.00    -0.231 NA
HETATM    2  C3  UNL     1     114.241  31.418  27.754  1.00  0.00     0.133 C 
HETATM    3  C4  UNL     1     114.211  31.860  26.328  1.00  0.00     0.129 C 
HETATM    4  C5  UNL     1     114.810  30.658  25.609  1.00  0.00     0.153 C 
HETATM    5  N5  UNL     1     114.833  29.593  26.599  1.00  0.00    -0.163 NA
ENDROOT
BRANCH   1   6
HETATM    6  C2  UNL     1     114.420  29.336  28.853  1.00  0.00     0.137 C 
BRANCH   6   7
HETATM    7  C1  UNL     1     115.694  29.934  29.400  1.00  0.00     0.245 C 
BRANCH   7   8
HETATM    8  N1  UNL     1     116.264  29.042  30.389  1.00  0.00    -0.078 N 
ATOM      9  H13 UNL     1     116.370  29.492  31.298  1.00  0.00     0.274 HD
ATOM     10  H12 UNL     1     115.613  28.307  30.665  1.00  0.00     0.274 HD
ATOM     11  H11 UNL     1     117.146  28.664  30.041  1.00  0.00     0.274 HD
ENDBRANCH   7   8
ENDBRANCH   6   7
ENDBRANCH   1   6
BRANCH   3  12
HETATM   12  N3  UNL     1     114.979  33.059  26.083  1.00  0.00    -0.141 NA
BRANCH  12  13
HETATM   13  N4  UNL     1     116.322  32.748  26.090  1.00  0.00    -0.348 N 
ATOM     14  H42 UNL     1     117.057  33.364  26.440  1.00  0.00     0.172 HD
ATOM     15  H41 UNL     1     116.454  31.818  25.693  1.00  0.00     0.172 HD
ENDBRANCH  12  13
ENDBRANCH   3  12
TORSDOF 5
ENDMDL
MODEL 2
REMARK VINA RESULT: -4.099144412      0.929      1.158
REMARK  5 active torsions:
REMARK  status: ('A' for Active; 'I' for Inactive)
REMARK    1  A    between atoms: N1_1  and  C1_5 
REMARK    2  A    between atoms: C1_5  and  C2_6 
REMARK    3  A    between atoms: C2_6  and  N2_7 
REMARK    4  A    between atoms: C4_9  and  N3_10 
REMARK    5  A    between atoms: N3_10  and  N4_11 
ROOT
HETATM    1  N2  UNL     1     114.130  29.972  27.737  1.00  0.00    -0.231 NA
HETATM    2  C3  UNL     1     114.260  31.417  27.808  1.00  0.00     0.133 C 
HETATM    3  C4  UNL     1     114.214  31.812  26.369  1.00  0.00     0.129 C 
HETATM    4  C5  UNL     1     114.915  30.638  25.695  1.00  0.00     0.153 C 
HETATM    5  N5  UNL     1     115.007  29.610  26.719  1.00  0.00    -0.163 NA
ENDROOT
BRANCH   1   6
HETATM    6  C2  UNL     1     114.587  29.391  28.976  1.00  0.00     0.137 C 
BRANCH   6   7
HETATM    7  C1  UNL     1     113.605  28.379  29.516  1.00  0.00     0.245 C 
BRANCH   7   8
HETATM    8  N1  UNL     1     114.302  27.434  30.367  1.00  0.00    -0.078 N 
ATOM      9  H13 UNL     1     115.310  27.588  30.369  1.00  0.00     0.274 HD
ATOM     10  H12 UNL     1     114.125  27.605  31.357  1.00  0.00     0.274 HD
ATOM     11  H11 UNL     1     114.058  26.482  30.091  1.00  0.00     0.274 HD
ENDBRANCH   7   8
ENDBRANCH   6   7
ENDBRANCH   1   6
BRANCH   3  12
HETATM   12  N3  UNL     1     114.890  33.059  26.095  1.00  0.00    -0.141 NA
BRANCH  12  13
HETATM   13  N4  UNL     1     116.252  32.867  26.179  1.00  0.00    -0.348 N 
ATOM     14  H42 UNL     1     116.900  33.508  26.638  1.00  0.00     0.172 HD
ATOM     15  H41 UNL     1     116.498  31.993  25.713  1.00  0.00     0.172 HD
ENDBRANCH  12  13
ENDBRANCH   3  12
TORSDOF 5
ENDMDL
MODEL 3
REMARK VINA RESULT: -3.982874606      2.211      3.739
REMARK  5 active torsions:
REMARK  status: ('A' for Active; 'I' for Inactive)
REMARK    1  A    between atoms: N1_1  and  C1_5 
REMARK    2  A    between atoms: C1_5  and  C2_6 
REMARK    3  A    between atoms: C2_6  and  N2_7 
REMARK    4  A    between atoms: C4_9  and  N3_10 
REMARK    5  A    between atoms: N3_10  and  N4_11 
ROOT
HETATM    1  N2  UNL     1     114.798  32.622  27.459  1.00  0.00    -0.231 NA
HETATM    2  C3  UNL     1     115.043  31.920  26.211  1.00  0.00     0.133 C 
HETATM    3  C4  UNL     1     115.164  30.502  26.664  1.00  0.00     0.129 C 
HETATM    4  C5  UNL     1     115.822  30.659  28.029  1.00  0.00     0.153 C 
HETATM    5  N5  UNL     1     115.731  32.078  28.335  1.00  0.00    -0.163 NA
ENDROOT
BRANCH   1   6
HETATM    6  C2  UNL     1     115.086  34.024  27.280  1.00  0.00     0.137 C 
BRANCH   6   7
HETATM    7  C1  UNL     1     116.068  34.531  28.309  1.00  0.00     0.245 C 
BRANCH   7   8
HETATM    8  N1  UNL     1     117.331  34.835  27.667  1.00  0.00    -0.078 N 
ATOM      9  H13 UNL     1     118.129  34.623  28.267  1.00  0.00     0.274 HD
ATOM     10  H12 UNL     1     117.542  34.186  26.909  1.00  0.00     0.274 HD
ATOM     11  H11 UNL     1     117.331  35.806  27.355  1.00  0.00     0.274 HD
ENDBRANCH   7   8
ENDBRANCH   6   7
ENDBRANCH   1   6
BRANCH   3  12
HETATM   12  N3  UNL     1     115.966  29.685  25.782  1.00  0.00    -0.141 NA
BRANCH  12  13
HETATM   13  N4  UNL     1     117.217  30.249  25.651  1.00  0.00    -0.348 N 
ATOM     14  H42 UNL     1     117.461  30.964  24.966  1.00  0.00     0.172 HD
ATOM     15  H41 UNL     1     117.845  29.837  26.341  1.00  0.00     0.172 HD
ENDBRANCH  12  13
ENDBRANCH   3  12
TORSDOF 5
ENDMDL
MODEL 4
REMARK VINA RESULT: -3.980724275      4.307      5.477
REMARK  5 active torsions:
REMARK  status: ('A' for Active; 'I' for Inactive)
REMARK    1  A    between atoms: N1_1  and  C1_5 
REMARK    2  A    between atoms: C1_5  and  C2_6 
REMARK    3  A    between atoms: C2_6  and  N2_7 
REMARK    4  A    between atoms: C4_9  and  N3_10 
REMARK    5  A    between atoms: N3_10  and  N4_11 
ROOT
HETATM    1  N2  UNL     1     114.596  34.991  26.584  1.00  0.00    -0.231 NA
HETATM    2  C3  UNL     1     113.201  34.658  26.811  1.00  0.00     0.133 C 
HETATM    3  C4  UNL     1     112.536  35.991  26.712  1.00  0.00     0.129 C 
HETATM    4  C5  UNL     1     113.594  36.919  27.296  1.00  0.00     0.153 C 
HETATM    5  N5  UNL     1     114.803  36.115  27.378  1.00  0.00    -0.163 NA
ENDROOT
BRANCH   1   6
HETATM    6  C2  UNL     1     115.428  33.916  27.069  1.00  0.00     0.137 C 
BRANCH   6   7
HETATM    7  C1  UNL     1     116.288  34.352  28.230  1.00  0.00     0.245 C 
BRANCH   7   8
HETATM    8  N1  UNL     1     117.510  34.950  27.732  1.00  0.00    -0.078 N 
ATOM      9  H13 UNL     1     118.331  34.384  27.945  1.00  0.00     0.274 HD
ATOM     10  H12 UNL     1     117.568  34.915  26.714  1.00  0.00     0.274 HD
ATOM     11  H11 UNL     1     117.595  35.902  28.089  1.00  0.00     0.274 HD
ENDBRANCH   7   8
ENDBRANCH   6   7
ENDBRANCH   1   6
BRANCH   3  12
HETATM   12  N3  UNL     1     111.297  36.070  27.451  1.00  0.00    -0.141 NA
BRANCH  12  13
HETATM   13  N4  UNL     1     111.556  35.895  28.794  1.00  0.00    -0.348 N 
ATOM     14  H42 UNL     1     110.839  35.812  29.515  1.00  0.00     0.172 HD
ATOM     15  H41 UNL     1     112.565  35.864  28.941  1.00  0.00     0.172 HD
ENDBRANCH  12  13
ENDBRANCH   3  12
TORSDOF 5
ENDMDL
MODEL 5
REMARK VINA RESULT: -3.904511614      1.160      4.319
REMARK  5 active torsions:
REMARK  status: ('A' for Active; 'I' for Inactive)
REMARK    1  A    between atoms: N1_1  and  C1_5 
REMARK    2  A    between atoms: C1_5  and  C2_6 
REMARK    3  A    between atoms: C2_6  and  N2_7 
REMARK    4  A    between atoms: C4_9  and  N3_10 
REMARK    5  A    between atoms: N3_10  and  N4_11 
ROOT
HETATM    1  N2  UNL     1     115.315  29.711  27.551  1.00  0.00    -0.231 NA
HETATM    2  C3  UNL     1     115.960  30.436  28.632  1.00  0.00     0.133 C 
HETATM    3  C4  UNL     1     115.838  29.480  29.772  1.00  0.00     0.129 C 
HETATM    4  C5  UNL     1     114.496  28.816  29.489  1.00  0.00     0.153 C 
HETATM    5  N5  UNL     1     114.153  29.212  28.133  1.00  0.00    -0.163 NA
ENDROOT
BRANCH   1   6
HETATM    6  C2  UNL     1     114.953  30.637  26.506  1.00  0.00     0.137 C 
BRANCH   6   7
HETATM    7  C1  UNL     1     116.122  30.953  25.605  1.00  0.00     0.245 C 
BRANCH   7   8
HETATM    8  N1  UNL     1     116.391  32.377  25.640  1.00  0.00    -0.078 N 
ATOM      9  H13 UNL     1     115.591  32.927  25.328  1.00  0.00     0.274 HD
ATOM     10  H12 UNL     1     116.451  32.734  26.594  1.00  0.00     0.274 HD
ATOM     11  H11 UNL     1     117.232  32.579  25.099  1.00  0.00     0.274 HD
ENDBRANCH   7   8
ENDBRANCH   6   7
ENDBRANCH   1   6
BRANCH   3  12
HETATM   12  N3  UNL     1     115.847  30.124  31.065  1.00  0.00    -0.141 NA
BRANCH  12  13
HETATM   13  N4  UNL     1     116.320  29.241  32.011  1.00  0.00    -0.348 N 
ATOM     14  H42 UNL     1     117.181  28.701  31.920  1.00  0.00     0.172 HD
ATOM     15  H41 UNL     1     115.676  29.218  32.802  1.00  0.00     0.172 HD
ENDBRANCH  12  13
ENDBRANCH   3  12
TORSDOF 5
ENDMDL
