MODEL 1
REMARK VINA RESULT: -8.031910394      0.000      0.000
REMARK  3 active torsions:
REMARK  status: ('A' for Active; 'I' for Inactive)
REMARK    1  A    between atoms: N1_1  and  C1_4 
REMARK    2  A    between atoms: C3_8  and  C4_9 
REMARK    3  A    between atoms: C10_18  and  C11_19 
ROOT
HETATM    1  C1  UNL     1     -23.600   3.439  -5.121  1.00  0.00     0.129 A 
HETATM    2  N2  UNL     1     -23.376   2.122  -5.013  1.00  0.00    -0.349 N 
ATOM      3  H2  UNL     1     -22.433   1.749  -5.125  1.00  0.00     0.167 HD
HETATM    4  C2  UNL     1     -24.428   1.284  -4.752  1.00  0.00     0.120 A 
HETATM    5  C3  UNL     1     -25.695   1.778  -4.602  1.00  0.00     0.058 A 
HETATM    6  N3  UNL     1     -25.858   3.117  -4.721  1.00  0.00    -0.349 N 
ATOM      7  H3  UNL     1     -26.798   3.498  -4.611  1.00  0.00     0.166 HD
HETATM    8  C10 UNL     1     -24.861   3.968  -4.975  1.00  0.00     0.111 A 
ENDROOT
BRANCH   5   9
HETATM    9  C4  UNL     1     -26.861   0.933  -4.320  1.00  0.00    -0.008 A 
HETATM   10  C5  UNL     1     -26.703  -0.459  -4.323  1.00  0.00     0.017 A 
HETATM   11  C6  UNL     1     -27.760  -1.282  -4.067  1.00  0.00     0.043 A 
HETATM   12  C7  UNL     1     -29.007  -0.781  -3.798  1.00  0.00     0.116 A 
HETATM   13  F1  UNL     1     -30.078  -1.601  -3.538  1.00  0.00    -0.206 F 
HETATM   14  C8  UNL     1     -29.139   0.590  -3.800  1.00  0.00     0.043 A 
HETATM   15  C9  UNL     1     -28.097   1.451  -4.055  1.00  0.00     0.017 A 
ENDBRANCH   5   9
BRANCH   8  16
HETATM   16  C11 UNL     1     -25.097   5.415  -5.095  1.00  0.00     0.105 A 
HETATM   17  C12 UNL     1     -26.133   6.082  -4.472  1.00  0.00     0.041 A 
HETATM   18  C13 UNL     1     -26.046   7.419  -4.807  1.00  0.00     0.027 A 
HETATM   19  C14 UNL     1     -24.938   7.502  -5.637  1.00  0.00     0.142 A 
HETATM   20  O1  UNL     1     -24.428   6.297  -5.767  1.00  0.00    -0.320 OA
ENDBRANCH   8  16
BRANCH   1  21
HETATM   21  N1  UNL     1     -22.579   4.205  -5.370  1.00  0.00    -0.384 N 
ATOM     22  H12 UNL     1     -22.058   4.119  -6.243  1.00  0.00     0.157 HD
ATOM     23  H11 UNL     1     -22.321   4.892  -4.661  1.00  0.00     0.157 HD
ENDBRANCH   1  21
TORSDOF 3
ENDMDL
MODEL 2
REMARK VINA RESULT: -7.886913994      0.135      1.091
REMARK  3 active torsions:
REMARK  status: ('A' for Active; 'I' for Inactive)
REMARK    1  A    between atoms: N1_1  and  C1_4 
REMARK    2  A    between atoms: C3_8  and  C4_9 
REMARK    3  A    between atoms: C10_18  and  C11_19 
ROOT
HETATM    1  C1  UNL     1     -23.524   3.544  -5.166  1.00  0.00     0.129 A 
HETATM    2  N2  UNL     1     -23.264   2.233  -5.064  1.00  0.00    -0.349 N 
ATOM      3  H2  UNL     1     -22.312   1.886  -5.187  1.00  0.00     0.167 HD
HETATM    4  C2  UNL     1     -24.290   1.366  -4.794  1.00  0.00     0.120 A 
HETATM    5  C3  UNL     1     -25.568   1.826  -4.628  1.00  0.00     0.058 A 
HETATM    6  N3  UNL     1     -25.768   3.160  -4.742  1.00  0.00    -0.349 N 
ATOM      7  H3  UNL     1     -26.716   3.516  -4.620  1.00  0.00     0.166 HD
HETATM    8  C10 UNL     1     -24.797   4.039  -5.004  1.00  0.00     0.111 A 
ENDROOT
BRANCH   5   9
HETATM    9  C4  UNL     1     -26.708   0.949  -4.337  1.00  0.00    -0.008 A 
HETATM   10  C5  UNL     1     -27.958   1.528  -4.086  1.00  0.00     0.017 A 
HETATM   11  C6  UNL     1     -29.044   0.751  -3.810  1.00  0.00     0.043 A 
HETATM   12  C7  UNL     1     -28.955  -0.616  -3.771  1.00  0.00     0.116 A 
HETATM   13  F1  UNL     1     -30.042  -1.408  -3.496  1.00  0.00    -0.206 F 
HETATM   14  C8  UNL     1     -27.715  -1.164  -4.022  1.00  0.00     0.043 A 
HETATM   15  C9  UNL     1     -26.598  -0.412  -4.302  1.00  0.00     0.017 A 
ENDBRANCH   5   9
BRANCH   8  16
HETATM   16  C11 UNL     1     -25.073   5.479  -5.117  1.00  0.00     0.105 A 
HETATM   17  C12 UNL     1     -26.131   6.113  -4.496  1.00  0.00     0.041 A 
HETATM   18  C13 UNL     1     -26.079   7.454  -4.822  1.00  0.00     0.027 A 
HETATM   19  C14 UNL     1     -24.970   7.573  -5.645  1.00  0.00     0.142 A 
HETATM   20  O1  UNL     1     -24.425   6.384  -5.779  1.00  0.00    -0.320 OA
ENDBRANCH   8  16
BRANCH   1  21
HETATM   21  N1  UNL     1     -22.526   4.338  -5.423  1.00  0.00    -0.384 N 
ATOM     22  H12 UNL     1     -21.983   4.237  -6.280  1.00  0.00     0.157 HD
ATOM     23  H11 UNL     1     -22.311   5.061  -4.737  1.00  0.00     0.157 HD
ENDBRANCH   1  21
TORSDOF 3
ENDMDL
MODEL 3
REMARK VINA RESULT: -6.722628575      3.873      6.583
REMARK  3 active torsions:
REMARK  status: ('A' for Active; 'I' for Inactive)
REMARK    1  A    between atoms: N1_1  and  C1_4 
REMARK    2  A    between atoms: C3_8  and  C4_9 
REMARK    3  A    between atoms: C10_18  and  C11_19 
ROOT
HETATM    1  C1  UNL     1     -27.463   0.278  -3.680  1.00  0.00     0.129 A 
HETATM    2  N2  UNL     1     -26.508   0.757  -2.870  1.00  0.00    -0.349 N 
ATOM      3  H2  UNL     1     -26.211   0.224  -2.052  1.00  0.00     0.167 HD
HETATM    4  C2  UNL     1     -25.936   1.969  -3.154  1.00  0.00     0.120 A 
HETATM    5  C3  UNL     1     -26.330   2.689  -4.249  1.00  0.00     0.058 A 
HETATM    6  N3  UNL     1     -27.298   2.153  -5.029  1.00  0.00    -0.349 N 
ATOM      7  H3  UNL     1     -27.600   2.679  -5.849  1.00  0.00     0.166 HD
HETATM    8  C10 UNL     1     -27.881   0.975  -4.789  1.00  0.00     0.111 A 
ENDROOT
BRANCH   5   9
HETATM    9  C4  UNL     1     -25.756   3.991  -4.605  1.00  0.00    -0.008 A 
HETATM   10  C5  UNL     1     -24.487   4.031  -5.197  1.00  0.00     0.017 A 
HETATM   11  C6  UNL     1     -23.916   5.220  -5.545  1.00  0.00     0.043 A 
HETATM   12  C7  UNL     1     -24.559   6.411  -5.331  1.00  0.00     0.116 A 
HETATM   13  F1  UNL     1     -23.993   7.614  -5.678  1.00  0.00    -0.206 F 
HETATM   14  C8  UNL     1     -25.806   6.348  -4.749  1.00  0.00     0.043 A 
HETATM   15  C9  UNL     1     -26.413   5.168  -4.384  1.00  0.00     0.017 A 
ENDBRANCH   5   9
BRANCH   8  16
HETATM   16  C11 UNL     1     -28.929   0.442  -5.672  1.00  0.00     0.105 A 
HETATM   17  C12 UNL     1     -28.985   0.676  -7.032  1.00  0.00     0.041 A 
HETATM   18  C13 UNL     1     -30.095   0.025  -7.534  1.00  0.00     0.027 A 
HETATM   19  C14 UNL     1     -30.673  -0.585  -6.432  1.00  0.00     0.142 A 
HETATM   20  O1  UNL     1     -29.945  -0.304  -5.373  1.00  0.00    -0.320 OA
ENDBRANCH   8  16
BRANCH   1  21
HETATM   21  N1  UNL     1     -27.983  -0.876  -3.381  1.00  0.00    -0.384 N 
ATOM     22  H12 UNL     1     -28.641  -1.334  -4.012  1.00  0.00     0.157 HD
ATOM     23  H11 UNL     1     -27.708  -1.302  -2.496  1.00  0.00     0.157 HD
ENDBRANCH   1  21
TORSDOF 3
ENDMDL
MODEL 4
REMARK VINA RESULT: -6.720422612      0.925      1.285
REMARK  3 active torsions:
REMARK  status: ('A' for Active; 'I' for Inactive)
REMARK    1  A    between atoms: N1_1  and  C1_4 
REMARK    2  A    between atoms: C3_8  and  C4_9 
REMARK    3  A    between atoms: C10_18  and  C11_19 
ROOT
HETATM    1  C1  UNL     1     -23.724   3.326  -5.074  1.00  0.00     0.129 A 
HETATM    2  N2  UNL     1     -23.480   2.008  -5.035  1.00  0.00    -0.349 N 
ATOM      3  H2  UNL     1     -22.525   1.658  -5.112  1.00  0.00     0.167 HD
HETATM    4  C2  UNL     1     -24.529   1.138  -4.891  1.00  0.00     0.120 A 
HETATM    5  C3  UNL     1     -25.813   1.601  -4.789  1.00  0.00     0.058 A 
HETATM    6  N3  UNL     1     -25.994   2.943  -4.835  1.00  0.00    -0.349 N 
ATOM      7  H3  UNL     1     -26.947   3.301  -4.759  1.00  0.00     0.166 HD
HETATM    8  C10 UNL     1     -25.001   3.824  -4.974  1.00  0.00     0.111 A 
ENDROOT
BRANCH   5   9
HETATM    9  C4  UNL     1     -26.976   0.722  -4.633  1.00  0.00    -0.008 A 
HETATM   10  C5  UNL     1     -27.951   0.707  -5.639  1.00  0.00     0.017 A 
HETATM   11  C6  UNL     1     -29.049  -0.095  -5.536  1.00  0.00     0.043 A 
HETATM   12  C7  UNL     1     -29.238  -0.912  -4.451  1.00  0.00     0.116 A 
HETATM   13  F1  UNL     1     -30.340  -1.724  -4.337  1.00  0.00    -0.206 F 
HETATM   14  C8  UNL     1     -28.267  -0.881  -3.474  1.00  0.00     0.043 A 
HETATM   15  C9  UNL     1     -27.147  -0.085  -3.544  1.00  0.00     0.017 A 
ENDBRANCH   5   9
BRANCH   8  16
HETATM   16  C11 UNL     1     -25.259   5.272  -5.017  1.00  0.00     0.105 A 
HETATM   17  C12 UNL     1     -24.440   6.182  -5.655  1.00  0.00     0.041 A 
HETATM   18  C13 UNL     1     -24.988   7.440  -5.492  1.00  0.00     0.027 A 
HETATM   19  C14 UNL     1     -26.136   7.229  -4.746  1.00  0.00     0.142 A 
HETATM   20  O1  UNL     1     -26.239   5.941  -4.500  1.00  0.00    -0.320 OA
ENDBRANCH   8  16
BRANCH   1  21
HETATM   21  N1  UNL     1     -22.705   4.122  -5.211  1.00  0.00    -0.384 N 
ATOM     22  H12 UNL     1     -22.167   4.142  -6.078  1.00  0.00     0.157 HD
ATOM     23  H11 UNL     1     -22.467   4.723  -4.422  1.00  0.00     0.157 HD
ENDBRANCH   1  21
TORSDOF 3
ENDMDL
MODEL 5
REMARK VINA RESULT: -6.715215595      2.018      3.133
REMARK  3 active torsions:
REMARK  status: ('A' for Active; 'I' for Inactive)
REMARK    1  A    between atoms: N1_1  and  C1_4 
REMARK    2  A    between atoms: C3_8  and  C4_9 
REMARK    3  A    between atoms: C10_18  and  C11_19 
ROOT
HETATM    1  C1  UNL     1     -26.883   4.599  -4.559  1.00  0.00     0.129 A 
HETATM    2  N2  UNL     1     -28.191   4.418  -4.329  1.00  0.00    -0.349 N 
ATOM      3  H2  UNL     1     -28.810   5.221  -4.217  1.00  0.00     0.167 HD
HETATM    4  C2  UNL     1     -28.686   3.143  -4.248  1.00  0.00     0.120 A 
HETATM    5  C3  UNL     1     -27.861   2.062  -4.396  1.00  0.00     0.058 A 
HETATM    6  N3  UNL     1     -26.549   2.309  -4.626  1.00  0.00    -0.349 N 
ATOM      7  H3  UNL     1     -25.923   1.511  -4.740  1.00  0.00     0.166 HD
HETATM    8  C10 UNL     1     -26.026   3.534  -4.713  1.00  0.00     0.111 A 
ENDROOT
BRANCH   5   9
HETATM    9  C4  UNL     1     -28.329   0.674  -4.320  1.00  0.00    -0.008 A 
HETATM   10  C5  UNL     1     -29.428   0.288  -5.098  1.00  0.00     0.017 A 
HETATM   11  C6  UNL     1     -29.898  -0.991  -5.058  1.00  0.00     0.043 A 
HETATM   12  C7  UNL     1     -29.315  -1.942  -4.261  1.00  0.00     0.116 A 
HETATM   13  F1  UNL     1     -29.779  -3.234  -4.213  1.00  0.00    -0.206 F 
HETATM   14  C8  UNL     1     -28.235  -1.541  -3.505  1.00  0.00     0.043 A 
HETATM   15  C9  UNL     1     -27.735  -0.259  -3.519  1.00  0.00     0.017 A 
ENDBRANCH   5   9
BRANCH   8  16
HETATM   16  C11 UNL     1     -24.592   3.742  -4.965  1.00  0.00     0.105 A 
HETATM   17  C12 UNL     1     -23.680   2.718  -5.122  1.00  0.00     0.041 A 
HETATM   18  C13 UNL     1     -22.437   3.280  -5.341  1.00  0.00     0.027 A 
HETATM   19  C14 UNL     1     -22.658   4.648  -5.304  1.00  0.00     0.142 A 
HETATM   20  O1  UNL     1     -23.938   4.854  -5.080  1.00  0.00    -0.320 OA
ENDBRANCH   8  16
BRANCH   1  21
HETATM   21  N1  UNL     1     -26.447   5.822  -4.631  1.00  0.00    -0.384 N 
ATOM     22  H12 UNL     1     -27.092   6.600  -4.773  1.00  0.00     0.157 HD
ATOM     23  H11 UNL     1     -25.443   5.972  -4.539  1.00  0.00     0.157 HD
ENDBRANCH   1  21
TORSDOF 3
ENDMDL
