MODEL 1
REMARK VINA RESULT: -8.574074296      0.000      0.000
REMARK  4 active torsions:
REMARK  status: ('A' for Active; 'I' for Inactive)
REMARK    1  A    between atoms: C2_2  and  C3_4 
REMARK    2  A    between atoms: C3_4  and  C4_5 
REMARK    3  A    between atoms: C5_7  and  C6_8 
REMARK    4  A    between atoms: C6_8  and  C8_10 
ROOT
HETATM    1  C4  UNL     1      68.638  36.596   0.745  1.00  0.00     0.158 C 
HETATM    2  O1  UNL     1      68.517  37.478   1.782  1.00  0.00    -0.374 OA
HETATM    3  C5  UNL     1      67.287  37.666   2.326  1.00  0.00     0.158 C 
HETATM    4  C9  UNL     1      66.346  36.512   2.066  1.00  0.00     0.201 C 
HETATM    5  O3  UNL     1      66.221  36.279   0.733  1.00  0.00    -0.374 OA
HETATM    6  C10 UNL     1      67.395  36.376  -0.020  1.00  0.00     0.094 C 
HETATM    7  C11 UNL     1      67.371  35.141  -0.879  1.00  0.00     0.024 C 
HETATM    8  C12 UNL     1      68.225  35.165  -2.088  1.00  0.00     0.012 C 
HETATM    9  C13 UNL     1      67.825  36.314  -3.004  1.00  0.00    -0.013 C 
HETATM   10  C14 UNL     1      66.377  36.280  -3.390  1.00  0.00     0.009 C 
HETATM   11  C15 UNL     1      65.516  36.231  -2.156  1.00  0.00    -0.013 C 
HETATM   12  C16 UNL     1      65.916  35.016  -1.367  1.00  0.00     0.012 C 
HETATM   13  C17 UNL     1      65.722  37.509  -1.381  1.00  0.00     0.012 C 
HETATM   14  C18 UNL     1      67.173  37.564  -0.948  1.00  0.00     0.024 C 
HETATM   15  C19 UNL     1      68.036  37.569  -2.159  1.00  0.00     0.012 C 
ENDROOT
BRANCH   1  16
HETATM   16  C3  UNL     1      69.419  35.356   1.095  1.00  0.00     0.050 C 
BRANCH  16  17
HETATM   17  C2  UNL     1      70.907  35.511   0.949  1.00  0.00     0.057 C 
HETATM   18  C1  UNL     1      71.424  34.881  -0.322  1.00  0.00     0.022 C 
HETATM   19  S1  UNL     1      71.818  34.759   2.316  1.00  0.00    -0.093 SA
ENDBRANCH  16  17
ENDBRANCH   1  16
BRANCH   3  20
HETATM   20  C6  UNL     1      67.321  37.992   3.804  1.00  0.00     0.102 C 
HETATM   21  C7  UNL     1      65.867  37.957   4.294  1.00  0.00     0.022 C 
BRANCH  20  22
HETATM   22  C8  UNL     1      68.074  36.958   4.545  1.00  0.00     0.237 C 
HETATM   23  N1  UNL     1      69.483  36.841   4.483  1.00  0.00    -0.062 NA
HETATM   24  O2  UNL     1      67.441  36.150   5.260  1.00  0.00    -0.276 OA
ENDBRANCH  20  22
ENDBRANCH   3  20
TORSDOF 4
ENDMDL
MODEL 2
REMARK VINA RESULT: -8.038895878      2.129      2.706
REMARK  4 active torsions:
REMARK  status: ('A' for Active; 'I' for Inactive)
REMARK    1  A    between atoms: C2_2  and  C3_4 
REMARK    2  A    between atoms: C3_4  and  C4_5 
REMARK    3  A    between atoms: C5_7  and  C6_8 
REMARK    4  A    between atoms: C6_8  and  C8_10 
ROOT
HETATM    1  C4  UNL     1      69.809  36.259  -1.209  1.00  0.00     0.158 C 
HETATM    2  O1  UNL     1      70.035  36.518   0.114  1.00  0.00    -0.374 OA
HETATM    3  C5  UNL     1      69.045  36.241   1.001  1.00  0.00     0.158 C 
HETATM    4  C9  UNL     1      68.057  35.221   0.482  1.00  0.00     0.201 C 
HETATM    5  O3  UNL     1      67.510  35.631  -0.694  1.00  0.00    -0.374 OA
HETATM    6  C10 UNL     1      68.385  36.246  -1.595  1.00  0.00     0.094 C 
HETATM    7  C11 UNL     1      68.074  35.575  -2.906  1.00  0.00     0.024 C 
HETATM    8  C12 UNL     1      68.498  36.295  -4.129  1.00  0.00     0.012 C 
HETATM    9  C13 UNL     1      67.841  37.666  -4.198  1.00  0.00    -0.013 C 
HETATM   10  C14 UNL     1      66.345  37.604  -4.124  1.00  0.00     0.009 C 
HETATM   11  C15 UNL     1      65.921  36.850  -2.892  1.00  0.00    -0.013 C 
HETATM   12  C16 UNL     1      66.538  35.482  -2.958  1.00  0.00     0.012 C 
HETATM   13  C17 UNL     1      66.378  37.625  -1.680  1.00  0.00     0.012 C 
HETATM   14  C18 UNL     1      67.892  37.683  -1.707  1.00  0.00     0.024 C 
HETATM   15  C19 UNL     1      68.324  38.388  -2.943  1.00  0.00     0.012 C 
ENDROOT
BRANCH   1  16
HETATM   16  C3  UNL     1      70.647  35.133  -1.756  1.00  0.00     0.050 C 
BRANCH  16  17
HETATM   17  C2  UNL     1      72.002  35.563  -2.244  1.00  0.00     0.057 C 
HETATM   18  C1  UNL     1      73.078  35.338  -1.209  1.00  0.00     0.022 C 
HETATM   19  S1  UNL     1      72.055  37.314  -2.684  1.00  0.00    -0.093 SA
ENDBRANCH  16  17
ENDBRANCH   1  16
BRANCH   3  20
HETATM   20  C6  UNL     1      69.552  35.830   2.367  1.00  0.00     0.102 C 
HETATM   21  C7  UNL     1      71.028  35.449   2.190  1.00  0.00     0.022 C 
BRANCH  20  22
HETATM   22  C8  UNL     1      69.489  36.970   3.308  1.00  0.00     0.237 C 
HETATM   23  N1  UNL     1      69.172  38.287   2.898  1.00  0.00    -0.062 NA
HETATM   24  O2  UNL     1      69.724  36.764   4.519  1.00  0.00    -0.276 OA
ENDBRANCH  20  22
ENDBRANCH   3  20
TORSDOF 4
ENDMDL
MODEL 3
REMARK VINA RESULT: -8.019917354      2.064      4.185
REMARK  4 active torsions:
REMARK  status: ('A' for Active; 'I' for Inactive)
REMARK    1  A    between atoms: C2_2  and  C3_4 
REMARK    2  A    between atoms: C3_4  and  C4_5 
REMARK    3  A    between atoms: C5_7  and  C6_8 
REMARK    4  A    between atoms: C6_8  and  C8_10 
ROOT
HETATM    1  C4  UNL     1      68.296  36.439   0.164  1.00  0.00     0.158 C 
HETATM    2  O1  UNL     1      67.386  36.445   1.184  1.00  0.00    -0.374 OA
HETATM    3  C5  UNL     1      67.851  36.498   2.459  1.00  0.00     0.158 C 
HETATM    4  C9  UNL     1      69.250  37.062   2.553  1.00  0.00     0.201 C 
HETATM    5  O3  UNL     1      70.114  36.345   1.786  1.00  0.00    -0.374 OA
HETATM    6  C10 UNL     1      69.632  35.936   0.538  1.00  0.00     0.094 C 
HETATM    7  C11 UNL     1      70.747  36.290  -0.408  1.00  0.00     0.024 C 
HETATM    8  C12 UNL     1      70.746  35.594  -1.715  1.00  0.00     0.012 C 
HETATM    9  C13 UNL     1      70.830  34.086  -1.519  1.00  0.00    -0.013 C 
HETATM   10  C14 UNL     1      72.018  33.666  -0.707  1.00  0.00     0.009 C 
HETATM   11  C15 UNL     1      72.028  34.396   0.610  1.00  0.00    -0.013 C 
HETATM   12  C16 UNL     1      72.040  35.870   0.315  1.00  0.00     0.012 C 
HETATM   13  C17 UNL     1      70.806  33.979   1.392  1.00  0.00     0.012 C 
HETATM   14  C18 UNL     1      69.581  34.415   0.613  1.00  0.00     0.024 C 
HETATM   15  C19 UNL     1      69.585  33.734  -0.709  1.00  0.00     0.012 C 
ENDROOT
BRANCH   1  16
HETATM   16  C3  UNL     1      68.278  37.695  -0.668  1.00  0.00     0.050 C 
BRANCH  16  17
HETATM   17  C2  UNL     1      67.445  37.589  -1.915  1.00  0.00     0.057 C 
HETATM   18  C1  UNL     1      67.146  36.155  -2.280  1.00  0.00     0.022 C 
HETATM   19  S1  UNL     1      68.248  38.339  -3.349  1.00  0.00    -0.093 SA
ENDBRANCH  16  17
ENDBRANCH   1  16
BRANCH   3  20
HETATM   20  C6  UNL     1      66.927  37.228   3.411  1.00  0.00     0.102 C 
HETATM   21  C7  UNL     1      65.496  36.836   3.018  1.00  0.00     0.022 C 
BRANCH  20  22
HETATM   22  C8  UNL     1      67.154  36.777   4.801  1.00  0.00     0.237 C 
HETATM   23  N1  UNL     1      68.102  37.384   5.660  1.00  0.00    -0.062 NA
HETATM   24  O2  UNL     1      66.480  35.819   5.241  1.00  0.00    -0.276 OA
ENDBRANCH  20  22
ENDBRANCH   3  20
TORSDOF 4
ENDMDL
MODEL 4
REMARK VINA RESULT: -7.971119008      1.104      1.133
REMARK  4 active torsions:
REMARK  status: ('A' for Active; 'I' for Inactive)
REMARK    1  A    between atoms: C2_2  and  C3_4 
REMARK    2  A    between atoms: C3_4  and  C4_5 
REMARK    3  A    between atoms: C5_7  and  C6_8 
REMARK    4  A    between atoms: C6_8  and  C8_10 
ROOT
HETATM    1  C4  UNL     1      68.951  36.419   0.218  1.00  0.00     0.158 C 
HETATM    2  O1  UNL     1      68.669  37.232   1.280  1.00  0.00    -0.374 OA
HETATM    3  C5  UNL     1      67.379  37.320   1.697  1.00  0.00     0.158 C 
HETATM    4  C9  UNL     1      66.543  36.132   1.279  1.00  0.00     0.201 C 
HETATM    5  O3  UNL     1      66.573  35.970  -0.071  1.00  0.00    -0.374 OA
HETATM    6  C10 UNL     1      67.812  36.176  -0.686  1.00  0.00     0.094 C 
HETATM    7  C11 UNL     1      67.953  34.992  -1.606  1.00  0.00     0.024 C 
HETATM    8  C12 UNL     1      68.926  35.133  -2.713  1.00  0.00     0.012 C 
HETATM    9  C13 UNL     1      68.554  36.309  -3.605  1.00  0.00    -0.013 C 
HETATM   10  C14 UNL     1      67.159  36.218  -4.147  1.00  0.00     0.009 C 
HETATM   11  C15 UNL     1      66.178  36.050  -3.017  1.00  0.00    -0.013 C 
HETATM   12  C16 UNL     1      66.568  34.816  -2.253  1.00  0.00     0.012 C 
HETATM   13  C17 UNL     1      66.224  37.291  -2.160  1.00  0.00     0.012 C 
HETATM   14  C18 UNL     1      67.615  37.401  -1.571  1.00  0.00     0.024 C 
HETATM   15  C19 UNL     1      68.598  37.523  -2.680  1.00  0.00     0.012 C 
ENDROOT
BRANCH   1  16
HETATM   16  C3  UNL     1      69.766  35.207   0.587  1.00  0.00     0.050 C 
BRANCH  16  17
HETATM   17  C2  UNL     1      71.223  35.497   0.812  1.00  0.00     0.057 C 
HETATM   18  C1  UNL     1      72.090  34.972  -0.307  1.00  0.00     0.022 C 
HETATM   19  S1  UNL     1      71.845  34.765   2.343  1.00  0.00    -0.093 SA
ENDBRANCH  16  17
ENDBRANCH   1  16
BRANCH   3  20
HETATM   20  C6  UNL     1      67.239  37.562   3.185  1.00  0.00     0.102 C 
HETATM   21  C7  UNL     1      66.457  36.368   3.751  1.00  0.00     0.022 C 
BRANCH  20  22
HETATM   22  C8  UNL     1      68.567  37.582   3.835  1.00  0.00     0.237 C 
HETATM   23  N1  UNL     1      68.896  36.755   4.936  1.00  0.00    -0.062 NA
HETATM   24  O2  UNL     1      69.441  38.362   3.394  1.00  0.00    -0.276 OA
ENDBRANCH  20  22
ENDBRANCH   3  20
TORSDOF 4
ENDMDL
MODEL 5
REMARK VINA RESULT: -7.920545182      1.247      1.482
REMARK  4 active torsions:
REMARK  status: ('A' for Active; 'I' for Inactive)
REMARK    1  A    between atoms: C2_2  and  C3_4 
REMARK    2  A    between atoms: C3_4  and  C4_5 
REMARK    3  A    between atoms: C5_7  and  C6_8 
REMARK    4  A    between atoms: C6_8  and  C8_10 
ROOT
HETATM    1  C4  UNL     1      69.101  36.421   0.041  1.00  0.00     0.158 C 
HETATM    2  O1  UNL     1      68.998  36.961   1.293  1.00  0.00    -0.374 OA
HETATM    3  C5  UNL     1      67.863  36.729   2.001  1.00  0.00     0.158 C 
HETATM    4  C9  UNL     1      67.116  35.501   1.532  1.00  0.00     0.201 C 
HETATM    5  O3  UNL     1      66.814  35.593   0.209  1.00  0.00    -0.374 OA
HETATM    6  C10 UNL     1      67.809  36.135  -0.611  1.00  0.00     0.094 C 
HETATM    7  C11 UNL     1      67.866  35.185  -1.777  1.00  0.00     0.024 C 
HETATM    8  C12 UNL     1      68.487  35.703  -3.017  1.00  0.00     0.012 C 
HETATM    9  C13 UNL     1      67.738  36.930  -3.518  1.00  0.00    -0.013 C 
HETATM   10  C14 UNL     1      66.276  36.678  -3.734  1.00  0.00     0.009 C 
HETATM   11  C15 UNL     1      65.656  36.128  -2.477  1.00  0.00    -0.013 C 
HETATM   12  C16 UNL     1      66.397  34.872  -2.115  1.00  0.00     0.012 C 
HETATM   13  C17 UNL     1      65.754  37.180  -1.400  1.00  0.00     0.012 C 
HETATM   14  C18 UNL     1      67.223  37.441  -1.134  1.00  0.00     0.024 C 
HETATM   15  C19 UNL     1      67.856  37.943  -2.382  1.00  0.00     0.012 C 
ENDROOT
BRANCH   1  16
HETATM   16  C3  UNL     1      70.142  35.336  -0.063  1.00  0.00     0.050 C 
BRANCH  16  17
HETATM   17  C2  UNL     1      71.407  35.630   0.692  1.00  0.00     0.057 C 
HETATM   18  C1  UNL     1      72.635  35.498  -0.177  1.00  0.00     0.022 C 
HETATM   19  S1  UNL     1      71.643  34.526   2.103  1.00  0.00    -0.093 SA
ENDBRANCH  16  17
ENDBRANCH   1  16
BRANCH   3  20
HETATM   20  C6  UNL     1      68.084  36.668   3.497  1.00  0.00     0.102 C 
HETATM   21  C7  UNL     1      69.535  37.106   3.743  1.00  0.00     0.022 C 
BRANCH  20  22
HETATM   22  C8  UNL     1      67.198  37.626   4.192  1.00  0.00     0.237 C 
HETATM   23  N1  UNL     1      65.835  37.799   3.850  1.00  0.00    -0.062 NA
HETATM   24  O2  UNL     1      67.670  38.316   5.124  1.00  0.00    -0.276 OA
ENDBRANCH  20  22
ENDBRANCH   3  20
TORSDOF 4
ENDMDL
