MODEL 1
REMARK VINA RESULT: -7.609346030      0.000      0.000
REMARK  4 active torsions:
REMARK  status: ('A' for Active; 'I' for Inactive)
REMARK    1  A    between atoms: C1_2  and  C2_3 
REMARK       I    between atoms: C1_2  and  N1_11 
REMARK    2  A    between atoms: C2_3  and  O2_4 
REMARK    3  A    between atoms: O2_4  and  C3_5 
REMARK    4  A    between atoms: N1_11  and  C7_13 
ROOT
HETATM    1  O1  UNL     1     -14.457   7.727  -1.893  1.00  0.00    -0.271 OA
HETATM    2  C1  UNL     1     -13.889   7.101  -0.976  1.00  0.00     0.242 C 
HETATM    3  N1  UNL     1     -12.491   7.165  -0.849  1.00  0.00    -0.354 N 
ATOM      4  H1  UNL     1     -12.059   6.641  -0.089  1.00  0.00     0.162 HD
ENDROOT
BRANCH   3   5
HETATM    5  C7  UNL     1     -11.627   7.923  -1.721  1.00  0.00     0.089 C 
HETATM    6  C8  UNL     1     -11.222   7.126  -2.937  1.00  0.00     0.030 C 
HETATM    7  C9  UNL     1      -9.942   7.702  -3.462  1.00  0.00    -0.012 C 
HETATM    8  C10 UNL     1      -8.722   6.979  -2.974  1.00  0.00     0.009 C 
HETATM    9  C14 UNL     1      -9.811   9.172  -3.156  1.00  0.00     0.010 C 
HETATM   10  C11 UNL     1      -8.354   7.334  -1.558  1.00  0.00    -0.013 C 
HETATM   11  C12 UNL     1      -8.148   8.835  -1.407  1.00  0.00     0.010 C 
HETATM   12  C16 UNL     1      -9.572   7.119  -0.678  1.00  0.00     0.011 C 
HETATM   13  C13 UNL     1      -9.569   9.338  -1.658  1.00  0.00    -0.008 C 
HETATM   14  C15 UNL     1     -10.411   8.337  -0.921  1.00  0.00     0.013 C 
ENDBRANCH   3   5
BRANCH   2  15
HETATM   15  C2  UNL     1     -14.692   6.299  -0.035  1.00  0.00     0.279 C 
BRANCH  15  16
HETATM   16  O2  UNL     1     -14.264   4.976  -0.048  1.00  0.00    -0.335 OA
BRANCH  16  17
HETATM   17  C3  UNL     1     -13.412   4.415   0.895  1.00  0.00     0.111 A 
HETATM   18  C4  UNL     1     -12.058   4.233   0.906  1.00  0.00     0.046 A 
HETATM   19  C5  UNL     1     -11.522   3.645   1.987  1.00  0.00     0.030 A 
HETATM   20  C6  UNL     1     -12.376   3.277   2.991  1.00  0.00     0.054 A 
HETATM   21 BR1  UNL     1     -11.946   2.423   4.664  1.00  0.00    -0.043 Br
HETATM   22  S1  UNL     1     -13.898   3.764   2.390  1.00  0.00    -0.058 SA
ENDBRANCH  16  17
ENDBRANCH  15  16
ENDBRANCH   2  15
TORSDOF 4
ENDMDL
MODEL 2
REMARK VINA RESULT: -7.088549989      1.240      2.100
REMARK  4 active torsions:
REMARK  status: ('A' for Active; 'I' for Inactive)
REMARK    1  A    between atoms: C1_2  and  C2_3 
REMARK       I    between atoms: C1_2  and  N1_11 
REMARK    2  A    between atoms: C2_3  and  O2_4 
REMARK    3  A    between atoms: O2_4  and  C3_5 
REMARK    4  A    between atoms: N1_11  and  C7_13 
ROOT
HETATM    1  O1  UNL     1     -12.666   7.417   1.141  1.00  0.00    -0.271 OA
HETATM    2  C1  UNL     1     -13.004   6.879   0.068  1.00  0.00     0.242 C 
HETATM    3  N1  UNL     1     -12.158   6.960  -1.050  1.00  0.00    -0.354 N 
ATOM      4  H1  UNL     1     -12.465   6.510  -1.912  1.00  0.00     0.162 HD
ENDROOT
BRANCH   3   5
HETATM    5  C7  UNL     1     -10.884   7.638  -1.062  1.00  0.00     0.089 C 
HETATM    6  C8  UNL     1     -11.034   9.106  -1.381  1.00  0.00     0.030 C 
HETATM    7  C9  UNL     1      -9.728   9.595  -1.930  1.00  0.00    -0.012 C 
HETATM    8  C10 UNL     1      -9.681   9.600  -3.430  1.00  0.00     0.009 C 
HETATM    9  C14 UNL     1      -8.556   8.816  -1.392  1.00  0.00     0.010 C 
HETATM   10  C11 UNL     1      -9.467   8.230  -4.016  1.00  0.00    -0.013 C 
HETATM   11  C12 UNL     1      -8.195   7.595  -3.470  1.00  0.00     0.010 C 
HETATM   12  C16 UNL     1     -10.521   7.296  -3.451  1.00  0.00     0.011 C 
HETATM   13  C13 UNL     1      -8.580   7.416  -2.002  1.00  0.00    -0.008 C 
HETATM   14  C15 UNL     1     -10.005   6.953  -2.086  1.00  0.00     0.013 C 
ENDBRANCH   3   5
BRANCH   2  15
HETATM   15  C2  UNL     1     -14.290   6.163  -0.015  1.00  0.00     0.279 C 
BRANCH  15  16
HETATM   16  O2  UNL     1     -14.077   4.790   0.040  1.00  0.00    -0.335 OA
BRANCH  16  17
HETATM   17  C3  UNL     1     -13.828   4.077   1.206  1.00  0.00     0.111 A 
HETATM   18  C4  UNL     1     -14.638   3.317   1.999  1.00  0.00     0.046 A 
HETATM   19  C5  UNL     1     -14.085   2.746   3.082  1.00  0.00     0.030 A 
HETATM   20  C6  UNL     1     -12.753   2.974   3.300  1.00  0.00     0.054 A 
HETATM   21 BR1  UNL     1     -11.656   2.314   4.741  1.00  0.00    -0.043 Br
HETATM   22  S1  UNL     1     -12.320   3.976   1.988  1.00  0.00    -0.058 SA
ENDBRANCH  16  17
ENDBRANCH  15  16
ENDBRANCH   2  15
TORSDOF 4
ENDMDL
MODEL 3
REMARK VINA RESULT: -6.976199130      1.028      1.886
REMARK  4 active torsions:
REMARK  status: ('A' for Active; 'I' for Inactive)
REMARK    1  A    between atoms: C1_2  and  C2_3 
REMARK       I    between atoms: C1_2  and  N1_11 
REMARK    2  A    between atoms: C2_3  and  O2_4 
REMARK    3  A    between atoms: O2_4  and  C3_5 
REMARK    4  A    between atoms: N1_11  and  C7_13 
ROOT
HETATM    1  O1  UNL     1     -13.737   6.715  -2.295  1.00  0.00    -0.271 OA
HETATM    2  C1  UNL     1     -13.314   6.671  -1.122  1.00  0.00     0.242 C 
HETATM    3  N1  UNL     1     -11.945   6.852  -0.867  1.00  0.00    -0.354 N 
ATOM      4  H1  UNL     1     -11.632   6.810   0.103  1.00  0.00     0.162 HD
ENDROOT
BRANCH   3   5
HETATM    5  C7  UNL     1     -10.950   7.094  -1.884  1.00  0.00     0.089 C 
HETATM    6  C8  UNL     1      -9.549   6.929  -1.348  1.00  0.00     0.030 C 
HETATM    7  C9  UNL     1      -8.623   7.720  -2.222  1.00  0.00    -0.012 C 
HETATM    8  C10 UNL     1      -8.327   9.089  -1.686  1.00  0.00     0.009 C 
HETATM    9  C14 UNL     1      -9.133   7.832  -3.636  1.00  0.00     0.010 C 
HETATM   10  C11 UNL     1      -9.450  10.066  -1.913  1.00  0.00    -0.013 C 
HETATM   11  C12 UNL     1      -9.797  10.164  -3.393  1.00  0.00     0.010 C 
HETATM   12  C16 UNL     1     -10.728   9.466  -1.356  1.00  0.00     0.011 C 
HETATM   13  C13 UNL     1     -10.345   8.760  -3.645  1.00  0.00    -0.008 C 
HETATM   14  C15 UNL     1     -11.162   8.496  -2.413  1.00  0.00     0.013 C 
ENDBRANCH   3   5
BRANCH   2  15
HETATM   15  C2  UNL     1     -14.258   6.429  -0.016  1.00  0.00     0.279 C 
BRANCH  15  16
HETATM   16  O2  UNL     1     -14.495   5.066   0.121  1.00  0.00    -0.335 OA
BRANCH  16  17
HETATM   17  C3  UNL     1     -14.116   4.306   1.220  1.00  0.00     0.111 A 
HETATM   18  C4  UNL     1     -14.780   3.361   1.947  1.00  0.00     0.046 A 
HETATM   19  C5  UNL     1     -14.125   2.797   2.975  1.00  0.00     0.030 A 
HETATM   20  C6  UNL     1     -12.844   3.217   3.209  1.00  0.00     0.054 A 
HETATM   21 BR1  UNL     1     -11.632   2.623   4.584  1.00  0.00    -0.043 Br
HETATM   22  S1  UNL     1     -12.598   4.384   1.987  1.00  0.00    -0.058 SA
ENDBRANCH  16  17
ENDBRANCH  15  16
ENDBRANCH   2  15
TORSDOF 4
ENDMDL
MODEL 4
REMARK VINA RESULT: -6.962518088      1.030      1.744
REMARK  4 active torsions:
REMARK  status: ('A' for Active; 'I' for Inactive)
REMARK    1  A    between atoms: C1_2  and  C2_3 
REMARK       I    between atoms: C1_2  and  N1_11 
REMARK    2  A    between atoms: C2_3  and  O2_4 
REMARK    3  A    between atoms: O2_4  and  C3_5 
REMARK    4  A    between atoms: N1_11  and  C7_13 
ROOT
HETATM    1  O1  UNL     1     -13.504   7.135  -3.045  1.00  0.00    -0.271 OA
HETATM    2  C1  UNL     1     -13.150   7.042  -1.852  1.00  0.00     0.242 C 
HETATM    3  N1  UNL     1     -11.793   7.176  -1.515  1.00  0.00    -0.354 N 
ATOM      4  H1  UNL     1     -11.537   7.095  -0.531  1.00  0.00     0.162 HD
ENDROOT
BRANCH   3   5
HETATM    5  C7  UNL     1     -10.736   7.422  -2.466  1.00  0.00     0.089 C 
HETATM    6  C8  UNL     1      -9.389   7.012  -1.924  1.00  0.00     0.030 C 
HETATM    7  C9  UNL     1      -8.338   7.786  -2.661  1.00  0.00    -0.012 C 
HETATM    8  C10 UNL     1      -7.899   9.025  -1.938  1.00  0.00     0.009 C 
HETATM    9  C14 UNL     1      -8.772   8.148  -4.058  1.00  0.00     0.010 C 
HETATM   10  C11 UNL     1      -8.883  10.157  -2.057  1.00  0.00    -0.013 C 
HETATM   11  C12 UNL     1      -9.156  10.493  -3.517  1.00  0.00     0.010 C 
HETATM   12  C16 UNL     1     -10.246   9.656  -1.617  1.00  0.00     0.011 C 
HETATM   13  C13 UNL     1      -9.861   9.215  -3.970  1.00  0.00    -0.008 C 
HETATM   14  C15 UNL     1     -10.753   8.896  -2.805  1.00  0.00     0.013 C 
ENDBRANCH   3   5
BRANCH   2  15
HETATM   15  C2  UNL     1     -14.161   6.792  -0.809  1.00  0.00     0.279 C 
BRANCH  15  16
HETATM   16  O2  UNL     1     -14.310   5.425  -0.605  1.00  0.00    -0.335 OA
BRANCH  16  17
HETATM   17  C3  UNL     1     -13.733   4.718   0.443  1.00  0.00     0.111 A 
HETATM   18  C4  UNL     1     -12.431   4.529   0.806  1.00  0.00     0.046 A 
HETATM   19  C5  UNL     1     -12.194   3.776   1.892  1.00  0.00     0.030 A 
HETATM   20  C6  UNL     1     -13.280   3.260   2.547  1.00  0.00     0.054 A 
HETATM   21 BR1  UNL     1     -13.300   2.152   4.123  1.00  0.00    -0.043 Br
HETATM   22  S1  UNL     1     -14.592   3.843   1.623  1.00  0.00    -0.058 SA
ENDBRANCH  16  17
ENDBRANCH  15  16
ENDBRANCH   2  15
TORSDOF 4
ENDMDL
MODEL 5
REMARK VINA RESULT: -6.630772428      2.609      3.829
REMARK  4 active torsions:
REMARK  status: ('A' for Active; 'I' for Inactive)
REMARK    1  A    between atoms: C1_2  and  C2_3 
REMARK       I    between atoms: C1_2  and  N1_11 
REMARK    2  A    between atoms: C2_3  and  O2_4 
REMARK    3  A    between atoms: O2_4  and  C3_5 
REMARK    4  A    between atoms: N1_11  and  C7_13 
ROOT
HETATM    1  O1  UNL     1     -12.275   6.567  -0.760  1.00  0.00    -0.271 OA
HETATM    2  C1  UNL     1     -13.494   6.660  -1.010  1.00  0.00     0.242 C 
HETATM    3  N1  UNL     1     -13.916   7.266  -2.205  1.00  0.00    -0.354 N 
ATOM      4  H1  UNL     1     -14.919   7.326  -2.379  1.00  0.00     0.162 HD
ENDROOT
BRANCH   3   5
HETATM    5  C7  UNL     1     -13.026   7.808  -3.203  1.00  0.00     0.089 C 
HETATM    6  C8  UNL     1     -12.525   9.179  -2.821  1.00  0.00     0.030 C 
HETATM    7  C9  UNL     1     -12.117   9.890  -4.075  1.00  0.00    -0.012 C 
HETATM    8  C10 UNL     1     -13.189  10.784  -4.626  1.00  0.00     0.009 C 
HETATM    9  C14 UNL     1     -11.659   8.935  -5.148  1.00  0.00     0.010 C 
HETATM   10  C11 UNL     1     -14.270  10.028  -5.351  1.00  0.00    -0.013 C 
HETATM   11  C12 UNL     1     -13.687   9.183  -6.476  1.00  0.00     0.010 C 
HETATM   12  C16 UNL     1     -14.804   8.949  -4.426  1.00  0.00     0.011 C 
HETATM   13  C13 UNL     1     -12.873   8.171  -5.671  1.00  0.00    -0.008 C 
HETATM   14  C15 UNL     1     -13.779   7.859  -4.515  1.00  0.00     0.013 C 
ENDBRANCH   3   5
BRANCH   2  15
HETATM   15  C2  UNL     1     -14.478   6.133  -0.048  1.00  0.00     0.279 C 
BRANCH  15  16
HETATM   16  O2  UNL     1     -14.341   4.754   0.069  1.00  0.00    -0.335 OA
BRANCH  16  17
HETATM   17  C3  UNL     1     -13.972   4.095   1.235  1.00  0.00     0.111 A 
HETATM   18  C4  UNL     1     -14.654   3.240   2.053  1.00  0.00     0.046 A 
HETATM   19  C5  UNL     1     -14.005   2.763   3.127  1.00  0.00     0.030 A 
HETATM   20  C6  UNL     1     -12.713   3.173   3.314  1.00  0.00     0.054 A 
HETATM   21 BR1  UNL     1     -11.506   2.685   4.735  1.00  0.00    -0.043 Br
HETATM   22  S1  UNL     1     -12.448   4.210   1.985  1.00  0.00    -0.058 SA
ENDBRANCH  16  17
ENDBRANCH  15  16
ENDBRANCH   2  15
TORSDOF 4
ENDMDL
