MODEL 1
REMARK VINA RESULT: -5.245068988      0.000      0.000
REMARK  3 active torsions:
REMARK  status: ('A' for Active; 'I' for Inactive)
REMARK    1  A    between atoms: C2_2  and  C3_3 
REMARK    2  A    between atoms: N1_4  and  N2_6 
REMARK    3  A    between atoms: N2_6  and  C4_8 
ROOT
HETATM    1  N2  UNL     1      -2.475  28.159 -10.247  1.00  0.00    -0.332 N 
ATOM      2  H2  UNL     1      -1.830  28.886  -9.935  1.00  0.00     0.180 HD
ENDROOT
BRANCH   1   3
HETATM    3  N1  UNL     1      -2.364  26.881  -9.753  1.00  0.00    -0.316 N 
HETATM    4  C3  UNL     1      -1.220  26.368  -9.470  1.00  0.00     0.106 C 
ATOM      5  H1  UNL     1      -3.209  26.328  -9.608  1.00  0.00     0.185 HD
BRANCH   4   6
HETATM    6  C2  UNL     1      -1.105  24.998  -8.940  1.00  0.00     0.008 C 
HETATM    7  C1  UNL     1      -0.082  24.637  -8.218  1.00  0.00     0.013 C 
ENDBRANCH   4   6
ENDBRANCH   1   3
BRANCH   1   8
HETATM    8  C4  UNL     1      -3.507  28.470 -11.207  1.00  0.00     0.099 C 
HETATM    9  C5  UNL     1      -3.774  29.966 -11.274  1.00  0.00     0.026 C 
HETATM   10  C6  UNL     1      -5.088  29.979 -12.067  1.00  0.00     0.002 C 
HETATM   11  C7  UNL     1      -5.779  28.686 -11.737  1.00  0.00     0.002 C 
HETATM   12  C8  UNL     1      -4.880  27.979 -10.734  1.00  0.00     0.026 C 
ENDBRANCH   1   8
TORSDOF 3
ENDMDL
MODEL 2
REMARK VINA RESULT: -5.244390672      0.889      1.494
REMARK  3 active torsions:
REMARK  status: ('A' for Active; 'I' for Inactive)
REMARK    1  A    between atoms: C2_2  and  C3_3 
REMARK    2  A    between atoms: N1_4  and  N2_6 
REMARK    3  A    between atoms: N2_6  and  C4_8 
ROOT
HETATM    1  N2  UNL     1      -3.342  26.547 -10.509  1.00  0.00    -0.332 N 
ATOM      2  H2  UNL     1      -3.619  25.694 -10.996  1.00  0.00     0.180 HD
ENDROOT
BRANCH   1   3
HETATM    3  N1  UNL     1      -2.239  26.547  -9.690  1.00  0.00    -0.316 N 
HETATM    4  C3  UNL     1      -1.237  25.775  -9.914  1.00  0.00     0.106 C 
ATOM      5  H1  UNL     1      -2.216  27.173  -8.885  1.00  0.00     0.185 HD
BRANCH   4   6
HETATM    6  C2  UNL     1      -0.055  25.777  -9.033  1.00  0.00     0.008 C 
HETATM    7  C1  UNL     1       0.194  24.778  -8.234  1.00  0.00     0.013 C 
ENDBRANCH   4   6
ENDBRANCH   1   3
BRANCH   1   8
HETATM    8  C4  UNL     1      -4.109  27.759 -10.680  1.00  0.00     0.099 C 
HETATM    9  C5  UNL     1      -4.838  27.775 -12.015  1.00  0.00     0.026 C 
HETATM   10  C6  UNL     1      -5.261  29.248 -12.083  1.00  0.00     0.002 C 
HETATM   11  C7  UNL     1      -4.218  30.012 -11.317  1.00  0.00     0.002 C 
HETATM   12  C8  UNL     1      -3.198  28.978 -10.864  1.00  0.00     0.026 C 
ENDBRANCH   1   8
TORSDOF 3
ENDMDL
MODEL 3
REMARK VINA RESULT: -5.216315017      0.894      1.109
REMARK  3 active torsions:
REMARK  status: ('A' for Active; 'I' for Inactive)
REMARK    1  A    between atoms: C2_2  and  C3_3 
REMARK    2  A    between atoms: N1_4  and  N2_6 
REMARK    3  A    between atoms: N2_6  and  C4_8 
ROOT
HETATM    1  N2  UNL     1      -3.298  26.503 -10.595  1.00  0.00    -0.332 N 
ATOM      2  H2  UNL     1      -3.829  25.642 -10.732  1.00  0.00     0.180 HD
ENDROOT
BRANCH   1   3
HETATM    3  N1  UNL     1      -2.218  26.517  -9.744  1.00  0.00    -0.316 N 
HETATM    4  C3  UNL     1      -1.153  25.846 -10.000  1.00  0.00     0.106 C 
ATOM      5  H1  UNL     1      -2.265  27.074  -8.891  1.00  0.00     0.185 HD
BRANCH   4   6
HETATM    6  C2  UNL     1       0.002  25.865  -9.085  1.00  0.00     0.008 C 
HETATM    7  C1  UNL     1       0.227  24.880  -8.261  1.00  0.00     0.013 C 
ENDBRANCH   4   6
ENDBRANCH   1   3
BRANCH   1   8
HETATM    8  C4  UNL     1      -3.676  27.707 -11.294  1.00  0.00     0.099 C 
HETATM    9  C5  UNL     1      -3.006  28.935 -10.695  1.00  0.00     0.026 C 
HETATM   10  C6  UNL     1      -3.818  30.050 -11.365  1.00  0.00     0.002 C 
HETATM   11  C7  UNL     1      -5.184  29.474 -11.612  1.00  0.00     0.002 C 
HETATM   12  C8  UNL     1      -5.146  28.063 -11.043  1.00  0.00     0.026 C 
ENDBRANCH   1   8
TORSDOF 3
ENDMDL
MODEL 4
REMARK VINA RESULT: -5.205718212      1.563      5.421
REMARK  3 active torsions:
REMARK  status: ('A' for Active; 'I' for Inactive)
REMARK    1  A    between atoms: C2_2  and  C3_3 
REMARK    2  A    between atoms: N1_4  and  N2_6 
REMARK    3  A    between atoms: N2_6  and  C4_8 
ROOT
HETATM    1  N2  UNL     1      -2.161  26.106  -9.277  1.00  0.00    -0.332 N 
ATOM      2  H2  UNL     1      -2.412  26.211  -8.293  1.00  0.00     0.180 HD
ENDROOT
BRANCH   1   3
HETATM    3  N1  UNL     1      -2.897  26.742 -10.247  1.00  0.00    -0.316 N 
HETATM    4  C3  UNL     1      -2.876  28.020 -10.377  1.00  0.00     0.106 C 
ATOM      5  H1  UNL     1      -3.474  26.186 -10.879  1.00  0.00     0.185 HD
BRANCH   4   6
HETATM    6  C2  UNL     1      -3.666  28.698 -11.419  1.00  0.00     0.008 C 
HETATM    7  C1  UNL     1      -3.998  29.954 -11.306  1.00  0.00     0.013 C 
ENDBRANCH   4   6
ENDBRANCH   1   3
BRANCH   1   8
HETATM    8  C4  UNL     1      -1.031  25.289  -9.653  1.00  0.00     0.099 C 
HETATM    9  C5  UNL     1       0.286  26.004  -9.391  1.00  0.00     0.026 C 
HETATM   10  C6  UNL     1       1.251  25.101 -10.170  1.00  0.00     0.002 C 
HETATM   11  C7  UNL     1       0.449  24.516 -11.297  1.00  0.00     0.002 C 
HETATM   12  C8  UNL     1      -0.941  25.124 -11.174  1.00  0.00     0.026 C 
ENDBRANCH   1   8
TORSDOF 3
ENDMDL
MODEL 5
REMARK VINA RESULT: -5.131304068      1.365      5.696
REMARK  3 active torsions:
REMARK  status: ('A' for Active; 'I' for Inactive)
REMARK    1  A    between atoms: C2_2  and  C3_3 
REMARK    2  A    between atoms: N1_4  and  N2_6 
REMARK    3  A    between atoms: N2_6  and  C4_8 
ROOT
HETATM    1  N2  UNL     1      -2.131  26.168  -9.329  1.00  0.00    -0.332 N 
ATOM      2  H2  UNL     1      -2.230  26.053  -8.320  1.00  0.00     0.180 HD
ENDROOT
BRANCH   1   3
HETATM    3  N1  UNL     1      -3.095  26.837 -10.044  1.00  0.00    -0.316 N 
HETATM    4  C3  UNL     1      -2.887  28.017 -10.510  1.00  0.00     0.106 C 
ATOM      5  H1  UNL     1      -3.995  26.387 -10.209  1.00  0.00     0.185 HD
BRANCH   4   6
HETATM    6  C2  UNL     1      -3.923  28.731 -11.277  1.00  0.00     0.008 C 
HETATM    7  C1  UNL     1      -3.959  30.034 -11.313  1.00  0.00     0.013 C 
ENDBRANCH   4   6
ENDBRANCH   1   3
BRANCH   1   8
HETATM    8  C4  UNL     1      -0.978  25.628 -10.010  1.00  0.00     0.099 C 
HETATM    9  C5  UNL     1      -0.870  24.123  -9.817  1.00  0.00     0.026 C 
HETATM   10  C6  UNL     1       0.559  23.879 -10.318  1.00  0.00     0.002 C 
HETATM   11  C7  UNL     1       1.316  25.146 -10.035  1.00  0.00     0.002 C 
HETATM   12  C8  UNL     1       0.328  26.072  -9.340  1.00  0.00     0.026 C 
ENDBRANCH   1   8
TORSDOF 3
ENDMDL
