MODEL 1
REMARK VINA RESULT: -4.548776684      0.000      0.000
REMARK  3 active torsions:
REMARK  status: ('A' for Active; 'I' for Inactive)
REMARK    1  A    between atoms: C2_2  and  C3_3 
REMARK    2  A    between atoms: C3_3  and  N1_4 
REMARK    3  A    between atoms: N1_4  and  C4_7 
ROOT
HETATM    1  N1  UNL     1      -3.158  26.549 -10.921  1.00  0.00    -0.059 N 
ATOM      2  H11 UNL     1      -4.027  26.125 -10.599  1.00  0.00     0.278 HD
ATOM      3  H12 UNL     1      -2.809  25.746 -11.444  1.00  0.00     0.278 HD
ENDROOT
BRANCH   1   4
HETATM    4  C3  UNL     1      -2.282  26.949  -9.838  1.00  0.00     0.260 C 
BRANCH   4   5
HETATM    5  C2  UNL     1      -1.387  25.856  -9.378  1.00  0.00    -0.010 C 
HETATM    6  C1  UNL     1      -0.079  26.031  -9.261  1.00  0.00     0.008 C 
ENDBRANCH   4   5
ENDBRANCH   1   4
BRANCH   1   7
HETATM    7  C4  UNL     1      -3.367  27.721 -11.747  1.00  0.00     0.247 C 
HETATM    8  C5  UNL     1      -3.459  28.952 -10.872  1.00  0.00     0.044 C 
HETATM    9  C6  UNL     1      -4.125  30.011 -11.749  1.00  0.00     0.013 C 
HETATM   10  C7  UNL     1      -5.525  29.445 -12.016  1.00  0.00     0.076 C 
HETATM   11  S1  UNL     1      -5.067  27.718 -12.443  1.00  0.00    -0.136 SA
ENDBRANCH   1   7
TORSDOF 3
ENDMDL
MODEL 2
REMARK VINA RESULT: -4.478195411      2.341      5.012
REMARK  3 active torsions:
REMARK  status: ('A' for Active; 'I' for Inactive)
REMARK    1  A    between atoms: C2_2  and  C3_3 
REMARK    2  A    between atoms: C3_3  and  N1_4 
REMARK    3  A    between atoms: N1_4  and  C4_7 
ROOT
HETATM    1  N1  UNL     1      -2.086  25.825  -9.162  1.00  0.00    -0.059 N 
ATOM      2  H11 UNL     1      -2.976  25.377  -9.381  1.00  0.00     0.278 HD
ATOM      3  H12 UNL     1      -2.256  25.970  -8.167  1.00  0.00     0.278 HD
ENDROOT
BRANCH   1   4
HETATM    4  C3  UNL     1      -1.874  27.059  -9.890  1.00  0.00     0.260 C 
BRANCH   4   5
HETATM    5  C2  UNL     1      -3.112  27.586 -10.520  1.00  0.00    -0.010 C 
HETATM    6  C1  UNL     1      -3.234  28.861 -10.855  1.00  0.00     0.008 C 
ENDBRANCH   4   5
ENDBRANCH   1   4
BRANCH   1   7
HETATM    7  C4  UNL     1      -0.941  24.978  -9.428  1.00  0.00     0.247 C 
HETATM    8  C5  UNL     1       0.313  25.823  -9.503  1.00  0.00     0.044 C 
HETATM    9  C6  UNL     1       1.335  24.948 -10.225  1.00  0.00     0.013 C 
HETATM   10  C7  UNL     1       0.740  24.760 -11.626  1.00  0.00     0.076 C 
HETATM   11  S1  UNL     1      -0.991  24.359 -11.157  1.00  0.00    -0.136 SA
ENDBRANCH   1   7
TORSDOF 3
ENDMDL
MODEL 3
REMARK VINA RESULT: -4.428698797      2.682      5.163
REMARK  3 active torsions:
REMARK  status: ('A' for Active; 'I' for Inactive)
REMARK    1  A    between atoms: C2_2  and  C3_3 
REMARK    2  A    between atoms: C3_3  and  N1_4 
REMARK    3  A    between atoms: N1_4  and  C4_7 
ROOT
HETATM    1  N1  UNL     1      -2.450  26.420  -9.500  1.00  0.00    -0.059 N 
ATOM      2  H11 UNL     1      -3.026  25.639  -9.185  1.00  0.00     0.278 HD
ATOM      3  H12 UNL     1      -2.529  26.986  -8.655  1.00  0.00     0.278 HD
ENDROOT
BRANCH   1   4
HETATM    4  C3  UNL     1      -2.975  27.079 -10.678  1.00  0.00     0.260 C 
BRANCH   4   5
HETATM    5  C2  UNL     1      -2.902  28.561 -10.600  1.00  0.00    -0.010 C 
HETATM    6  C1  UNL     1      -3.786  29.333 -11.213  1.00  0.00     0.008 C 
ENDBRANCH   4   5
ENDBRANCH   1   4
BRANCH   1   7
HETATM    7  C4  UNL     1      -1.087  26.036  -9.805  1.00  0.00     0.247 C 
HETATM    8  C5  UNL     1      -1.054  25.265 -11.108  1.00  0.00     0.044 C 
HETATM    9  C6  UNL     1       0.285  24.530 -11.097  1.00  0.00     0.013 C 
HETATM   10  C7  UNL     1       0.168  23.562  -9.912  1.00  0.00     0.076 C 
HETATM   11  S1  UNL     1      -0.522  24.715  -8.659  1.00  0.00    -0.136 SA
ENDBRANCH   1   7
TORSDOF 3
ENDMDL
MODEL 4
REMARK VINA RESULT: -4.380405662      0.984      1.150
REMARK  3 active torsions:
REMARK  status: ('A' for Active; 'I' for Inactive)
REMARK    1  A    between atoms: C2_2  and  C3_3 
REMARK    2  A    between atoms: C3_3  and  N1_4 
REMARK    3  A    between atoms: N1_4  and  C4_7 
ROOT
HETATM    1  N1  UNL     1      -2.184  25.900 -10.716  1.00  0.00    -0.059 N 
ATOM      2  H11 UNL     1      -2.936  25.222 -10.591  1.00  0.00     0.278 HD
ATOM      3  H12 UNL     1      -1.569  25.308 -11.275  1.00  0.00     0.278 HD
ENDROOT
BRANCH   1   4
HETATM    4  C3  UNL     1      -1.586  26.326  -9.468  1.00  0.00     0.260 C 
BRANCH   4   5
HETATM    5  C2  UNL     1      -0.150  25.961  -9.354  1.00  0.00    -0.010 C 
HETATM    6  C1  UNL     1       0.277  25.092  -8.451  1.00  0.00     0.008 C 
ENDBRANCH   4   5
ENDBRANCH   1   4
BRANCH   1   7
HETATM    7  C4  UNL     1      -2.607  27.099 -11.410  1.00  0.00     0.247 C 
HETATM    8  C5  UNL     1      -2.845  28.210 -10.411  1.00  0.00     0.044 C 
HETATM    9  C6  UNL     1      -3.704  29.232 -11.154  1.00  0.00     0.013 C 
HETATM   10  C7  UNL     1      -5.014  28.483 -11.434  1.00  0.00     0.076 C 
HETATM   11  S1  UNL     1      -4.318  26.898 -12.050  1.00  0.00    -0.136 SA
ENDBRANCH   1   7
TORSDOF 3
ENDMDL
MODEL 5
REMARK VINA RESULT: -4.368315579      2.150      4.976
REMARK  3 active torsions:
REMARK  status: ('A' for Active; 'I' for Inactive)
REMARK    1  A    between atoms: C2_2  and  C3_3 
REMARK    2  A    between atoms: C3_3  and  N1_4 
REMARK    3  A    between atoms: N1_4  and  C4_7 
ROOT
HETATM    1  N1  UNL     1      -2.461  26.322 -10.941  1.00  0.00    -0.059 N 
ATOM      2  H11 UNL     1      -2.235  26.457 -11.926  1.00  0.00     0.278 HD
ATOM      3  H12 UNL     1      -3.388  25.917 -11.076  1.00  0.00     0.278 HD
ENDROOT
BRANCH   1   4
HETATM    4  C3  UNL     1      -2.484  27.558 -10.185  1.00  0.00     0.260 C 
BRANCH   4   5
HETATM    5  C2  UNL     1      -3.186  28.661 -10.892  1.00  0.00    -0.010 C 
HETATM    6  C1  UNL     1      -4.507  28.759 -10.889  1.00  0.00     0.008 C 
ENDBRANCH   4   5
ENDBRANCH   1   4
BRANCH   1   7
HETATM    7  C4  UNL     1      -1.542  25.432 -10.262  1.00  0.00     0.247 C 
HETATM    8  C5  UNL     1      -0.629  26.232  -9.358  1.00  0.00     0.044 C 
HETATM    9  C6  UNL     1       0.552  25.307  -9.071  1.00  0.00     0.013 C 
HETATM   10  C7  UNL     1       1.209  25.108 -10.443  1.00  0.00     0.076 C 
HETATM   11  S1  UNL     1      -0.296  24.776 -11.443  1.00  0.00    -0.136 SA
ENDBRANCH   1   7
TORSDOF 3
ENDMDL
