MODEL 1
REMARK VINA RESULT: -5.619325498      0.000      0.000
REMARK  5 active torsions:
REMARK  status: ('A' for Active; 'I' for Inactive)
REMARK    1  A    between atoms: C2_2  and  C3_3 
REMARK    2  A    between atoms: C3_3  and  C4_4 
REMARK    3  A    between atoms: C4_4  and  C5_5 
REMARK    4  A    between atoms: C8_8  and  O1_9 
REMARK    5  A    between atoms: C18_22  and  O3_23 
ROOT
HETATM    1  C5  UNL     1       1.721  10.338   1.489  1.00  0.00    -0.020 C 
HETATM    2  C6  UNL     1       1.314   9.196   0.611  1.00  0.00     0.014 C 
HETATM    3  C7  UNL     1      -0.025   8.626   0.919  1.00  0.00     0.033 C 
HETATM    4  C8  UNL     1      -1.127   9.553   1.199  1.00  0.00     0.126 C 
HETATM    5  C9  UNL     1      -0.775  10.953   1.557  1.00  0.00    -0.017 C 
HETATM    6  C10 UNL     1      -1.709  11.822   0.668  1.00  0.00     0.018 C 
HETATM    7  C11 UNL     1      -1.198  11.378   2.949  1.00  0.00     0.018 C 
HETATM    8  C12 UNL     1       0.612  11.385   1.253  1.00  0.00     0.009 C 
HETATM    9  C13 UNL     1       0.661  11.909  -0.145  1.00  0.00     0.035 C 
HETATM   10  C14 UNL     1       1.981  12.398  -0.554  1.00  0.00    -0.000 C 
HETATM   11  C15 UNL     1       3.020  11.962   0.044  1.00  0.00     0.022 C 
HETATM   12  N1  UNL     1       4.406  12.270  -0.156  1.00  0.00    -0.323 N 
HETATM   13  C16 UNL     1       4.986  13.399  -0.853  1.00  0.00     0.159 C 
HETATM   14  C17 UNL     1       5.170  11.227   0.479  1.00  0.00     0.254 C 
HETATM   15  O2  UNL     1       6.357  11.229   0.816  1.00  0.00    -0.270 OA
HETATM   16  C18 UNL     1       4.122  10.115   0.623  1.00  0.00     0.228 C 
HETATM   17  C20 UNL     1       2.996  10.970   1.143  1.00  0.00     0.041 C 
HETATM   18  C21 UNL     1       3.618  11.738   2.318  1.00  0.00     0.026 C 
ENDROOT
BRANCH   1  19
HETATM   19  C4  UNL     1       1.700   9.927   2.923  1.00  0.00     0.011 C 
BRANCH  19  20
HETATM   20  C3  UNL     1       2.276   8.622   3.305  1.00  0.00     0.000 C 
BRANCH  20  21
HETATM   21  C2  UNL     1       3.026   8.784   4.654  1.00  0.00    -0.005 C 
HETATM   22  C1  UNL     1       4.502   8.766   4.450  1.00  0.00     0.005 C 
ENDBRANCH  20  21
ENDBRANCH  19  20
ENDBRANCH   1  19
BRANCH  16  23
HETATM   23  O3  UNL     1       3.988   9.720  -0.701  1.00  0.00    -0.380 OA
HETATM   24  C19 UNL     1       4.665   8.575  -1.045  1.00  0.00     0.202 C 
ENDBRANCH  16  23
BRANCH   4  25
HETATM   25  O1  UNL     1      -1.981   9.039   2.214  1.00  0.00    -0.395 OA
ATOM     26  H1  UNL     1      -1.950   9.583   2.993  1.00  0.00     0.210 HD
ENDBRANCH   4  25
TORSDOF 5
ENDMDL
MODEL 2
REMARK VINA RESULT: -5.617660285      1.886      5.150
REMARK  5 active torsions:
REMARK  status: ('A' for Active; 'I' for Inactive)
REMARK    1  A    between atoms: C2_2  and  C3_3 
REMARK    2  A    between atoms: C3_3  and  C4_4 
REMARK    3  A    between atoms: C4_4  and  C5_5 
REMARK    4  A    between atoms: C8_8  and  O1_9 
REMARK    5  A    between atoms: C18_22  and  O3_23 
ROOT
HETATM    1  C5  UNL     1       2.337  10.255   0.962  1.00  0.00    -0.020 C 
HETATM    2  C6  UNL     1       2.646  11.601   1.541  1.00  0.00     0.014 C 
HETATM    3  C7  UNL     1       4.045  11.760   2.022  1.00  0.00     0.033 C 
HETATM    4  C8  UNL     1       5.131  11.235   1.188  1.00  0.00     0.126 C 
HETATM    5  C9  UNL     1       4.775  10.238   0.142  1.00  0.00    -0.017 C 
HETATM    6  C10 UNL     1       5.500  10.747  -1.135  1.00  0.00     0.018 C 
HETATM    7  C11 UNL     1       5.406   8.872   0.327  1.00  0.00     0.018 C 
HETATM    8  C12 UNL     1       3.337  10.130  -0.208  1.00  0.00     0.009 C 
HETATM    9  C13 UNL     1       3.025  11.119  -1.284  1.00  0.00     0.035 C 
HETATM   10  C14 UNL     1       1.632  11.086  -1.740  1.00  0.00    -0.000 C 
HETATM   11  C15 UNL     1       0.732  10.623  -0.963  1.00  0.00     0.022 C 
HETATM   12  N1  UNL     1      -0.681  10.481  -1.157  1.00  0.00    -0.323 N 
HETATM   13  C16 UNL     1      -1.426  10.507  -2.399  1.00  0.00     0.159 C 
HETATM   14  C17 UNL     1      -1.273  10.297   0.143  1.00  0.00     0.254 C 
HETATM   15  O2  UNL     1      -2.384   9.846   0.433  1.00  0.00    -0.270 OA
HETATM   16  C18 UNL     1      -0.161  10.810   1.069  1.00  0.00     0.228 C 
HETATM   17  C20 UNL     1       0.993  10.108   0.402  1.00  0.00     0.041 C 
HETATM   18  C21 UNL     1       0.541   8.644   0.312  1.00  0.00     0.026 C 
ENDROOT
BRANCH   1  19
HETATM   19  C4  UNL     1       2.622   9.181   1.957  1.00  0.00     0.011 C 
BRANCH  19  20
HETATM   20  C3  UNL     1       2.138   9.339   3.344  1.00  0.00     0.000 C 
BRANCH  20  21
HETATM   21  C2  UNL     1       2.954   8.396   4.267  1.00  0.00    -0.005 C 
HETATM   22  C1  UNL     1       4.418   8.625   4.104  1.00  0.00     0.005 C 
ENDBRANCH  20  21
ENDBRANCH  19  20
ENDBRANCH   1  19
BRANCH  16  23
HETATM   23  O3  UNL     1      -0.235  12.174   0.820  1.00  0.00    -0.380 OA
HETATM   24  C19 UNL     1      -1.125  12.868   1.603  1.00  0.00     0.202 C 
ENDBRANCH  16  23
BRANCH   4  25
HETATM   25  O1  UNL     1       6.168  10.684   1.988  1.00  0.00    -0.395 OA
ATOM     26  H1  UNL     1       5.815  10.267   2.765  1.00  0.00     0.210 HD
ENDBRANCH   4  25
TORSDOF 5
ENDMDL
MODEL 3
REMARK VINA RESULT: -5.403450480      1.972      5.287
REMARK  5 active torsions:
REMARK  status: ('A' for Active; 'I' for Inactive)
REMARK    1  A    between atoms: C2_2  and  C3_3 
REMARK    2  A    between atoms: C3_3  and  C4_4 
REMARK    3  A    between atoms: C4_4  and  C5_5 
REMARK    4  A    between atoms: C8_8  and  O1_9 
REMARK    5  A    between atoms: C18_22  and  O3_23 
ROOT
HETATM    1  C5  UNL     1       1.472  10.284   1.132  1.00  0.00    -0.020 C 
HETATM    2  C6  UNL     1       1.902  11.645   1.583  1.00  0.00     0.014 C 
HETATM    3  C7  UNL     1       3.365  11.787   1.810  1.00  0.00     0.033 C 
HETATM    4  C8  UNL     1       4.282  11.195   0.830  1.00  0.00     0.126 C 
HETATM    5  C9  UNL     1       3.732  10.162  -0.089  1.00  0.00    -0.017 C 
HETATM    6  C10 UNL     1       4.238  10.593  -1.495  1.00  0.00     0.018 C 
HETATM    7  C11 UNL     1       4.359   8.789   0.052  1.00  0.00     0.018 C 
HETATM    8  C12 UNL     1       2.254  10.078  -0.184  1.00  0.00     0.009 C 
HETATM    9  C13 UNL     1       1.782  11.026  -1.238  1.00  0.00     0.035 C 
HETATM   10  C14 UNL     1       0.331  11.011  -1.449  1.00  0.00    -0.000 C 
HETATM   11  C15 UNL     1      -0.431  10.609  -0.508  1.00  0.00     0.022 C 
HETATM   12  N1  UNL     1      -1.859  10.498  -0.452  1.00  0.00    -0.323 N 
HETATM   13  C16 UNL     1      -2.806  10.489  -1.548  1.00  0.00     0.159 C 
HETATM   14  C17 UNL     1      -2.223  10.389   0.938  1.00  0.00     0.254 C 
HETATM   15  O2  UNL     1      -3.277   9.982   1.435  1.00  0.00    -0.270 OA
HETATM   16  C18 UNL     1      -0.960  10.912   1.635  1.00  0.00     0.228 C 
HETATM   17  C20 UNL     1       0.049  10.149   0.816  1.00  0.00     0.041 C 
HETATM   18  C21 UNL     1      -0.440   8.695   0.877  1.00  0.00     0.026 C 
ENDROOT
BRANCH   1  19
HETATM   19  C4  UNL     1       1.902   9.248   2.115  1.00  0.00     0.011 C 
BRANCH  19  20
HETATM   20  C3  UNL     1       1.866   9.567   3.557  1.00  0.00     0.000 C 
BRANCH  20  21
HETATM   21  C2  UNL     1       2.752   8.545   4.316  1.00  0.00    -0.005 C 
HETATM   22  C1  UNL     1       4.181   8.672   3.910  1.00  0.00     0.005 C 
ENDBRANCH  20  21
ENDBRANCH  19  20
ENDBRANCH   1  19
BRANCH  16  23
HETATM   23  O3  UNL     1      -1.048  12.265   1.336  1.00  0.00    -0.380 OA
HETATM   24  C19 UNL     1      -1.843  13.004   2.178  1.00  0.00     0.202 C 
ENDBRANCH  16  23
BRANCH   4  25
HETATM   25  O1  UNL     1       5.430  10.652   1.469  1.00  0.00    -0.395 OA
ATOM     26  H1  UNL     1       5.406   9.702   1.464  1.00  0.00     0.210 HD
ENDBRANCH   4  25
TORSDOF 5
ENDMDL
MODEL 4
REMARK VINA RESULT: -5.175747888      2.148      4.381
REMARK  5 active torsions:
REMARK  status: ('A' for Active; 'I' for Inactive)
REMARK    1  A    between atoms: C2_2  and  C3_3 
REMARK    2  A    between atoms: C3_3  and  C4_4 
REMARK    3  A    between atoms: C4_4  and  C5_5 
REMARK    4  A    between atoms: C8_8  and  O1_9 
REMARK    5  A    between atoms: C18_22  and  O3_23 
ROOT
HETATM    1  C5  UNL     1       2.657   9.953  -0.277  1.00  0.00    -0.020 C 
HETATM    2  C6  UNL     1       2.009  11.291  -0.101  1.00  0.00     0.014 C 
HETATM    3  C7  UNL     1       0.661  11.411  -0.719  1.00  0.00     0.033 C 
HETATM    4  C8  UNL     1      -0.279  10.297  -0.558  1.00  0.00     0.126 C 
HETATM    5  C9  UNL     1       0.280   8.977  -0.157  1.00  0.00    -0.017 C 
HETATM    6  C10 UNL     1      -0.648   8.504   0.997  1.00  0.00     0.018 C 
HETATM    7  C11 UNL     1       0.089   7.871  -1.175  1.00  0.00     0.018 C 
HETATM    8  C12 UNL     1       1.659   8.982   0.391  1.00  0.00     0.009 C 
HETATM    9  C13 UNL     1       1.594   9.213   1.865  1.00  0.00     0.035 C 
HETATM   10  C14 UNL     1       2.901   9.208   2.530  1.00  0.00    -0.000 C 
HETATM   11  C15 UNL     1       3.948   9.467   1.848  1.00  0.00     0.022 C 
HETATM   12  N1  UNL     1       5.324   9.528   2.244  1.00  0.00    -0.323 N 
HETATM   13  C16 UNL     1       5.942   8.988   3.437  1.00  0.00     0.159 C 
HETATM   14  C17 UNL     1       6.032  10.246   1.215  1.00  0.00     0.254 C 
HETATM   15  O2  UNL     1       7.244  10.278   0.984  1.00  0.00    -0.270 OA
HETATM   16  C18 UNL     1       4.885  10.960   0.486  1.00  0.00     0.228 C 
HETATM   17  C20 UNL     1       3.943   9.787   0.401  1.00  0.00     0.041 C 
HETATM   18  C21 UNL     1       4.795   8.663  -0.206  1.00  0.00     0.026 C 
ENDROOT
BRANCH   1  19
HETATM   19  C4  UNL     1       2.767   9.613  -1.724  1.00  0.00     0.011 C 
BRANCH  19  20
HETATM   20  C3  UNL     1       3.306  10.620  -2.661  1.00  0.00     0.000 C 
BRANCH  20  21
HETATM   21  C2  UNL     1       2.374  10.698  -3.899  1.00  0.00    -0.005 C 
HETATM   22  C1  UNL     1       1.587   9.442  -4.055  1.00  0.00     0.005 C 
ENDBRANCH  20  21
ENDBRANCH  19  20
ENDBRANCH   1  19
BRANCH  16  23
HETATM   23  O3  UNL     1       4.540  11.916   1.432  1.00  0.00    -0.380 OA
HETATM   24  C19 UNL     1       4.543  13.214   0.984  1.00  0.00     0.202 C 
ENDBRANCH  16  23
BRANCH   4  25
HETATM   25  O1  UNL     1      -1.053  10.108  -1.736  1.00  0.00    -0.395 OA
ATOM     26  H1  UNL     1      -0.776   9.329  -2.205  1.00  0.00     0.210 HD
ENDBRANCH   4  25
TORSDOF 5
ENDMDL
MODEL 5
REMARK VINA RESULT: -5.154745377      3.176      5.654
REMARK  5 active torsions:
REMARK  status: ('A' for Active; 'I' for Inactive)
REMARK    1  A    between atoms: C2_2  and  C3_3 
REMARK    2  A    between atoms: C3_3  and  C4_4 
REMARK    3  A    between atoms: C4_4  and  C5_5 
REMARK    4  A    between atoms: C8_8  and  O1_9 
REMARK    5  A    between atoms: C18_22  and  O3_23 
ROOT
HETATM    1  C5  UNL     1       4.283   9.861  -1.033  1.00  0.00    -0.020 C 
HETATM    2  C6  UNL     1       5.146   8.648  -0.875  1.00  0.00     0.014 C 
HETATM    3  C7  UNL     1       6.146   8.740   0.222  1.00  0.00     0.033 C 
HETATM    4  C8  UNL     1       5.721   9.308   1.505  1.00  0.00     0.126 C 
HETATM    5  C9  UNL     1       4.471  10.117   1.520  1.00  0.00    -0.017 C 
HETATM    6  C10 UNL     1       3.672   9.565   2.733  1.00  0.00     0.018 C 
HETATM    7  C11 UNL     1       4.660  11.568   1.914  1.00  0.00     0.018 C 
HETATM    8  C12 UNL     1       3.583   9.984   0.339  1.00  0.00     0.009 C 
HETATM    9  C13 UNL     1       2.646   8.842   0.564  1.00  0.00     0.035 C 
HETATM   10  C14 UNL     1       1.691   8.629  -0.528  1.00  0.00    -0.000 C 
HETATM   11  C15 UNL     1       1.976   9.051  -1.697  1.00  0.00     0.022 C 
HETATM   12  N1  UNL     1       1.233   8.974  -2.921  1.00  0.00    -0.323 N 
HETATM   13  C16 UNL     1      -0.177   8.700  -3.102  1.00  0.00     0.159 C 
HETATM   14  C17 UNL     1       2.158   9.227  -3.997  1.00  0.00     0.254 C 
HETATM   15  O2  UNL     1       1.921   9.552  -5.163  1.00  0.00    -0.270 OA
HETATM   16  C18 UNL     1       3.510   8.984  -3.312  1.00  0.00     0.228 C 
HETATM   17  C20 UNL     1       3.233   9.754  -2.047  1.00  0.00     0.041 C 
HETATM   18  C21 UNL     1       2.740  11.122  -2.540  1.00  0.00     0.026 C 
ENDROOT
BRANCH   1  19
HETATM   19  C4  UNL     1       5.121  11.074  -1.257  1.00  0.00     0.011 C 
BRANCH  19  20
HETATM   20  C3  UNL     1       6.181  11.034  -2.285  1.00  0.00     0.000 C 
BRANCH  20  21
HETATM   21  C2  UNL     1       7.229  12.132  -1.962  1.00  0.00    -0.005 C 
HETATM   22  C1  UNL     1       7.537  12.165  -0.504  1.00  0.00     0.005 C 
ENDBRANCH  20  21
ENDBRANCH  19  20
ENDBRANCH   1  19
BRANCH  16  23
HETATM   23  O3  UNL     1       3.477   7.603  -3.171  1.00  0.00    -0.380 OA
HETATM   24  C19 UNL     1       4.206   6.899  -4.098  1.00  0.00     0.202 C 
ENDBRANCH  16  23
BRANCH   4  25
HETATM   25  O1  UNL     1       6.757  10.087   2.088  1.00  0.00    -0.395 OA
ATOM     26  H1  UNL     1       7.557  10.027   1.579  1.00  0.00     0.210 HD
ENDBRANCH   4  25
TORSDOF 5
ENDMDL
