MODEL 1
REMARK VINA RESULT: -6.008358350      0.000      0.000
REMARK  6 active torsions:
REMARK  status: ('A' for Active; 'I' for Inactive)
REMARK    1  A    between atoms: C2_2  and  C3_3 
REMARK       I    between atoms: C3_3  and  N1_5 
REMARK    2  A    between atoms: N1_5  and  N2_7 
REMARK       I    between atoms: N2_7  and  C4_9 
REMARK    3  A    between atoms: C4_9  and  C5_11 
REMARK    4  A    between atoms: C5_11  and  N3_12 
REMARK       I    between atoms: N3_12  and  C6_14 
REMARK    5  A    between atoms: N5_16  and  C7_18 
REMARK    6  A    between atoms: N6_19  and  N7_21 
REMARK       I    between atoms: N7_21  and  C8_23 
ROOT
HETATM    1  N3  UNL     1      -1.669  23.485 -10.818  1.00  0.00    -0.356 N 
ATOM      2  H3  UNL     1      -2.079  23.916 -11.647  1.00  0.00     0.162 HD
HETATM    3  C6  UNL     1      -1.412  22.083 -10.770  1.00  0.00     0.189 C 
HETATM    4  N4  UNL     1      -0.421  21.597  -9.863  1.00  0.00    -0.064 NA
HETATM    5  N5  UNL     1      -1.979  21.195 -11.468  1.00  0.00    -0.326 N 
ATOM      6  H5  UNL     1      -1.652  20.247 -11.282  1.00  0.00     0.169 HD
ENDROOT
BRANCH   1   7
HETATM    7  C5  UNL     1      -1.331  24.271  -9.663  1.00  0.00     0.226 C 
BRANCH   7   8
HETATM    8  C4  UNL     1      -2.021  25.545  -9.536  1.00  0.00     0.253 C 
HETATM    9  N2  UNL     1      -1.514  26.643 -10.287  1.00  0.00    -0.266 N 
ATOM     10  H2  UNL     1      -0.693  26.482 -10.870  1.00  0.00     0.190 HD
HETATM   11  O2  UNL     1      -3.026  25.755  -8.819  1.00  0.00    -0.270 OA
BRANCH   9  12
HETATM   12  N1  UNL     1      -2.065  27.925 -10.278  1.00  0.00    -0.264 N 
HETATM   13  C3  UNL     1      -3.021  28.322 -11.244  1.00  0.00     0.258 C 
HETATM   14  O1  UNL     1      -3.351  27.445 -12.113  1.00  0.00    -0.267 OA
ATOM     15  H1  UNL     1      -1.773  28.589  -9.561  1.00  0.00     0.190 HD
BRANCH  13  16
HETATM   16  C2  UNL     1      -3.639  29.614 -11.324  1.00  0.00     0.065 C 
HETATM   17  C1  UNL     1      -4.923  29.770 -11.583  1.00  0.00     0.017 C 
ENDBRANCH  13  16
ENDBRANCH   9  12
ENDBRANCH   7   8
ENDBRANCH   1   7
BRANCH   5  18
HETATM   18  C7  UNL     1      -2.961  21.272 -12.436  1.00  0.00     0.199 C 
HETATM   19  N6  UNL     1      -4.119  20.748 -12.229  1.00  0.00    -0.294 N 
ATOM     20  H6  UNL     1      -4.827  20.818 -12.959  1.00  0.00     0.187 HD
BRANCH  19  21
HETATM   21  N7  UNL     1      -4.445  20.085 -11.037  1.00  0.00    -0.273 N 
HETATM   22  C8  UNL     1      -4.041  18.758 -10.729  1.00  0.00     0.200 C 
HETATM   23  N8  UNL     1      -4.675  17.726 -11.201  1.00  0.00    -0.372 N 
HETATM   24  N9  UNL     1      -2.936  18.540  -9.896  1.00  0.00    -0.062 NA
ATOM     25  H82 UNL     1      -5.480  17.884 -11.809  1.00  0.00     0.158 HD
ATOM     26  H81 UNL     1      -4.386  16.774 -10.980  1.00  0.00     0.158 HD
ATOM     27  H7  UNL     1      -5.006  20.586 -10.348  1.00  0.00     0.189 HD
ENDBRANCH  19  21
ENDBRANCH   5  18
TORSDOF 6
ENDMDL
MODEL 2
REMARK VINA RESULT: -5.850212419      4.694      8.515
REMARK  6 active torsions:
REMARK  status: ('A' for Active; 'I' for Inactive)
REMARK    1  A    between atoms: C2_2  and  C3_3 
REMARK       I    between atoms: C3_3  and  N1_5 
REMARK    2  A    between atoms: N1_5  and  N2_7 
REMARK       I    between atoms: N2_7  and  C4_9 
REMARK    3  A    between atoms: C4_9  and  C5_11 
REMARK    4  A    between atoms: C5_11  and  N3_12 
REMARK       I    between atoms: N3_12  and  C6_14 
REMARK    5  A    between atoms: N5_16  and  C7_18 
REMARK    6  A    between atoms: N6_19  and  N7_21 
REMARK       I    between atoms: N7_21  and  C8_23 
ROOT
HETATM    1  N3  UNL     1      -4.875  29.006 -11.722  1.00  0.00    -0.356 N 
ATOM      2  H3  UNL     1      -5.553  28.424 -11.229  1.00  0.00     0.162 HD
HETATM    3  C6  UNL     1      -5.237  29.713 -12.906  1.00  0.00     0.189 C 
HETATM    4  N4  UNL     1      -4.478  30.864 -13.279  1.00  0.00    -0.064 NA
HETATM    5  N5  UNL     1      -6.190  29.425 -13.685  1.00  0.00    -0.326 N 
ATOM      6  H5  UNL     1      -6.282  30.058 -14.481  1.00  0.00     0.169 HD
ENDROOT
BRANCH   1   7
HETATM    7  C5  UNL     1      -3.526  29.139 -11.245  1.00  0.00     0.226 C 
BRANCH   7   8
HETATM    8  C4  UNL     1      -2.733  27.920 -11.228  1.00  0.00     0.253 C 
HETATM    9  N2  UNL     1      -1.859  27.722 -10.122  1.00  0.00    -0.266 N 
ATOM     10  H2  UNL     1      -1.830  28.445  -9.403  1.00  0.00     0.190 HD
HETATM   11  O2  UNL     1      -2.757  27.028 -12.107  1.00  0.00    -0.270 OA
BRANCH   9  12
HETATM   12  N1  UNL     1      -1.039  26.606  -9.955  1.00  0.00    -0.264 N 
HETATM   13  C3  UNL     1      -1.483  25.466  -9.242  1.00  0.00     0.258 C 
HETATM   14  O1  UNL     1      -2.668  25.516  -8.768  1.00  0.00    -0.267 OA
ATOM     15  H1  UNL     1      -0.101  26.610 -10.356  1.00  0.00     0.190 HD
BRANCH  13  16
HETATM   16  C2  UNL     1      -0.716  24.276  -9.010  1.00  0.00     0.065 C 
HETATM   17  C1  UNL     1      -0.403  23.860  -7.797  1.00  0.00     0.017 C 
ENDBRANCH  13  16
ENDBRANCH   9  12
ENDBRANCH   7   8
ENDBRANCH   1   7
BRANCH   5  18
HETATM   18  C7  UNL     1      -7.130  28.413 -13.659  1.00  0.00     0.199 C 
HETATM   19  N6  UNL     1      -8.386  28.695 -13.652  1.00  0.00    -0.294 N 
ATOM     20  H6  UNL     1      -9.060  27.930 -13.633  1.00  0.00     0.187 HD
BRANCH  19  21
HETATM   21  N7  UNL     1      -8.864  30.014 -13.670  1.00  0.00    -0.273 N 
HETATM   22  C8  UNL     1      -9.004  30.825 -12.512  1.00  0.00     0.200 C 
HETATM   23  N8  UNL     1     -10.029  30.712 -11.721  1.00  0.00    -0.372 N 
HETATM   24  N9  UNL     1      -8.022  31.775 -12.204  1.00  0.00    -0.062 NA
ATOM     25  H82 UNL     1     -10.744  30.020 -11.945  1.00  0.00     0.158 HD
ATOM     26  H81 UNL     1     -10.129  31.295 -10.890  1.00  0.00     0.158 HD
ATOM     27  H7  UNL     1      -9.128  30.415 -14.570  1.00  0.00     0.189 HD
ENDBRANCH  19  21
ENDBRANCH   5  18
TORSDOF 6
ENDMDL
MODEL 3
REMARK VINA RESULT: -5.793199920      3.048      4.865
REMARK  6 active torsions:
REMARK  status: ('A' for Active; 'I' for Inactive)
REMARK    1  A    between atoms: C2_2  and  C3_3 
REMARK       I    between atoms: C3_3  and  N1_5 
REMARK    2  A    between atoms: N1_5  and  N2_7 
REMARK       I    between atoms: N2_7  and  C4_9 
REMARK    3  A    between atoms: C4_9  and  C5_11 
REMARK    4  A    between atoms: C5_11  and  N3_12 
REMARK       I    between atoms: N3_12  and  C6_14 
REMARK    5  A    between atoms: N5_16  and  C7_18 
REMARK    6  A    between atoms: N6_19  and  N7_21 
REMARK       I    between atoms: N7_21  and  C8_23 
ROOT
HETATM    1  N3  UNL     1      -0.019  24.188  -9.600  1.00  0.00    -0.356 N 
ATOM      2  H3  UNL     1       0.505  25.006  -9.289  1.00  0.00     0.162 HD
HETATM    3  C6  UNL     1       0.648  22.980  -9.959  1.00  0.00     0.189 C 
HETATM    4  N4  UNL     1      -0.077  21.751  -9.900  1.00  0.00    -0.064 NA
HETATM    5  N5  UNL     1       1.851  22.874 -10.331  1.00  0.00    -0.326 N 
ATOM      6  H5  UNL     1       2.139  21.919 -10.543  1.00  0.00     0.169 HD
ENDROOT
BRANCH   1   7
HETATM    7  C5  UNL     1      -1.453  24.216  -9.689  1.00  0.00     0.226 C 
BRANCH   7   8
HETATM    8  C4  UNL     1      -2.076  25.522  -9.543  1.00  0.00     0.253 C 
HETATM    9  N2  UNL     1      -1.553  26.589 -10.329  1.00  0.00    -0.266 N 
ATOM     10  H2  UNL     1      -0.770  26.384 -10.949  1.00  0.00     0.190 HD
HETATM   11  O2  UNL     1      -3.035  25.787  -8.783  1.00  0.00    -0.270 OA
BRANCH   9  12
HETATM   12  N1  UNL     1      -2.042  27.895 -10.309  1.00  0.00    -0.264 N 
HETATM   13  C3  UNL     1      -3.032  28.325 -11.225  1.00  0.00     0.258 C 
HETATM   14  O1  UNL     1      -3.452  27.455 -12.061  1.00  0.00    -0.267 OA
ATOM     15  H1  UNL     1      -1.679  28.554  -9.620  1.00  0.00     0.190 HD
BRANCH  13  16
HETATM   16  C2  UNL     1      -3.592  29.645 -11.290  1.00  0.00     0.065 C 
HETATM   17  C1  UNL     1      -4.875  29.859 -11.515  1.00  0.00     0.017 C 
ENDBRANCH  13  16
ENDBRANCH   9  12
ENDBRANCH   7   8
ENDBRANCH   1   7
BRANCH   5  18
HETATM   18  C7  UNL     1       2.850  23.813 -10.502  1.00  0.00     0.199 C 
HETATM   19  N6  UNL     1       3.076  24.313 -11.667  1.00  0.00    -0.294 N 
ATOM     20  H6  UNL     1       3.818  25.005 -11.767  1.00  0.00     0.187 HD
BRANCH  19  21
HETATM   21  N7  UNL     1       2.342  23.943 -12.803  1.00  0.00    -0.273 N 
HETATM   22  C8  UNL     1       1.432  24.802 -13.476  1.00  0.00     0.200 C 
HETATM   23  N8  UNL     1       0.221  24.987 -13.042  1.00  0.00    -0.372 N 
HETATM   24  N9  UNL     1       1.836  25.471 -14.639  1.00  0.00    -0.062 NA
ATOM     25  H82 UNL     1      -0.073  24.500 -12.195  1.00  0.00     0.158 HD
ATOM     26  H81 UNL     1      -0.432  25.603 -13.525  1.00  0.00     0.158 HD
ATOM     27  H7  UNL     1       2.469  23.000 -13.169  1.00  0.00     0.189 HD
ENDBRANCH  19  21
ENDBRANCH   5  18
TORSDOF 6
ENDMDL
MODEL 4
REMARK VINA RESULT: -5.726850520      3.746      5.968
REMARK  6 active torsions:
REMARK  status: ('A' for Active; 'I' for Inactive)
REMARK    1  A    between atoms: C2_2  and  C3_3 
REMARK       I    between atoms: C3_3  and  N1_5 
REMARK    2  A    between atoms: N1_5  and  N2_7 
REMARK       I    between atoms: N2_7  and  C4_9 
REMARK    3  A    between atoms: C4_9  and  C5_11 
REMARK    4  A    between atoms: C5_11  and  N3_12 
REMARK       I    between atoms: N3_12  and  C6_14 
REMARK    5  A    between atoms: N5_16  and  C7_18 
REMARK    6  A    between atoms: N6_19  and  N7_21 
REMARK       I    between atoms: N7_21  and  C8_23 
ROOT
HETATM    1  N3  UNL     1      -0.128  24.362 -10.420  1.00  0.00    -0.356 N 
ATOM      2  H3  UNL     1      -0.071  24.440 -11.435  1.00  0.00     0.162 HD
HETATM    3  C6  UNL     1       1.051  24.296  -9.620  1.00  0.00     0.189 C 
HETATM    4  N4  UNL     1       0.974  24.684  -8.248  1.00  0.00    -0.064 NA
HETATM    5  N5  UNL     1       2.196  23.925 -10.007  1.00  0.00    -0.326 N 
ATOM      6  H5  UNL     1       2.910  23.950  -9.279  1.00  0.00     0.169 HD
ENDROOT
BRANCH   1   7
HETATM    7  C5  UNL     1      -1.398  24.313  -9.749  1.00  0.00     0.226 C 
BRANCH   7   8
HETATM    8  C4  UNL     1      -2.081  25.587  -9.585  1.00  0.00     0.253 C 
HETATM    9  N2  UNL     1      -1.600  26.691 -10.344  1.00  0.00    -0.266 N 
ATOM     10  H2  UNL     1      -0.802  26.534 -10.959  1.00  0.00     0.190 HD
HETATM   11  O2  UNL     1      -3.059  25.792  -8.829  1.00  0.00    -0.270 OA
BRANCH   9  12
HETATM   12  N1  UNL     1      -2.149  27.973 -10.304  1.00  0.00    -0.264 N 
HETATM   13  C3  UNL     1      -3.074  28.409 -11.283  1.00  0.00     0.258 C 
HETATM   14  O1  UNL     1      -3.380  27.568 -12.194  1.00  0.00    -0.267 OA
ATOM     15  H1  UNL     1      -1.878  28.609  -9.554  1.00  0.00     0.190 HD
BRANCH  13  16
HETATM   16  C2  UNL     1      -3.687  29.706 -11.332  1.00  0.00     0.065 C 
HETATM   17  C1  UNL     1      -4.975  29.872 -11.569  1.00  0.00     0.017 C 
ENDBRANCH  13  16
ENDBRANCH   9  12
ENDBRANCH   7   8
ENDBRANCH   1   7
BRANCH   5  18
HETATM   18  C7  UNL     1       2.659  23.492 -11.235  1.00  0.00     0.199 C 
HETATM   19  N6  UNL     1       3.658  24.080 -11.794  1.00  0.00    -0.294 N 
ATOM     20  H6  UNL     1       3.981  23.741 -12.700  1.00  0.00     0.187 HD
BRANCH  19  21
HETATM   21  N7  UNL     1       4.320  25.168 -11.207  1.00  0.00    -0.273 N 
HETATM   22  C8  UNL     1       3.935  26.524 -11.386  1.00  0.00     0.200 C 
HETATM   23  N8  UNL     1       4.271  27.193 -12.448  1.00  0.00    -0.372 N 
HETATM   24  N9  UNL     1       3.176  27.169 -10.401  1.00  0.00    -0.062 NA
ATOM     25  H82 UNL     1       4.824  26.724 -13.166  1.00  0.00     0.158 HD
ATOM     26  H81 UNL     1       3.995  28.166 -12.576  1.00  0.00     0.158 HD
ATOM     27  H7  UNL     1       5.128  24.974 -10.616  1.00  0.00     0.189 HD
ENDBRANCH  19  21
ENDBRANCH   5  18
TORSDOF 6
ENDMDL
MODEL 5
REMARK VINA RESULT: -5.661813674      5.935      9.107
REMARK  6 active torsions:
REMARK  status: ('A' for Active; 'I' for Inactive)
REMARK    1  A    between atoms: C2_2  and  C3_3 
REMARK       I    between atoms: C3_3  and  N1_5 
REMARK    2  A    between atoms: N1_5  and  N2_7 
REMARK       I    between atoms: N2_7  and  C4_9 
REMARK    3  A    between atoms: C4_9  and  C5_11 
REMARK    4  A    between atoms: C5_11  and  N3_12 
REMARK       I    between atoms: N3_12  and  C6_14 
REMARK    5  A    between atoms: N5_16  and  C7_18 
REMARK    6  A    between atoms: N6_19  and  N7_21 
REMARK       I    between atoms: N7_21  and  C8_23 
ROOT
HETATM    1  N3  UNL     1      -8.132  28.512 -13.890  1.00  0.00    -0.356 N 
ATOM      2  H3  UNL     1      -8.906  27.874 -13.706  1.00  0.00     0.162 HD
HETATM    3  C6  UNL     1      -8.186  29.874 -13.471  1.00  0.00     0.189 C 
HETATM    4  N4  UNL     1      -6.962  30.585 -13.284  1.00  0.00    -0.064 NA
HETATM    5  N5  UNL     1      -9.234  30.541 -13.236  1.00  0.00    -0.326 N 
ATOM      6  H5  UNL     1      -9.058  31.504 -12.947  1.00  0.00     0.169 HD
ENDROOT
BRANCH   1   7
HETATM    7  C5  UNL     1      -6.951  28.067 -14.578  1.00  0.00     0.226 C 
BRANCH   7   8
HETATM    8  C4  UNL     1      -5.904  27.498 -13.745  1.00  0.00     0.253 C 
HETATM    9  N2  UNL     1      -4.788  28.326 -13.437  1.00  0.00    -0.266 N 
ATOM     10  H2  UNL     1      -4.777  29.271 -13.819  1.00  0.00     0.190 HD
HETATM   11  O2  UNL     1      -5.904  26.337 -13.274  1.00  0.00    -0.270 OA
BRANCH   9  12
HETATM   12  N1  UNL     1      -3.708  27.931 -12.647  1.00  0.00    -0.264 N 
HETATM   13  C3  UNL     1      -3.410  28.583 -11.427  1.00  0.00     0.258 C 
HETATM   14  O1  UNL     1      -4.183  29.543 -11.090  1.00  0.00    -0.267 OA
ATOM     15  H1  UNL     1      -3.121  27.156 -12.956  1.00  0.00     0.190 HD
BRANCH  13  16
HETATM   16  C2  UNL     1      -2.322  28.258 -10.550  1.00  0.00     0.065 C 
HETATM   17  C1  UNL     1      -2.064  27.020 -10.170  1.00  0.00     0.017 C 
ENDBRANCH  13  16
ENDBRANCH   9  12
ENDBRANCH   7   8
ENDBRANCH   1   7
BRANCH   5  18
HETATM   18  C7  UNL     1     -10.573  30.208 -13.298  1.00  0.00     0.199 C 
HETATM   19  N6  UNL     1     -11.184  29.784 -12.247  1.00  0.00    -0.294 N 
ATOM     20  H6  UNL     1     -12.173  29.545 -12.319  1.00  0.00     0.187 HD
BRANCH  19  21
HETATM   21  N7  UNL     1     -10.544  29.637 -11.008  1.00  0.00    -0.273 N 
HETATM   22  C8  UNL     1     -11.172  29.118  -9.844  1.00  0.00     0.200 C 
HETATM   23  N8  UNL     1     -11.938  29.855  -9.097  1.00  0.00    -0.372 N 
HETATM   24  N9  UNL     1     -10.969  27.781  -9.480  1.00  0.00    -0.062 NA
ATOM     25  H82 UNL     1     -12.087  30.829  -9.362  1.00  0.00     0.158 HD
ATOM     26  H81 UNL     1     -12.389  29.483  -8.262  1.00  0.00     0.158 HD
ATOM     27  H7  UNL     1      -9.567  29.921 -10.938  1.00  0.00     0.189 HD
ENDBRANCH  19  21
ENDBRANCH   5  18
TORSDOF 6
ENDMDL
