MODEL 1
REMARK VINA RESULT: -4.181924068      0.000      0.000
REMARK  4 active torsions:
REMARK  status: ('A' for Active; 'I' for Inactive)
REMARK    1  A    between atoms: C3_4  and  C4_5 
REMARK    2  A    between atoms: C4_5  and  C5_6 
REMARK    3  A    between atoms: N2_11  and  C7_12 
REMARK    4  A    between atoms: C7_12  and  C8_13 
ROOT
HETATM    1  F1  UNL     1      31.094 154.759 334.721  1.00  0.00    -0.248 F 
HETATM    2  C1  UNL     1      31.843 153.719 335.214  1.00  0.00     0.200 C 
HETATM    3  C2  UNL     1      31.001 152.482 335.501  1.00  0.00     0.075 C 
HETATM    4  C3  UNL     1      31.909 151.340 335.183  1.00  0.00     0.228 C 
HETATM    5  N2  UNL     1      32.975 151.815 334.357  1.00  0.00     0.096 N 
HETATM    6  C11 UNL     1      32.739 153.233 334.114  1.00  0.00     0.309 C 
ENDROOT
BRANCH   4   7
HETATM    7  C4  UNL     1      31.152 150.184 334.585  1.00  0.00     0.070 C 
BRANCH   7   8
HETATM    8  C5  UNL     1      29.919 150.577 333.856  1.00  0.00     0.213 A 
HETATM    9  C6  UNL     1      29.954 150.868 332.425  1.00  0.00     0.265 A 
HETATM   10  N1  UNL     1      29.451 149.600 332.864  1.00  0.00    -0.067 N 
ATOM     11  H12 UNL     1      29.674 148.627 332.654  1.00  0.00     0.277 HD
ATOM     12  H11 UNL     1      28.584 149.082 332.720  1.00  0.00     0.277 HD
ENDBRANCH   7   8
ENDBRANCH   4   7
BRANCH   5  13
HETATM   13  C7  UNL     1      34.254 151.753 335.064  1.00  0.00     0.277 C 
BRANCH  13  14
HETATM   14  C8  UNL     1      34.134 151.120 336.408  1.00  0.00     0.014 A 
HETATM   15  C9  UNL     1      34.769 151.959 337.525  1.00  0.00     0.007 A 
HETATM   16  C10 UNL     1      35.378 150.653 337.124  1.00  0.00     0.007 A 
ENDBRANCH  13  14
ENDBRANCH   5  13
TORSDOF 4
ENDMDL
MODEL 2
REMARK VINA RESULT: -4.165824606      3.504      5.642
REMARK  4 active torsions:
REMARK  status: ('A' for Active; 'I' for Inactive)
REMARK    1  A    between atoms: C3_4  and  C4_5 
REMARK    2  A    between atoms: C4_5  and  C5_6 
REMARK    3  A    between atoms: N2_11  and  C7_12 
REMARK    4  A    between atoms: C7_12  and  C8_13 
ROOT
HETATM    1  F1  UNL     1      36.017 153.862 338.254  1.00  0.00    -0.248 F 
HETATM    2  C1  UNL     1      34.810 153.301 337.919  1.00  0.00     0.200 C 
HETATM    3  C2  UNL     1      33.659 153.866 338.741  1.00  0.00     0.075 C 
HETATM    4  C3  UNL     1      32.502 153.871 337.796  1.00  0.00     0.228 C 
HETATM    5  N2  UNL     1      32.999 153.783 336.459  1.00  0.00     0.096 N 
HETATM    6  C11 UNL     1      34.455 153.761 336.536  1.00  0.00     0.309 C 
ENDROOT
BRANCH   4   7
HETATM    7  C4  UNL     1      31.605 155.056 338.031  1.00  0.00     0.070 C 
BRANCH   7   8
HETATM    8  C5  UNL     1      32.330 156.332 338.262  1.00  0.00     0.213 A 
HETATM    9  C6  UNL     1      31.959 157.547 337.540  1.00  0.00     0.265 A 
HETATM   10  N1  UNL     1      31.533 157.388 338.900  1.00  0.00    -0.067 N 
ATOM     11  H12 UNL     1      30.632 157.418 339.378  1.00  0.00     0.277 HD
ATOM     12  H11 UNL     1      31.625 157.942 339.751  1.00  0.00     0.277 HD
ENDBRANCH   7   8
ENDBRANCH   4   7
BRANCH   5  13
HETATM   13  C7  UNL     1      32.627 152.510 335.844  1.00  0.00     0.277 C 
BRANCH  13  14
HETATM   14  C8  UNL     1      31.231 152.514 335.321  1.00  0.00     0.014 A 
HETATM   15  C9  UNL     1      30.718 151.111 334.971  1.00  0.00     0.007 A 
HETATM   16  C10 UNL     1      30.972 152.112 333.889  1.00  0.00     0.007 A 
ENDBRANCH  13  14
ENDBRANCH   5  13
TORSDOF 4
ENDMDL
MODEL 3
REMARK VINA RESULT: -4.073551455      2.046      3.656
REMARK  4 active torsions:
REMARK  status: ('A' for Active; 'I' for Inactive)
REMARK    1  A    between atoms: C3_4  and  C4_5 
REMARK    2  A    between atoms: C4_5  and  C5_6 
REMARK    3  A    between atoms: N2_11  and  C7_12 
REMARK    4  A    between atoms: C7_12  and  C8_13 
ROOT
HETATM    1  F1  UNL     1      34.657 152.213 338.155  1.00  0.00    -0.248 F 
HETATM    2  C1  UNL     1      34.241 152.390 336.858  1.00  0.00     0.200 C 
HETATM    3  C2  UNL     1      33.849 151.078 336.190  1.00  0.00     0.075 C 
HETATM    4  C3  UNL     1      32.723 151.453 335.283  1.00  0.00     0.228 C 
HETATM    5  N2  UNL     1      32.190 152.709 335.704  1.00  0.00     0.096 N 
HETATM    6  C11 UNL     1      32.933 153.123 336.888  1.00  0.00     0.309 C 
ENDROOT
BRANCH   4   7
HETATM    7  C4  UNL     1      31.695 150.357 335.201  1.00  0.00     0.070 C 
BRANCH   7   8
HETATM    8  C5  UNL     1      30.451 150.742 334.486  1.00  0.00     0.213 A 
HETATM    9  C6  UNL     1      30.451 150.950 333.040  1.00  0.00     0.265 A 
HETATM   10  N1  UNL     1      29.928 149.723 333.565  1.00  0.00    -0.067 N 
ATOM     11  H12 UNL     1      30.120 148.734 333.404  1.00  0.00     0.277 HD
ATOM     12  H11 UNL     1      29.045 149.222 333.475  1.00  0.00     0.277 HD
ENDBRANCH   7   8
ENDBRANCH   4   7
BRANCH   5  13
HETATM   13  C7  UNL     1      32.445 153.749 334.708  1.00  0.00     0.277 C 
BRANCH  13  14
HETATM   14  C8  UNL     1      31.338 154.744 334.624  1.00  0.00     0.014 A 
HETATM   15  C9  UNL     1      31.620 155.871 333.622  1.00  0.00     0.007 A 
HETATM   16  C10 UNL     1      31.575 156.161 335.089  1.00  0.00     0.007 A 
ENDBRANCH  13  14
ENDBRANCH   5  13
TORSDOF 4
ENDMDL
MODEL 4
REMARK VINA RESULT: -4.024138041      2.844      4.119
REMARK  4 active torsions:
REMARK  status: ('A' for Active; 'I' for Inactive)
REMARK    1  A    between atoms: C3_4  and  C4_5 
REMARK    2  A    between atoms: C4_5  and  C5_6 
REMARK    3  A    between atoms: N2_11  and  C7_12 
REMARK    4  A    between atoms: C7_12  and  C8_13 
ROOT
HETATM    1  F1  UNL     1      34.914 151.555 337.877  1.00  0.00    -0.248 F 
HETATM    2  C1  UNL     1      34.394 152.543 337.077  1.00  0.00     0.200 C 
HETATM    3  C2  UNL     1      33.466 151.991 336.003  1.00  0.00     0.075 C 
HETATM    4  C3  UNL     1      32.420 153.046 335.846  1.00  0.00     0.228 C 
HETATM    5  N2  UNL     1      32.437 153.887 337.002  1.00  0.00     0.096 N 
HETATM    6  C11 UNL     1      33.451 153.361 337.908  1.00  0.00     0.309 C 
ENDROOT
BRANCH   4   7
HETATM    7  C4  UNL     1      31.071 152.445 335.557  1.00  0.00     0.070 C 
BRANCH   7   8
HETATM    8  C5  UNL     1      31.021 151.631 334.315  1.00  0.00     0.213 A 
HETATM    9  C6  UNL     1      30.628 150.225 334.354  1.00  0.00     0.265 A 
HETATM   10  N1  UNL     1      29.675 151.200 333.913  1.00  0.00    -0.067 N 
ATOM     11  H12 UNL     1      28.727 151.455 334.191  1.00  0.00     0.277 HD
ATOM     12  H11 UNL     1      29.103 151.318 333.077  1.00  0.00     0.277 HD
ENDBRANCH   7   8
ENDBRANCH   4   7
BRANCH   5  13
HETATM   13  C7  UNL     1      32.887 155.236 336.662  1.00  0.00     0.277 C 
BRANCH  13  14
HETATM   14  C8  UNL     1      31.848 156.270 336.933  1.00  0.00     0.014 A 
HETATM   15  C9  UNL     1      32.426 157.556 337.540  1.00  0.00     0.007 A 
HETATM   16  C10 UNL     1      31.545 156.665 338.358  1.00  0.00     0.007 A 
ENDBRANCH  13  14
ENDBRANCH   5  13
TORSDOF 4
ENDMDL
MODEL 5
REMARK VINA RESULT: -3.976449349      3.518      5.684
REMARK  4 active torsions:
REMARK  status: ('A' for Active; 'I' for Inactive)
REMARK    1  A    between atoms: C3_4  and  C4_5 
REMARK    2  A    between atoms: C4_5  and  C5_6 
REMARK    3  A    between atoms: N2_11  and  C7_12 
REMARK    4  A    between atoms: C7_12  and  C8_13 
ROOT
HETATM    1  F1  UNL     1      33.747 153.869 339.312  1.00  0.00    -0.248 F 
HETATM    2  C1  UNL     1      33.024 153.679 338.161  1.00  0.00     0.200 C 
HETATM    3  C2  UNL     1      31.979 154.767 337.946  1.00  0.00     0.075 C 
HETATM    4  C3  UNL     1      31.929 154.939 336.463  1.00  0.00     0.228 C 
HETATM    5  N2  UNL     1      33.118 154.387 335.895  1.00  0.00     0.096 N 
HETATM    6  C11 UNL     1      33.942 153.900 336.995  1.00  0.00     0.309 C 
ENDROOT
BRANCH   4   7
HETATM    7  C4  UNL     1      31.689 156.376 336.083  1.00  0.00     0.070 C 
BRANCH   7   8
HETATM    8  C5  UNL     1      32.012 157.351 337.156  1.00  0.00     0.213 A 
HETATM    9  C6  UNL     1      33.078 158.335 336.981  1.00  0.00     0.265 A 
HETATM   10  N1  UNL     1      31.715 158.752 336.827  1.00  0.00    -0.067 N 
ATOM     11  H12 UNL     1      31.186 159.219 336.091  1.00  0.00     0.277 HD
ATOM     12  H11 UNL     1      31.135 159.480 337.243  1.00  0.00     0.277 HD
ENDBRANCH   7   8
ENDBRANCH   4   7
BRANCH   5  13
HETATM   13  C7  UNL     1      32.815 153.204 335.090  1.00  0.00     0.277 C 
BRANCH  13  14
HETATM   14  C8  UNL     1      31.369 153.103 334.746  1.00  0.00     0.014 A 
HETATM   15  C9  UNL     1      30.761 151.740 335.106  1.00  0.00     0.007 A 
HETATM   16  C10 UNL     1      30.925 152.138 333.673  1.00  0.00     0.007 A 
ENDBRANCH  13  14
ENDBRANCH   5  13
TORSDOF 4
ENDMDL
