MODEL 1
REMARK VINA RESULT: -4.487138321      0.000      0.000
REMARK  3 active torsions:
REMARK  status: ('A' for Active; 'I' for Inactive)
REMARK    1  A    between atoms: C1_2  and  N1_3 
REMARK    2  A    between atoms: N1_3  and  C2_5 
REMARK    3  A    between atoms: C2_5  and  C3_6 
ROOT
HETATM    1  C3  UNL     1      34.095 155.879 338.393  1.00  0.00    -0.023 C 
HETATM    2  C4  UNL     1      34.481 156.061 336.923  1.00  0.00     0.015 C 
HETATM    3  C5  UNL     1      33.446 155.435 336.021  1.00  0.00    -0.013 C 
HETATM    4  C6  UNL     1      33.399 153.951 336.394  1.00  0.00     0.009 C 
HETATM    5  C7  UNL     1      32.940 153.794 337.804  1.00  0.00    -0.013 C 
HETATM    6  C8  UNL     1      31.651 154.492 338.108  1.00  0.00     0.009 C 
HETATM    7  C9  UNL     1      31.727 155.949 337.700  1.00  0.00    -0.013 C 
HETATM    8  C10 UNL     1      32.103 156.056 336.255  1.00  0.00     0.009 C 
HETATM    9  C11 UNL     1      32.794 156.588 338.576  1.00  0.00     0.015 C 
HETATM   10  C12 UNL     1      34.011 154.402 338.709  1.00  0.00     0.015 C 
ENDROOT
BRANCH   1  11
HETATM   11  C2  UNL     1      35.162 156.503 339.239  1.00  0.00     0.131 C 
BRANCH  11  12
HETATM   12  N1  UNL     1      34.577 157.232 340.340  1.00  0.00    -0.367 N 
ATOM     13  H1  UNL     1      33.856 157.933 340.166  1.00  0.00     0.161 HD
BRANCH  12  14
HETATM   14  C1  UNL     1      35.012 156.967 341.662  1.00  0.00     0.348 C 
HETATM   15  O1  UNL     1      35.248 157.922 342.435  1.00  0.00    -0.284 OA
ENDBRANCH  12  14
ENDBRANCH  11  12
ENDBRANCH   1  11
TORSDOF 3
ENDMDL
MODEL 2
REMARK VINA RESULT: -4.467756234      0.110      1.998
REMARK  3 active torsions:
REMARK  status: ('A' for Active; 'I' for Inactive)
REMARK    1  A    between atoms: C1_2  and  N1_3 
REMARK    2  A    between atoms: N1_3  and  C2_5 
REMARK    3  A    between atoms: C2_5  and  C3_6 
ROOT
HETATM    1  C3  UNL     1      34.129 155.959 338.290  1.00  0.00    -0.023 C 
HETATM    2  C4  UNL     1      32.766 156.588 338.587  1.00  0.00     0.015 C 
HETATM    3  C5  UNL     1      31.684 155.918 337.776  1.00  0.00    -0.013 C 
HETATM    4  C6  UNL     1      32.068 156.117 336.307  1.00  0.00     0.009 C 
HETATM    5  C7  UNL     1      33.359 155.427 336.020  1.00  0.00    -0.013 C 
HETATM    6  C8  UNL     1      33.379 153.983 336.416  1.00  0.00     0.009 C 
HETATM    7  C9  UNL     1      32.967 153.824 337.865  1.00  0.00    -0.013 C 
HETATM    8  C10 UNL     1      31.627 154.454 338.088  1.00  0.00     0.009 C 
HETATM    9  C11 UNL     1      34.030 154.527 338.697  1.00  0.00     0.015 C 
HETATM   10  C12 UNL     1      34.450 156.134 336.821  1.00  0.00     0.015 C 
ENDROOT
BRANCH   1  11
HETATM   11  C2  UNL     1      35.163 156.672 339.107  1.00  0.00     0.131 C 
BRANCH  11  12
HETATM   12  N1  UNL     1      34.569 157.239 340.295  1.00  0.00    -0.367 N 
ATOM     13  H1  UNL     1      33.777 157.877 340.219  1.00  0.00     0.161 HD
BRANCH  12  14
HETATM   14  C1  UNL     1      35.096 156.901 341.567  1.00  0.00     0.348 C 
HETATM   15  O1  UNL     1      35.243 157.796 342.428  1.00  0.00    -0.284 OA
ENDBRANCH  12  14
ENDBRANCH  11  12
ENDBRANCH   1  11
TORSDOF 3
ENDMDL
MODEL 3
REMARK VINA RESULT: -4.459045198      0.107      1.997
REMARK  3 active torsions:
REMARK  status: ('A' for Active; 'I' for Inactive)
REMARK    1  A    between atoms: C1_2  and  N1_3 
REMARK    2  A    between atoms: N1_3  and  C2_5 
REMARK    3  A    between atoms: C2_5  and  C3_6 
ROOT
HETATM    1  C3  UNL     1      34.121 155.971 338.284  1.00  0.00    -0.023 C 
HETATM    2  C4  UNL     1      34.056 154.493 338.678  1.00  0.00     0.015 C 
HETATM    3  C5  UNL     1      33.025 153.768 337.848  1.00  0.00    -0.013 C 
HETATM    4  C6  UNL     1      31.690 154.465 338.123  1.00  0.00     0.009 C 
HETATM    5  C7  UNL     1      31.749 155.881 337.657  1.00  0.00    -0.013 C 
HETATM    6  C8  UNL     1      32.181 156.036 336.232  1.00  0.00     0.009 C 
HETATM    7  C9  UNL     1      33.489 155.310 335.992  1.00  0.00    -0.013 C 
HETATM    8  C10 UNL     1      33.357 153.873 336.391  1.00  0.00     0.009 C 
HETATM    9  C11 UNL     1      34.534 156.007 336.851  1.00  0.00     0.015 C 
HETATM   10  C12 UNL     1      32.771 156.612 338.525  1.00  0.00     0.015 C 
ENDROOT
BRANCH   1  11
HETATM   11  C2  UNL     1      35.144 156.642 339.148  1.00  0.00     0.131 C 
BRANCH  11  12
HETATM   12  N1  UNL     1      34.525 157.209 340.323  1.00  0.00    -0.367 N 
ATOM     13  H1  UNL     1      33.673 157.764 340.237  1.00  0.00     0.161 HD
BRANCH  12  14
HETATM   14  C1  UNL     1      35.109 156.988 341.595  1.00  0.00     0.348 C 
HETATM   15  O1  UNL     1      35.130 157.918 342.432  1.00  0.00    -0.284 OA
ENDBRANCH  12  14
ENDBRANCH  11  12
ENDBRANCH   1  11
TORSDOF 3
ENDMDL
MODEL 4
REMARK VINA RESULT: -4.455112534      4.029      5.452
REMARK  3 active torsions:
REMARK  status: ('A' for Active; 'I' for Inactive)
REMARK    1  A    between atoms: C1_2  and  N1_3 
REMARK    2  A    between atoms: N1_3  and  C2_5 
REMARK    3  A    between atoms: C2_5  and  C3_6 
ROOT
HETATM    1  C3  UNL     1      32.034 154.023 335.793  1.00  0.00    -0.023 C 
HETATM    2  C4  UNL     1      31.619 153.904 337.261  1.00  0.00     0.015 C 
HETATM    3  C5  UNL     1      32.212 155.030 338.073  1.00  0.00    -0.013 C 
HETATM    4  C6  UNL     1      33.730 154.909 337.924  1.00  0.00     0.009 C 
HETATM    5  C7  UNL     1      34.119 155.110 336.498  1.00  0.00    -0.013 C 
HETATM    6  C8  UNL     1      33.593 156.376 335.895  1.00  0.00     0.009 C 
HETATM    7  C9  UNL     1      32.094 156.473 336.087  1.00  0.00    -0.013 C 
HETATM    8  C10 UNL     1      31.756 156.354 337.541  1.00  0.00     0.009 C 
HETATM    9  C11 UNL     1      31.482 155.321 335.304  1.00  0.00     0.015 C 
HETATM   10  C12 UNL     1      33.542 153.948 335.692  1.00  0.00     0.015 C 
ENDROOT
BRANCH   1  11
HETATM   11  C2  UNL     1      31.433 152.875 335.041  1.00  0.00     0.131 C 
BRANCH  11  12
HETATM   12  N1  UNL     1      32.204 151.672 335.251  1.00  0.00    -0.367 N 
ATOM     13  H1  UNL     1      33.185 151.731 335.523  1.00  0.00     0.161 HD
BRANCH  12  14
HETATM   14  C1  UNL     1      31.585 150.408 335.076  1.00  0.00     0.348 C 
HETATM   15  O1  UNL     1      32.067 149.404 335.646  1.00  0.00    -0.284 OA
ENDBRANCH  12  14
ENDBRANCH  11  12
ENDBRANCH   1  11
TORSDOF 3
ENDMDL
MODEL 5
REMARK VINA RESULT: -4.417984935      4.014      5.431
REMARK  3 active torsions:
REMARK  status: ('A' for Active; 'I' for Inactive)
REMARK    1  A    between atoms: C1_2  and  N1_3 
REMARK    2  A    between atoms: N1_3  and  C2_5 
REMARK    3  A    between atoms: C2_5  and  C3_6 
ROOT
HETATM    1  C3  UNL     1      31.967 154.032 335.863  1.00  0.00    -0.023 C 
HETATM    2  C4  UNL     1      33.489 153.956 335.723  1.00  0.00     0.015 C 
HETATM    3  C5  UNL     1      34.148 155.089 336.471  1.00  0.00    -0.013 C 
HETATM    4  C6  UNL     1      33.607 156.380 335.851  1.00  0.00     0.009 C 
HETATM    5  C7  UNL     1      32.135 156.473 336.071  1.00  0.00    -0.013 C 
HETATM    6  C8  UNL     1      31.721 156.320 337.502  1.00  0.00     0.009 C 
HETATM    7  C9  UNL     1      32.298 155.047 338.088  1.00  0.00    -0.013 C 
HETATM    8  C10 UNL     1      33.786 155.038 337.924  1.00  0.00     0.009 C 
HETATM    9  C11 UNL     1      31.671 153.894 337.319  1.00  0.00     0.015 C 
HETATM   10  C12 UNL     1      31.477 155.342 335.283  1.00  0.00     0.015 C 
ENDROOT
BRANCH   1  11
HETATM   11  C2  UNL     1      31.368 152.898 335.089  1.00  0.00     0.131 C 
BRANCH  11  12
HETATM   12  N1  UNL     1      32.170 151.706 335.233  1.00  0.00    -0.367 N 
ATOM     13  H1  UNL     1      33.166 151.779 335.438  1.00  0.00     0.161 HD
BRANCH  12  14
HETATM   14  C1  UNL     1      31.561 150.434 335.087  1.00  0.00     0.348 C 
HETATM   15  O1  UNL     1      32.081 149.437 335.635  1.00  0.00    -0.284 OA
ENDBRANCH  12  14
ENDBRANCH  11  12
ENDBRANCH   1  11
TORSDOF 3
ENDMDL
