MODEL 1
REMARK VINA RESULT: -7.134584026      0.000      0.000
REMARK  1 active torsions:
REMARK  status: ('A' for Active; 'I' for Inactive)
REMARK    1  A    between atoms: C2_5  and  C3_6 
ROOT
HETATM    1  N1  UNL     1      91.356  16.608 135.284  1.00  0.00    -0.086 NA
HETATM    2  C1  UNL     1      91.923  15.323 135.061  1.00  0.00     0.116 C 
HETATM    3  N2  UNL     1      92.798  15.032 134.160  1.00  0.00    -0.353 N 
ATOM      4  H2  UNL     1      93.198  15.689 133.489  1.00  0.00     0.162 HD
HETATM    5  C2  UNL     1      93.123  13.622 134.254  1.00  0.00     0.289 C 
HETATM    6  N3  UNL     1      92.001  13.045 134.913  1.00  0.00    -0.048 N 
ATOM      7  H31 UNL     1      92.179  12.140 135.347  1.00  0.00     0.280 HD
ATOM      8  H32 UNL     1      91.262  12.715 134.292  1.00  0.00     0.280 HD
HETATM    9  C9  UNL     1      91.599  14.095 135.833  1.00  0.00     0.307 C 
ENDROOT
BRANCH   5  10
HETATM   10  C3  UNL     1      93.429  13.035 132.908  1.00  0.00     0.036 C 
HETATM   11  C4  UNL     1      94.203  13.918 132.004  1.00  0.00     0.008 C 
HETATM   12  C5  UNL     1      93.487  14.413 130.806  1.00  0.00     0.001 C 
HETATM   13  C6  UNL     1      92.618  13.435 130.109  1.00  0.00     0.000 C 
HETATM   14  C7  UNL     1      92.435  12.140 130.896  1.00  0.00     0.001 C 
HETATM   15  C8  UNL     1      92.122  12.543 132.310  1.00  0.00     0.008 C 
ENDBRANCH   5  10
TORSDOF 1
ENDMDL
MODEL 2
REMARK VINA RESULT: -7.073566526      2.468      3.466
REMARK  1 active torsions:
REMARK  status: ('A' for Active; 'I' for Inactive)
REMARK    1  A    between atoms: C2_5  and  C3_6 
ROOT
HETATM    1  N1  UNL     1      93.162  19.160 133.742  1.00  0.00    -0.086 NA
HETATM    2  C1  UNL     1      92.983  18.165 132.740  1.00  0.00     0.116 C 
HETATM    3  N2  UNL     1      92.856  16.900 132.951  1.00  0.00    -0.353 N 
ATOM      4  H2  UNL     1      92.867  16.448 133.866  1.00  0.00     0.162 HD
HETATM    5  C2  UNL     1      92.695  16.223 131.679  1.00  0.00     0.289 C 
HETATM    6  N3  UNL     1      93.257  17.120 130.728  1.00  0.00    -0.048 N 
ATOM      7  H31 UNL     1      92.956  16.969 129.766  1.00  0.00     0.280 HD
ATOM      8  H32 UNL     1      94.251  16.982 130.544  1.00  0.00     0.280 HD
HETATM    9  C9  UNL     1      92.915  18.420 131.278  1.00  0.00     0.307 C 
ENDROOT
BRANCH   5  10
HETATM   10  C3  UNL     1      93.317  14.858 131.697  1.00  0.00     0.036 C 
HETATM   11  C4  UNL     1      93.341  14.167 130.386  1.00  0.00     0.008 C 
HETATM   12  C5  UNL     1      92.482  12.966 130.267  1.00  0.00     0.001 C 
HETATM   13  C6  UNL     1      92.459  12.057 131.439  1.00  0.00     0.000 C 
HETATM   14  C7  UNL     1      93.154  12.649 132.662  1.00  0.00     0.001 C 
HETATM   15  C8  UNL     1      92.646  14.057 132.798  1.00  0.00     0.008 C 
ENDBRANCH   5  10
TORSDOF 1
ENDMDL
MODEL 3
REMARK VINA RESULT: -6.701626630      1.138      1.875
REMARK  1 active torsions:
REMARK  status: ('A' for Active; 'I' for Inactive)
REMARK    1  A    between atoms: C2_5  and  C3_6 
ROOT
HETATM    1  N1  UNL     1      92.783  12.885 137.650  1.00  0.00    -0.086 NA
HETATM    2  C1  UNL     1      92.484  13.440 136.375  1.00  0.00     0.116 C 
HETATM    3  N2  UNL     1      92.566  12.820 135.247  1.00  0.00    -0.353 N 
ATOM      4  H2  UNL     1      92.856  11.850 135.124  1.00  0.00     0.162 HD
HETATM    5  C2  UNL     1      92.180  13.724 134.182  1.00  0.00     0.289 C 
HETATM    6  N3  UNL     1      92.379  15.022 134.731  1.00  0.00    -0.048 N 
ATOM      7  H31 UNL     1      91.870  15.770 134.259  1.00  0.00     0.280 HD
ATOM      8  H32 UNL     1      93.306  15.417 134.573  1.00  0.00     0.280 HD
HETATM    9  C9  UNL     1      92.028  14.832 136.128  1.00  0.00     0.307 C 
ENDROOT
BRANCH   5  10
HETATM   10  C3  UNL     1      92.947  13.454 132.922  1.00  0.00     0.036 C 
HETATM   11  C4  UNL     1      93.650  14.629 132.355  1.00  0.00     0.008 C 
HETATM   12  C5  UNL     1      93.138  15.133 131.060  1.00  0.00     0.001 C 
HETATM   13  C6  UNL     1      92.758  14.107 130.060  1.00  0.00     0.000 C 
HETATM   14  C7  UNL     1      92.746  12.694 130.637  1.00  0.00     0.001 C 
HETATM   15  C8  UNL     1      92.005  12.775 131.942  1.00  0.00     0.008 C 
ENDBRANCH   5  10
TORSDOF 1
ENDMDL
MODEL 4
REMARK VINA RESULT: -6.671514968      1.496      1.893
REMARK  1 active torsions:
REMARK  status: ('A' for Active; 'I' for Inactive)
REMARK    1  A    between atoms: C2_5  and  C3_6 
ROOT
HETATM    1  N1  UNL     1      90.997  14.951 135.928  1.00  0.00    -0.086 NA
HETATM    2  C1  UNL     1      91.900  14.408 134.972  1.00  0.00     0.116 C 
HETATM    3  N2  UNL     1      92.667  15.089 134.191  1.00  0.00    -0.353 N 
ATOM      4  H2  UNL     1      92.727  16.107 134.158  1.00  0.00     0.162 HD
HETATM    5  C2  UNL     1      93.433  14.174 133.366  1.00  0.00     0.289 C 
HETATM    6  N3  UNL     1      92.671  12.972 133.373  1.00  0.00    -0.048 N 
ATOM      7  H31 UNL     1      93.193  12.133 133.120  1.00  0.00     0.280 HD
ATOM      8  H32 UNL     1      91.987  12.894 132.620  1.00  0.00     0.280 HD
HETATM    9  C9  UNL     1      92.108  12.960 134.712  1.00  0.00     0.307 C 
ENDROOT
BRANCH   5  10
HETATM   10  C3  UNL     1      93.692  14.744 132.003  1.00  0.00     0.036 C 
HETATM   11  C4  UNL     1      93.234  16.141 131.814  1.00  0.00     0.008 C 
HETATM   12  C5  UNL     1      92.108  16.336 130.873  1.00  0.00     0.001 C 
HETATM   13  C6  UNL     1      92.145  15.530 129.629  1.00  0.00     0.000 C 
HETATM   14  C7  UNL     1      93.233  14.460 129.648  1.00  0.00     0.001 C 
HETATM   15  C8  UNL     1      93.128  13.772 130.981  1.00  0.00     0.008 C 
ENDBRANCH   5  10
TORSDOF 1
ENDMDL
MODEL 5
REMARK VINA RESULT: -6.618836864      1.343      2.009
REMARK  1 active torsions:
REMARK  status: ('A' for Active; 'I' for Inactive)
REMARK    1  A    between atoms: C2_5  and  C3_6 
ROOT
HETATM    1  N1  UNL     1      92.106  16.598 136.922  1.00  0.00    -0.086 NA
HETATM    2  C1  UNL     1      92.226  16.357 135.525  1.00  0.00     0.116 C 
HETATM    3  N2  UNL     1      92.125  15.208 134.949  1.00  0.00    -0.353 N 
ATOM      4  H2  UNL     1      91.946  14.322 135.421  1.00  0.00     0.162 HD
HETATM    5  C2  UNL     1      92.308  15.379 133.521  1.00  0.00     0.289 C 
HETATM    6  N3  UNL     1      93.026  16.601 133.400  1.00  0.00    -0.048 N 
ATOM      7  H31 UNL     1      92.969  17.043 132.483  1.00  0.00     0.280 HD
ATOM      8  H32 UNL     1      94.042  16.503 133.401  1.00  0.00     0.280 HD
HETATM    9  C9  UNL     1      92.490  17.393 134.494  1.00  0.00     0.307 C 
ENDROOT
BRANCH   5  10
HETATM   10  C3  UNL     1      92.985  14.191 132.904  1.00  0.00     0.036 C 
HETATM   11  C4  UNL     1      93.439  14.388 131.507  1.00  0.00     0.008 C 
HETATM   12  C5  UNL     1      92.735  13.593 130.475  1.00  0.00     0.001 C 
HETATM   13  C6  UNL     1      92.427  12.186 130.826  1.00  0.00     0.000 C 
HETATM   14  C7  UNL     1      92.690  11.871 132.296  1.00  0.00     0.001 C 
HETATM   15  C8  UNL     1      92.073  12.991 133.087  1.00  0.00     0.008 C 
ENDBRANCH   5  10
TORSDOF 1
ENDMDL
