MODEL 1
REMARK VINA RESULT: -9.450534524      0.000      0.000
REMARK  11 active torsions:
REMARK  status: ('A' for Active; 'I' for Inactive)
REMARK    1  A    between atoms: C2_2  and  C4_4 
REMARK    2  A    between atoms: C4_4  and  N1_5 
REMARK    3  A    between atoms: C4_4  and  C25_33 
REMARK       I    between atoms: N1_5  and  C5_7 
REMARK    4  A    between atoms: C5_7  and  C6_9 
REMARK    5  A    between atoms: C6_9  and  C7_10 
REMARK    6  A    between atoms: C6_9  and  C14_17 
REMARK    7  A    between atoms: C7_10  and  C8_11 
REMARK    8  A    between atoms: C14_17  and  N2_18 
REMARK    9  A    between atoms: C14_17  and  C24_30 
REMARK       I    between atoms: N2_18  and  C15_20 
REMARK   10  A    between atoms: C15_20  and  C16_22 
REMARK   11  A    between atoms: C16_22  and  C18_24 
ROOT
HETATM    1  C6  UNL     1    -149.066-176.215 360.794  1.00  0.00     0.133 C 
ENDROOT
BRANCH   1   2
HETATM    2  C5  UNL     1    -148.744-176.639 359.450  1.00  0.00     0.228 C 
HETATM    3  N1  UNL     1    -149.685-177.147 358.512  1.00  0.00    -0.347 N 
ATOM      4  H1  UNL     1    -150.657-177.240 358.807  1.00  0.00     0.163 HD
HETATM    5  O1  UNL     1    -147.535-176.559 359.043  1.00  0.00    -0.273 OA
BRANCH   3   6
HETATM    6  C4  UNL     1    -149.347-177.536 357.177  1.00  0.00     0.177 C 
BRANCH   6   7
HETATM    7  C2  UNL     1    -150.106-176.686 356.206  1.00  0.00     0.009 C 
HETATM    8  C1  UNL     1    -149.841-175.204 356.394  1.00  0.00     0.012 C 
HETATM    9  C3  UNL     1    -151.570-176.964 356.304  1.00  0.00     0.012 C 
ENDBRANCH   6   7
BRANCH   6  10
HETATM   10  C25 UNL     1    -149.723-178.985 357.000  1.00  0.00     0.254 C 
HETATM   11  N4  UNL     1    -149.568-179.617 355.712  1.00  0.00    -0.060 NA
HETATM   12  O4  UNL     1    -150.168-179.697 357.910  1.00  0.00    -0.275 OA
ENDBRANCH   6  10
ENDBRANCH   3   6
ENDBRANCH   1   2
BRANCH   1  13
HETATM   13  C7  UNL     1    -150.205-176.860 361.487  1.00  0.00     0.025 C 
BRANCH  13  14
HETATM   14  C8  UNL     1    -149.793-177.845 362.530  1.00  0.00    -0.013 C 
HETATM   15  C9  UNL     1    -150.302-179.240 362.196  1.00  0.00     0.005 C 
HETATM   16  C10 UNL     1    -149.655-180.184 363.182  1.00  0.00     0.000 C 
HETATM   17  C11 UNL     1    -150.385-179.911 364.510  1.00  0.00     0.000 C 
HETATM   18  C12 UNL     1    -150.246-178.494 364.934  1.00  0.00     0.000 C 
HETATM   19  C13 UNL     1    -150.329-177.463 363.863  1.00  0.00     0.005 C 
ENDBRANCH  13  14
ENDBRANCH   1  13
BRANCH   1  20
HETATM   20  C14 UNL     1    -149.083-174.697 360.900  1.00  0.00     0.090 C 
BRANCH  20  21
HETATM   21  N2  UNL     1    -147.925-174.081 360.377  1.00  0.00    -0.325 N 
HETATM   22  C15 UNL     1    -147.446-172.771 360.361  1.00  0.00     0.226 C 
HETATM   23  O2  UNL     1    -148.075-171.841 360.918  1.00  0.00    -0.273 OA
ATOM     24  H2  UNL     1    -147.301-174.738 359.908  1.00  0.00     0.168 HD
BRANCH  22  25
HETATM   25  C16 UNL     1    -146.176-172.369 359.691  1.00  0.00     0.078 C 
HETATM   26  C17 UNL     1    -146.537-171.330 358.605  1.00  0.00     0.020 C 
BRANCH  25  27
HETATM   27  C18 UNL     1    -145.168-171.709 360.563  1.00  0.00    -0.002 C 
HETATM   28  C19 UNL     1    -143.847-172.425 360.643  1.00  0.00     0.005 C 
HETATM   29  C20 UNL     1    -142.854-171.597 361.424  1.00  0.00     0.000 C 
HETATM   30  C21 UNL     1    -143.568-170.625 362.355  1.00  0.00     0.000 C 
HETATM   31  C22 UNL     1    -144.395-169.631 361.568  1.00  0.00     0.000 C 
HETATM   32  C23 UNL     1    -144.959-170.259 360.303  1.00  0.00     0.005 C 
ENDBRANCH  25  27
ENDBRANCH  22  25
ENDBRANCH  20  21
BRANCH  20  33
HETATM   33  C24 UNL     1    -149.624-174.240 362.184  1.00  0.00     0.278 C 
HETATM   34  N3  UNL     1    -148.792-174.360 363.376  1.00  0.00    -0.056 NA
HETATM   35  O3  UNL     1    -150.745-173.749 362.400  1.00  0.00    -0.270 OA
ENDBRANCH  20  33
ENDBRANCH   1  20
TORSDOF 11
ENDMDL
MODEL 2
REMARK VINA RESULT: -9.170627380      2.586      7.510
REMARK  11 active torsions:
REMARK  status: ('A' for Active; 'I' for Inactive)
REMARK    1  A    between atoms: C2_2  and  C4_4 
REMARK    2  A    between atoms: C4_4  and  N1_5 
REMARK    3  A    between atoms: C4_4  and  C25_33 
REMARK       I    between atoms: N1_5  and  C5_7 
REMARK    4  A    between atoms: C5_7  and  C6_9 
REMARK    5  A    between atoms: C6_9  and  C7_10 
REMARK    6  A    between atoms: C6_9  and  C14_17 
REMARK    7  A    between atoms: C7_10  and  C8_11 
REMARK    8  A    between atoms: C14_17  and  N2_18 
REMARK    9  A    between atoms: C14_17  and  C24_30 
REMARK       I    between atoms: N2_18  and  C15_20 
REMARK   10  A    between atoms: C15_20  and  C16_22 
REMARK   11  A    between atoms: C16_22  and  C18_24 
ROOT
HETATM    1  C6  UNL     1    -147.775-174.445 360.832  1.00  0.00     0.133 C 
ENDROOT
BRANCH   1   2
HETATM    2  C5  UNL     1    -146.678-173.522 361.016  1.00  0.00     0.228 C 
HETATM    3  N1  UNL     1    -146.596-172.230 360.426  1.00  0.00    -0.347 N 
ATOM      4  H1  UNL     1    -147.354-171.933 359.812  1.00  0.00     0.163 HD
HETATM    5  O1  UNL     1    -145.697-173.861 361.762  1.00  0.00    -0.273 OA
BRANCH   3   6
HETATM    6  C4  UNL     1    -145.511-171.324 360.645  1.00  0.00     0.177 C 
BRANCH   6   7
HETATM    7  C2  UNL     1    -145.969-169.926 360.366  1.00  0.00     0.009 C 
HETATM    8  C1  UNL     1    -145.177-168.886 361.134  1.00  0.00     0.012 C 
HETATM    9  C3  UNL     1    -147.426-169.787 360.662  1.00  0.00     0.012 C 
ENDBRANCH   6   7
BRANCH   6  10
HETATM   10  C25 UNL     1    -144.390-171.698 359.709  1.00  0.00     0.254 C 
HETATM   11  N4  UNL     1    -143.066-171.938 360.230  1.00  0.00    -0.060 NA
HETATM   12  O4  UNL     1    -144.527-171.820 358.484  1.00  0.00    -0.275 OA
ENDBRANCH   6  10
ENDBRANCH   3   6
ENDBRANCH   1   2
BRANCH   1  13
HETATM   13  C7  UNL     1    -148.371-174.578 359.482  1.00  0.00     0.025 C 
BRANCH  13  14
HETATM   14  C8  UNL     1    -148.917-175.938 359.199  1.00  0.00    -0.013 C 
HETATM   15  C9  UNL     1    -147.804-176.976 359.150  1.00  0.00     0.005 C 
HETATM   16  C10 UNL     1    -148.474-178.327 359.078  1.00  0.00     0.000 C 
HETATM   17  C11 UNL     1    -149.020-178.408 357.641  1.00  0.00     0.000 C 
HETATM   18  C12 UNL     1    -149.973-177.305 357.350  1.00  0.00     0.000 C 
HETATM   19  C13 UNL     1    -149.631-175.964 357.895  1.00  0.00     0.005 C 
ENDBRANCH  13  14
ENDBRANCH   1  13
BRANCH   1  20
HETATM   20  C14 UNL     1    -148.816-174.285 361.931  1.00  0.00     0.090 C 
BRANCH  20  21
HETATM   21  N2  UNL     1    -149.003-175.451 362.706  1.00  0.00    -0.325 N 
HETATM   22  C15 UNL     1    -149.959-175.853 363.637  1.00  0.00     0.226 C 
HETATM   23  O2  UNL     1    -150.935-175.123 363.925  1.00  0.00    -0.273 OA
ATOM     24  H2  UNL     1    -148.279-176.152 362.550  1.00  0.00     0.168 HD
BRANCH  22  25
HETATM   25  C16 UNL     1    -149.904-177.157 364.359  1.00  0.00     0.078 C 
HETATM   26  C17 UNL     1    -151.110-177.198 365.326  1.00  0.00     0.020 C 
BRANCH  25  27
HETATM   27  C18 UNL     1    -150.027-178.371 363.509  1.00  0.00    -0.002 C 
HETATM   28  C19 UNL     1    -149.800-179.668 364.237  1.00  0.00     0.005 C 
HETATM   29  C20 UNL     1    -150.096-180.835 363.325  1.00  0.00     0.000 C 
HETATM   30  C21 UNL     1    -149.972-180.427 361.862  1.00  0.00     0.000 C 
HETATM   31  C22 UNL     1    -150.991-179.366 361.508  1.00  0.00     0.000 C 
HETATM   32  C23 UNL     1    -151.265-178.446 362.688  1.00  0.00     0.005 C 
ENDBRANCH  25  27
ENDBRANCH  22  25
ENDBRANCH  20  21
BRANCH  20  33
HETATM   33  C24 UNL     1    -149.986-173.528 361.476  1.00  0.00     0.278 C 
HETATM   34  N3  UNL     1    -149.933-172.070 361.514  1.00  0.00    -0.056 NA
HETATM   35  O3  UNL     1    -151.062-173.981 361.050  1.00  0.00    -0.270 OA
ENDBRANCH  20  33
ENDBRANCH   1  20
TORSDOF 11
ENDMDL
MODEL 3
REMARK VINA RESULT: -8.983160617      1.034      1.447
REMARK  11 active torsions:
REMARK  status: ('A' for Active; 'I' for Inactive)
REMARK    1  A    between atoms: C2_2  and  C4_4 
REMARK    2  A    between atoms: C4_4  and  N1_5 
REMARK    3  A    between atoms: C4_4  and  C25_33 
REMARK       I    between atoms: N1_5  and  C5_7 
REMARK    4  A    between atoms: C5_7  and  C6_9 
REMARK    5  A    between atoms: C6_9  and  C7_10 
REMARK    6  A    between atoms: C6_9  and  C14_17 
REMARK    7  A    between atoms: C7_10  and  C8_11 
REMARK    8  A    between atoms: C14_17  and  N2_18 
REMARK    9  A    between atoms: C14_17  and  C24_30 
REMARK       I    between atoms: N2_18  and  C15_20 
REMARK   10  A    between atoms: C15_20  and  C16_22 
REMARK   11  A    between atoms: C16_22  and  C18_24 
ROOT
HETATM    1  C6  UNL     1    -149.342-176.323 360.798  1.00  0.00     0.133 C 
ENDROOT
BRANCH   1   2
HETATM    2  C5  UNL     1    -148.940-176.690 359.459  1.00  0.00     0.228 C 
HETATM    3  N1  UNL     1    -149.801-177.256 358.479  1.00  0.00    -0.347 N 
ATOM      4  H1  UNL     1    -150.771-177.437 358.737  1.00  0.00     0.163 HD
HETATM    5  O1  UNL     1    -147.728-176.499 359.098  1.00  0.00    -0.273 OA
BRANCH   3   6
HETATM    6  C4  UNL     1    -149.384-177.587 357.151  1.00  0.00     0.177 C 
BRANCH   6   7
HETATM    7  C2  UNL     1    -150.125-176.730 356.171  1.00  0.00     0.009 C 
HETATM    8  C1  UNL     1    -149.826-175.253 356.343  1.00  0.00     0.012 C 
HETATM    9  C3  UNL     1    -151.595-176.973 356.273  1.00  0.00     0.012 C 
ENDBRANCH   6   7
BRANCH   6  10
HETATM   10  C25 UNL     1    -149.700-179.041 356.907  1.00  0.00     0.254 C 
HETATM   11  N4  UNL     1    -149.484-179.617 355.602  1.00  0.00    -0.060 NA
HETATM   12  O4  UNL     1    -150.145-179.804 357.775  1.00  0.00    -0.275 OA
ENDBRANCH   6  10
ENDBRANCH   3   6
ENDBRANCH   1   2
BRANCH   1  13
HETATM   13  C7  UNL     1    -150.402-177.117 361.463  1.00  0.00     0.025 C 
BRANCH  13  14
HETATM   14  C8  UNL     1    -149.888-178.036 362.520  1.00  0.00    -0.013 C 
HETATM   15  C9  UNL     1    -150.401-179.454 362.310  1.00  0.00     0.005 C 
HETATM   16  C10 UNL     1    -149.659-180.332 363.289  1.00  0.00     0.000 C 
HETATM   17  C11 UNL     1    -150.279-179.991 364.657  1.00  0.00     0.000 C 
HETATM   18  C12 UNL     1    -150.127-178.550 364.987  1.00  0.00     0.000 C 
HETATM   19  C13 UNL     1    -150.316-177.584 363.871  1.00  0.00     0.005 C 
ENDBRANCH  13  14
ENDBRANCH   1  13
BRANCH   1  20
HETATM   20  C14 UNL     1    -149.561-174.821 360.912  1.00  0.00     0.090 C 
BRANCH  20  21
HETATM   21  N2  UNL     1    -148.779-174.066 360.010  1.00  0.00    -0.325 N 
HETATM   22  C15 UNL     1    -148.879-172.780 359.481  1.00  0.00     0.226 C 
HETATM   23  O2  UNL     1    -149.810-172.010 359.813  1.00  0.00    -0.273 OA
ATOM     24  H2  UNL     1    -147.961-174.573 359.672  1.00  0.00     0.168 HD
BRANCH  22  25
HETATM   25  C16 UNL     1    -147.913-172.221 358.492  1.00  0.00     0.078 C 
HETATM   26  C17 UNL     1    -148.736-171.483 357.411  1.00  0.00     0.020 C 
BRANCH  25  27
HETATM   27  C18 UNL     1    -146.954-171.217 359.024  1.00  0.00    -0.002 C 
HETATM   28  C19 UNL     1    -146.483-171.487 360.428  1.00  0.00     0.005 C 
HETATM   29  C20 UNL     1    -145.404-170.502 360.813  1.00  0.00     0.000 C 
HETATM   30  C21 UNL     1    -145.501-169.234 359.974  1.00  0.00     0.000 C 
HETATM   31  C22 UNL     1    -145.271-169.536 358.509  1.00  0.00     0.000 C 
HETATM   32  C23 UNL     1    -145.798-170.914 358.138  1.00  0.00     0.005 C 
ENDBRANCH  25  27
ENDBRANCH  22  25
ENDBRANCH  20  21
BRANCH  20  33
HETATM   33  C24 UNL     1    -149.674-174.384 362.307  1.00  0.00     0.278 C 
HETATM   34  N3  UNL     1    -148.480-174.405 363.145  1.00  0.00    -0.056 NA
HETATM   35  O3  UNL     1    -150.695-173.987 362.895  1.00  0.00    -0.270 OA
ENDBRANCH  20  33
ENDBRANCH   1  20
TORSDOF 11
ENDMDL
MODEL 4
REMARK VINA RESULT: -8.909594647      1.249      1.807
REMARK  11 active torsions:
REMARK  status: ('A' for Active; 'I' for Inactive)
REMARK    1  A    between atoms: C2_2  and  C4_4 
REMARK    2  A    between atoms: C4_4  and  N1_5 
REMARK    3  A    between atoms: C4_4  and  C25_33 
REMARK       I    between atoms: N1_5  and  C5_7 
REMARK    4  A    between atoms: C5_7  and  C6_9 
REMARK    5  A    between atoms: C6_9  and  C7_10 
REMARK    6  A    between atoms: C6_9  and  C14_17 
REMARK    7  A    between atoms: C7_10  and  C8_11 
REMARK    8  A    between atoms: C14_17  and  N2_18 
REMARK    9  A    between atoms: C14_17  and  C24_30 
REMARK       I    between atoms: N2_18  and  C15_20 
REMARK   10  A    between atoms: C15_20  and  C16_22 
REMARK   11  A    between atoms: C16_22  and  C18_24 
ROOT
HETATM    1  C6  UNL     1    -148.981-175.764 360.552  1.00  0.00     0.133 C 
ENDROOT
BRANCH   1   2
HETATM    2  C5  UNL     1    -148.695-176.464 359.321  1.00  0.00     0.228 C 
HETATM    3  N1  UNL     1    -149.676-176.912 358.394  1.00  0.00    -0.347 N 
ATOM      4  H1  UNL     1    -150.658-176.747 358.615  1.00  0.00     0.163 HD
HETATM    5  O1  UNL     1    -147.478-176.711 359.012  1.00  0.00    -0.273 OA
BRANCH   3   6
HETATM    6  C4  UNL     1    -149.365-177.581 357.168  1.00  0.00     0.177 C 
BRANCH   6   7
HETATM    7  C2  UNL     1    -150.109-176.927 356.045  1.00  0.00     0.009 C 
HETATM    8  C1  UNL     1    -149.722-175.474 355.853  1.00  0.00     0.012 C 
HETATM    9  C3  UNL     1    -151.583-177.044 356.259  1.00  0.00     0.012 C 
ENDBRANCH   6   7
BRANCH   6  10
HETATM   10  C25 UNL     1    -149.787-179.022 357.299  1.00  0.00     0.254 C 
HETATM   11  N4  UNL     1    -149.738-179.894 356.150  1.00  0.00    -0.060 NA
HETATM   12  O4  UNL     1    -150.185-179.530 358.355  1.00  0.00    -0.275 OA
ENDBRANCH   6  10
ENDBRANCH   3   6
ENDBRANCH   1   2
BRANCH   1  13
HETATM   13  C7  UNL     1    -150.174-176.165 361.336  1.00  0.00     0.025 C 
BRANCH  13  14
HETATM   14  C8  UNL     1    -149.866-177.099 362.459  1.00  0.00    -0.013 C 
HETATM   15  C9  UNL     1    -150.802-178.300 362.444  1.00  0.00     0.005 C 
HETATM   16  C10 UNL     1    -150.273-179.273 363.471  1.00  0.00     0.000 C 
HETATM   17  C11 UNL     1    -150.631-178.634 364.825  1.00  0.00     0.000 C 
HETATM   18  C12 UNL     1    -150.020-177.288 364.978  1.00  0.00     0.000 C 
HETATM   19  C13 UNL     1    -150.011-176.416 363.772  1.00  0.00     0.005 C 
ENDBRANCH  13  14
ENDBRANCH   1  13
BRANCH   1  20
HETATM   20  C14 UNL     1    -148.869-174.258 360.365  1.00  0.00     0.090 C 
BRANCH  20  21
HETATM   21  N2  UNL     1    -147.586-173.746 360.657  1.00  0.00    -0.325 N 
HETATM   22  C15 UNL     1    -147.019-172.473 360.621  1.00  0.00     0.226 C 
HETATM   23  O2  UNL     1    -147.693-171.468 360.297  1.00  0.00    -0.273 OA
ATOM     24  H2  UNL     1    -146.930-174.466 360.961  1.00  0.00     0.168 HD
BRANCH  22  25
HETATM   25  C16 UNL     1    -145.590-172.201 360.954  1.00  0.00     0.078 C 
HETATM   26  C17 UNL     1    -144.986-173.516 361.499  1.00  0.00     0.020 C 
BRANCH  25  27
HETATM   27  C18 UNL     1    -144.727-171.804 359.809  1.00  0.00    -0.002 C 
HETATM   28  C19 UNL     1    -145.299-170.712 358.946  1.00  0.00     0.005 C 
HETATM   29  C20 UNL     1    -144.284-170.282 357.913  1.00  0.00     0.000 C 
HETATM   30  C21 UNL     1    -143.266-171.387 357.656  1.00  0.00     0.000 C 
HETATM   31  C22 UNL     1    -142.469-171.689 358.906  1.00  0.00     0.000 C 
HETATM   32  C23 UNL     1    -143.312-171.503 360.159  1.00  0.00     0.005 C 
ENDBRANCH  25  27
ENDBRANCH  22  25
ENDBRANCH  20  21
BRANCH  20  33
HETATM   33  C24 UNL     1    -150.056-173.551 360.857  1.00  0.00     0.278 C 
HETATM   34  N3  UNL     1    -150.077-173.103 362.246  1.00  0.00    -0.056 NA
HETATM   35  O3  UNL     1    -151.089-173.275 360.224  1.00  0.00    -0.270 OA
ENDBRANCH  20  33
ENDBRANCH   1  20
TORSDOF 11
ENDMDL
MODEL 5
REMARK VINA RESULT: -8.673509166      2.344      7.081
REMARK  11 active torsions:
REMARK  status: ('A' for Active; 'I' for Inactive)
REMARK    1  A    between atoms: C2_2  and  C4_4 
REMARK    2  A    between atoms: C4_4  and  N1_5 
REMARK    3  A    between atoms: C4_4  and  C25_33 
REMARK       I    between atoms: N1_5  and  C5_7 
REMARK    4  A    between atoms: C5_7  and  C6_9 
REMARK    5  A    between atoms: C6_9  and  C7_10 
REMARK    6  A    between atoms: C6_9  and  C14_17 
REMARK    7  A    between atoms: C7_10  and  C8_11 
REMARK    8  A    between atoms: C14_17  and  N2_18 
REMARK    9  A    between atoms: C14_17  and  C24_30 
REMARK       I    between atoms: N2_18  and  C15_20 
REMARK   10  A    between atoms: C15_20  and  C16_22 
REMARK   11  A    between atoms: C16_22  and  C18_24 
ROOT
HETATM    1  C6  UNL     1    -149.048-173.280 359.089  1.00  0.00     0.133 C 
ENDROOT
BRANCH   1   2
HETATM    2  C5  UNL     1    -149.784-174.468 358.720  1.00  0.00     0.228 C 
HETATM    3  N1  UNL     1    -149.209-175.634 358.145  1.00  0.00    -0.347 N 
ATOM      4  H1  UNL     1    -148.206-175.634 357.958  1.00  0.00     0.163 HD
HETATM    5  O1  UNL     1    -151.047-174.505 358.918  1.00  0.00    -0.273 OA
BRANCH   3   6
HETATM    6  C4  UNL     1    -149.955-176.808 357.812  1.00  0.00     0.177 C 
BRANCH   6   7
HETATM    7  C2  UNL     1    -149.100-178.018 358.034  1.00  0.00     0.009 C 
HETATM    8  C1  UNL     1    -149.907-179.239 358.434  1.00  0.00     0.012 C 
HETATM    9  C3  UNL     1    -148.052-177.734 359.059  1.00  0.00     0.012 C 
ENDBRANCH   6   7
BRANCH   6  10
HETATM   10  C25 UNL     1    -150.355-176.716 356.361  1.00  0.00     0.254 C 
HETATM   11  N4  UNL     1    -149.436-176.169 355.394  1.00  0.00    -0.060 NA
HETATM   12  O4  UNL     1    -151.452-177.090 355.925  1.00  0.00    -0.275 OA
ENDBRANCH   6  10
ENDBRANCH   3   6
ENDBRANCH   1   2
BRANCH   1  13
HETATM   13  C7  UNL     1    -148.253-172.587 358.049  1.00  0.00     0.025 C 
BRANCH  13  14
HETATM   14  C8  UNL     1    -149.009-171.522 357.326  1.00  0.00    -0.013 C 
HETATM   15  C9  UNL     1    -148.812-171.636 355.821  1.00  0.00     0.005 C 
HETATM   16  C10 UNL     1    -149.777-170.666 355.183  1.00  0.00     0.000 C 
HETATM   17  C11 UNL     1    -149.167-169.279 355.459  1.00  0.00     0.000 C 
HETATM   18  C12 UNL     1    -149.013-169.025 356.915  1.00  0.00     0.000 C 
HETATM   19  C13 UNL     1    -148.560-170.170 357.751  1.00  0.00     0.005 C 
ENDBRANCH  13  14
ENDBRANCH   1  13
BRANCH   1  20
HETATM   20  C14 UNL     1    -148.280-173.492 360.385  1.00  0.00     0.090 C 
BRANCH  20  21
HETATM   21  N2  UNL     1    -149.053-174.081 361.411  1.00  0.00    -0.325 N 
HETATM   22  C15 UNL     1    -148.766-174.560 362.688  1.00  0.00     0.226 C 
HETATM   23  O2  UNL     1    -147.609-174.492 363.164  1.00  0.00    -0.273 OA
ATOM     24  H2  UNL     1    -150.037-174.177 361.161  1.00  0.00     0.168 HD
BRANCH  22  25
HETATM   25  C16 UNL     1    -149.785-175.185 363.579  1.00  0.00     0.078 C 
HETATM   26  C17 UNL     1    -151.168-174.646 363.145  1.00  0.00     0.020 C 
BRANCH  25  27
HETATM   27  C18 UNL     1    -149.887-176.667 363.502  1.00  0.00    -0.002 C 
HETATM   28  C19 UNL     1    -150.399-177.322 364.755  1.00  0.00     0.005 C 
HETATM   29  C20 UNL     1    -150.608-178.800 364.520  1.00  0.00     0.000 C 
HETATM   30  C21 UNL     1    -149.748-179.294 363.364  1.00  0.00     0.000 C 
HETATM   31  C22 UNL     1    -150.142-178.618 362.069  1.00  0.00     0.000 C 
HETATM   32  C23 UNL     1    -150.608-177.190 362.310  1.00  0.00     0.005 C 
ENDBRANCH  25  27
ENDBRANCH  22  25
ENDBRANCH  20  21
BRANCH  20  33
HETATM   33  C24 UNL     1    -147.410-172.356 360.703  1.00  0.00     0.278 C 
HETATM   34  N3  UNL     1    -145.965-172.563 360.713  1.00  0.00    -0.056 NA
HETATM   35  O3  UNL     1    -147.753-171.194 360.980  1.00  0.00    -0.270 OA
ENDBRANCH  20  33
ENDBRANCH   1  20
TORSDOF 11
ENDMDL
