MODEL 1
REMARK VINA RESULT: -7.706286748      0.000      0.000
REMARK  6 active torsions:
REMARK  status: ('A' for Active; 'I' for Inactive)
REMARK    1  A    between atoms: C2_3  and  C3_4 
REMARK    2  A    between atoms: C6_7  and  O1_8 
REMARK    3  A    between atoms: C8_11  and  O2_12 
REMARK    4  A    between atoms: C16_21  and  C17_22 
REMARK    5  A    between atoms: C17_22  and  O3_23 
REMARK    6  A    between atoms: C20_27  and  O4_29 
ROOT
HETATM    1  C1  UNL     1       1.394  -7.402   7.539  1.00  0.00     0.311 C 
HETATM    2  N1  UNL     1       1.075  -7.431   8.948  1.00  0.00     0.101 N 
HETATM    3  C2  UNL     1       1.783  -6.268   9.490  1.00  0.00     0.259 C 
HETATM    4  C9  UNL     1       1.579  -5.898  10.861  1.00  0.00     0.041 C 
HETATM    5  C10 UNL     1       0.765  -4.731  11.296  1.00  0.00     0.002 C 
HETATM    6  C11 UNL     1      -0.191  -5.086  12.465  1.00  0.00     0.000 C 
HETATM    7  C12 UNL     1      -1.554  -5.375  11.955  1.00  0.00     0.000 C 
HETATM    8  C13 UNL     1      -2.057  -6.754  12.099  1.00  0.00     0.000 C 
HETATM    9  C14 UNL     1      -1.647  -7.696  10.961  1.00  0.00     0.001 C 
HETATM   10  C15 UNL     1      -0.639  -8.607  11.463  1.00  0.00     0.014 C 
HETATM   11  C16 UNL     1       0.403  -9.198  10.655  1.00  0.00     0.015 C 
HETATM   12  C18 UNL     1      -0.286 -10.527  10.180  1.00  0.00     0.017 C 
HETATM   13  C19 UNL     1       0.865 -11.097   9.485  1.00  0.00     0.040 C 
HETATM   14  C20 UNL     1       1.198  -9.872   8.597  1.00  0.00     0.086 C 
HETATM   15  C21 UNL     1       0.095  -9.870   7.609  1.00  0.00     0.048 C 
HETATM   16  C22 UNL     1       1.190  -8.674   9.581  1.00  0.00     0.267 C 
ENDROOT
BRANCH   3  17
HETATM   17  C3  UNL     1       1.321  -5.138   8.608  1.00  0.00     0.008 A 
HETATM   18  C4  UNL     1       0.022  -4.978   8.171  1.00  0.00     0.015 A 
HETATM   19  C5  UNL     1      -0.293  -4.037   7.185  1.00  0.00     0.037 A 
HETATM   20  C6  UNL     1       0.660  -3.233   6.616  1.00  0.00     0.068 A 
HETATM   21  C7  UNL     1       1.960  -3.376   7.041  1.00  0.00     0.073 A 
HETATM   22  C8  UNL     1       2.280  -4.298   8.004  1.00  0.00     0.076 A 
BRANCH  20  23
HETATM   23  O1  UNL     1       0.340  -2.292   5.625  1.00  0.00    -0.361 OA
ATOM     24  H1  UNL     1       0.997  -1.943   5.034  1.00  0.00     0.217 HD
ENDBRANCH  20  23
BRANCH  22  25
HETATM   25  O2  UNL     1       3.601  -4.433   8.440  1.00  0.00    -0.360 OA
ATOM     26  H2  UNL     1       4.197  -4.899   7.865  1.00  0.00     0.217 HD
ENDBRANCH  22  25
ENDBRANCH   3  17
BRANCH  11  27
HETATM   27  C17 UNL     1       1.400  -9.822  11.688  1.00  0.00     0.175 C 
BRANCH  27  28
HETATM   28  O3  UNL     1       2.616  -9.214  11.677  1.00  0.00    -0.400 OA
ATOM     29  H3  UNL     1       3.331  -9.826  11.548  1.00  0.00     0.209 HD
ENDBRANCH  27  28
ENDBRANCH  11  27
BRANCH  14  30
HETATM   30  O4  UNL     1       2.446 -10.262   8.183  1.00  0.00    -0.388 OA
ATOM     31  H4  UNL     1       2.695  -9.464   7.731  1.00  0.00     0.210 HD
ENDBRANCH  14  30
TORSDOF 6
ENDMDL
MODEL 2
REMARK VINA RESULT: -7.417521654      3.494      5.456
REMARK  6 active torsions:
REMARK  status: ('A' for Active; 'I' for Inactive)
REMARK    1  A    between atoms: C2_3  and  C3_4 
REMARK    2  A    between atoms: C6_7  and  O1_8 
REMARK    3  A    between atoms: C8_11  and  O2_12 
REMARK    4  A    between atoms: C16_21  and  C17_22 
REMARK    5  A    between atoms: C17_22  and  O3_23 
REMARK    6  A    between atoms: C20_27  and  O4_29 
ROOT
HETATM    1  C1  UNL     1      -1.056  -6.578  13.778  1.00  0.00     0.311 C 
HETATM    2  N1  UNL     1      -1.454  -6.686  12.394  1.00  0.00     0.101 N 
HETATM    3  C2  UNL     1      -1.796  -5.310  12.021  1.00  0.00     0.259 C 
HETATM    4  C9  UNL     1      -2.107  -5.009  10.653  1.00  0.00     0.041 C 
HETATM    5  C10 UNL     1      -1.189  -4.294   9.727  1.00  0.00     0.002 C 
HETATM    6  C11 UNL     1      -1.103  -4.980   8.339  1.00  0.00     0.000 C 
HETATM    7  C12 UNL     1       0.096  -5.850   8.261  1.00  0.00     0.000 C 
HETATM    8  C13 UNL     1      -0.124  -7.304   8.146  1.00  0.00     0.000 C 
HETATM    9  C14 UNL     1      -0.311  -8.022   9.488  1.00  0.00     0.001 C 
HETATM   10  C15 UNL     1      -1.708  -8.386   9.620  1.00  0.00     0.014 C 
HETATM   11  C16 UNL     1      -2.406  -8.499  10.879  1.00  0.00     0.015 C 
HETATM   12  C18 UNL     1      -2.177 -10.013  11.228  1.00  0.00     0.017 C 
HETATM   13  C19 UNL     1      -3.006 -10.056  12.430  1.00  0.00     0.040 C 
HETATM   14  C20 UNL     1      -2.375  -8.845  13.160  1.00  0.00     0.086 C 
HETATM   15  C21 UNL     1      -1.048  -9.360  13.570  1.00  0.00     0.048 C 
HETATM   16  C22 UNL     1      -2.333  -7.730  12.084  1.00  0.00     0.267 C 
ENDROOT
BRANCH   3  17
HETATM   17  C3  UNL     1      -0.573  -4.528  12.424  1.00  0.00     0.008 A 
HETATM   18  C4  UNL     1       0.715  -4.861  12.058  1.00  0.00     0.015 A 
HETATM   19  C5  UNL     1       1.815  -4.223  12.640  1.00  0.00     0.037 A 
HETATM   20  C6  UNL     1       1.669  -3.243  13.587  1.00  0.00     0.068 A 
HETATM   21  C7  UNL     1       0.394  -2.894  13.962  1.00  0.00     0.073 A 
HETATM   22  C8  UNL     1      -0.691  -3.516  13.400  1.00  0.00     0.076 A 
BRANCH  20  23
HETATM   23  O1  UNL     1       2.777  -2.606  14.171  1.00  0.00    -0.361 OA
ATOM     24  H1  UNL     1       2.805  -2.402  15.098  1.00  0.00     0.217 HD
ENDBRANCH  20  23
BRANCH  22  25
HETATM   25  O2  UNL     1      -1.987  -3.153  13.778  1.00  0.00    -0.360 OA
ATOM     26  H2  UNL     1      -2.068  -2.555  14.511  1.00  0.00     0.217 HD
ENDBRANCH  22  25
ENDBRANCH   3  17
BRANCH  11  27
HETATM   27  C17 UNL     1      -3.919  -8.588  10.487  1.00  0.00     0.175 C 
BRANCH  27  28
HETATM   28  O3  UNL     1      -4.599  -7.440  10.750  1.00  0.00    -0.400 OA
ATOM     29  H3  UNL     1      -5.538  -7.572  10.801  1.00  0.00     0.209 HD
ENDBRANCH  27  28
ENDBRANCH  11  27
BRANCH  14  30
HETATM   30  O4  UNL     1      -3.335  -8.673  14.124  1.00  0.00    -0.388 OA
ATOM     31  H4  UNL     1      -2.811  -8.903  14.882  1.00  0.00     0.210 HD
ENDBRANCH  14  30
TORSDOF 6
ENDMDL
MODEL 3
REMARK VINA RESULT: -7.354628173      3.174      4.518
REMARK  6 active torsions:
REMARK  status: ('A' for Active; 'I' for Inactive)
REMARK    1  A    between atoms: C2_3  and  C3_4 
REMARK    2  A    between atoms: C6_7  and  O1_8 
REMARK    3  A    between atoms: C8_11  and  O2_12 
REMARK    4  A    between atoms: C16_21  and  C17_22 
REMARK    5  A    between atoms: C17_22  and  O3_23 
REMARK    6  A    between atoms: C20_27  and  O4_29 
ROOT
HETATM    1  C1  UNL     1       0.517  -7.063  11.210  1.00  0.00     0.311 C 
HETATM    2  N1  UNL     1      -0.430  -8.121  11.476  1.00  0.00     0.101 N 
HETATM    3  C2  UNL     1      -0.857  -7.869  12.855  1.00  0.00     0.259 C 
HETATM    4  C9  UNL     1      -1.916  -8.656  13.418  1.00  0.00     0.041 C 
HETATM    5  C10 UNL     1      -3.301  -8.156  13.634  1.00  0.00     0.002 C 
HETATM    6  C11 UNL     1      -4.372  -9.170  13.157  1.00  0.00     0.000 C 
HETATM    7  C12 UNL     1      -4.856  -8.818  11.800  1.00  0.00     0.000 C 
HETATM    8  C13 UNL     1      -4.546  -9.753  10.703  1.00  0.00     0.000 C 
HETATM    9  C14 UNL     1      -3.173  -9.530  10.054  1.00  0.00     0.001 C 
HETATM   10  C15 UNL     1      -2.293 -10.604  10.470  1.00  0.00     0.014 C 
HETATM   11  C16 UNL     1      -0.861 -10.477  10.609  1.00  0.00     0.015 C 
HETATM   12  C18 UNL     1      -0.370 -10.888   9.175  1.00  0.00     0.017 C 
HETATM   13  C19 UNL     1       1.064 -10.846   9.449  1.00  0.00     0.040 C 
HETATM   14  C20 UNL     1       1.117  -9.424  10.060  1.00  0.00     0.086 C 
HETATM   15  C21 UNL     1       0.909  -8.550   8.883  1.00  0.00     0.048 C 
HETATM   16  C22 UNL     1      -0.040  -9.409  11.092  1.00  0.00     0.267 C 
ENDROOT
BRANCH   3  17
HETATM   17  C3  UNL     1      -1.286  -6.425  12.827  1.00  0.00     0.008 A 
HETATM   18  C4  UNL     1      -2.067  -5.869  11.836  1.00  0.00     0.015 A 
HETATM   19  C5  UNL     1      -2.248  -4.484  11.756  1.00  0.00     0.037 A 
HETATM   20  C6  UNL     1      -1.669  -3.623  12.652  1.00  0.00     0.068 A 
HETATM   21  C7  UNL     1      -0.890  -4.159  13.649  1.00  0.00     0.073 A 
HETATM   22  C8  UNL     1      -0.704  -5.515  13.734  1.00  0.00     0.076 A 
BRANCH  20  23
HETATM   23  O1  UNL     1      -1.851  -2.233  12.567  1.00  0.00    -0.361 OA
ATOM     24  H1  UNL     1      -1.117  -1.630  12.576  1.00  0.00     0.217 HD
ENDBRANCH  20  23
BRANCH  22  25
HETATM   25  O2  UNL     1       0.083  -6.057  14.755  1.00  0.00    -0.360 OA
ATOM     26  H2  UNL     1      -0.111  -6.948  15.018  1.00  0.00     0.217 HD
ENDBRANCH  22  25
ENDBRANCH   3  17
BRANCH  11  27
HETATM   27  C17 UNL     1      -0.421 -11.771  11.374  1.00  0.00     0.175 C 
BRANCH  27  28
HETATM   28  O3  UNL     1      -0.091 -11.528  12.670  1.00  0.00    -0.400 OA
ATOM     29  H3  UNL     1      -0.025 -12.322  13.187  1.00  0.00     0.209 HD
ENDBRANCH  27  28
ENDBRANCH  11  27
BRANCH  14  30
HETATM   30  O4  UNL     1       2.371  -9.492  10.609  1.00  0.00    -0.388 OA
ATOM     31  H4  UNL     1       2.134  -9.319  11.513  1.00  0.00     0.210 HD
ENDBRANCH  14  30
TORSDOF 6
ENDMDL
MODEL 4
REMARK VINA RESULT: -7.336635091      2.276      4.523
REMARK  6 active torsions:
REMARK  status: ('A' for Active; 'I' for Inactive)
REMARK    1  A    between atoms: C2_3  and  C3_4 
REMARK    2  A    between atoms: C6_7  and  O1_8 
REMARK    3  A    between atoms: C8_11  and  O2_12 
REMARK    4  A    between atoms: C16_21  and  C17_22 
REMARK    5  A    between atoms: C17_22  and  O3_23 
REMARK    6  A    between atoms: C20_27  and  O4_29 
ROOT
HETATM    1  C1  UNL     1       1.137  -4.344   9.326  1.00  0.00     0.311 C 
HETATM    2  N1  UNL     1       1.049  -5.785   9.265  1.00  0.00     0.101 N 
HETATM    3  C2  UNL     1       1.052  -6.194  10.672  1.00  0.00     0.259 C 
HETATM    4  C9  UNL     1       0.833  -7.573  11.004  1.00  0.00     0.041 C 
HETATM    5  C10 UNL     1      -0.435  -8.101  11.574  1.00  0.00     0.002 C 
HETATM    6  C11 UNL     1      -0.896  -9.405  10.872  1.00  0.00     0.000 C 
HETATM    7  C12 UNL     1      -1.919  -9.108   9.840  1.00  0.00     0.000 C 
HETATM    8  C13 UNL     1      -1.556  -9.351   8.431  1.00  0.00     0.000 C 
HETATM    9  C14 UNL     1      -0.825  -8.183   7.758  1.00  0.00     0.001 C 
HETATM   10  C15 UNL     1       0.568  -8.548   7.597  1.00  0.00     0.014 C 
HETATM   11  C16 UNL     1       1.664  -7.606   7.594  1.00  0.00     0.015 C 
HETATM   12  C18 UNL     1       1.776  -7.264   6.065  1.00  0.00     0.017 C 
HETATM   13  C19 UNL     1       2.964  -6.417   6.149  1.00  0.00     0.040 C 
HETATM   14  C20 UNL     1       2.461  -5.466   7.264  1.00  0.00     0.086 C 
HETATM   15  C21 UNL     1       1.438  -4.652   6.569  1.00  0.00     0.048 C 
HETATM   16  C22 UNL     1       1.903  -6.417   8.354  1.00  0.00     0.267 C 
ENDROOT
BRANCH   3  17
HETATM   17  C3  UNL     1      -0.054  -5.368  11.276  1.00  0.00     0.008 A 
HETATM   18  C4  UNL     1      -1.270  -5.139  10.667  1.00  0.00     0.015 A 
HETATM   19  C5  UNL     1      -2.163  -4.193  11.180  1.00  0.00     0.037 A 
HETATM   20  C6  UNL     1      -1.880  -3.460  12.302  1.00  0.00     0.068 A 
HETATM   21  C7  UNL     1      -0.674  -3.676  12.925  1.00  0.00     0.073 A 
HETATM   22  C8  UNL     1       0.210  -4.599  12.429  1.00  0.00     0.076 A 
BRANCH  20  23
HETATM   23  O1  UNL     1      -2.779  -2.508  12.812  1.00  0.00    -0.361 OA
ATOM     24  H1  UNL     1      -2.548  -1.590  12.883  1.00  0.00     0.217 HD
ENDBRANCH  20  23
BRANCH  22  25
HETATM   25  O2  UNL     1       1.431  -4.823  13.071  1.00  0.00    -0.360 OA
ATOM     26  H2  UNL     1       1.912  -4.056  13.358  1.00  0.00     0.217 HD
ENDBRANCH  22  25
ENDBRANCH   3  17
BRANCH  11  27
HETATM   27  C17 UNL     1       2.949  -8.492   7.718  1.00  0.00     0.175 C 
BRANCH  27  28
HETATM   28  O3  UNL     1       3.446  -8.521   8.983  1.00  0.00    -0.400 OA
ATOM     29  H3  UNL     1       4.387  -8.392   9.010  1.00  0.00     0.209 HD
ENDBRANCH  27  28
ENDBRANCH  11  27
BRANCH  14  30
HETATM   30  O4  UNL     1       3.660  -4.880   7.579  1.00  0.00    -0.388 OA
ATOM     31  H4  UNL     1       3.814  -5.321   8.407  1.00  0.00     0.210 HD
ENDBRANCH  14  30
TORSDOF 6
ENDMDL
MODEL 5
REMARK VINA RESULT: -7.221730110      5.111      8.411
REMARK  6 active torsions:
REMARK  status: ('A' for Active; 'I' for Inactive)
REMARK    1  A    between atoms: C2_3  and  C3_4 
REMARK    2  A    between atoms: C6_7  and  O1_8 
REMARK    3  A    between atoms: C8_11  and  O2_12 
REMARK    4  A    between atoms: C16_21  and  C17_22 
REMARK    5  A    between atoms: C17_22  and  O3_23 
REMARK    6  A    between atoms: C20_27  and  O4_29 
ROOT
HETATM    1  C1  UNL     1       3.890  -6.802   4.780  1.00  0.00     0.311 C 
HETATM    2  N1  UNL     1       4.550  -5.610   4.299  1.00  0.00     0.101 N 
HETATM    3  C2  UNL     1       3.607  -4.536   4.623  1.00  0.00     0.259 C 
HETATM    4  C9  UNL     1       3.997  -3.171   4.411  1.00  0.00     0.041 C 
HETATM    5  C10 UNL     1       4.366  -2.231   5.504  1.00  0.00     0.002 C 
HETATM    6  C11 UNL     1       5.653  -1.429   5.178  1.00  0.00     0.000 C 
HETATM    7  C12 UNL     1       6.834  -2.054   5.822  1.00  0.00     0.000 C 
HETATM    8  C13 UNL     1       7.861  -2.639   4.939  1.00  0.00     0.000 C 
HETATM    9  C14 UNL     1       7.577  -4.085   4.514  1.00  0.00     0.001 C 
HETATM   10  C15 UNL     1       7.181  -4.081   3.120  1.00  0.00     0.014 C 
HETATM   11  C16 UNL     1       6.286  -5.046   2.523  1.00  0.00     0.015 C 
HETATM   12  C18 UNL     1       7.295  -6.146   2.034  1.00  0.00     0.017 C 
HETATM   13  C19 UNL     1       6.326  -7.000   1.352  1.00  0.00     0.040 C 
HETATM   14  C20 UNL     1       5.316  -7.140   2.518  1.00  0.00     0.086 C 
HETATM   15  C21 UNL     1       6.029  -8.023   3.469  1.00  0.00     0.048 C 
HETATM   16  C22 UNL     1       5.106  -5.687   3.017  1.00  0.00     0.267 C 
ENDROOT
BRANCH   3  17
HETATM   17  C3  UNL     1       3.337  -4.741   6.090  1.00  0.00     0.008 A 
HETATM   18  C4  UNL     1       4.306  -5.061   7.019  1.00  0.00     0.015 A 
HETATM   19  C5  UNL     1       3.957  -5.448   8.317  1.00  0.00     0.037 A 
HETATM   20  C6  UNL     1       2.651  -5.523   8.726  1.00  0.00     0.068 A 
HETATM   21  C7  UNL     1       1.671  -5.205   7.816  1.00  0.00     0.073 A 
HETATM   22  C8  UNL     1       2.003  -4.827   6.541  1.00  0.00     0.076 A 
BRANCH  20  23
HETATM   23  O1  UNL     1       2.305  -5.915  10.030  1.00  0.00    -0.361 OA
ATOM     24  H1  UNL     1       2.963  -6.084  10.693  1.00  0.00     0.217 HD
ENDBRANCH  20  23
BRANCH  22  25
HETATM   25  O2  UNL     1       1.003  -4.496   5.621  1.00  0.00    -0.360 OA
ATOM     26  H2  UNL     1       0.773  -3.577   5.550  1.00  0.00     0.217 HD
ENDBRANCH  22  25
ENDBRANCH   3  17
BRANCH  11  27
HETATM   27  C17 UNL     1       5.924  -4.440   1.126  1.00  0.00     0.175 C 
BRANCH  27  28
HETATM   28  O3  UNL     1       5.216  -3.283   1.222  1.00  0.00    -0.400 OA
ATOM     29  H3  UNL     1       5.509  -2.732   1.938  1.00  0.00     0.209 HD
ENDBRANCH  27  28
ENDBRANCH  11  27
BRANCH  14  30
HETATM   30  O4  UNL     1       4.264  -7.657   1.808  1.00  0.00    -0.388 OA
ATOM     31  H4  UNL     1       4.221  -8.509   2.228  1.00  0.00     0.210 HD
ENDBRANCH  14  30
TORSDOF 6
ENDMDL
