MODEL 1
REMARK VINA RESULT: -6.649485156      0.000      0.000
REMARK  5 active torsions:
REMARK  status: ('A' for Active; 'I' for Inactive)
REMARK    1  A    between atoms: C2_3  and  N2_4 
REMARK    2  A    between atoms: N2_4  and  C3_7 
REMARK    3  A    between atoms: C3_7  and  C4_8 
REMARK    4  A    between atoms: C6_12  and  C7_13 
REMARK    5  A    between atoms: C7_13  and  O1_14 
ROOT
HETATM    1  N1  UNL     1      49.401 -42.753  -6.241  1.00  0.00    -0.195 NA
HETATM    2  C1  UNL     1      50.079 -43.620  -6.632  1.00  0.00     0.099 C 
HETATM    3  C2  UNL     1      50.930 -44.697  -7.136  1.00  0.00     0.213 C 
HETATM    4  C8  UNL     1      51.656 -44.165  -8.363  1.00  0.00     0.055 C 
HETATM    5  C9  UNL     1      50.627 -43.473  -9.209  1.00  0.00     0.003 C 
HETATM    6  C10 UNL     1      49.444 -44.297  -9.547  1.00  0.00     0.000 C 
HETATM    7  C11 UNL     1      48.960 -45.207  -8.477  1.00  0.00     0.003 C 
HETATM    8  C12 UNL     1      50.035 -45.795  -7.617  1.00  0.00     0.055 C 
ENDROOT
BRANCH   3   9
HETATM    9  N2  UNL     1      51.842 -45.069  -6.118  1.00  0.00    -0.047 N 
ATOM     10  H22 UNL     1      52.623 -45.593  -6.513  1.00  0.00     0.279 HD
ATOM     11  H21 UNL     1      52.341 -44.251  -5.769  1.00  0.00     0.279 HD
BRANCH   9  12
HETATM   12  C3  UNL     1      51.242 -45.799  -5.027  1.00  0.00     0.310 C 
BRANCH  12  13
HETATM   13  C4  UNL     1      51.434 -45.091  -3.736  1.00  0.00     0.107 A 
HETATM   14  N3  UNL     1      52.319 -44.125  -3.486  1.00  0.00    -0.352 N 
HETATM   15  C5  UNL     1      52.211 -43.714  -2.206  1.00  0.00     0.116 A 
ATOM     16  H3  UNL     1      52.982 -43.751  -4.165  1.00  0.00     0.166 HD
HETATM   17  C6  UNL     1      51.208 -44.460  -1.626  1.00  0.00     0.049 A 
HETATM   18  N4  UNL     1      50.758 -45.285  -2.578  1.00  0.00    -0.345 N 
ATOM     19  H4  UNL     1      50.009 -45.965  -2.449  1.00  0.00     0.167 HD
BRANCH  17  20
HETATM   20  C7  UNL     1      50.771 -44.314  -0.207  1.00  0.00     0.222 C 
BRANCH  20  21
HETATM   21  O1  UNL     1      51.178 -43.056   0.226  1.00  0.00    -0.395 OA
ATOM     22  H1  UNL     1      50.440 -42.657   0.672  1.00  0.00     0.209 HD
ENDBRANCH  20  21
ENDBRANCH  17  20
ENDBRANCH  12  13
ENDBRANCH   9  12
ENDBRANCH   3   9
TORSDOF 5
ENDMDL
MODEL 2
REMARK VINA RESULT: -6.456464747      3.787      6.101
REMARK  5 active torsions:
REMARK  status: ('A' for Active; 'I' for Inactive)
REMARK    1  A    between atoms: C2_3  and  N2_4 
REMARK    2  A    between atoms: N2_4  and  C3_7 
REMARK    3  A    between atoms: C3_7  and  C4_8 
REMARK    4  A    between atoms: C6_12  and  C7_13 
REMARK    5  A    between atoms: C7_13  and  O1_14 
ROOT
HETATM    1  N1  UNL     1      48.350 -47.580  -6.998  1.00  0.00    -0.195 NA
HETATM    2  C1  UNL     1      49.038 -47.539  -6.055  1.00  0.00     0.099 C 
HETATM    3  C2  UNL     1      49.895 -47.505  -4.872  1.00  0.00     0.213 C 
HETATM    4  C8  UNL     1      50.101 -48.943  -4.418  1.00  0.00     0.055 C 
HETATM    5  C9  UNL     1      48.750 -49.599  -4.431  1.00  0.00     0.003 C 
HETATM    6  C10 UNL     1      47.708 -48.889  -3.653  1.00  0.00     0.000 C 
HETATM    7  C11 UNL     1      47.756 -47.406  -3.707  1.00  0.00     0.003 C 
HETATM    8  C12 UNL     1      49.134 -46.823  -3.779  1.00  0.00     0.055 C 
ENDROOT
BRANCH   3   9
HETATM    9  N2  UNL     1      51.124 -46.893  -5.218  1.00  0.00    -0.047 N 
ATOM     10  H22 UNL     1      51.791 -46.969  -4.450  1.00  0.00     0.279 HD
ATOM     11  H21 UNL     1      51.611 -47.445  -5.924  1.00  0.00     0.279 HD
BRANCH   9  12
HETATM   12  C3  UNL     1      50.999 -45.520  -5.647  1.00  0.00     0.310 C 
BRANCH  12  13
HETATM   13  C4  UNL     1      51.704 -45.292  -6.934  1.00  0.00     0.107 A 
HETATM   14  N3  UNL     1      51.580 -46.020  -8.046  1.00  0.00    -0.352 N 
HETATM   15  C5  UNL     1      52.370 -45.521  -9.018  1.00  0.00     0.116 A 
ATOM     16  H3  UNL     1      50.974 -46.834  -8.145  1.00  0.00     0.166 HD
HETATM   17  C6  UNL     1      53.021 -44.428  -8.490  1.00  0.00     0.049 A 
HETATM   18  N4  UNL     1      52.596 -44.315  -7.226  1.00  0.00    -0.345 N 
ATOM     19  H4  UNL     1      52.902 -43.594  -6.573  1.00  0.00     0.167 HD
BRANCH  17  20
HETATM   20  C7  UNL     1      53.995 -43.588  -9.246  1.00  0.00     0.222 C 
BRANCH  20  21
HETATM   21  O1  UNL     1      55.188 -44.300  -9.321  1.00  0.00    -0.395 OA
ATOM     22  H1  UNL     1      55.513 -44.402  -8.434  1.00  0.00     0.209 HD
ENDBRANCH  20  21
ENDBRANCH  17  20
ENDBRANCH  12  13
ENDBRANCH   9  12
ENDBRANCH   3   9
TORSDOF 5
ENDMDL
MODEL 3
REMARK VINA RESULT: -6.451036526      3.816      6.168
REMARK  5 active torsions:
REMARK  status: ('A' for Active; 'I' for Inactive)
REMARK    1  A    between atoms: C2_3  and  N2_4 
REMARK    2  A    between atoms: N2_4  and  C3_7 
REMARK    3  A    between atoms: C3_7  and  C4_8 
REMARK    4  A    between atoms: C6_12  and  C7_13 
REMARK    5  A    between atoms: C7_13  and  O1_14 
ROOT
HETATM    1  N1  UNL     1      48.919 -45.540  -3.515  1.00  0.00    -0.195 NA
HETATM    2  C1  UNL     1      49.776 -45.938  -4.202  1.00  0.00     0.099 C 
HETATM    3  C2  UNL     1      50.837 -46.446  -5.070  1.00  0.00     0.213 C 
HETATM    4  C8  UNL     1      50.167 -47.144  -6.245  1.00  0.00     0.055 C 
HETATM    5  C9  UNL     1      49.091 -48.020  -5.672  1.00  0.00     0.003 C 
HETATM    6  C10 UNL     1      49.548 -48.960  -4.622  1.00  0.00     0.000 C 
HETATM    7  C11 UNL     1      50.584 -48.441  -3.693  1.00  0.00     0.003 C 
HETATM    8  C12 UNL     1      51.574 -47.506  -4.314  1.00  0.00     0.055 C 
ENDROOT
BRANCH   3   9
HETATM    9  N2  UNL     1      51.630 -45.356  -5.503  1.00  0.00    -0.047 N 
ATOM     10  H22 UNL     1      52.019 -44.856  -4.703  1.00  0.00     0.279 HD
ATOM     11  H21 UNL     1      52.492 -45.690  -5.933  1.00  0.00     0.279 HD
BRANCH   9  12
HETATM   12  C3  UNL     1      50.945 -44.442  -6.386  1.00  0.00     0.310 C 
BRANCH  12  13
HETATM   13  C4  UNL     1      51.759 -44.147  -7.592  1.00  0.00     0.107 A 
HETATM   14  N3  UNL     1      53.041 -44.467  -7.781  1.00  0.00    -0.352 N 
HETATM   15  C5  UNL     1      53.453 -44.042  -8.993  1.00  0.00     0.116 A 
ATOM     16  H3  UNL     1      53.624 -44.961  -7.106  1.00  0.00     0.166 HD
HETATM   17  C6  UNL     1      52.376 -43.427  -9.593  1.00  0.00     0.049 A 
HETATM   18  N4  UNL     1      51.366 -43.506  -8.720  1.00  0.00    -0.345 N 
ATOM     19  H4  UNL     1      50.429 -43.136  -8.880  1.00  0.00     0.167 HD
BRANCH  17  20
HETATM   20  C7  UNL     1      52.413 -42.815 -10.953  1.00  0.00     0.222 C 
BRANCH  20  21
HETATM   21  O1  UNL     1      52.491 -43.856 -11.874  1.00  0.00    -0.395 OA
ATOM     22  H1  UNL     1      51.992 -43.596 -12.639  1.00  0.00     0.209 HD
ENDBRANCH  20  21
ENDBRANCH  17  20
ENDBRANCH  12  13
ENDBRANCH   9  12
ENDBRANCH   3   9
TORSDOF 5
ENDMDL
MODEL 4
REMARK VINA RESULT: -6.430635210      6.036      7.512
REMARK  5 active torsions:
REMARK  status: ('A' for Active; 'I' for Inactive)
REMARK    1  A    between atoms: C2_3  and  N2_4 
REMARK    2  A    between atoms: N2_4  and  C3_7 
REMARK    3  A    between atoms: C3_7  and  C4_8 
REMARK    4  A    between atoms: C6_12  and  C7_13 
REMARK    5  A    between atoms: C7_13  and  O1_14 
ROOT
HETATM    1  N1  UNL     1      48.798 -43.929 -11.472  1.00  0.00    -0.195 NA
HETATM    2  C1  UNL     1      49.446 -43.178 -10.855  1.00  0.00     0.099 C 
HETATM    3  C2  UNL     1      50.270 -42.239 -10.095  1.00  0.00     0.213 C 
HETATM    4  C8  UNL     1      51.429 -41.824 -10.990  1.00  0.00     0.055 C 
HETATM    5  C9  UNL     1      51.975 -43.083 -11.601  1.00  0.00     0.003 C 
HETATM    6  C10 UNL     1      52.342 -44.137 -10.628  1.00  0.00     0.000 C 
HETATM    7  C11 UNL     1      51.447 -44.274  -9.451  1.00  0.00     0.003 C 
HETATM    8  C12 UNL     1      50.870 -42.987  -8.947  1.00  0.00     0.055 C 
ENDROOT
BRANCH   3   9
HETATM    9  N2  UNL     1      49.473 -41.125  -9.735  1.00  0.00    -0.047 N 
ATOM     10  H22 UNL     1      50.059 -40.307  -9.563  1.00  0.00     0.279 HD
ATOM     11  H21 UNL     1      48.942 -40.791 -10.538  1.00  0.00     0.279 HD
BRANCH   9  12
HETATM   12  C3  UNL     1      48.597 -41.366  -8.612  1.00  0.00     0.310 C 
BRANCH  12  13
HETATM   13  C4  UNL     1      47.193 -41.013  -8.942  1.00  0.00     0.107 A 
HETATM   14  N3  UNL     1      46.615 -39.821  -8.780  1.00  0.00    -0.352 N 
HETATM   15  C5  UNL     1      45.330 -39.867  -9.186  1.00  0.00     0.116 A 
ATOM     16  H3  UNL     1      47.080 -38.994  -8.405  1.00  0.00     0.166 HD
HETATM   17  C6  UNL     1      45.091 -41.152  -9.624  1.00  0.00     0.049 A 
HETATM   18  N4  UNL     1      46.237 -41.821  -9.462  1.00  0.00    -0.345 N 
ATOM     19  H4  UNL     1      46.374 -42.804  -9.699  1.00  0.00     0.167 HD
BRANCH  17  20
HETATM   20  C7  UNL     1      43.780 -41.623 -10.158  1.00  0.00     0.222 C 
BRANCH  20  21
HETATM   21  O1  UNL     1      44.029 -42.750 -10.936  1.00  0.00    -0.395 OA
ATOM     22  H1  UNL     1      43.207 -43.217 -11.030  1.00  0.00     0.209 HD
ENDBRANCH  20  21
ENDBRANCH  17  20
ENDBRANCH  12  13
ENDBRANCH   9  12
ENDBRANCH   3   9
TORSDOF 5
ENDMDL
MODEL 5
REMARK VINA RESULT: -6.429593363      1.036      1.423
REMARK  5 active torsions:
REMARK  status: ('A' for Active; 'I' for Inactive)
REMARK    1  A    between atoms: C2_3  and  N2_4 
REMARK    2  A    between atoms: N2_4  and  C3_7 
REMARK    3  A    between atoms: C3_7  and  C4_8 
REMARK    4  A    between atoms: C6_12  and  C7_13 
REMARK    5  A    between atoms: C7_13  and  O1_14 
ROOT
HETATM    1  N1  UNL     1      49.383 -42.781  -6.070  1.00  0.00    -0.195 NA
HETATM    2  C1  UNL     1      50.170 -43.633  -6.209  1.00  0.00     0.099 C 
HETATM    3  C2  UNL     1      51.160 -44.691  -6.398  1.00  0.00     0.213 C 
HETATM    4  C8  UNL     1      52.118 -44.229  -7.487  1.00  0.00     0.055 C 
HETATM    5  C9  UNL     1      51.272 -43.691  -8.606  1.00  0.00     0.003 C 
HETATM    6  C10 UNL     1      50.234 -44.622  -9.104  1.00  0.00     0.000 C 
HETATM    7  C11 UNL     1      49.566 -45.459  -8.074  1.00  0.00     0.003 C 
HETATM    8  C12 UNL     1      50.448 -45.888  -6.943  1.00  0.00     0.055 C 
ENDROOT
BRANCH   3   9
HETATM    9  N2  UNL     1      51.839 -44.902  -5.173  1.00  0.00    -0.047 N 
ATOM     10  H22 UNL     1      52.849 -44.892  -5.317  1.00  0.00     0.279 HD
ATOM     11  H21 UNL     1      51.742 -44.089  -4.566  1.00  0.00     0.279 HD
BRANCH   9  12
HETATM   12  C3  UNL     1      51.439 -46.103  -4.478  1.00  0.00     0.310 C 
BRANCH  12  13
HETATM   13  C4  UNL     1      50.780 -45.783  -3.187  1.00  0.00     0.107 A 
HETATM   14  N3  UNL     1      49.569 -46.185  -2.793  1.00  0.00    -0.352 N 
HETATM   15  C5  UNL     1      49.297 -45.704  -1.563  1.00  0.00     0.116 A 
ATOM     16  H3  UNL     1      48.942 -46.771  -3.343  1.00  0.00     0.166 HD
HETATM   17  C6  UNL     1      50.390 -44.965  -1.166  1.00  0.00     0.049 A 
HETATM   18  N4  UNL     1      51.270 -45.032  -2.171  1.00  0.00    -0.345 N 
ATOM     19  H4  UNL     1      52.185 -44.580  -2.173  1.00  0.00     0.167 HD
BRANCH  17  20
HETATM   20  C7  UNL     1      50.492 -44.259   0.144  1.00  0.00     0.222 C 
BRANCH  20  21
HETATM   21  O1  UNL     1      51.310 -43.149  -0.045  1.00  0.00    -0.395 OA
ATOM     22  H1  UNL     1      51.141 -42.546   0.669  1.00  0.00     0.209 HD
ENDBRANCH  20  21
ENDBRANCH  17  20
ENDBRANCH  12  13
ENDBRANCH   9  12
ENDBRANCH   3   9
TORSDOF 5
ENDMDL
