MODEL 1
REMARK VINA RESULT: -6.941191162      0.000      0.000
REMARK  7 active torsions:
REMARK  status: ('A' for Active; 'I' for Inactive)
REMARK    1  A    between atoms: O1_2  and  C2_3 
REMARK    2  A    between atoms: C2_3  and  C3_4 
REMARK    3  A    between atoms: C3_4  and  N1_5 
REMARK    4  A    between atoms: N1_5  and  C5_7 
REMARK    5  A    between atoms: C8_10  and  N2_11 
REMARK       I    between atoms: N2_11  and  C9_13 
REMARK    6  A    between atoms: C9_13  and  C10_15 
REMARK    7  A    between atoms: C10_15  and  C11_16 
ROOT
HETATM    1  N2  UNL     1      -6.784  20.807  -1.716  1.00  0.00    -0.356 N 
ATOM      2  H2  UNL     1      -7.568  21.459  -1.733  1.00  0.00     0.162 HD
HETATM    3  C9  UNL     1      -5.564  21.168  -2.346  1.00  0.00     0.227 C 
HETATM    4  O2  UNL     1      -4.629  20.329  -2.292  1.00  0.00    -0.273 OA
ENDROOT
BRANCH   1   5
HETATM    5  C8  UNL     1      -6.936  19.531  -1.049  1.00  0.00     0.084 C 
HETATM    6  C7  UNL     1      -7.803  19.599   0.175  1.00  0.00     0.027 C 
HETATM    7  C6  UNL     1      -8.002  18.173   0.680  1.00  0.00     0.027 C 
HETATM    8  C5  UNL     1      -8.541  17.253  -0.363  1.00  0.00     0.079 C 
HETATM    9  C20 UNL     1      -8.837  18.066  -1.606  1.00  0.00     0.027 C 
HETATM   10  C19 UNL     1      -7.500  18.582  -2.095  1.00  0.00     0.027 C 
BRANCH   8  11
HETATM   11  N1  UNL     1      -9.645  16.454  -0.007  1.00  0.00    -0.410 N 
HETATM   12  C4  UNL     1     -10.458  16.852   1.074  1.00  0.00     0.143 C 
BRANCH  11  13
HETATM   13  C3  UNL     1      -9.569  15.081  -0.335  1.00  0.00     0.143 C 
BRANCH  13  14
HETATM   14  C2  UNL     1      -8.148  14.678  -0.653  1.00  0.00     0.186 C 
BRANCH  14  15
HETATM   15  O1  UNL     1      -7.616  13.744   0.213  1.00  0.00    -0.394 OA
HETATM   16  C1  UNL     1      -7.620  14.124   1.545  1.00  0.00     0.201 C 
ENDBRANCH  14  15
ENDBRANCH  13  14
ENDBRANCH  11  13
ENDBRANCH   8  11
ENDBRANCH   1   5
BRANCH   3  17
HETATM   17  C10 UNL     1      -5.446  22.489  -3.027  1.00  0.00     0.047 C 
HETATM   18  C15 UNL     1      -6.246  23.524  -2.293  1.00  0.00     0.020 C 
HETATM   19  C16 UNL     1      -5.399  24.733  -2.081  1.00  0.00     0.001 C 
HETATM   20  C17 UNL     1      -4.055  24.443  -2.696  1.00  0.00     0.001 C 
HETATM   21  C18 UNL     1      -4.030  22.962  -2.828  1.00  0.00     0.020 C 
BRANCH  17  22
HETATM   22  C11 UNL     1      -5.811  22.371  -4.480  1.00  0.00    -0.035 C 
HETATM   23  C12 UNL     1      -6.926  23.345  -4.783  1.00  0.00     0.015 C 
HETATM   24  C13 UNL     1      -4.628  22.697  -5.381  1.00  0.00     0.015 C 
HETATM   25  C14 UNL     1      -6.290  21.009  -4.873  1.00  0.00     0.015 C 
ENDBRANCH  17  22
ENDBRANCH   3  17
TORSDOF 7
ENDMDL
MODEL 2
REMARK VINA RESULT: -6.914559157      0.642      2.068
REMARK  7 active torsions:
REMARK  status: ('A' for Active; 'I' for Inactive)
REMARK    1  A    between atoms: O1_2  and  C2_3 
REMARK    2  A    between atoms: C2_3  and  C3_4 
REMARK    3  A    between atoms: C3_4  and  N1_5 
REMARK    4  A    between atoms: N1_5  and  C5_7 
REMARK    5  A    between atoms: C8_10  and  N2_11 
REMARK       I    between atoms: N2_11  and  C9_13 
REMARK    6  A    between atoms: C9_13  and  C10_15 
REMARK    7  A    between atoms: C10_15  and  C11_16 
ROOT
HETATM    1  N2  UNL     1      -6.684  20.591  -2.355  1.00  0.00    -0.356 N 
ATOM      2  H2  UNL     1      -7.491  20.937  -2.874  1.00  0.00     0.162 HD
HETATM    3  C9  UNL     1      -5.446  21.279  -2.453  1.00  0.00     0.227 C 
HETATM    4  O2  UNL     1      -4.485  20.812  -1.790  1.00  0.00    -0.273 OA
ENDROOT
BRANCH   1   5
HETATM    5  C8  UNL     1      -6.823  19.407  -1.533  1.00  0.00     0.084 C 
HETATM    6  C7  UNL     1      -7.569  19.655  -0.255  1.00  0.00     0.027 C 
HETATM    7  C6  UNL     1      -7.775  18.307   0.429  1.00  0.00     0.027 C 
HETATM    8  C5  UNL     1      -8.444  17.302  -0.448  1.00  0.00     0.079 C 
HETATM    9  C20 UNL     1      -8.822  17.983  -1.747  1.00  0.00     0.027 C 
HETATM   10  C19 UNL     1      -7.517  18.375  -2.408  1.00  0.00     0.027 C 
BRANCH   8  11
HETATM   11  N1  UNL     1      -9.540  16.603   0.094  1.00  0.00    -0.410 N 
HETATM   12  C4  UNL     1     -10.170  17.108   1.250  1.00  0.00     0.143 C 
BRANCH  11  13
HETATM   13  C3  UNL     1      -9.600  15.215  -0.165  1.00  0.00     0.143 C 
BRANCH  13  14
HETATM   14  C2  UNL     1      -8.279  14.704  -0.689  1.00  0.00     0.186 C 
BRANCH  14  15
HETATM   15  O1  UNL     1      -7.652  13.795   0.142  1.00  0.00    -0.394 OA
HETATM   16  C1  UNL     1      -7.669  14.134   1.485  1.00  0.00     0.201 C 
ENDBRANCH  14  15
ENDBRANCH  13  14
ENDBRANCH  11  13
ENDBRANCH   8  11
ENDBRANCH   1   5
BRANCH   3  17
HETATM   17  C10 UNL     1      -5.340  22.492  -3.314  1.00  0.00     0.047 C 
HETATM   18  C15 UNL     1      -4.022  22.505  -4.030  1.00  0.00     0.020 C 
HETATM   19  C16 UNL     1      -4.259  22.780  -5.477  1.00  0.00     0.001 C 
HETATM   20  C17 UNL     1      -5.745  22.942  -5.658  1.00  0.00     0.001 C 
HETATM   21  C18 UNL     1      -6.328  22.321  -4.438  1.00  0.00     0.020 C 
BRANCH  17  22
HETATM   22  C11 UNL     1      -5.597  23.736  -2.510  1.00  0.00    -0.035 C 
HETATM   23  C12 UNL     1      -4.314  24.528  -2.416  1.00  0.00     0.015 C 
HETATM   24  C13 UNL     1      -6.658  24.612  -3.162  1.00  0.00     0.015 C 
HETATM   25  C14 UNL     1      -6.058  23.467  -1.113  1.00  0.00     0.015 C 
ENDBRANCH  17  22
ENDBRANCH   3  17
TORSDOF 7
ENDMDL
MODEL 3
REMARK VINA RESULT: -6.845712017      1.219      2.536
REMARK  7 active torsions:
REMARK  status: ('A' for Active; 'I' for Inactive)
REMARK    1  A    between atoms: O1_2  and  C2_3 
REMARK    2  A    between atoms: C2_3  and  C3_4 
REMARK    3  A    between atoms: C3_4  and  N1_5 
REMARK    4  A    between atoms: N1_5  and  C5_7 
REMARK    5  A    between atoms: C8_10  and  N2_11 
REMARK       I    between atoms: N2_11  and  C9_13 
REMARK    6  A    between atoms: C9_13  and  C10_15 
REMARK    7  A    between atoms: C10_15  and  C11_16 
ROOT
HETATM    1  N2  UNL     1      -6.563  20.391  -3.211  1.00  0.00    -0.356 N 
ATOM      2  H2  UNL     1      -7.333  20.317  -3.876  1.00  0.00     0.162 HD
HETATM    3  C9  UNL     1      -5.502  21.297  -3.474  1.00  0.00     0.227 C 
HETATM    4  O2  UNL     1      -4.580  21.352  -2.620  1.00  0.00    -0.273 OA
ENDROOT
BRANCH   1   5
HETATM    5  C8  UNL     1      -6.574  19.572  -2.018  1.00  0.00     0.084 C 
HETATM    6  C7  UNL     1      -7.165  20.265  -0.825  1.00  0.00     0.027 C 
HETATM    7  C6  UNL     1      -7.256  19.244   0.305  1.00  0.00     0.027 C 
HETATM    8  C5  UNL     1      -8.002  18.010  -0.079  1.00  0.00     0.079 C 
HETATM    9  C20 UNL     1      -8.551  18.204  -1.478  1.00  0.00     0.027 C 
HETATM   10  C19 UNL     1      -7.345  18.314  -2.387  1.00  0.00     0.027 C 
BRANCH   8  11
HETATM   11  N1  UNL     1      -9.008  17.567   0.802  1.00  0.00    -0.410 N 
HETATM   12  C4  UNL     1      -9.160  18.209   2.048  1.00  0.00     0.143 C 
BRANCH  11  13
HETATM   13  C3  UNL     1      -9.417  16.220   0.673  1.00  0.00     0.143 C 
BRANCH  13  14
HETATM   14  C2  UNL     1      -8.264  15.278   0.925  1.00  0.00     0.186 C 
BRANCH  14  15
HETATM   15  O1  UNL     1      -7.948  14.468  -0.149  1.00  0.00    -0.394 OA
HETATM   16  C1  UNL     1      -8.888  14.468  -1.167  1.00  0.00     0.201 C 
ENDBRANCH  14  15
ENDBRANCH  13  14
ENDBRANCH  11  13
ENDBRANCH   8  11
ENDBRANCH   1   5
BRANCH   3  17
HETATM   17  C10 UNL     1      -5.523  22.122  -4.716  1.00  0.00     0.047 C 
HETATM   18  C15 UNL     1      -4.150  22.188  -5.317  1.00  0.00     0.020 C 
HETATM   19  C16 UNL     1      -4.242  21.877  -6.773  1.00  0.00     0.001 C 
HETATM   20  C17 UNL     1      -5.694  21.617  -7.077  1.00  0.00     0.001 C 
HETATM   21  C18 UNL     1      -6.300  21.345  -5.746  1.00  0.00     0.020 C 
BRANCH  17  22
HETATM   22  C11 UNL     1      -6.123  23.473  -4.445  1.00  0.00    -0.035 C 
HETATM   23  C12 UNL     1      -5.158  24.537  -4.911  1.00  0.00     0.015 C 
HETATM   24  C13 UNL     1      -7.440  23.657  -5.186  1.00  0.00     0.015 C 
HETATM   25  C14 UNL     1      -6.404  23.728  -2.997  1.00  0.00     0.015 C 
ENDBRANCH  17  22
ENDBRANCH   3  17
TORSDOF 7
ENDMDL
MODEL 4
REMARK VINA RESULT: -6.772463782      1.156      2.010
REMARK  7 active torsions:
REMARK  status: ('A' for Active; 'I' for Inactive)
REMARK    1  A    between atoms: O1_2  and  C2_3 
REMARK    2  A    between atoms: C2_3  and  C3_4 
REMARK    3  A    between atoms: C3_4  and  N1_5 
REMARK    4  A    between atoms: N1_5  and  C5_7 
REMARK    5  A    between atoms: C8_10  and  N2_11 
REMARK       I    between atoms: N2_11  and  C9_13 
REMARK    6  A    between atoms: C9_13  and  C10_15 
REMARK    7  A    between atoms: C10_15  and  C11_16 
ROOT
HETATM    1  N2  UNL     1      -6.441  21.106  -2.401  1.00  0.00    -0.356 N 
ATOM      2  H2  UNL     1      -6.830  20.953  -3.332  1.00  0.00     0.162 HD
HETATM    3  C9  UNL     1      -5.855  22.361  -2.090  1.00  0.00     0.227 C 
HETATM    4  O2  UNL     1      -5.394  22.498  -0.928  1.00  0.00    -0.273 OA
ENDROOT
BRANCH   1   5
HETATM    5  C8  UNL     1      -6.497  20.039  -1.424  1.00  0.00     0.084 C 
HETATM    6  C7  UNL     1      -7.446  20.317  -0.294  1.00  0.00     0.027 C 
HETATM    7  C6  UNL     1      -7.520  19.058   0.565  1.00  0.00     0.027 C 
HETATM    8  C5  UNL     1      -7.884  17.838  -0.212  1.00  0.00     0.079 C 
HETATM    9  C20 UNL     1      -8.183  18.256  -1.637  1.00  0.00     0.027 C 
HETATM   10  C19 UNL     1      -6.882  18.789  -2.198  1.00  0.00     0.027 C 
BRANCH   8  11
HETATM   11  N1  UNL     1      -8.915  17.030   0.305  1.00  0.00    -0.410 N 
HETATM   12  C4  UNL     1     -10.128  17.632   0.695  1.00  0.00     0.143 C 
BRANCH  11  13
HETATM   13  C3  UNL     1      -8.524  15.819   0.921  1.00  0.00     0.143 C 
BRANCH  13  14
HETATM   14  C2  UNL     1      -8.225  14.757  -0.110  1.00  0.00     0.186 C 
BRANCH  14  15
HETATM   15  O1  UNL     1      -7.530  13.669   0.380  1.00  0.00    -0.394 OA
HETATM   16  C1  UNL     1      -7.297  13.702   1.745  1.00  0.00     0.201 C 
ENDBRANCH  14  15
ENDBRANCH  13  14
ENDBRANCH  11  13
ENDBRANCH   8  11
ENDBRANCH   1   5
BRANCH   3  17
HETATM   17  C10 UNL     1      -5.812  23.434  -3.124  1.00  0.00     0.047 C 
HETATM   18  C15 UNL     1      -6.699  23.076  -4.280  1.00  0.00     0.020 C 
HETATM   19  C16 UNL     1      -7.567  24.244  -4.606  1.00  0.00     0.001 C 
HETATM   20  C17 UNL     1      -7.209  25.343  -3.639  1.00  0.00     0.001 C 
HETATM   21  C18 UNL     1      -6.500  24.638  -2.538  1.00  0.00     0.020 C 
BRANCH  17  22
HETATM   22  C11 UNL     1      -4.393  23.725  -3.527  1.00  0.00    -0.035 C 
HETATM   23  C12 UNL     1      -3.870  24.861  -2.679  1.00  0.00     0.015 C 
HETATM   24  C13 UNL     1      -3.494  22.514  -3.319  1.00  0.00     0.015 C 
HETATM   25  C14 UNL     1      -4.244  24.132  -4.959  1.00  0.00     0.015 C 
ENDBRANCH  17  22
ENDBRANCH   3  17
TORSDOF 7
ENDMDL
MODEL 5
REMARK VINA RESULT: -6.760591696      1.180      1.488
REMARK  7 active torsions:
REMARK  status: ('A' for Active; 'I' for Inactive)
REMARK    1  A    between atoms: O1_2  and  C2_3 
REMARK    2  A    between atoms: C2_3  and  C3_4 
REMARK    3  A    between atoms: C3_4  and  N1_5 
REMARK    4  A    between atoms: N1_5  and  C5_7 
REMARK    5  A    between atoms: C8_10  and  N2_11 
REMARK       I    between atoms: N2_11  and  C9_13 
REMARK    6  A    between atoms: C9_13  and  C10_15 
REMARK    7  A    between atoms: C10_15  and  C11_16 
ROOT
HETATM    1  N2  UNL     1      -6.602  20.529  -2.775  1.00  0.00    -0.356 N 
ATOM      2  H2  UNL     1      -7.432  20.649  -3.356  1.00  0.00     0.162 HD
HETATM    3  C9  UNL     1      -5.434  21.280  -3.067  1.00  0.00     0.227 C 
HETATM    4  O2  UNL     1      -4.441  21.097  -2.317  1.00  0.00    -0.273 OA
ENDROOT
BRANCH   1   5
HETATM    5  C8  UNL     1      -6.640  19.597  -1.668  1.00  0.00     0.084 C 
HETATM    6  C7  UNL     1      -7.263  20.169  -0.428  1.00  0.00     0.027 C 
HETATM    7  C6  UNL     1      -7.377  19.042   0.594  1.00  0.00     0.027 C 
HETATM    8  C5  UNL     1      -8.108  17.851   0.073  1.00  0.00     0.079 C 
HETATM    9  C20 UNL     1      -8.622  18.179  -1.313  1.00  0.00     0.027 C 
HETATM   10  C19 UNL     1      -7.395  18.380  -2.177  1.00  0.00     0.027 C 
BRANCH   8  11
HETATM   11  N1  UNL     1      -9.134  17.322   0.880  1.00  0.00    -0.410 N 
HETATM   12  C4  UNL     1      -9.397  17.917   2.131  1.00  0.00     0.143 C 
BRANCH  11  13
HETATM   13  C3  UNL     1      -9.449  15.957   0.693  1.00  0.00     0.143 C 
BRANCH  13  14
HETATM   14  C2  UNL     1      -8.231  15.087   0.891  1.00  0.00     0.186 C 
BRANCH  14  15
HETATM   15  O1  UNL     1      -7.923  14.287  -0.192  1.00  0.00    -0.394 OA
HETATM   16  C1  UNL     1      -8.784  14.418  -1.269  1.00  0.00     0.201 C 
ENDBRANCH  14  15
ENDBRANCH  13  14
ENDBRANCH  11  13
ENDBRANCH   8  11
ENDBRANCH   1   5
BRANCH   3  17
HETATM   17  C10 UNL     1      -5.432  22.228  -4.218  1.00  0.00     0.047 C 
HETATM   18  C15 UNL     1      -6.617  23.144  -4.138  1.00  0.00     0.020 C 
HETATM   19  C16 UNL     1      -6.159  24.550  -4.329  1.00  0.00     0.001 C 
HETATM   20  C17 UNL     1      -4.667  24.503  -4.534  1.00  0.00     0.001 C 
HETATM   21  C18 UNL     1      -4.272  23.167  -4.013  1.00  0.00     0.020 C 
BRANCH  17  22
HETATM   22  C11 UNL     1      -5.340  21.481  -5.520  1.00  0.00    -0.035 C 
HETATM   23  C12 UNL     1      -6.644  21.641  -6.266  1.00  0.00     0.015 C 
HETATM   24  C13 UNL     1      -4.215  22.018  -6.393  1.00  0.00     0.015 C 
HETATM   25  C14 UNL     1      -5.097  20.013  -5.356  1.00  0.00     0.015 C 
ENDBRANCH  17  22
ENDBRANCH   3  17
TORSDOF 7
ENDMDL
