MODEL 1
REMARK VINA RESULT: -7.194202671      0.000      0.000
REMARK  6 active torsions:
REMARK  status: ('A' for Active; 'I' for Inactive)
REMARK    1  A    between atoms: C2_2  and  C4_4 
REMARK    2  A    between atoms: C4_4  and  C5_5 
REMARK    3  A    between atoms: C5_5  and  C6_6 
REMARK    4  A    between atoms: C6_6  and  N1_7 
REMARK       I    between atoms: N1_7  and  C7_9 
REMARK    5  A    between atoms: C7_9  and  C8_11 
REMARK    6  A    between atoms: C8_11  and  C9_12 
ROOT
HETATM    1  C9  UNL     1      -6.430  21.977  -1.951  1.00  0.00     0.136 C 
HETATM    2  O2  UNL     1      -6.113  23.191  -2.524  1.00  0.00    -0.380 OA
HETATM    3  C10 UNL     1      -6.560  23.435  -3.764  1.00  0.00     0.122 C 
HETATM    4  C11 UNL     1      -5.814  24.627  -4.329  1.00  0.00     0.034 C 
HETATM    5  C12 UNL     1      -4.403  24.427  -4.641  1.00  0.00     0.034 C 
HETATM    6  C13 UNL     1      -3.832  23.055  -4.292  1.00  0.00     0.121 C 
HETATM    7  C14 UNL     1      -4.300  22.106  -5.309  1.00  0.00     0.036 C 
HETATM    8  C15 UNL     1      -5.648  21.505  -5.188  1.00  0.00    -0.010 C 
HETATM    9  C16 UNL     1      -5.595  20.102  -4.602  1.00  0.00     0.005 C 
HETATM   10  C17 UNL     1      -5.949  19.957  -3.185  1.00  0.00     0.010 C 
HETATM   11  C18 UNL     1      -5.360  20.938  -2.216  1.00  0.00     0.039 C 
HETATM   12  C19 UNL     1      -4.027  21.456  -2.617  1.00  0.00     0.175 C 
HETATM   13  O3  UNL     1      -3.915  22.742  -2.994  1.00  0.00    -0.385 OA
HETATM   14  C20 UNL     1      -6.758  22.341  -4.733  1.00  0.00     0.036 C 
ENDROOT
BRANCH   1  15
HETATM   15  C8  UNL     1      -6.587  22.286  -0.483  1.00  0.00     0.135 C 
BRANCH  15  16
HETATM   16  C7  UNL     1      -7.060  21.159   0.348  1.00  0.00     0.220 C 
HETATM   17  N1  UNL     1      -8.072  20.305  -0.092  1.00  0.00    -0.361 N 
ATOM     18  H1  UNL     1      -8.485  20.487  -1.007  1.00  0.00     0.162 HD
HETATM   19  O1  UNL     1      -6.530  20.975   1.473  1.00  0.00    -0.274 OA
BRANCH  17  20
HETATM   20  C6  UNL     1      -8.580  19.168   0.674  1.00  0.00     0.122 C 
BRANCH  20  21
HETATM   21  C5  UNL     1      -7.955  17.909   0.209  1.00  0.00     0.020 C 
BRANCH  21  22
HETATM   22  C4  UNL     1      -8.474  17.263  -1.007  1.00  0.00     0.005 C 
BRANCH  22  23
HETATM   23  C2  UNL     1      -9.149  15.958  -0.955  1.00  0.00    -0.023 C 
HETATM   24  C1  UNL     1      -8.234  14.783  -0.970  1.00  0.00     0.009 C 
HETATM   25  C3  UNL     1      -9.971  15.881   0.349  1.00  0.00     0.009 C 
ENDBRANCH  22  23
ENDBRANCH  21  22
ENDBRANCH  20  21
ENDBRANCH  17  20
ENDBRANCH  15  16
ENDBRANCH   1  15
TORSDOF 6
ENDMDL
MODEL 2
REMARK VINA RESULT: -7.045436094      1.141      1.433
REMARK  6 active torsions:
REMARK  status: ('A' for Active; 'I' for Inactive)
REMARK    1  A    between atoms: C2_2  and  C4_4 
REMARK    2  A    between atoms: C4_4  and  C5_5 
REMARK    3  A    between atoms: C5_5  and  C6_6 
REMARK    4  A    between atoms: C6_6  and  N1_7 
REMARK       I    between atoms: N1_7  and  C7_9 
REMARK    5  A    between atoms: C7_9  and  C8_11 
REMARK    6  A    between atoms: C8_11  and  C9_12 
ROOT
HETATM    1  C9  UNL     1      -6.351  22.317  -2.805  1.00  0.00     0.136 C 
HETATM    2  O2  UNL     1      -6.268  23.338  -3.728  1.00  0.00    -0.380 OA
HETATM    3  C10 UNL     1      -6.846  23.152  -4.922  1.00  0.00     0.122 C 
HETATM    4  C11 UNL     1      -6.337  24.207  -5.884  1.00  0.00     0.034 C 
HETATM    5  C12 UNL     1      -4.941  24.098  -6.296  1.00  0.00     0.034 C 
HETATM    6  C13 UNL     1      -4.143  22.968  -5.650  1.00  0.00     0.121 C 
HETATM    7  C14 UNL     1      -4.543  21.713  -6.297  1.00  0.00     0.036 C 
HETATM    8  C15 UNL     1      -5.770  21.015  -5.850  1.00  0.00    -0.010 C 
HETATM    9  C16 UNL     1      -5.459  19.863  -4.908  1.00  0.00     0.005 C 
HETATM   10  C17 UNL     1      -5.671  20.098  -3.474  1.00  0.00     0.010 C 
HETATM   11  C18 UNL     1      -5.160  21.384  -2.896  1.00  0.00     0.039 C 
HETATM   12  C19 UNL     1      -3.958  21.920  -3.584  1.00  0.00     0.175 C 
HETATM   13  O3  UNL     1      -4.072  23.042  -4.316  1.00  0.00    -0.385 OA
HETATM   14  C20 UNL     1      -6.954  21.806  -5.516  1.00  0.00     0.036 C 
ENDROOT
BRANCH   1  15
HETATM   15  C8  UNL     1      -6.433  23.021  -1.473  1.00  0.00     0.135 C 
BRANCH  15  16
HETATM   16  C7  UNL     1      -6.455  22.132  -0.294  1.00  0.00     0.220 C 
HETATM   17  N1  UNL     1      -7.318  21.038  -0.223  1.00  0.00    -0.361 N 
ATOM     18  H1  UNL     1      -7.943  20.873  -1.012  1.00  0.00     0.162 HD
HETATM   19  O1  UNL     1      -5.674  22.376   0.661  1.00  0.00    -0.274 OA
BRANCH  17  20
HETATM   20  C6  UNL     1      -7.384  20.114   0.908  1.00  0.00     0.122 C 
BRANCH  20  21
HETATM   21  C5  UNL     1      -7.139  18.725   0.459  1.00  0.00     0.020 C 
BRANCH  21  22
HETATM   22  C4  UNL     1      -8.233  17.743   0.550  1.00  0.00     0.005 C 
BRANCH  22  23
HETATM   23  C2  UNL     1      -9.005  17.341  -0.634  1.00  0.00    -0.023 C 
HETATM   24  C1  UNL     1      -8.610  18.024  -1.896  1.00  0.00     0.009 C 
HETATM   25  C3  UNL     1      -8.811  15.825  -0.856  1.00  0.00     0.009 C 
ENDBRANCH  22  23
ENDBRANCH  21  22
ENDBRANCH  20  21
ENDBRANCH  17  20
ENDBRANCH  15  16
ENDBRANCH   1  15
TORSDOF 6
ENDMDL
MODEL 3
REMARK VINA RESULT: -6.993082770      2.169      3.757
REMARK  6 active torsions:
REMARK  status: ('A' for Active; 'I' for Inactive)
REMARK    1  A    between atoms: C2_2  and  C4_4 
REMARK    2  A    between atoms: C4_4  and  C5_5 
REMARK    3  A    between atoms: C5_5  and  C6_6 
REMARK    4  A    between atoms: C6_6  and  N1_7 
REMARK       I    between atoms: N1_7  and  C7_9 
REMARK    5  A    between atoms: C7_9  and  C8_11 
REMARK    6  A    between atoms: C8_11  and  C9_12 
ROOT
HETATM    1  C9  UNL     1      -5.998  20.308  -5.048  1.00  0.00     0.136 C 
HETATM    2  O2  UNL     1      -5.049  20.819  -4.187  1.00  0.00    -0.380 OA
HETATM    3  C10 UNL     1      -5.428  21.782  -3.337  1.00  0.00     0.122 C 
HETATM    4  C11 UNL     1      -4.192  22.442  -2.759  1.00  0.00     0.034 C 
HETATM    5  C12 UNL     1      -3.396  23.256  -3.672  1.00  0.00     0.034 C 
HETATM    6  C13 UNL     1      -3.873  23.286  -5.122  1.00  0.00     0.121 C 
HETATM    7  C14 UNL     1      -5.044  24.168  -5.188  1.00  0.00     0.036 C 
HETATM    8  C15 UNL     1      -6.380  23.642  -4.828  1.00  0.00    -0.010 C 
HETATM    9  C16 UNL     1      -7.196  23.272  -6.057  1.00  0.00     0.005 C 
HETATM   10  C17 UNL     1      -7.279  21.847  -6.399  1.00  0.00     0.010 C 
HETATM   11  C18 UNL     1      -6.009  21.049  -6.370  1.00  0.00     0.039 C 
HETATM   12  C19 UNL     1      -4.793  21.838  -6.690  1.00  0.00     0.175 C 
HETATM   13  O3  UNL     1      -3.902  22.087  -5.714  1.00  0.00    -0.385 OA
HETATM   14  C20 UNL     1      -6.501  22.732  -3.689  1.00  0.00     0.036 C 
ENDROOT
BRANCH   1  15
HETATM   15  C8  UNL     1      -5.620  18.856  -5.202  1.00  0.00     0.135 C 
BRANCH  15  16
HETATM   16  C7  UNL     1      -5.978  17.990  -4.060  1.00  0.00     0.220 C 
HETATM   17  N1  UNL     1      -7.002  18.336  -3.178  1.00  0.00    -0.361 N 
ATOM     18  H1  UNL     1      -7.495  19.213  -3.341  1.00  0.00     0.162 HD
HETATM   19  O1  UNL     1      -5.339  16.920  -3.890  1.00  0.00    -0.274 OA
BRANCH  17  20
HETATM   20  C6  UNL     1      -7.413  17.522  -2.035  1.00  0.00     0.122 C 
BRANCH  20  21
HETATM   21  C5  UNL     1      -8.790  17.870  -1.618  1.00  0.00     0.020 C 
BRANCH  21  22
HETATM   22  C4  UNL     1      -8.981  18.819  -0.509  1.00  0.00     0.005 C 
BRANCH  22  23
HETATM   23  C2  UNL     1      -7.840  19.350   0.251  1.00  0.00    -0.023 C 
HETATM   24  C1  UNL     1      -7.333  20.666  -0.225  1.00  0.00     0.009 C 
HETATM   25  C3  UNL     1      -8.272  19.532   1.722  1.00  0.00     0.009 C 
ENDBRANCH  22  23
ENDBRANCH  21  22
ENDBRANCH  20  21
ENDBRANCH  17  20
ENDBRANCH  15  16
ENDBRANCH   1  15
TORSDOF 6
ENDMDL
MODEL 4
REMARK VINA RESULT: -6.939473444      1.481      1.851
REMARK  6 active torsions:
REMARK  status: ('A' for Active; 'I' for Inactive)
REMARK    1  A    between atoms: C2_2  and  C4_4 
REMARK    2  A    between atoms: C4_4  and  C5_5 
REMARK    3  A    between atoms: C5_5  and  C6_6 
REMARK    4  A    between atoms: C6_6  and  N1_7 
REMARK       I    between atoms: N1_7  and  C7_9 
REMARK    5  A    between atoms: C7_9  and  C8_11 
REMARK    6  A    between atoms: C8_11  and  C9_12 
ROOT
HETATM    1  C9  UNL     1      -6.276  21.935  -3.473  1.00  0.00     0.136 C 
HETATM    2  O2  UNL     1      -6.395  23.184  -4.047  1.00  0.00    -0.380 OA
HETATM    3  C10 UNL     1      -7.250  23.325  -5.069  1.00  0.00     0.122 C 
HETATM    4  C11 UNL     1      -6.964  24.638  -5.771  1.00  0.00     0.034 C 
HETATM    5  C12 UNL     1      -5.714  24.721  -6.518  1.00  0.00     0.034 C 
HETATM    6  C13 UNL     1      -4.811  23.493  -6.443  1.00  0.00     0.121 C 
HETATM    7  C14 UNL     1      -5.387  22.463  -7.315  1.00  0.00     0.036 C 
HETATM    8  C15 UNL     1      -6.485  21.606  -6.814  1.00  0.00    -0.010 C 
HETATM    9  C16 UNL     1      -5.982  20.246  -6.355  1.00  0.00     0.005 C 
HETATM   10  C17 UNL     1      -5.834  20.043  -4.908  1.00  0.00     0.010 C 
HETATM   11  C18 UNL     1      -5.166  21.128  -4.117  1.00  0.00     0.039 C 
HETATM   12  C19 UNL     1      -4.155  21.899  -4.884  1.00  0.00     0.175 C 
HETATM   13  O3  UNL     1      -4.416  23.179  -5.204  1.00  0.00    -0.385 OA
HETATM   14  C20 UNL     1      -7.532  22.207  -5.989  1.00  0.00     0.036 C 
ENDROOT
BRANCH   1  15
HETATM   15  C8  UNL     1      -6.015  22.216  -2.015  1.00  0.00     0.135 C 
BRANCH  15  16
HETATM   16  C7  UNL     1      -6.725  21.332  -1.068  1.00  0.00     0.220 C 
HETATM   17  N1  UNL     1      -6.888  19.971  -1.328  1.00  0.00    -0.361 N 
ATOM     18  H1  UNL     1      -6.507  19.602  -2.199  1.00  0.00     0.162 HD
HETATM   19  O1  UNL     1      -7.187  21.827  -0.009  1.00  0.00    -0.274 OA
BRANCH  17  20
HETATM   20  C6  UNL     1      -7.571  19.038  -0.432  1.00  0.00     0.122 C 
BRANCH  20  21
HETATM   21  C5  UNL     1      -8.759  18.456  -1.095  1.00  0.00     0.020 C 
BRANCH  21  22
HETATM   22  C4  UNL     1      -8.800  17.004  -1.337  1.00  0.00     0.005 C 
BRANCH  22  23
HETATM   23  C2  UNL     1      -9.073  16.053  -0.250  1.00  0.00    -0.023 C 
HETATM   24  C1  UNL     1     -10.156  16.468   0.684  1.00  0.00     0.009 C 
HETATM   25  C3  UNL     1      -9.496  14.704  -0.871  1.00  0.00     0.009 C 
ENDBRANCH  22  23
ENDBRANCH  21  22
ENDBRANCH  20  21
ENDBRANCH  17  20
ENDBRANCH  15  16
ENDBRANCH   1  15
TORSDOF 6
ENDMDL
MODEL 5
REMARK VINA RESULT: -6.861819531      1.191      2.611
REMARK  6 active torsions:
REMARK  status: ('A' for Active; 'I' for Inactive)
REMARK    1  A    between atoms: C2_2  and  C4_4 
REMARK    2  A    between atoms: C4_4  and  C5_5 
REMARK    3  A    between atoms: C5_5  and  C6_6 
REMARK    4  A    between atoms: C6_6  and  N1_7 
REMARK       I    between atoms: N1_7  and  C7_9 
REMARK    5  A    between atoms: C7_9  and  C8_11 
REMARK    6  A    between atoms: C8_11  and  C9_12 
ROOT
HETATM    1  C9  UNL     1      -5.742  22.762  -1.916  1.00  0.00     0.136 C 
HETATM    2  O2  UNL     1      -6.294  21.931  -2.868  1.00  0.00    -0.380 OA
HETATM    3  C10 UNL     1      -5.459  21.223  -3.642  1.00  0.00     0.122 C 
HETATM    4  C11 UNL     1      -6.231  20.677  -4.826  1.00  0.00     0.034 C 
HETATM    5  C12 UNL     1      -6.680  21.648  -5.819  1.00  0.00     0.034 C 
HETATM    6  C13 UNL     1      -6.374  23.110  -5.504  1.00  0.00     0.121 C 
HETATM    7  C14 UNL     1      -4.949  23.335  -5.773  1.00  0.00     0.036 C 
HETATM    8  C15 UNL     1      -3.942  22.971  -4.749  1.00  0.00    -0.010 C 
HETATM    9  C16 UNL     1      -3.483  24.180  -3.948  1.00  0.00     0.005 C 
HETATM   10  C17 UNL     1      -4.054  24.347  -2.606  1.00  0.00     0.010 C 
HETATM   11  C18 UNL     1      -5.535  24.165  -2.452  1.00  0.00     0.039 C 
HETATM   12  C19 UNL     1      -6.317  24.526  -3.662  1.00  0.00     0.175 C 
HETATM   13  O3  UNL     1      -6.919  23.550  -4.364  1.00  0.00    -0.385 OA
HETATM   14  C20 UNL     1      -4.120  21.736  -3.988  1.00  0.00     0.036 C 
ENDROOT
BRANCH   1  15
HETATM   15  C8  UNL     1      -6.720  22.720  -0.769  1.00  0.00     0.135 C 
BRANCH  15  16
HETATM   16  C7  UNL     1      -6.835  21.413  -0.090  1.00  0.00     0.220 C 
HETATM   17  N1  UNL     1      -7.320  20.287  -0.757  1.00  0.00    -0.361 N 
ATOM     18  H1  UNL     1      -7.602  20.395  -1.732  1.00  0.00     0.162 HD
HETATM   19  O1  UNL     1      -6.485  21.325   1.114  1.00  0.00    -0.274 OA
BRANCH  17  20
HETATM   20  C6  UNL     1      -7.451  18.964  -0.150  1.00  0.00     0.122 C 
BRANCH  20  21
HETATM   21  C5  UNL     1      -8.711  18.317  -0.581  1.00  0.00     0.020 C 
BRANCH  21  22
HETATM   22  C4  UNL     1      -8.675  16.913  -1.024  1.00  0.00     0.005 C 
BRANCH  22  23
HETATM   23  C2  UNL     1      -9.086  15.817  -0.135  1.00  0.00    -0.023 C 
HETATM   24  C1  UNL     1     -10.242  16.132   0.749  1.00  0.00     0.009 C 
HETATM   25  C3  UNL     1      -9.490  14.605  -1.002  1.00  0.00     0.009 C 
ENDBRANCH  22  23
ENDBRANCH  21  22
ENDBRANCH  20  21
ENDBRANCH  17  20
ENDBRANCH  15  16
ENDBRANCH   1  15
TORSDOF 6
ENDMDL
