MODEL 1
REMARK VINA RESULT: -6.874835395      0.000      0.000
REMARK  6 active torsions:
REMARK  status: ('A' for Active; 'I' for Inactive)
REMARK    1  A    between atoms: C2_2  and  C3_3 
REMARK    2  A    between atoms: C3_3  and  C4_4 
REMARK    3  A    between atoms: C5_5  and  C6_6 
REMARK    4  A    between atoms: C7_7  and  C8_8 
REMARK    5  A    between atoms: C12_14  and  C13_15 
REMARK    6  A    between atoms: C13_15  and  N1_16 
ROOT
HETATM    1  C6  UNL     1      -6.317  21.500  -2.393  1.00  0.00     0.036 C 
HETATM    2  C7  UNL     1      -5.288  22.484  -1.905  1.00  0.00     0.100 C 
HETATM    3  C9  UNL     1      -5.132  23.507  -3.045  1.00  0.00     0.004 C 
HETATM    4  C10 UNL     1      -6.437  23.585  -3.828  1.00  0.00     0.007 C 
HETATM    5  C11 UNL     1      -6.576  22.294  -4.655  1.00  0.00     0.016 C 
HETATM    6  C12 UNL     1      -5.928  21.206  -3.846  1.00  0.00    -0.000 C 
HETATM    7  C18 UNL     1      -4.416  21.415  -4.034  1.00  0.00     0.020 C 
HETATM    8  C19 UNL     1      -4.107  22.903  -3.983  1.00  0.00    -0.013 C 
HETATM    9  C20 UNL     1      -2.728  23.169  -3.422  1.00  0.00     0.010 C 
ENDROOT
BRANCH   6  10
HETATM   10  C13 UNL     1      -6.225  19.810  -4.230  1.00  0.00     0.068 C 
BRANCH  10  11
HETATM   11  N1  UNL     1      -5.480  19.186  -5.237  1.00  0.00    -0.389 N 
HETATM   12  C14 UNL     1      -5.637  19.492  -6.592  1.00  0.00     0.148 C 
HETATM   13  C15 UNL     1      -4.349  19.003  -7.301  1.00  0.00     0.187 C 
HETATM   14  O3  UNL     1      -4.395  17.630  -7.275  1.00  0.00    -0.388 OA
HETATM   15  C16 UNL     1      -4.247  17.207  -5.960  1.00  0.00     0.187 C 
HETATM   16  C17 UNL     1      -5.318  17.760  -5.048  1.00  0.00     0.148 C 
ENDBRANCH  10  11
ENDBRANCH   6  10
BRANCH   1  17
HETATM   17  C5  UNL     1      -6.387  20.279  -1.581  1.00  0.00    -0.024 C 
HETATM   18  C4  UNL     1      -7.376  19.949  -0.755  1.00  0.00    -0.030 C 
BRANCH  18  19
HETATM   19  C3  UNL     1      -7.377  18.692   0.035  1.00  0.00     0.026 C 
BRANCH  19  20
HETATM   20  C2  UNL     1      -8.634  17.873  -0.149  1.00  0.00    -0.001 C 
HETATM   21  C1  UNL     1      -8.837  17.707  -1.641  1.00  0.00     0.005 C 
ENDBRANCH  19  20
ENDBRANCH  18  19
ENDBRANCH   1  17
BRANCH   2  22
HETATM   22  C8  UNL     1      -5.682  23.246  -0.731  1.00  0.00     0.178 C 
HETATM   23  O1  UNL     1      -5.698  22.745   0.408  1.00  0.00    -0.648 OA
HETATM   24  O2  UNL     1      -6.055  24.566  -0.863  1.00  0.00    -0.648 OA
ENDBRANCH   2  22
TORSDOF 6
ENDMDL
MODEL 2
REMARK VINA RESULT: -6.834605255      1.426      1.676
REMARK  6 active torsions:
REMARK  status: ('A' for Active; 'I' for Inactive)
REMARK    1  A    between atoms: C2_2  and  C3_3 
REMARK    2  A    between atoms: C3_3  and  C4_4 
REMARK    3  A    between atoms: C5_5  and  C6_6 
REMARK    4  A    between atoms: C7_7  and  C8_8 
REMARK    5  A    between atoms: C12_14  and  C13_15 
REMARK    6  A    between atoms: C13_15  and  N1_16 
ROOT
HETATM    1  C6  UNL     1      -6.312  22.659  -2.256  1.00  0.00     0.036 C 
HETATM    2  C7  UNL     1      -5.197  23.625  -1.961  1.00  0.00     0.100 C 
HETATM    3  C9  UNL     1      -4.760  24.171  -3.333  1.00  0.00     0.004 C 
HETATM    4  C10 UNL     1      -5.945  24.126  -4.289  1.00  0.00     0.007 C 
HETATM    5  C11 UNL     1      -6.201  22.655  -4.665  1.00  0.00     0.016 C 
HETATM    6  C12 UNL     1      -5.824  21.843  -3.458  1.00  0.00    -0.000 C 
HETATM    7  C18 UNL     1      -4.287  21.799  -3.470  1.00  0.00     0.020 C 
HETATM    8  C19 UNL     1      -3.751  23.169  -3.857  1.00  0.00    -0.013 C 
HETATM    9  C20 UNL     1      -2.415  23.450  -3.208  1.00  0.00     0.010 C 
ENDROOT
BRANCH   6  10
HETATM   10  C13 UNL     1      -6.298  20.444  -3.410  1.00  0.00     0.068 C 
BRANCH  10  11
HETATM   11  N1  UNL     1      -5.743  19.485  -4.265  1.00  0.00    -0.389 N 
HETATM   12  C14 UNL     1      -5.792  19.596  -5.658  1.00  0.00     0.148 C 
HETATM   13  C15 UNL     1      -4.682  18.667  -6.209  1.00  0.00     0.187 C 
HETATM   14  O3  UNL     1      -5.106  17.381  -5.974  1.00  0.00    -0.388 OA
HETATM   15  C16 UNL     1      -5.097  17.155  -4.604  1.00  0.00     0.187 C 
HETATM   16  C17 UNL     1      -5.983  18.120  -3.850  1.00  0.00     0.148 C 
ENDBRANCH  10  11
ENDBRANCH   6  10
BRANCH   1  17
HETATM   17  C5  UNL     1      -6.661  21.805  -1.113  1.00  0.00    -0.024 C 
HETATM   18  C4  UNL     1      -6.078  21.829   0.082  1.00  0.00    -0.030 C 
BRANCH  18  19
HETATM   19  C3  UNL     1      -6.487  20.933   1.192  1.00  0.00     0.026 C 
BRANCH  19  20
HETATM   20  C2  UNL     1      -6.928  19.565   0.723  1.00  0.00    -0.001 C 
HETATM   21  C1  UNL     1      -8.288  19.306   1.336  1.00  0.00     0.005 C 
ENDBRANCH  19  20
ENDBRANCH  18  19
ENDBRANCH   1  17
BRANCH   2  22
HETATM   22  C8  UNL     1      -5.585  24.782  -1.172  1.00  0.00     0.178 C 
HETATM   23  O1  UNL     1      -6.652  25.391  -1.370  1.00  0.00    -0.648 OA
HETATM   24  O2  UNL     1      -4.758  25.236  -0.167  1.00  0.00    -0.648 OA
ENDBRANCH   2  22
TORSDOF 6
ENDMDL
MODEL 3
REMARK VINA RESULT: -6.818156147      2.467      5.748
REMARK  6 active torsions:
REMARK  status: ('A' for Active; 'I' for Inactive)
REMARK    1  A    between atoms: C2_2  and  C3_3 
REMARK    2  A    between atoms: C3_3  and  C4_4 
REMARK    3  A    between atoms: C5_5  and  C6_6 
REMARK    4  A    between atoms: C7_7  and  C8_8 
REMARK    5  A    between atoms: C12_14  and  C13_15 
REMARK    6  A    between atoms: C13_15  and  N1_16 
ROOT
HETATM    1  C6  UNL     1      -5.804  21.351  -2.470  1.00  0.00     0.036 C 
HETATM    2  C7  UNL     1      -6.238  20.813  -3.807  1.00  0.00     0.100 C 
HETATM    3  C9  UNL     1      -5.388  21.570  -4.844  1.00  0.00     0.004 C 
HETATM    4  C10 UNL     1      -4.067  21.979  -4.205  1.00  0.00     0.007 C 
HETATM    5  C11 UNL     1      -4.349  23.124  -3.215  1.00  0.00     0.016 C 
HETATM    6  C12 UNL     1      -5.723  22.870  -2.660  1.00  0.00    -0.000 C 
HETATM    7  C18 UNL     1      -6.690  23.309  -3.771  1.00  0.00     0.020 C 
HETATM    8  C19 UNL     1      -6.146  22.854  -5.116  1.00  0.00    -0.013 C 
HETATM    9  C20 UNL     1      -7.258  22.555  -6.097  1.00  0.00     0.010 C 
ENDROOT
BRANCH   6  10
HETATM   10  C13 UNL     1      -6.104  23.605  -1.436  1.00  0.00     0.068 C 
BRANCH  10  11
HETATM   11  N1  UNL     1      -5.721  24.941  -1.272  1.00  0.00    -0.389 N 
HETATM   12  C14 UNL     1      -4.798  25.350  -0.305  1.00  0.00     0.148 C 
HETATM   13  C15 UNL     1      -4.278  26.737  -0.758  1.00  0.00     0.187 C 
HETATM   14  O3  UNL     1      -5.324  27.612  -0.594  1.00  0.00    -0.388 OA
HETATM   15  C16 UNL     1      -6.314  27.297  -1.516  1.00  0.00     0.187 C 
HETATM   16  C17 UNL     1      -6.819  25.880  -1.365  1.00  0.00     0.148 C 
ENDBRANCH  10  11
ENDBRANCH   6  10
BRANCH   1  17
HETATM   17  C5  UNL     1      -6.704  20.979  -1.371  1.00  0.00    -0.024 C 
HETATM   18  C4  UNL     1      -6.398  20.184  -0.349  1.00  0.00    -0.030 C 
BRANCH  18  19
HETATM   19  C3  UNL     1      -7.364  19.853   0.728  1.00  0.00     0.026 C 
BRANCH  19  20
HETATM   20  C2  UNL     1      -7.834  18.417   0.685  1.00  0.00    -0.001 C 
HETATM   21  C1  UNL     1      -9.051  18.378  -0.215  1.00  0.00     0.005 C 
ENDBRANCH  19  20
ENDBRANCH  18  19
ENDBRANCH   1  17
BRANCH   2  22
HETATM   22  C8  UNL     1      -5.962  19.400  -4.013  1.00  0.00     0.178 C 
HETATM   23  O1  UNL     1      -6.399  18.522  -3.248  1.00  0.00    -0.648 OA
HETATM   24  O2  UNL     1      -5.193  19.002  -5.085  1.00  0.00    -0.648 OA
ENDBRANCH   2  22
TORSDOF 6
ENDMDL
MODEL 4
REMARK VINA RESULT: -6.467804211      2.384      5.599
REMARK  6 active torsions:
REMARK  status: ('A' for Active; 'I' for Inactive)
REMARK    1  A    between atoms: C2_2  and  C3_3 
REMARK    2  A    between atoms: C3_3  and  C4_4 
REMARK    3  A    between atoms: C5_5  and  C6_6 
REMARK    4  A    between atoms: C7_7  and  C8_8 
REMARK    5  A    between atoms: C12_14  and  C13_15 
REMARK    6  A    between atoms: C13_15  and  N1_16 
ROOT
HETATM    1  C6  UNL     1      -4.989  21.377  -3.345  1.00  0.00     0.036 C 
HETATM    2  C7  UNL     1      -6.044  20.745  -4.213  1.00  0.00     0.100 C 
HETATM    3  C9  UNL     1      -5.735  21.227  -5.642  1.00  0.00     0.004 C 
HETATM    4  C10 UNL     1      -4.243  21.509  -5.763  1.00  0.00     0.007 C 
HETATM    5  C11 UNL     1      -3.935  22.800  -4.983  1.00  0.00     0.016 C 
HETATM    6  C12 UNL     1      -4.896  22.830  -3.827  1.00  0.00    -0.000 C 
HETATM    7  C18 UNL     1      -6.239  23.265  -4.435  1.00  0.00     0.020 C 
HETATM    8  C19 UNL     1      -6.434  22.565  -5.771  1.00  0.00    -0.013 C 
HETATM    9  C20 UNL     1      -7.897  22.316  -6.063  1.00  0.00     0.010 C 
ENDROOT
BRANCH   6  10
HETATM   10  C13 UNL     1      -4.595  23.765  -2.722  1.00  0.00     0.068 C 
BRANCH  10  11
HETATM   11  N1  UNL     1      -5.311  24.961  -2.602  1.00  0.00    -0.389 N 
HETATM   12  C14 UNL     1      -4.778  26.201  -2.970  1.00  0.00     0.148 C 
HETATM   13  C15 UNL     1      -5.985  27.152  -3.167  1.00  0.00     0.187 C 
HETATM   14  O3  UNL     1      -6.500  27.383  -1.914  1.00  0.00    -0.388 OA
HETATM   15  C16 UNL     1      -7.063  26.205  -1.442  1.00  0.00     0.187 C 
HETATM   16  C17 UNL     1      -6.065  25.071  -1.372  1.00  0.00     0.148 C 
ENDBRANCH  10  11
ENDBRANCH   6  10
BRANCH   1  17
HETATM   17  C5  UNL     1      -5.285  21.290  -1.910  1.00  0.00    -0.024 C 
HETATM   18  C4  UNL     1      -6.498  21.301  -1.363  1.00  0.00    -0.030 C 
BRANCH  18  19
HETATM   19  C3  UNL     1      -6.720  21.207   0.101  1.00  0.00     0.026 C 
BRANCH  19  20
HETATM   20  C2  UNL     1      -6.691  19.787   0.619  1.00  0.00    -0.001 C 
HETATM   21  C1  UNL     1      -7.839  19.053  -0.042  1.00  0.00     0.005 C 
ENDBRANCH  19  20
ENDBRANCH  18  19
ENDBRANCH   1  17
BRANCH   2  22
HETATM   22  C8  UNL     1      -6.004  19.293  -4.259  1.00  0.00     0.178 C 
HETATM   23  O1  UNL     1      -5.308  18.676  -5.084  1.00  0.00    -0.648 OA
HETATM   24  O2  UNL     1      -6.758  18.559  -3.369  1.00  0.00    -0.648 OA
ENDBRANCH   2  22
TORSDOF 6
ENDMDL
MODEL 5
REMARK VINA RESULT: -6.383515896      2.303      5.266
REMARK  6 active torsions:
REMARK  status: ('A' for Active; 'I' for Inactive)
REMARK    1  A    between atoms: C2_2  and  C3_3 
REMARK    2  A    between atoms: C3_3  and  C4_4 
REMARK    3  A    between atoms: C5_5  and  C6_6 
REMARK    4  A    between atoms: C7_7  and  C8_8 
REMARK    5  A    between atoms: C12_14  and  C13_15 
REMARK    6  A    between atoms: C13_15  and  N1_16 
ROOT
HETATM    1  C6  UNL     1      -4.842  21.076  -4.766  1.00  0.00     0.036 C 
HETATM    2  C7  UNL     1      -5.192  22.427  -5.330  1.00  0.00     0.100 C 
HETATM    3  C9  UNL     1      -4.778  23.439  -4.244  1.00  0.00     0.004 C 
HETATM    4  C10 UNL     1      -3.631  22.856  -3.429  1.00  0.00     0.007 C 
HETATM    5  C11 UNL     1      -4.197  21.736  -2.538  1.00  0.00     0.016 C 
HETATM    6  C12 UNL     1      -5.326  21.115  -3.312  1.00  0.00    -0.000 C 
HETATM    7  C18 UNL     1      -6.495  22.104  -3.177  1.00  0.00     0.020 C 
HETATM    8  C19 UNL     1      -5.967  23.524  -3.308  1.00  0.00    -0.013 C 
HETATM    9  C20 UNL     1      -6.994  24.449  -3.920  1.00  0.00     0.010 C 
ENDROOT
BRANCH   6  10
HETATM   10  C13 UNL     1      -5.816  19.798  -2.854  1.00  0.00     0.068 C 
BRANCH  10  11
HETATM   11  N1  UNL     1      -6.769  19.721  -1.832  1.00  0.00    -0.389 N 
HETATM   12  C14 UNL     1      -6.488  20.074  -0.508  1.00  0.00     0.148 C 
HETATM   13  C15 UNL     1      -7.855  20.335   0.172  1.00  0.00     0.187 C 
HETATM   14  O3  UNL     1      -8.466  19.110   0.289  1.00  0.00    -0.388 OA
HETATM   15  C16 UNL     1      -8.795  18.656  -0.981  1.00  0.00     0.187 C 
HETATM   16  C17 UNL     1      -7.588  18.529  -1.883  1.00  0.00     0.148 C 
ENDBRANCH  10  11
ENDBRANCH   6  10
BRANCH   1  17
HETATM   17  C5  UNL     1      -5.433  19.961  -5.516  1.00  0.00    -0.024 C 
HETATM   18  C4  UNL     1      -4.763  19.061  -6.230  1.00  0.00    -0.030 C 
BRANCH  18  19
HETATM   19  C3  UNL     1      -5.431  17.958  -6.963  1.00  0.00     0.026 C 
BRANCH  19  20
HETATM   20  C2  UNL     1      -4.866  16.595  -6.634  1.00  0.00    -0.001 C 
HETATM   21  C1  UNL     1      -4.938  16.440  -5.129  1.00  0.00     0.005 C 
ENDBRANCH  19  20
ENDBRANCH  18  19
ENDBRANCH   1  17
BRANCH   2  22
HETATM   22  C8  UNL     1      -4.455  22.797  -6.527  1.00  0.00     0.178 C 
HETATM   23  O1  UNL     1      -3.351  22.295  -6.806  1.00  0.00    -0.648 OA
HETATM   24  O2  UNL     1      -4.979  23.733  -7.392  1.00  0.00    -0.648 OA
ENDBRANCH   2  22
TORSDOF 6
ENDMDL
