MODEL 1
REMARK VINA RESULT: -7.889014981      0.000      0.000
REMARK  5 active torsions:
REMARK  status: ('A' for Active; 'I' for Inactive)
REMARK    1  A    between atoms: C1_2  and  C2_5 
REMARK    2  A    between atoms: C4_7  and  N1_8 
REMARK    3  A    between atoms: N1_8  and  C5_10 
REMARK    4  A    between atoms: C5_10  and  N2_12 
REMARK    5  A    between atoms: N2_12  and  C6_14 
ROOT
HETATM    1  N1  UNL     1      17.515  29.986  -0.646  1.00  0.00    -0.328 N 
ATOM      2  H1  UNL     1      17.367  30.744   0.020  1.00  0.00     0.169 HD
ENDROOT
BRANCH   1   3
HETATM    3  C4  UNL     1      18.333  30.294  -1.769  1.00  0.00     0.078 A 
HETATM    4  C3  UNL     1      18.390  29.608  -2.973  1.00  0.00     0.055 A 
HETATM    5  C2  UNL     1      19.231  30.070  -3.897  1.00  0.00     0.079 A 
HETATM    6  C12 UNL     1      19.972  31.175  -3.606  1.00  0.00     0.091 A 
HETATM    7  S2  UNL     1      19.461  31.536  -2.027  1.00  0.00    -0.059 SA
HETATM    8 CL1  UNL     1      21.156  32.035  -4.578  1.00  0.00    -0.075 Cl
BRANCH   5   9
HETATM    9  C1  UNL     1      19.397  29.415  -5.257  1.00  0.00     0.419 C 
HETATM   10  F1  UNL     1      18.600  28.289  -5.230  1.00  0.00    -0.166 F 
HETATM   11  F2  UNL     1      20.691  29.048  -5.497  1.00  0.00    -0.166 F 
HETATM   12  F3  UNL     1      18.967  30.309  -6.228  1.00  0.00    -0.166 F 
ENDBRANCH   5   9
ENDBRANCH   1   3
BRANCH   1  13
HETATM   13  C5  UNL     1      16.894  28.782  -0.341  1.00  0.00     0.172 C 
HETATM   14  S1  UNL     1      15.237  28.834  -0.211  1.00  0.00    -0.041 SA
BRANCH  13  15
HETATM   15  N2  UNL     1      17.484  27.540  -0.132  1.00  0.00    -0.362 N 
ATOM     16  H2  UNL     1      17.302  26.823  -0.833  1.00  0.00     0.162 HD
BRANCH  15  17
HETATM   17  C6  UNL     1      18.329  27.161   0.978  1.00  0.00     0.083 C 
HETATM   18  C7  UNL     1      18.518  25.689   1.159  1.00  0.00     0.025 C 
HETATM   19  C8  UNL     1      18.878  25.500   2.644  1.00  0.00     0.002 C 
HETATM   20  C9  UNL     1      20.246  26.161   2.806  1.00  0.00     0.000 C 
HETATM   21  C10 UNL     1      20.272  27.589   2.373  1.00  0.00     0.002 C 
HETATM   22  C11 UNL     1      19.696  27.797   0.969  1.00  0.00     0.025 C 
ENDBRANCH  15  17
ENDBRANCH  13  15
ENDBRANCH   1  13
TORSDOF 5
ENDMDL
MODEL 2
REMARK VINA RESULT: -7.849812469      3.964      6.618
REMARK  5 active torsions:
REMARK  status: ('A' for Active; 'I' for Inactive)
REMARK    1  A    between atoms: C1_2  and  C2_5 
REMARK    2  A    between atoms: C4_7  and  N1_8 
REMARK    3  A    between atoms: N1_8  and  C5_10 
REMARK    4  A    between atoms: C5_10  and  N2_12 
REMARK    5  A    between atoms: N2_12  and  C6_14 
ROOT
HETATM    1  N1  UNL     1      17.840  30.502   0.154  1.00  0.00    -0.328 N 
ATOM      2  H1  UNL     1      17.167  30.965   0.765  1.00  0.00     0.169 HD
ENDROOT
BRANCH   1   3
HETATM    3  C4  UNL     1      18.100  29.132   0.440  1.00  0.00     0.078 A 
HETATM    4  C3  UNL     1      19.219  28.611   1.074  1.00  0.00     0.055 A 
HETATM    5  C2  UNL     1      19.262  27.290   1.243  1.00  0.00     0.079 A 
HETATM    6  C12 UNL     1      18.216  26.543   0.789  1.00  0.00     0.091 A 
HETATM    7  S2  UNL     1      17.194  27.730   0.132  1.00  0.00    -0.059 SA
HETATM    8 CL1  UNL     1      17.953  24.807   0.847  1.00  0.00    -0.075 Cl
BRANCH   5   9
HETATM    9  C1  UNL     1      20.426  26.585   1.916  1.00  0.00     0.419 C 
HETATM   10  F1  UNL     1      21.205  26.088   0.892  1.00  0.00    -0.166 F 
HETATM   11  F2  UNL     1      20.013  25.554   2.711  1.00  0.00    -0.166 F 
HETATM   12  F3  UNL     1      21.125  27.517   2.670  1.00  0.00    -0.166 F 
ENDBRANCH   5   9
ENDBRANCH   1   3
BRANCH   1  13
HETATM   13  C5  UNL     1      18.385  31.287  -0.853  1.00  0.00     0.172 C 
HETATM   14  S1  UNL     1      17.595  32.716  -1.165  1.00  0.00    -0.041 SA
BRANCH  13  15
HETATM   15  N2  UNL     1      19.508  31.028  -1.631  1.00  0.00    -0.362 N 
ATOM     16  H2  UNL     1      20.415  31.172  -1.187  1.00  0.00     0.162 HD
BRANCH  15  17
HETATM   17  C6  UNL     1      19.523  30.576  -3.004  1.00  0.00     0.083 C 
HETATM   18  C7  UNL     1      20.878  30.467  -3.622  1.00  0.00     0.025 C 
HETATM   19  C8  UNL     1      20.650  30.591  -5.141  1.00  0.00     0.002 C 
HETATM   20  C9  UNL     1      19.868  29.337  -5.526  1.00  0.00     0.000 C 
HETATM   21  C10 UNL     1      18.602  29.163  -4.754  1.00  0.00     0.002 C 
HETATM   22  C11 UNL     1      18.808  29.270  -3.240  1.00  0.00     0.025 C 
ENDBRANCH  15  17
ENDBRANCH  13  15
ENDBRANCH   1  13
TORSDOF 5
ENDMDL
MODEL 3
REMARK VINA RESULT: -7.733277360      4.063      6.624
REMARK  5 active torsions:
REMARK  status: ('A' for Active; 'I' for Inactive)
REMARK    1  A    between atoms: C1_2  and  C2_5 
REMARK    2  A    between atoms: C4_7  and  N1_8 
REMARK    3  A    between atoms: N1_8  and  C5_10 
REMARK    4  A    between atoms: C5_10  and  N2_12 
REMARK    5  A    between atoms: N2_12  and  C6_14 
ROOT
HETATM    1  N1  UNL     1      17.882  30.324  -0.115  1.00  0.00    -0.328 N 
ATOM      2  H1  UNL     1      18.495  31.032   0.288  1.00  0.00     0.169 HD
ENDROOT
BRANCH   1   3
HETATM    3  C4  UNL     1      18.134  28.982   0.285  1.00  0.00     0.078 A 
HETATM    4  C3  UNL     1      19.251  28.507   0.955  1.00  0.00     0.055 A 
HETATM    5  C2  UNL     1      19.285  27.205   1.236  1.00  0.00     0.079 A 
HETATM    6  C12 UNL     1      18.232  26.431   0.853  1.00  0.00     0.091 A 
HETATM    7  S2  UNL     1      17.215  27.566   0.102  1.00  0.00    -0.059 SA
HETATM    8 CL1  UNL     1      17.955  24.708   1.060  1.00  0.00    -0.075 Cl
BRANCH   5   9
HETATM    9  C1  UNL     1      20.447  26.551   1.961  1.00  0.00     0.419 C 
HETATM   10  F1  UNL     1      21.260  26.031   0.974  1.00  0.00    -0.166 F 
HETATM   11  F2  UNL     1      20.037  25.542   2.786  1.00  0.00    -0.166 F 
HETATM   12  F3  UNL     1      21.111  27.525   2.694  1.00  0.00    -0.166 F 
ENDBRANCH   5   9
ENDBRANCH   1   3
BRANCH   1  13
HETATM   13  C5  UNL     1      16.906  30.791  -0.986  1.00  0.00     0.172 C 
HETATM   14  S1  UNL     1      15.925  31.996  -0.396  1.00  0.00    -0.041 SA
BRANCH  13  15
HETATM   15  N2  UNL     1      16.650  30.379  -2.290  1.00  0.00    -0.362 N 
ATOM     16  H2  UNL     1      15.697  30.079  -2.495  1.00  0.00     0.162 HD
BRANCH  15  17
HETATM   17  C6  UNL     1      17.595  30.330  -3.382  1.00  0.00     0.083 C 
HETATM   18  C7  UNL     1      18.438  29.098  -3.438  1.00  0.00     0.025 C 
HETATM   19  C8  UNL     1      19.707  29.502  -4.212  1.00  0.00     0.002 C 
HETATM   20  C9  UNL     1      19.227  29.793  -5.632  1.00  0.00     0.000 C 
HETATM   21  C10 UNL     1      18.148  30.822  -5.697  1.00  0.00     0.002 C 
HETATM   22  C11 UNL     1      16.984  30.525  -4.746  1.00  0.00     0.025 C 
ENDBRANCH  15  17
ENDBRANCH  13  15
ENDBRANCH   1  13
TORSDOF 5
ENDMDL
MODEL 4
REMARK VINA RESULT: -7.717253676      4.096      6.705
REMARK  5 active torsions:
REMARK  status: ('A' for Active; 'I' for Inactive)
REMARK    1  A    between atoms: C1_2  and  C2_5 
REMARK    2  A    between atoms: C4_7  and  N1_8 
REMARK    3  A    between atoms: N1_8  and  C5_10 
REMARK    4  A    between atoms: C5_10  and  N2_12 
REMARK    5  A    between atoms: N2_12  and  C6_14 
ROOT
HETATM    1  N1  UNL     1      19.358  30.154   0.083  1.00  0.00    -0.328 N 
ATOM      2  H1  UNL     1      20.139  30.289   0.724  1.00  0.00     0.169 HD
ENDROOT
BRANCH   1   3
HETATM    3  C4  UNL     1      18.631  28.940   0.234  1.00  0.00     0.078 A 
HETATM    4  C3  UNL     1      19.005  27.831   0.977  1.00  0.00     0.055 A 
HETATM    5  C2  UNL     1      18.171  26.792   0.982  1.00  0.00     0.079 A 
HETATM    6  C12 UNL     1      17.015  26.885   0.266  1.00  0.00     0.091 A 
HETATM    7  S2  UNL     1      17.137  28.442  -0.400  1.00  0.00    -0.059 SA
HETATM    8 CL1  UNL     1      15.713  25.723   0.058  1.00  0.00    -0.075 Cl
BRANCH   5   9
HETATM    9  C1  UNL     1      18.454  25.514   1.750  1.00  0.00     0.419 C 
HETATM   10  F1  UNL     1      18.339  24.492   0.830  1.00  0.00    -0.166 F 
HETATM   11  F2  UNL     1      17.560  25.312   2.764  1.00  0.00    -0.166 F 
HETATM   12  F3  UNL     1      19.743  25.586   2.260  1.00  0.00    -0.166 F 
ENDBRANCH   5   9
ENDBRANCH   1   3
BRANCH   1  13
HETATM   13  C5  UNL     1      19.139  31.179  -0.828  1.00  0.00     0.172 C 
HETATM   14  S1  UNL     1      17.912  32.235  -0.449  1.00  0.00    -0.041 SA
BRANCH  13  15
HETATM   15  N2  UNL     1      19.817  31.433  -2.016  1.00  0.00    -0.362 N 
ATOM     16  H2  UNL     1      20.305  32.326  -2.082  1.00  0.00     0.162 HD
BRANCH  15  17
HETATM   17  C6  UNL     1      19.901  30.561  -3.166  1.00  0.00     0.083 C 
HETATM   18  C7  UNL     1      18.665  30.491  -4.002  1.00  0.00     0.025 C 
HETATM   19  C8  UNL     1      18.736  29.136  -4.730  1.00  0.00     0.002 C 
HETATM   20  C9  UNL     1      19.925  29.261  -5.680  1.00  0.00     0.000 C 
HETATM   21  C10 UNL     1      21.200  29.626  -4.994  1.00  0.00     0.002 C 
HETATM   22  C11 UNL     1      21.058  30.852  -4.087  1.00  0.00     0.025 C 
ENDBRANCH  15  17
ENDBRANCH  13  15
ENDBRANCH   1  13
TORSDOF 5
ENDMDL
MODEL 5
REMARK VINA RESULT: -7.714724075      2.000      2.602
REMARK  5 active torsions:
REMARK  status: ('A' for Active; 'I' for Inactive)
REMARK    1  A    between atoms: C1_2  and  C2_5 
REMARK    2  A    between atoms: C4_7  and  N1_8 
REMARK    3  A    between atoms: N1_8  and  C5_10 
REMARK    4  A    between atoms: C5_10  and  N2_12 
REMARK    5  A    between atoms: N2_12  and  C6_14 
ROOT
HETATM    1  N1  UNL     1      17.487  28.850  -0.264  1.00  0.00    -0.328 N 
ATOM      2  H1  UNL     1      16.771  29.408   0.201  1.00  0.00     0.169 HD
ENDROOT
BRANCH   1   3
HETATM    3  C4  UNL     1      18.175  29.488  -1.334  1.00  0.00     0.078 A 
HETATM    4  C3  UNL     1      18.288  29.035  -2.640  1.00  0.00     0.055 A 
HETATM    5  C2  UNL     1      18.983  29.792  -3.488  1.00  0.00     0.079 A 
HETATM    6  C12 UNL     1      19.530  30.951  -3.025  1.00  0.00     0.091 A 
HETATM    7  S2  UNL     1      19.050  30.941  -1.396  1.00  0.00    -0.059 SA
HETATM    8 CL1  UNL     1      20.489  32.165  -3.858  1.00  0.00    -0.075 Cl
BRANCH   5   9
HETATM    9  C1  UNL     1      19.189  29.417  -4.945  1.00  0.00     0.419 C 
HETATM   10  F1  UNL     1      18.506  28.231  -5.126  1.00  0.00    -0.166 F 
HETATM   11  F2  UNL     1      20.508  29.228  -5.246  1.00  0.00    -0.166 F 
HETATM   12  F3  UNL     1      18.659  30.426  -5.736  1.00  0.00    -0.166 F 
ENDBRANCH   5   9
ENDBRANCH   1   3
BRANCH   1  13
HETATM   13  C5  UNL     1      17.667  27.563   0.228  1.00  0.00     0.172 C 
HETATM   14  S1  UNL     1      19.104  27.284   1.015  1.00  0.00    -0.041 SA
BRANCH  13  15
HETATM   15  N2  UNL     1      16.796  26.482   0.144  1.00  0.00    -0.362 N 
ATOM     16  H2  UNL     1      16.143  26.481  -0.638  1.00  0.00     0.162 HD
BRANCH  15  17
HETATM   17  C6  UNL     1      16.722  25.361   1.053  1.00  0.00     0.083 C 
HETATM   18  C7  UNL     1      15.487  25.304   1.892  1.00  0.00     0.025 C 
HETATM   19  C8  UNL     1      15.872  24.481   3.136  1.00  0.00     0.002 C 
HETATM   20  C9  UNL     1      16.134  23.071   2.610  1.00  0.00     0.000 C 
HETATM   21  C10 UNL     1      17.163  23.020   1.531  1.00  0.00     0.002 C 
HETATM   22  C11 UNL     1      16.889  24.014   0.398  1.00  0.00     0.025 C 
ENDBRANCH  15  17
ENDBRANCH  13  15
ENDBRANCH   1  13
TORSDOF 5
ENDMDL
