MODEL 1
REMARK VINA RESULT: -7.345876152      0.000      0.000
REMARK  10 active torsions:
REMARK  status: ('A' for Active; 'I' for Inactive)
REMARK    1  A    between atoms: C4_4  and  C5_5 
REMARK    2  A    between atoms: C5_5  and  N3_13 
REMARK    3  A    between atoms: N1_6  and  C6_8 
REMARK    4  A    between atoms: C6_8  and  C7_9 
REMARK    5  A    between atoms: N3_13  and  C10_15 
REMARK    6  A    between atoms: C10_15  and  C11_16 
REMARK    7  A    between atoms: C10_15  and  C17_22 
REMARK    8  A    between atoms: C11_16  and  C12_17 
REMARK    9  A    between atoms: C17_22  and  O1_23 
REMARK   10  A    between atoms: C17_22  and  O2_25 
ROOT
HETATM    1  C7  UNL     1      12.800   2.979  -2.692  1.00  0.00     0.003 C 
HETATM    2  C8  UNL     1      13.876   2.222  -2.706  1.00  0.00     0.091 C 
HETATM    3  C9  UNL     1      14.724   2.151  -3.861  1.00  0.00     0.087 C 
HETATM    4  N2  UNL     1      15.407   2.084  -4.811  1.00  0.00    -0.192 NA
ENDROOT
BRANCH   1   5
HETATM    5  C6  UNL     1      11.926   3.051  -1.498  1.00  0.00     0.148 C 
BRANCH   5   6
HETATM    6  N1  UNL     1      11.220   4.282  -1.395  1.00  0.00    -0.376 N 
HETATM    7  C5  UNL     1      11.364   5.227  -0.548  1.00  0.00     0.079 C 
ATOM      8  H1  UNL     1      10.495   4.430  -2.096  1.00  0.00     0.161 HD
BRANCH   7   9
HETATM    9  C4  UNL     1      12.301   5.314   0.565  1.00  0.00     0.070 A 
HETATM   10  C2  UNL     1      13.547   6.187   0.294  1.00  0.00    -0.029 A 
HETATM   11  C1  UNL     1      13.536   7.063  -0.924  1.00  0.00     0.016 C 
HETATM   12  C3  UNL     1      14.899   5.583   0.609  1.00  0.00     0.016 C 
HETATM   13  C18 UNL     1      12.571   6.456   1.412  1.00  0.00    -0.029 A 
HETATM   14  C19 UNL     1      11.822   7.759   1.418  1.00  0.00     0.016 C 
HETATM   15  C20 UNL     1      13.183   6.166   2.795  1.00  0.00     0.016 C 
ENDBRANCH   7   9
BRANCH   7  16
HETATM   16  N3  UNL     1      10.488   6.359  -0.765  1.00  0.00    -0.370 N 
ATOM     17  H3  UNL     1      10.808   7.304  -0.554  1.00  0.00     0.161 HD
BRANCH  16  18
HETATM   18  C10 UNL     1       9.129   6.136  -1.294  1.00  0.00     0.138 C 
BRANCH  18  19
HETATM   19  C11 UNL     1       8.199   6.765  -0.313  1.00  0.00     0.034 C 
BRANCH  19  20
HETATM   20  C12 UNL     1       8.669   6.894   1.087  1.00  0.00    -0.012 C 
HETATM   21  C13 UNL     1       7.771   7.716   1.962  1.00  0.00     0.005 C 
HETATM   22  C14 UNL     1       8.163   7.224   3.362  1.00  0.00     0.000 C 
HETATM   23  C15 UNL     1       8.540   5.780   3.209  1.00  0.00     0.000 C 
HETATM   24  C16 UNL     1       8.497   5.508   1.738  1.00  0.00     0.005 C 
ENDBRANCH  19  20
ENDBRANCH  18  19
BRANCH  18  25
HETATM   25  C17 UNL     1       9.067   6.730  -2.684  1.00  0.00     0.276 C 
BRANCH  25  26
HETATM   26  O1  UNL     1       9.790   6.021  -3.630  1.00  0.00    -0.369 OA
ATOM     27  H1  UNL     1       9.934   6.496  -4.440  1.00  0.00     0.212 HD
ENDBRANCH  25  26
BRANCH  25  28
HETATM   28  O2  UNL     1       7.780   7.004  -3.088  1.00  0.00    -0.369 OA
ATOM     29  H2  UNL     1       7.744   7.644  -3.789  1.00  0.00     0.212 HD
ENDBRANCH  25  28
ENDBRANCH  18  25
ENDBRANCH  16  18
ENDBRANCH   7  16
ENDBRANCH   5   6
ENDBRANCH   1   5
TORSDOF 10
ENDMDL
MODEL 2
REMARK VINA RESULT: -7.332846670      2.070      3.483
REMARK  10 active torsions:
REMARK  status: ('A' for Active; 'I' for Inactive)
REMARK    1  A    between atoms: C4_4  and  C5_5 
REMARK    2  A    between atoms: C5_5  and  N3_13 
REMARK    3  A    between atoms: N1_6  and  C6_8 
REMARK    4  A    between atoms: C6_8  and  C7_9 
REMARK    5  A    between atoms: N3_13  and  C10_15 
REMARK    6  A    between atoms: C10_15  and  C11_16 
REMARK    7  A    between atoms: C10_15  and  C17_22 
REMARK    8  A    between atoms: C11_16  and  C12_17 
REMARK    9  A    between atoms: C17_22  and  O1_23 
REMARK   10  A    between atoms: C17_22  and  O2_25 
ROOT
HETATM    1  C7  UNL     1      12.566   3.291  -2.076  1.00  0.00     0.003 C 
HETATM    2  C8  UNL     1      13.656   2.617  -1.779  1.00  0.00     0.091 C 
HETATM    3  C9  UNL     1      14.587   2.218  -2.795  1.00  0.00     0.087 C 
HETATM    4  N2  UNL     1      15.339   1.882  -3.628  1.00  0.00    -0.192 NA
ENDROOT
BRANCH   1   5
HETATM    5  C6  UNL     1      11.605   3.702  -1.026  1.00  0.00     0.148 C 
BRANCH   5   6
HETATM    6  N1  UNL     1      10.918   4.907  -1.336  1.00  0.00    -0.376 N 
HETATM    7  C5  UNL     1      10.160   5.620  -0.595  1.00  0.00     0.079 C 
ATOM      8  H1  UNL     1      11.049   5.253  -2.287  1.00  0.00     0.161 HD
BRANCH   7   9
HETATM    9  C4  UNL     1       9.778   5.395   0.793  1.00  0.00     0.070 A 
HETATM   10  C2  UNL     1      10.503   6.298   1.816  1.00  0.00    -0.029 A 
HETATM   11  C1  UNL     1      11.278   7.470   1.289  1.00  0.00     0.016 C 
HETATM   12  C3  UNL     1      11.142   5.620   3.010  1.00  0.00     0.016 C 
HETATM   13  C18 UNL     1       9.004   6.264   1.653  1.00  0.00    -0.029 A 
HETATM   14  C19 UNL     1       8.294   7.525   1.242  1.00  0.00     0.016 C 
HETATM   15  C20 UNL     1       8.307   5.608   2.858  1.00  0.00     0.016 C 
ENDBRANCH   7   9
BRANCH   7  16
HETATM   16  N3  UNL     1       9.651   6.814  -1.237  1.00  0.00    -0.370 N 
ATOM     17  H3  UNL     1       9.925   7.735  -0.897  1.00  0.00     0.161 HD
BRANCH  16  18
HETATM   18  C10 UNL     1       8.734   6.688  -2.385  1.00  0.00     0.138 C 
BRANCH  18  19
HETATM   19  C11 UNL     1       7.716   7.763  -2.217  1.00  0.00     0.034 C 
BRANCH  19  20
HETATM   20  C12 UNL     1       6.302   7.345  -2.060  1.00  0.00    -0.012 C 
HETATM   21  C13 UNL     1       5.310   8.451  -2.260  1.00  0.00     0.005 C 
HETATM   22  C14 UNL     1       4.032   7.669  -2.593  1.00  0.00     0.000 C 
HETATM   23  C15 UNL     1       4.474   6.434  -3.322  1.00  0.00     0.000 C 
HETATM   24  C16 UNL     1       5.970   6.454  -3.273  1.00  0.00     0.005 C 
ENDBRANCH  19  20
ENDBRANCH  18  19
BRANCH  18  25
HETATM   25  C17 UNL     1       9.556   6.797  -3.651  1.00  0.00     0.276 C 
BRANCH  25  26
HETATM   26  O1  UNL     1       9.705   5.597  -4.328  1.00  0.00    -0.369 OA
ATOM     27  H1  UNL     1       9.940   4.866  -3.768  1.00  0.00     0.212 HD
ENDBRANCH  25  26
BRANCH  25  28
HETATM   28  O2  UNL     1       9.141   7.824  -4.467  1.00  0.00    -0.369 OA
ATOM     29  H2  UNL     1       9.863   8.352  -4.789  1.00  0.00     0.212 HD
ENDBRANCH  25  28
ENDBRANCH  18  25
ENDBRANCH  16  18
ENDBRANCH   7  16
ENDBRANCH   5   6
ENDBRANCH   1   5
TORSDOF 10
ENDMDL
MODEL 3
REMARK VINA RESULT: -7.144463984      2.198      3.077
REMARK  10 active torsions:
REMARK  status: ('A' for Active; 'I' for Inactive)
REMARK    1  A    between atoms: C4_4  and  C5_5 
REMARK    2  A    between atoms: C5_5  and  N3_13 
REMARK    3  A    between atoms: N1_6  and  C6_8 
REMARK    4  A    between atoms: C6_8  and  C7_9 
REMARK    5  A    between atoms: N3_13  and  C10_15 
REMARK    6  A    between atoms: C10_15  and  C11_16 
REMARK    7  A    between atoms: C10_15  and  C17_22 
REMARK    8  A    between atoms: C11_16  and  C12_17 
REMARK    9  A    between atoms: C17_22  and  O1_23 
REMARK   10  A    between atoms: C17_22  and  O2_25 
ROOT
HETATM    1  C7  UNL     1      13.137   3.753  -1.739  1.00  0.00     0.003 C 
HETATM    2  C8  UNL     1      13.952   2.960  -1.077  1.00  0.00     0.091 C 
HETATM    3  C9  UNL     1      15.369   3.191  -1.062  1.00  0.00     0.087 C 
HETATM    4  N2  UNL     1      16.526   3.374  -1.063  1.00  0.00    -0.192 NA
ENDROOT
BRANCH   1   5
HETATM    5  C6  UNL     1      11.675   3.513  -1.754  1.00  0.00     0.148 C 
BRANCH   5   6
HETATM    6  N1  UNL     1      10.911   4.712  -1.728  1.00  0.00    -0.376 N 
HETATM    7  C5  UNL     1      10.650   5.484  -0.745  1.00  0.00     0.079 C 
ATOM      8  H1  UNL     1      10.513   4.996  -2.623  1.00  0.00     0.161 HD
BRANCH   7   9
HETATM    9  C4  UNL     1      11.065   5.352   0.646  1.00  0.00     0.070 A 
HETATM   10  C2  UNL     1      12.372   6.095   1.003  1.00  0.00    -0.029 A 
HETATM   11  C1  UNL     1      12.911   7.079   0.008  1.00  0.00     0.016 C 
HETATM   12  C3  UNL     1      13.439   5.309   1.736  1.00  0.00     0.016 C 
HETATM   13  C18 UNL     1      11.051   6.367   1.678  1.00  0.00    -0.029 A 
HETATM   14  C19 UNL     1      10.454   7.743   1.567  1.00  0.00     0.016 C 
HETATM   15  C20 UNL     1      11.035   5.875   3.136  1.00  0.00     0.016 C 
ENDBRANCH   7   9
BRANCH   7  16
HETATM   16  N3  UNL     1       9.862   6.647  -1.092  1.00  0.00    -0.370 N 
ATOM     17  H3  UNL     1       9.971   7.516  -0.570  1.00  0.00     0.161 HD
BRANCH  16  18
HETATM   18  C10 UNL     1       8.901   6.567  -2.208  1.00  0.00     0.138 C 
BRANCH  18  19
HETATM   19  C11 UNL     1       7.875   7.615  -1.943  1.00  0.00     0.034 C 
BRANCH  19  20
HETATM   20  C12 UNL     1       6.455   7.189  -1.920  1.00  0.00    -0.012 C 
HETATM   21  C13 UNL     1       5.475   8.313  -2.077  1.00  0.00     0.005 C 
HETATM   22  C14 UNL     1       4.224   7.572  -2.568  1.00  0.00     0.000 C 
HETATM   23  C15 UNL     1       4.717   6.412  -3.382  1.00  0.00     0.000 C 
HETATM   24  C16 UNL     1       6.206   6.421  -3.233  1.00  0.00     0.005 C 
ENDBRANCH  19  20
ENDBRANCH  18  19
BRANCH  18  25
HETATM   25  C17 UNL     1       9.668   6.756  -3.499  1.00  0.00     0.276 C 
BRANCH  25  26
HETATM   26  O1  UNL     1       9.733   5.617  -4.285  1.00  0.00    -0.369 OA
ATOM     27  H1  UNL     1      10.452   5.618  -4.906  1.00  0.00     0.212 HD
ENDBRANCH  25  26
BRANCH  25  28
HETATM   28  O2  UNL     1       9.263   7.869  -4.200  1.00  0.00    -0.369 OA
ATOM     29  H2  UNL     1       9.573   7.870  -5.098  1.00  0.00     0.212 HD
ENDBRANCH  25  28
ENDBRANCH  18  25
ENDBRANCH  16  18
ENDBRANCH   7  16
ENDBRANCH   5   6
ENDBRANCH   1   5
TORSDOF 10
ENDMDL
MODEL 4
REMARK VINA RESULT: -7.061328321      2.034      3.616
REMARK  10 active torsions:
REMARK  status: ('A' for Active; 'I' for Inactive)
REMARK    1  A    between atoms: C4_4  and  C5_5 
REMARK    2  A    between atoms: C5_5  and  N3_13 
REMARK    3  A    between atoms: N1_6  and  C6_8 
REMARK    4  A    between atoms: C6_8  and  C7_9 
REMARK    5  A    between atoms: N3_13  and  C10_15 
REMARK    6  A    between atoms: C10_15  and  C11_16 
REMARK    7  A    between atoms: C10_15  and  C17_22 
REMARK    8  A    between atoms: C11_16  and  C12_17 
REMARK    9  A    between atoms: C17_22  and  O1_23 
REMARK   10  A    between atoms: C17_22  and  O2_25 
ROOT
HETATM    1  C7  UNL     1      14.996   5.361   0.038  1.00  0.00     0.003 C 
HETATM    2  C8  UNL     1      14.291   4.419  -0.552  1.00  0.00     0.091 C 
HETATM    3  C9  UNL     1      14.908   3.465  -1.430  1.00  0.00     0.087 C 
HETATM    4  N2  UNL     1      15.411   2.696  -2.157  1.00  0.00    -0.192 NA
ENDROOT
BRANCH   1   5
HETATM    5  C6  UNL     1      14.358   6.345   0.943  1.00  0.00     0.148 C 
BRANCH   5   6
HETATM    6  N1  UNL     1      12.997   6.602   0.622  1.00  0.00    -0.376 N 
HETATM    7  C5  UNL     1      11.954   6.449   1.343  1.00  0.00     0.079 C 
ATOM      8  H1  UNL     1      12.830   6.958  -0.318  1.00  0.00     0.161 HD
BRANCH   7   9
HETATM    9  C4  UNL     1      11.861   5.962   2.713  1.00  0.00     0.070 A 
HETATM   10  C2  UNL     1      12.279   6.985   3.793  1.00  0.00    -0.029 A 
HETATM   11  C1  UNL     1      12.451   8.415   3.371  1.00  0.00     0.016 C 
HETATM   12  C3  UNL     1      13.272   6.525   4.838  1.00  0.00     0.016 C 
HETATM   13  C18 UNL     1      10.911   6.352   3.733  1.00  0.00    -0.029 A 
HETATM   14  C19 UNL     1       9.713   7.240   3.543  1.00  0.00     0.016 C 
HETATM   15  C20 UNL     1      10.684   5.359   4.887  1.00  0.00     0.016 C 
ENDBRANCH   7   9
BRANCH   7  16
HETATM   16  N3  UNL     1      10.721   6.847   0.698  1.00  0.00    -0.370 N 
ATOM     17  H3  UNL     1      10.460   7.832   0.650  1.00  0.00     0.161 HD
BRANCH  16  18
HETATM   18  C10 UNL     1       9.843   5.818   0.109  1.00  0.00     0.138 C 
BRANCH  18  19
HETATM   19  C11 UNL     1       8.468   6.394   0.123  1.00  0.00     0.034 C 
BRANCH  19  20
HETATM   20  C12 UNL     1       8.049   7.187  -1.058  1.00  0.00    -0.012 C 
HETATM   21  C13 UNL     1       7.100   6.472  -1.971  1.00  0.00     0.005 C 
HETATM   22  C14 UNL     1       6.440   7.642  -2.714  1.00  0.00     0.000 C 
HETATM   23  C15 UNL     1       6.391   8.782  -1.741  1.00  0.00     0.000 C 
HETATM   24  C16 UNL     1       7.134   8.309  -0.531  1.00  0.00     0.005 C 
ENDBRANCH  19  20
ENDBRANCH  18  19
BRANCH  18  25
HETATM   25  C17 UNL     1      10.370   5.491  -1.271  1.00  0.00     0.276 C 
BRANCH  25  26
HETATM   26  O1  UNL     1      11.230   6.448  -1.785  1.00  0.00    -0.369 OA
ATOM     27  H1  UNL     1      11.605   6.217  -2.627  1.00  0.00     0.212 HD
ENDBRANCH  25  26
BRANCH  25  28
HETATM   28  O2  UNL     1      10.876   4.214  -1.357  1.00  0.00    -0.369 OA
ATOM     29  H2  UNL     1      11.560   4.134  -2.013  1.00  0.00     0.212 HD
ENDBRANCH  25  28
ENDBRANCH  18  25
ENDBRANCH  16  18
ENDBRANCH   7  16
ENDBRANCH   5   6
ENDBRANCH   1   5
TORSDOF 10
ENDMDL
MODEL 5
REMARK VINA RESULT: -7.010043431      1.767      2.736
REMARK  10 active torsions:
REMARK  status: ('A' for Active; 'I' for Inactive)
REMARK    1  A    between atoms: C4_4  and  C5_5 
REMARK    2  A    between atoms: C5_5  and  N3_13 
REMARK    3  A    between atoms: N1_6  and  C6_8 
REMARK    4  A    between atoms: C6_8  and  C7_9 
REMARK    5  A    between atoms: N3_13  and  C10_15 
REMARK    6  A    between atoms: C10_15  and  C11_16 
REMARK    7  A    between atoms: C10_15  and  C17_22 
REMARK    8  A    between atoms: C11_16  and  C12_17 
REMARK    9  A    between atoms: C17_22  and  O1_23 
REMARK   10  A    between atoms: C17_22  and  O2_25 
ROOT
HETATM    1  C7  UNL     1      12.566   2.977  -2.754  1.00  0.00     0.003 C 
HETATM    2  C8  UNL     1      13.675   2.297  -2.563  1.00  0.00     0.091 C 
HETATM    3  C9  UNL     1      14.612   2.082  -3.629  1.00  0.00     0.087 C 
HETATM    4  N2  UNL     1      15.369   1.896  -4.504  1.00  0.00    -0.192 NA
ENDROOT
BRANCH   1   5
HETATM    5  C6  UNL     1      11.599   3.198  -1.653  1.00  0.00     0.148 C 
BRANCH   5   6
HETATM    6  N1  UNL     1      10.970   4.472  -1.708  1.00  0.00    -0.376 N 
HETATM    7  C5  UNL     1      10.877   5.367  -0.801  1.00  0.00     0.079 C 
ATOM      8  H1  UNL     1      10.530   4.705  -2.598  1.00  0.00     0.161 HD
BRANCH   7   9
HETATM    9  C4  UNL     1      11.393   5.335   0.561  1.00  0.00     0.070 A 
HETATM   10  C2  UNL     1      12.780   5.992   0.743  1.00  0.00    -0.029 A 
HETATM   11  C1  UNL     1      13.313   6.823  -0.387  1.00  0.00     0.016 C 
HETATM   12  C3  UNL     1      13.837   5.190   1.472  1.00  0.00     0.016 C 
HETATM   13  C18 UNL     1      11.544   6.443   1.480  1.00  0.00    -0.029 A 
HETATM   14  C19 UNL     1      11.052   7.848   1.272  1.00  0.00     0.016 C 
HETATM   15  C20 UNL     1      11.609   6.098   2.979  1.00  0.00     0.016 C 
ENDBRANCH   7   9
BRANCH   7  16
HETATM   16  N3  UNL     1      10.189   6.570  -1.220  1.00  0.00    -0.370 N 
ATOM     17  H3  UNL     1      10.440   7.472  -0.817  1.00  0.00     0.161 HD
BRANCH  16  18
HETATM   18  C10 UNL     1       9.121   6.481  -2.233  1.00  0.00     0.138 C 
BRANCH  18  19
HETATM   19  C11 UNL     1       8.117   7.519  -1.865  1.00  0.00     0.034 C 
BRANCH  19  20
HETATM   20  C12 UNL     1       6.689   7.119  -1.868  1.00  0.00    -0.012 C 
HETATM   21  C13 UNL     1       5.733   8.261  -2.034  1.00  0.00     0.005 C 
HETATM   22  C14 UNL     1       4.476   7.545  -2.549  1.00  0.00     0.000 C 
HETATM   23  C15 UNL     1       4.961   6.381  -3.362  1.00  0.00     0.000 C 
HETATM   24  C16 UNL     1       6.448   6.362  -3.189  1.00  0.00     0.005 C 
ENDBRANCH  19  20
ENDBRANCH  18  19
BRANCH  18  25
HETATM   25  C17 UNL     1       9.753   6.677  -3.594  1.00  0.00     0.276 C 
BRANCH  25  26
HETATM   26  O1  UNL     1       9.763   5.535  -4.379  1.00  0.00    -0.369 OA
ATOM     27  H1  UNL     1       9.339   5.644  -5.223  1.00  0.00     0.212 HD
ENDBRANCH  25  26
BRANCH  25  28
HETATM   28  O2  UNL     1       9.257   7.778  -4.256  1.00  0.00    -0.369 OA
ATOM     29  H2  UNL     1       9.532   7.814  -5.165  1.00  0.00     0.212 HD
ENDBRANCH  25  28
ENDBRANCH  18  25
ENDBRANCH  16  18
ENDBRANCH   7  16
ENDBRANCH   5   6
ENDBRANCH   1   5
TORSDOF 10
ENDMDL
