MODEL 1
REMARK VINA RESULT: -7.371078478      0.000      0.000
REMARK  11 active torsions:
REMARK  status: ('A' for Active; 'I' for Inactive)
REMARK    1  A    between atoms: C2_2  and  N1_3 
REMARK    2  A    between atoms: C2_2  and  C18_29 
REMARK    3  A    between atoms: N1_3  and  C3_5 
REMARK    4  A    between atoms: C3_5  and  C4_6 
REMARK    5  A    between atoms: C3_5  and  C14_25 
REMARK       I    between atoms: C4_6  and  N2_8 
REMARK    6  A    between atoms: N2_8  and  C5_10 
REMARK    7  A    between atoms: C5_10  and  C6_11 
REMARK    8  A    between atoms: C5_10  and  C13_18 
REMARK    9  A    between atoms: C6_11  and  C7_12 
REMARK   10  A    between atoms: C13_18  and  O2_19 
REMARK   11  A    between atoms: N3_21  and  O3_23 
REMARK       I    between atoms: C18_29  and  N4_31 
ROOT
HETATM    1  C4  UNL     1       4.093  59.000  21.654  1.00  0.00     0.245 C 
HETATM    2  O1  UNL     1       3.025  59.323  21.011  1.00  0.00    -0.271 OA
HETATM    3  N2  UNL     1       5.059  60.027  21.847  1.00  0.00    -0.325 N 
ATOM      4  H2  UNL     1       5.909  59.799  22.362  1.00  0.00     0.169 HD
ENDROOT
BRANCH   1   5
HETATM    5  C3  UNL     1       4.196  57.609  22.116  1.00  0.00     0.178 C 
BRANCH   5   6
HETATM    6  N1  UNL     1       3.394  56.767  21.355  1.00  0.00    -0.397 N 
ATOM      7  H1  UNL     1       2.419  56.693  21.646  1.00  0.00     0.154 HD
BRANCH   6   8
HETATM    8  C2  UNL     1       3.757  56.017  20.250  1.00  0.00     0.166 C 
HETATM    9  C1  UNL     1       3.457  56.488  18.873  1.00  0.00     0.042 C 
BRANCH   8  10
HETATM   10  C18 UNL     1       3.075  54.665  20.455  1.00  0.00     0.241 C 
HETATM   11  O4  UNL     1       3.863  53.701  20.748  1.00  0.00    -0.271 OA
HETATM   12  N4  UNL     1       1.709  54.430  20.345  1.00  0.00    -0.350 N 
HETATM   13  C19 UNL     1       1.138  53.096  20.631  1.00  0.00     0.126 C 
HETATM   14  C22 UNL     1       0.587  55.240  19.961  1.00  0.00     0.126 C 
HETATM   15  C20 UNL     1      -0.096  52.976  19.808  1.00  0.00     0.021 C 
HETATM   16  C21 UNL     1      -0.419  54.356  19.295  1.00  0.00     0.021 C 
ENDBRANCH   8  10
ENDBRANCH   6   8
ENDBRANCH   5   6
BRANCH   5  17
HETATM   17  C14 UNL     1       3.864  57.577  23.603  1.00  0.00    -0.022 C 
HETATM   18  C15 UNL     1       3.193  58.819  24.089  1.00  0.00     0.017 C 
HETATM   19  C16 UNL     1       5.102  57.317  24.407  1.00  0.00     0.017 C 
HETATM   20  C17 UNL     1       2.956  56.350  23.881  1.00  0.00     0.017 C 
ENDBRANCH   5  17
ENDBRANCH   1   5
BRANCH   3  21
HETATM   21  C5  UNL     1       4.902  61.365  21.355  1.00  0.00     0.065 C 
BRANCH  21  22
HETATM   22  C6  UNL     1       5.736  61.674  20.180  1.00  0.00     0.066 C 
BRANCH  22  23
HETATM   23  C7  UNL     1       7.163  61.287  20.211  1.00  0.00    -0.009 C 
HETATM   24  C8  UNL     1       8.192  62.300  19.927  1.00  0.00     0.005 C 
HETATM   25  C9  UNL     1       8.483  62.522  18.451  1.00  0.00     0.000 C 
HETATM   26  C10 UNL     1       8.662  61.249  17.690  1.00  0.00     0.000 C 
HETATM   27  C11 UNL     1       7.471  60.326  17.919  1.00  0.00     0.000 C 
HETATM   28  C12 UNL     1       7.437  60.035  19.386  1.00  0.00     0.005 C 
ENDBRANCH  22  23
ENDBRANCH  21  22
BRANCH  21  29
HETATM   29  C13 UNL     1       4.839  62.440  22.324  1.00  0.00     0.183 C 
HETATM   30  N3  UNL     1       4.257  62.470  23.456  1.00  0.00    -0.246 N 
ATOM     31  H3  UNL     1       3.755  61.631  23.749  1.00  0.00     0.196 HD
BRANCH  29  32
HETATM   32  O2  UNL     1       5.520  63.629  21.965  1.00  0.00    -0.343 OA
ATOM     33  H2  UNL     1       5.298  64.400  22.474  1.00  0.00     0.219 HD
ENDBRANCH  29  32
BRANCH  30  34
HETATM   34  O3  UNL     1       4.251  63.527  24.300  1.00  0.00    -0.288 OA
ATOM     35  H3  UNL     1       4.156  63.472  25.243  1.00  0.00     0.244 HD
ENDBRANCH  30  34
ENDBRANCH  21  29
ENDBRANCH   3  21
TORSDOF 11
ENDMDL
MODEL 2
REMARK VINA RESULT: -7.279516045      2.897      6.414
REMARK  11 active torsions:
REMARK  status: ('A' for Active; 'I' for Inactive)
REMARK    1  A    between atoms: C2_2  and  N1_3 
REMARK    2  A    between atoms: C2_2  and  C18_29 
REMARK    3  A    between atoms: N1_3  and  C3_5 
REMARK    4  A    between atoms: C3_5  and  C4_6 
REMARK    5  A    between atoms: C3_5  and  C14_25 
REMARK       I    between atoms: C4_6  and  N2_8 
REMARK    6  A    between atoms: N2_8  and  C5_10 
REMARK    7  A    between atoms: C5_10  and  C6_11 
REMARK    8  A    between atoms: C5_10  and  C13_18 
REMARK    9  A    between atoms: C6_11  and  C7_12 
REMARK   10  A    between atoms: C13_18  and  O2_19 
REMARK   11  A    between atoms: N3_21  and  O3_23 
REMARK       I    between atoms: C18_29  and  N4_31 
ROOT
HETATM    1  C4  UNL     1       4.163  58.032  23.839  1.00  0.00     0.245 C 
HETATM    2  O1  UNL     1       5.144  57.199  23.883  1.00  0.00    -0.271 OA
HETATM    3  N2  UNL     1       3.874  58.615  22.575  1.00  0.00    -0.325 N 
ATOM      4  H2  UNL     1       3.094  59.270  22.512  1.00  0.00     0.169 HD
ENDROOT
BRANCH   1   5
HETATM    5  C3  UNL     1       3.452  58.288  25.100  1.00  0.00     0.178 C 
BRANCH   5   6
HETATM    6  N1  UNL     1       4.343  58.443  26.155  1.00  0.00    -0.397 N 
ATOM      7  H1  UNL     1       4.318  57.718  26.873  1.00  0.00     0.154 HD
BRANCH   6   8
HETATM    8  C2  UNL     1       5.260  59.461  26.351  1.00  0.00     0.166 C 
HETATM    9  C1  UNL     1       6.284  59.373  27.425  1.00  0.00     0.042 C 
BRANCH   8  10
HETATM   10  C18 UNL     1       4.413  60.708  26.597  1.00  0.00     0.241 C 
HETATM   11  O4  UNL     1       3.787  60.727  27.714  1.00  0.00    -0.271 OA
HETATM   12  N4  UNL     1       4.285  61.778  25.718  1.00  0.00    -0.350 N 
HETATM   13  C19 UNL     1       3.493  62.974  26.080  1.00  0.00     0.126 C 
HETATM   14  C22 UNL     1       4.763  62.037  24.389  1.00  0.00     0.126 C 
HETATM   15  C20 UNL     1       2.989  63.552  24.805  1.00  0.00     0.021 C 
HETATM   16  C21 UNL     1       3.752  62.887  23.688  1.00  0.00     0.021 C 
ENDBRANCH   8  10
ENDBRANCH   6   8
ENDBRANCH   5   6
BRANCH   5  17
HETATM   17  C14 UNL     1       2.450  57.162  25.317  1.00  0.00    -0.022 C 
HETATM   18  C15 UNL     1       2.256  56.299  24.114  1.00  0.00     0.017 C 
HETATM   19  C16 UNL     1       1.132  57.716  25.766  1.00  0.00     0.017 C 
HETATM   20  C17 UNL     1       2.931  56.293  26.509  1.00  0.00     0.017 C 
ENDBRANCH   5  17
ENDBRANCH   1   5
BRANCH   3  21
HETATM   21  C5  UNL     1       4.619  58.332  21.383  1.00  0.00     0.065 C 
BRANCH  21  22
HETATM   22  C6  UNL     1       5.024  59.532  20.628  1.00  0.00     0.066 C 
BRANCH  22  23
HETATM   23  C7  UNL     1       6.275  60.217  21.018  1.00  0.00    -0.009 C 
HETATM   24  C8  UNL     1       6.284  61.683  21.150  1.00  0.00     0.005 C 
HETATM   25  C9  UNL     1       6.500  62.442  19.850  1.00  0.00     0.000 C 
HETATM   26  C10 UNL     1       7.629  61.902  19.035  1.00  0.00     0.000 C 
HETATM   27  C11 UNL     1       7.451  60.404  18.815  1.00  0.00     0.000 C 
HETATM   28  C12 UNL     1       7.461  59.773  20.172  1.00  0.00     0.005 C 
ENDBRANCH  22  23
ENDBRANCH  21  22
BRANCH  21  29
HETATM   29  C13 UNL     1       4.167  57.241  20.543  1.00  0.00     0.183 C 
HETATM   30  N3  UNL     1       3.942  57.231  19.289  1.00  0.00    -0.246 N 
ATOM     31  H3  UNL     1       4.095  58.100  18.777  1.00  0.00     0.196 HD
BRANCH  29  32
HETATM   32  O2  UNL     1       3.938  56.011  21.206  1.00  0.00    -0.343 OA
ATOM     33  H2  UNL     1       4.686  55.428  21.260  1.00  0.00     0.219 HD
ENDBRANCH  29  32
BRANCH  30  34
HETATM   34  O3  UNL     1       3.517  56.158  18.585  1.00  0.00    -0.288 OA
ATOM     35  H3  UNL     1       3.994  55.749  17.872  1.00  0.00     0.244 HD
ENDBRANCH  30  34
ENDBRANCH  21  29
ENDBRANCH   3  21
TORSDOF 11
ENDMDL
MODEL 3
REMARK VINA RESULT: -7.244428925      3.378      7.165
REMARK  11 active torsions:
REMARK  status: ('A' for Active; 'I' for Inactive)
REMARK    1  A    between atoms: C2_2  and  N1_3 
REMARK    2  A    between atoms: C2_2  and  C18_29 
REMARK    3  A    between atoms: N1_3  and  C3_5 
REMARK    4  A    between atoms: C3_5  and  C4_6 
REMARK    5  A    between atoms: C3_5  and  C14_25 
REMARK       I    between atoms: C4_6  and  N2_8 
REMARK    6  A    between atoms: N2_8  and  C5_10 
REMARK    7  A    between atoms: C5_10  and  C6_11 
REMARK    8  A    between atoms: C5_10  and  C13_18 
REMARK    9  A    between atoms: C6_11  and  C7_12 
REMARK   10  A    between atoms: C13_18  and  O2_19 
REMARK   11  A    between atoms: N3_21  and  O3_23 
REMARK       I    between atoms: C18_29  and  N4_31 
ROOT
HETATM    1  C4  UNL     1       4.047  58.401  23.420  1.00  0.00     0.245 C 
HETATM    2  O1  UNL     1       5.197  57.851  23.601  1.00  0.00    -0.271 OA
HETATM    3  N2  UNL     1       3.642  58.612  22.073  1.00  0.00    -0.325 N 
ATOM      4  H2  UNL     1       2.730  59.037  21.904  1.00  0.00     0.169 HD
ENDROOT
BRANCH   1   5
HETATM    5  C3  UNL     1       3.282  58.753  24.626  1.00  0.00     0.178 C 
BRANCH   5   6
HETATM    6  N1  UNL     1       4.085  59.400  25.557  1.00  0.00    -0.397 N 
ATOM      7  H1  UNL     1       4.606  58.797  26.195  1.00  0.00     0.154 HD
BRANCH   6   8
HETATM    8  C2  UNL     1       4.263  60.762  25.726  1.00  0.00     0.166 C 
HETATM    9  C1  UNL     1       4.733  61.617  24.605  1.00  0.00     0.042 C 
BRANCH   8  10
HETATM   10  C18 UNL     1       5.262  60.885  26.875  1.00  0.00     0.241 C 
HETATM   11  O4  UNL     1       5.974  59.844  27.089  1.00  0.00    -0.271 OA
HETATM   12  N4  UNL     1       5.436  62.014  27.670  1.00  0.00    -0.350 N 
HETATM   13  C19 UNL     1       6.480  62.057  28.716  1.00  0.00     0.126 C 
HETATM   14  C22 UNL     1       4.770  63.283  27.756  1.00  0.00     0.126 C 
HETATM   15  C20 UNL     1       5.993  62.993  29.766  1.00  0.00     0.021 C 
HETATM   16  C21 UNL     1       4.822  63.740  29.180  1.00  0.00     0.021 C 
ENDBRANCH   8  10
ENDBRANCH   6   8
ENDBRANCH   5   6
BRANCH   5  17
HETATM   17  C14 UNL     1       2.636  57.483  25.164  1.00  0.00    -0.022 C 
HETATM   18  C15 UNL     1       2.457  56.422  24.128  1.00  0.00     0.017 C 
HETATM   19  C16 UNL     1       1.318  57.801  25.804  1.00  0.00     0.017 C 
HETATM   20  C17 UNL     1       3.509  56.937  26.324  1.00  0.00     0.017 C 
ENDBRANCH   5  17
ENDBRANCH   1   5
BRANCH   3  21
HETATM   21  C5  UNL     1       4.446  58.258  20.940  1.00  0.00     0.065 C 
BRANCH  21  22
HETATM   22  C6  UNL     1       5.045  59.411  20.245  1.00  0.00     0.066 C 
BRANCH  22  23
HETATM   23  C7  UNL     1       6.196  60.091  20.878  1.00  0.00    -0.009 C 
HETATM   24  C8  UNL     1       6.081  61.510  21.252  1.00  0.00     0.005 C 
HETATM   25  C9  UNL     1       6.364  62.494  20.127  1.00  0.00     0.000 C 
HETATM   26  C10 UNL     1       7.606  62.169  19.363  1.00  0.00     0.000 C 
HETATM   27  C11 UNL     1       7.565  60.725  18.879  1.00  0.00     0.000 C 
HETATM   28  C12 UNL     1       7.490  59.870  20.105  1.00  0.00     0.005 C 
ENDBRANCH  22  23
ENDBRANCH  21  22
BRANCH  21  29
HETATM   29  C13 UNL     1       3.942  57.236  20.044  1.00  0.00     0.183 C 
HETATM   30  N3  UNL     1       4.119  57.108  18.789  1.00  0.00    -0.246 N 
ATOM     31  H3  UNL     1       4.694  57.810  18.321  1.00  0.00     0.196 HD
BRANCH  29  32
HETATM   32  O2  UNL     1       3.138  56.236  20.643  1.00  0.00    -0.343 OA
ATOM     33  H2  UNL     1       2.863  55.531  20.070  1.00  0.00     0.219 HD
ENDBRANCH  29  32
BRANCH  30  34
HETATM   34  O3  UNL     1       3.606  56.115  18.029  1.00  0.00    -0.288 OA
ATOM     35  H3  UNL     1       3.179  56.236  17.188  1.00  0.00     0.244 HD
ENDBRANCH  30  34
ENDBRANCH  21  29
ENDBRANCH   3  21
TORSDOF 11
ENDMDL
MODEL 4
REMARK VINA RESULT: -7.115212651      1.402      2.035
REMARK  11 active torsions:
REMARK  status: ('A' for Active; 'I' for Inactive)
REMARK    1  A    between atoms: C2_2  and  N1_3 
REMARK    2  A    between atoms: C2_2  and  C18_29 
REMARK    3  A    between atoms: N1_3  and  C3_5 
REMARK    4  A    between atoms: C3_5  and  C4_6 
REMARK    5  A    between atoms: C3_5  and  C14_25 
REMARK       I    between atoms: C4_6  and  N2_8 
REMARK    6  A    between atoms: N2_8  and  C5_10 
REMARK    7  A    between atoms: C5_10  and  C6_11 
REMARK    8  A    between atoms: C5_10  and  C13_18 
REMARK    9  A    between atoms: C6_11  and  C7_12 
REMARK   10  A    between atoms: C13_18  and  O2_19 
REMARK   11  A    between atoms: N3_21  and  O3_23 
REMARK       I    between atoms: C18_29  and  N4_31 
ROOT
HETATM    1  C4  UNL     1       3.897  59.052  23.016  1.00  0.00     0.245 C 
HETATM    2  O1  UNL     1       3.031  59.584  22.225  1.00  0.00    -0.271 OA
HETATM    3  N2  UNL     1       4.798  59.938  23.668  1.00  0.00    -0.325 N 
ATOM      4  H2  UNL     1       5.487  59.542  24.308  1.00  0.00     0.169 HD
ENDROOT
BRANCH   1   5
HETATM    5  C3  UNL     1       3.860  57.589  23.155  1.00  0.00     0.178 C 
BRANCH   5   6
HETATM    6  N1  UNL     1       3.278  56.995  22.042  1.00  0.00    -0.397 N 
ATOM      7  H1  UNL     1       2.278  56.802  22.107  1.00  0.00     0.154 HD
BRANCH   6   8
HETATM    8  C2  UNL     1       3.890  56.632  20.854  1.00  0.00     0.166 C 
HETATM    9  C1  UNL     1       3.673  57.416  19.610  1.00  0.00     0.042 C 
BRANCH   8  10
HETATM   10  C18 UNL     1       3.434  55.196  20.602  1.00  0.00     0.241 C 
HETATM   11  O4  UNL     1       4.293  54.295  20.899  1.00  0.00    -0.271 OA
HETATM   12  N4  UNL     1       2.194  54.825  20.091  1.00  0.00    -0.350 N 
HETATM   13  C19 UNL     1       1.823  53.401  19.949  1.00  0.00     0.126 C 
HETATM   14  C22 UNL     1       1.065  55.557  19.590  1.00  0.00     0.126 C 
HETATM   15  C20 UNL     1       0.854  53.324  18.822  1.00  0.00     0.021 C 
HETATM   16  C21 UNL     1       0.415  54.735  18.523  1.00  0.00     0.021 C 
ENDBRANCH   8  10
ENDBRANCH   6   8
ENDBRANCH   5   6
BRANCH   5  17
HETATM   17  C14 UNL     1       3.147  57.255  24.459  1.00  0.00    -0.022 C 
HETATM   18  C15 UNL     1       4.067  57.150  25.630  1.00  0.00     0.017 C 
HETATM   19  C16 UNL     1       2.360  55.988  24.312  1.00  0.00     0.017 C 
HETATM   20  C17 UNL     1       2.078  58.345  24.732  1.00  0.00     0.017 C 
ENDBRANCH   5  17
ENDBRANCH   1   5
BRANCH   3  21
HETATM   21  C5  UNL     1       4.790  61.359  23.476  1.00  0.00     0.065 C 
BRANCH  21  22
HETATM   22  C6  UNL     1       5.808  61.842  22.524  1.00  0.00     0.066 C 
BRANCH  22  23
HETATM   23  C7  UNL     1       5.578  61.621  21.080  1.00  0.00    -0.009 C 
HETATM   24  C8  UNL     1       6.037  60.367  20.459  1.00  0.00     0.005 C 
HETATM   25  C9  UNL     1       7.496  60.359  20.033  1.00  0.00     0.000 C 
HETATM   26  C10 UNL     1       7.895  61.586  19.280  1.00  0.00     0.000 C 
HETATM   27  C11 UNL     1       7.524  62.835  20.073  1.00  0.00     0.000 C 
HETATM   28  C12 UNL     1       6.037  62.805  20.238  1.00  0.00     0.005 C 
ENDBRANCH  22  23
ENDBRANCH  21  22
BRANCH  21  29
HETATM   29  C13 UNL     1       4.641  62.201  24.646  1.00  0.00     0.183 C 
HETATM   30  N3  UNL     1       4.189  63.389  24.729  1.00  0.00    -0.246 N 
ATOM     31  H3  UNL     1       3.878  63.836  23.866  1.00  0.00     0.196 HD
BRANCH  29  32
HETATM   32  O2  UNL     1       5.059  61.628  25.871  1.00  0.00    -0.343 OA
ATOM     33  H2  UNL     1       5.753  62.089  26.326  1.00  0.00     0.219 HD
ENDBRANCH  29  32
BRANCH  30  34
HETATM   34  O3  UNL     1       4.087  64.103  25.873  1.00  0.00    -0.288 OA
ATOM     35  H3  UNL     1       4.194  65.045  25.940  1.00  0.00     0.244 HD
ENDBRANCH  30  34
ENDBRANCH  21  29
ENDBRANCH   3  21
TORSDOF 11
ENDMDL
MODEL 5
REMARK VINA RESULT: -7.071255246      2.249      7.938
REMARK  11 active torsions:
REMARK  status: ('A' for Active; 'I' for Inactive)
REMARK    1  A    between atoms: C2_2  and  N1_3 
REMARK    2  A    between atoms: C2_2  and  C18_29 
REMARK    3  A    between atoms: N1_3  and  C3_5 
REMARK    4  A    between atoms: C3_5  and  C4_6 
REMARK    5  A    between atoms: C3_5  and  C14_25 
REMARK       I    between atoms: C4_6  and  N2_8 
REMARK    6  A    between atoms: N2_8  and  C5_10 
REMARK    7  A    between atoms: C5_10  and  C6_11 
REMARK    8  A    between atoms: C5_10  and  C13_18 
REMARK    9  A    between atoms: C6_11  and  C7_12 
REMARK   10  A    between atoms: C13_18  and  O2_19 
REMARK   11  A    between atoms: N3_21  and  O3_23 
REMARK       I    between atoms: C18_29  and  N4_31 
ROOT
HETATM    1  C4  UNL     1       3.453  58.065  23.328  1.00  0.00     0.245 C 
HETATM    2  O1  UNL     1       2.220  57.885  23.653  1.00  0.00    -0.271 OA
HETATM    3  N2  UNL     1       3.964  57.254  22.276  1.00  0.00    -0.325 N 
ATOM      4  H2  UNL     1       4.935  57.385  21.993  1.00  0.00     0.169 HD
ENDROOT
BRANCH   1   5
HETATM    5  C3  UNL     1       4.196  59.087  24.079  1.00  0.00     0.178 C 
BRANCH   5   6
HETATM    6  N1  UNL     1       5.156  59.696  23.281  1.00  0.00    -0.397 N 
ATOM      7  H1  UNL     1       6.109  59.343  23.377  1.00  0.00     0.154 HD
BRANCH   6   8
HETATM    8  C2  UNL     1       4.978  60.724  22.371  1.00  0.00     0.166 C 
HETATM    9  C1  UNL     1       3.619  61.121  21.920  1.00  0.00     0.042 C 
BRANCH   8  10
HETATM   10  C18 UNL     1       5.788  60.304  21.145  1.00  0.00     0.241 C 
HETATM   11  O4  UNL     1       5.853  59.042  20.945  1.00  0.00    -0.271 OA
HETATM   12  N4  UNL     1       6.431  61.175  20.272  1.00  0.00    -0.350 N 
HETATM   13  C19 UNL     1       7.134  60.671  19.072  1.00  0.00     0.126 C 
HETATM   14  C22 UNL     1       6.627  62.597  20.249  1.00  0.00     0.126 C 
HETATM   15  C20 UNL     1       8.221  61.644  18.775  1.00  0.00     0.021 C 
HETATM   16  C21 UNL     1       7.947  62.875  19.602  1.00  0.00     0.021 C 
ENDBRANCH   8  10
ENDBRANCH   6   8
ENDBRANCH   5   6
BRANCH   5  17
HETATM   17  C14 UNL     1       4.775  58.430  25.325  1.00  0.00    -0.022 C 
HETATM   18  C15 UNL     1       5.674  57.276  25.027  1.00  0.00     0.017 C 
HETATM   19  C16 UNL     1       3.674  57.996  26.245  1.00  0.00     0.017 C 
HETATM   20  C17 UNL     1       5.554  59.502  26.133  1.00  0.00     0.017 C 
ENDBRANCH   5  17
ENDBRANCH   1   5
BRANCH   3  21
HETATM   21  C5  UNL     1       3.186  56.262  21.593  1.00  0.00     0.065 C 
BRANCH  21  22
HETATM   22  C6  UNL     1       3.026  55.003  22.343  1.00  0.00     0.066 C 
BRANCH  22  23
HETATM   23  C7  UNL     1       1.668  54.617  22.784  1.00  0.00    -0.009 C 
HETATM   24  C8  UNL     1       1.351  54.604  24.221  1.00  0.00     0.005 C 
HETATM   25  C9  UNL     1       1.743  53.330  24.952  1.00  0.00     0.000 C 
HETATM   26  C10 UNL     1       1.328  52.089  24.232  1.00  0.00     0.000 C 
HETATM   27  C11 UNL     1       1.837  52.118  22.795  1.00  0.00     0.000 C 
HETATM   28  C12 UNL     1       1.207  53.311  22.148  1.00  0.00     0.005 C 
ENDBRANCH  22  23
ENDBRANCH  21  22
BRANCH  21  29
HETATM   29  C13 UNL     1       3.426  56.069  20.177  1.00  0.00     0.183 C 
HETATM   30  N3  UNL     1       4.083  56.799  19.366  1.00  0.00    -0.246 N 
ATOM     31  H3  UNL     1       4.514  57.646  19.738  1.00  0.00     0.196 HD
BRANCH  29  32
HETATM   32  O2  UNL     1       2.850  54.907  19.609  1.00  0.00    -0.343 OA
ATOM     33  H2  UNL     1       2.975  54.800  18.674  1.00  0.00     0.219 HD
ENDBRANCH  29  32
BRANCH  30  34
HETATM   34  O3  UNL     1       4.255  56.539  18.050  1.00  0.00    -0.288 OA
ATOM     35  H3  UNL     1       4.098  57.158  17.346  1.00  0.00     0.244 HD
ENDBRANCH  30  34
ENDBRANCH  21  29
ENDBRANCH   3  21
TORSDOF 11
ENDMDL
