MODEL 1
REMARK VINA RESULT: -8.951619067      0.000      0.000
REMARK  25 active torsions:
REMARK  status: ('A' for Active; 'I' for Inactive)
REMARK    1  A    between atoms: C2_2  and  C4_4 
REMARK       I    between atoms: C4_4  and  N1_6 
REMARK    2  A    between atoms: N1_6  and  C5_8 
REMARK    3  A    between atoms: C6_11  and  C7_12 
REMARK    4  A    between atoms: C8_13  and  C9_14 
REMARK    5  A    between atoms: C9_14  and  C10_15 
REMARK    6  A    between atoms: C10_15  and  C11_16 
REMARK    7  A    between atoms: C11_16  and  C12_17 
REMARK    8  A    between atoms: C15_20  and  O2_21 
REMARK    9  A    between atoms: O2_21  and  C16_22 
REMARK       I    between atoms: C16_22  and  N3_24 
REMARK   10  A    between atoms: N3_24  and  C17_26 
REMARK   11  A    between atoms: C17_26  and  C18_27 
REMARK   12  A    between atoms: C18_27  and  C19_28 
REMARK   13  A    between atoms: C19_28  and  N4_29 
REMARK   14  A    between atoms: N4_29  and  C20_31 
REMARK   15  A    between atoms: C20_31  and  C21_32 
REMARK   16  A    between atoms: C21_32  and  C22_33 
REMARK   17  A    between atoms: C22_33  and  C23_34 
REMARK   18  A    between atoms: C23_34  and  N5_35 
REMARK   19  A    between atoms: N5_35  and  C24_37 
REMARK   20  A    between atoms: C24_37  and  C25_38 
REMARK   21  A    between atoms: C25_38  and  N6_39 
REMARK   22  A    between atoms: C26_43  and  O4_44 
REMARK   23  A    between atoms: C27_48  and  N8_49 
REMARK   24  A    between atoms: N8_49  and  C28_51 
REMARK   25  A    between atoms: C28_51  and  C29_52 
ROOT
HETATM    1  C10 UNL     1       3.957  22.300   6.908  1.00  0.00     0.012 C 
ENDROOT
BRANCH   1   2
HETATM    2  C9  UNL     1       2.681  21.478   6.974  1.00  0.00     0.094 C 
BRANCH   2   3
HETATM    3  C8  UNL     1       1.582  22.467   7.059  1.00  0.00    -0.098 C 
HETATM    4  C7  UNL     1       0.672  23.253   7.134  1.00  0.00    -0.029 C 
BRANCH   4   5
HETATM    5  C6  UNL     1      -0.435  24.175   7.238  1.00  0.00     0.191 A 
HETATM    6  N2  UNL     1      -0.385  25.395   6.680  1.00  0.00    -0.167 N 
HETATM    7  C5  UNL     1      -1.441  26.231   6.802  1.00  0.00     0.701 A 
ATOM      8  H2  UNL     1       0.445  25.690   6.165  1.00  0.00     0.186 HD
HETATM    9  N9  UNL     1      -2.534  25.829   7.483  1.00  0.00    -0.022 N 
HETATM   10  C27 UNL     1      -2.622  24.620   8.053  1.00  0.00     0.695 A 
ATOM     11  H9  UNL     1      -3.324  26.469   7.566  1.00  0.00     0.203 HD
HETATM   12  N7  UNL     1      -1.555  23.815   7.912  1.00  0.00    -0.168 N 
ATOM     13  H7  UNL     1      -1.589  22.887   8.334  1.00  0.00     0.186 HD
BRANCH   7  14
HETATM   14  N1  UNL     1      -1.458  27.414   6.293  1.00  0.00    -0.159 N 
HETATM   15  C4  UNL     1      -1.921  28.549   7.025  1.00  0.00     0.239 C 
HETATM   16  O1  UNL     1      -3.012  29.051   6.585  1.00  0.00    -0.272 OA
ATOM     17  H1  UNL     1      -1.130  27.544   5.335  1.00  0.00     0.187 HD
BRANCH  15  18
HETATM   18  C2  UNL     1      -1.238  29.126   8.190  1.00  0.00     0.070 C 
HETATM   19  C1  UNL     1      -2.222  29.188   9.344  1.00  0.00     0.019 C 
HETATM   20  C3  UNL     1      -0.733  30.536   7.905  1.00  0.00     0.019 C 
ENDBRANCH  15  18
ENDBRANCH   7  14
BRANCH  10  21
HETATM   21  N8  UNL     1      -3.674  24.217   8.716  1.00  0.00    -0.221 N 
ATOM     22  H8  UNL     1      -3.745  24.443   9.708  1.00  0.00     0.178 HD
BRANCH  21  23
HETATM   23  C28 UNL     1      -4.729  23.471   8.100  1.00  0.00     0.176 C 
BRANCH  23  24
HETATM   24  C29 UNL     1      -4.931  22.142   8.711  1.00  0.00    -0.040 A 
HETATM   25  C30 UNL     1      -5.778  21.971   9.782  1.00  0.00     0.012 A 
HETATM   26  C31 UNL     1      -5.960  20.704  10.348  1.00  0.00     0.043 A 
HETATM   27  C32 UNL     1      -5.281  19.621   9.822  1.00  0.00     0.116 A 
HETATM   28  F1  UNL     1      -5.479  18.392  10.398  1.00  0.00    -0.206 F 
HETATM   29  C33 UNL     1      -4.441  19.790   8.760  1.00  0.00     0.043 A 
HETATM   30  C34 UNL     1      -4.273  21.048   8.213  1.00  0.00     0.012 A 
ENDBRANCH  23  24
ENDBRANCH  21  23
ENDBRANCH  10  21
ENDBRANCH   4   5
ENDBRANCH   2   3
ENDBRANCH   1   2
BRANCH   1  31
HETATM   31  C11 UNL     1       3.887  23.107   5.650  1.00  0.00     0.008 C 
BRANCH  31  32
HETATM   32  C12 UNL     1       5.254  23.308   5.084  1.00  0.00     0.017 C 
HETATM   33  C13 UNL     1       6.317  22.879   6.034  1.00  0.00     0.010 C 
HETATM   34  C14 UNL     1       7.251  24.055   6.199  1.00  0.00     0.036 C 
HETATM   35  C15 UNL     1       6.955  24.971   4.999  1.00  0.00     0.162 C 
HETATM   36  C26 UNL     1       5.510  24.781   4.738  1.00  0.00     0.151 C 
BRANCH  35  37
HETATM   37  O2  UNL     1       7.389  26.235   5.360  1.00  0.00    -0.296 OA
BRANCH  37  38
HETATM   38  C16 UNL     1       8.388  26.906   4.666  1.00  0.00     0.360 C 
HETATM   39  O3  UNL     1       9.510  26.329   4.686  1.00  0.00    -0.239 OA
HETATM   40  N3  UNL     1       8.151  28.136   3.994  1.00  0.00    -0.337 N 
ATOM     41  H3  UNL     1       7.207  28.518   4.030  1.00  0.00     0.164 HD
BRANCH  40  42
HETATM   42  C17 UNL     1       9.134  28.877   3.275  1.00  0.00     0.126 C 
BRANCH  42  43
HETATM   43  C18 UNL     1       8.642  29.306   1.896  1.00  0.00     0.039 C 
BRANCH  43  44
HETATM   44  C19 UNL     1       9.618  28.835   0.838  1.00  0.00     0.115 C 
BRANCH  44  45
HETATM   45  N4  UNL     1       9.034  28.447  -0.392  1.00  0.00    -0.421 N 
ATOM     46  H4  UNL     1       8.051  28.179  -0.449  1.00  0.00     0.153 HD
BRANCH  45  47
HETATM   47  C20 UNL     1       9.866  28.442  -1.542  1.00  0.00     0.113 C 
BRANCH  47  48
HETATM   48  C21 UNL     1      10.572  27.153  -1.800  1.00  0.00     0.021 C 
BRANCH  48  49
HETATM   49  C22 UNL     1       9.680  26.054  -2.274  1.00  0.00     0.021 C 
BRANCH  49  50
HETATM   50  C23 UNL     1      10.196  24.749  -1.593  1.00  0.00     0.119 C 
BRANCH  50  51
HETATM   51  N5  UNL     1      10.190  24.882  -0.192  1.00  0.00    -0.401 N 
ATOM     52  H5  UNL     1      10.987  25.259   0.320  1.00  0.00     0.158 HD
BRANCH  51  53
HETATM   53  C24 UNL     1       9.022  24.463   0.456  1.00  0.00     0.082 C 
BRANCH  53  54
HETATM   54  C25 UNL     1       8.525  25.346   1.540  1.00  0.00     0.273 C 
BRANCH  54  55
HETATM   55  N6  UNL     1       7.253  25.949   1.358  1.00  0.00    -0.075 N 
ATOM     56  H63 UNL     1       7.228  26.843   1.849  1.00  0.00     0.274 HD
ATOM     57  H62 UNL     1       7.162  26.260   0.391  1.00  0.00     0.274 HD
ATOM     58  H61 UNL     1       6.434  25.398   1.615  1.00  0.00     0.274 HD
ENDBRANCH  54  55
ENDBRANCH  53  54
ENDBRANCH  51  53
ENDBRANCH  50  51
ENDBRANCH  49  50
ENDBRANCH  48  49
ENDBRANCH  47  48
ENDBRANCH  45  47
ENDBRANCH  44  45
ENDBRANCH  43  44
ENDBRANCH  42  43
ENDBRANCH  40  42
ENDBRANCH  37  38
ENDBRANCH  35  37
BRANCH  36  59
HETATM   59  O4  UNL     1       5.184  24.906   3.382  1.00  0.00    -0.393 OA
ATOM     60  H4  UNL     1       5.951  25.290   2.973  1.00  0.00     0.210 HD
ENDBRANCH  36  59
ENDBRANCH  31  32
ENDBRANCH   1  31
TORSDOF 25
ENDMDL
MODEL 2
REMARK VINA RESULT: -8.816092692      2.597      4.643
REMARK  25 active torsions:
REMARK  status: ('A' for Active; 'I' for Inactive)
REMARK    1  A    between atoms: C2_2  and  C4_4 
REMARK       I    between atoms: C4_4  and  N1_6 
REMARK    2  A    between atoms: N1_6  and  C5_8 
REMARK    3  A    between atoms: C6_11  and  C7_12 
REMARK    4  A    between atoms: C8_13  and  C9_14 
REMARK    5  A    between atoms: C9_14  and  C10_15 
REMARK    6  A    between atoms: C10_15  and  C11_16 
REMARK    7  A    between atoms: C11_16  and  C12_17 
REMARK    8  A    between atoms: C15_20  and  O2_21 
REMARK    9  A    between atoms: O2_21  and  C16_22 
REMARK       I    between atoms: C16_22  and  N3_24 
REMARK   10  A    between atoms: N3_24  and  C17_26 
REMARK   11  A    between atoms: C17_26  and  C18_27 
REMARK   12  A    between atoms: C18_27  and  C19_28 
REMARK   13  A    between atoms: C19_28  and  N4_29 
REMARK   14  A    between atoms: N4_29  and  C20_31 
REMARK   15  A    between atoms: C20_31  and  C21_32 
REMARK   16  A    between atoms: C21_32  and  C22_33 
REMARK   17  A    between atoms: C22_33  and  C23_34 
REMARK   18  A    between atoms: C23_34  and  N5_35 
REMARK   19  A    between atoms: N5_35  and  C24_37 
REMARK   20  A    between atoms: C24_37  and  C25_38 
REMARK   21  A    between atoms: C25_38  and  N6_39 
REMARK   22  A    between atoms: C26_43  and  O4_44 
REMARK   23  A    between atoms: C27_48  and  N8_49 
REMARK   24  A    between atoms: N8_49  and  C28_51 
REMARK   25  A    between atoms: C28_51  and  C29_52 
ROOT
HETATM    1  C10 UNL     1       3.356  21.824   5.868  1.00  0.00     0.012 C 
ENDROOT
BRANCH   1   2
HETATM    2  C9  UNL     1       2.733  21.590   7.234  1.00  0.00     0.094 C 
BRANCH   2   3
HETATM    3  C8  UNL     1       1.601  22.540   7.316  1.00  0.00    -0.098 C 
HETATM    4  C7  UNL     1       0.670  23.303   7.360  1.00  0.00    -0.029 C 
BRANCH   4   5
HETATM    5  C6  UNL     1      -0.460  24.203   7.391  1.00  0.00     0.191 A 
HETATM    6  N2  UNL     1      -0.413  25.406   6.796  1.00  0.00    -0.167 N 
HETATM    7  C5  UNL     1      -1.490  26.223   6.851  1.00  0.00     0.701 A 
ATOM      8  H2  UNL     1       0.431  25.703   6.305  1.00  0.00     0.186 HD
HETATM    9  N9  UNL     1      -2.600  25.819   7.502  1.00  0.00    -0.022 N 
HETATM   10  C27 UNL     1      -2.686  24.627   8.107  1.00  0.00     0.695 A 
ATOM     11  H9  UNL     1      -3.405  26.444   7.534  1.00  0.00     0.203 HD
HETATM   12  N7  UNL     1      -1.597  23.841   8.033  1.00  0.00    -0.168 N 
ATOM     13  H7  UNL     1      -1.629  22.927   8.483  1.00  0.00     0.186 HD
BRANCH   7  14
HETATM   14  N1  UNL     1      -1.510  27.389   6.303  1.00  0.00    -0.159 N 
HETATM   15  C4  UNL     1      -1.950  28.550   7.008  1.00  0.00     0.239 C 
HETATM   16  O1  UNL     1      -3.048  29.045   6.575  1.00  0.00    -0.272 OA
ATOM     17  H1  UNL     1      -1.202  27.485   5.335  1.00  0.00     0.187 HD
BRANCH  15  18
HETATM   18  C2  UNL     1      -1.239  29.161   8.138  1.00  0.00     0.070 C 
HETATM   19  C1  UNL     1      -2.174  29.197   9.333  1.00  0.00     0.019 C 
HETATM   20  C3  UNL     1      -0.798  30.585   7.822  1.00  0.00     0.019 C 
ENDBRANCH  15  18
ENDBRANCH   7  14
BRANCH  10  21
HETATM   21  N8  UNL     1      -3.754  24.223   8.741  1.00  0.00    -0.221 N 
ATOM     22  H8  UNL     1      -3.862  24.465   9.726  1.00  0.00     0.178 HD
BRANCH  21  23
HETATM   23  C28 UNL     1      -4.778  23.452   8.105  1.00  0.00     0.176 C 
BRANCH  23  24
HETATM   24  C29 UNL     1      -4.976  22.127   8.726  1.00  0.00    -0.040 A 
HETATM   25  C30 UNL     1      -5.824  21.960   9.796  1.00  0.00     0.012 A 
HETATM   26  C31 UNL     1      -6.001  20.697  10.372  1.00  0.00     0.043 A 
HETATM   27  C32 UNL     1      -5.317  19.612   9.856  1.00  0.00     0.116 A 
HETATM   28  F1  UNL     1      -5.511  18.388  10.441  1.00  0.00    -0.206 F 
HETATM   29  C33 UNL     1      -4.476  19.777   8.793  1.00  0.00     0.043 A 
HETATM   30  C34 UNL     1      -4.313  21.032   8.237  1.00  0.00     0.012 A 
ENDBRANCH  23  24
ENDBRANCH  21  23
ENDBRANCH  10  21
ENDBRANCH   4   5
ENDBRANCH   2   3
ENDBRANCH   1   2
BRANCH   1  31
HETATM   31  C11 UNL     1       3.866  23.231   5.861  1.00  0.00     0.008 C 
BRANCH  31  32
HETATM   32  C12 UNL     1       5.189  23.302   5.171  1.00  0.00     0.017 C 
HETATM   33  C13 UNL     1       6.293  22.798   6.034  1.00  0.00     0.010 C 
HETATM   34  C14 UNL     1       7.336  23.890   6.086  1.00  0.00     0.036 C 
HETATM   35  C15 UNL     1       7.012  24.808   4.894  1.00  0.00     0.162 C 
HETATM   36  C26 UNL     1       5.538  24.740   4.767  1.00  0.00     0.151 C 
BRANCH  35  37
HETATM   37  O2  UNL     1       7.583  26.035   5.184  1.00  0.00    -0.296 OA
BRANCH  37  38
HETATM   38  C16 UNL     1       8.508  26.642   4.343  1.00  0.00     0.360 C 
HETATM   39  O3  UNL     1       9.671  26.159   4.417  1.00  0.00    -0.239 OA
HETATM   40  N3  UNL     1       8.158  27.715   3.479  1.00  0.00    -0.337 N 
ATOM     41  H3  UNL     1       7.188  28.029   3.487  1.00  0.00     0.164 HD
BRANCH  40  42
HETATM   42  C17 UNL     1       9.061  28.386   2.602  1.00  0.00     0.126 C 
BRANCH  42  43
HETATM   43  C18 UNL     1       9.642  29.651   3.226  1.00  0.00     0.039 C 
BRANCH  43  44
HETATM   44  C19 UNL     1       8.561  30.386   3.990  1.00  0.00     0.115 C 
BRANCH  44  45
HETATM   45  N4  UNL     1       8.811  30.558   5.373  1.00  0.00    -0.421 N 
ATOM     46  H4  UNL     1       9.743  30.785   5.718  1.00  0.00     0.153 HD
BRANCH  45  47
HETATM   47  C20 UNL     1       7.715  30.403   6.262  1.00  0.00     0.113 C 
BRANCH  47  48
HETATM   48  C21 UNL     1       7.693  29.111   7.009  1.00  0.00     0.021 C 
BRANCH  48  49
HETATM   49  C22 UNL     1       6.967  29.174   8.312  1.00  0.00     0.021 C 
BRANCH  49  50
HETATM   50  C23 UNL     1       8.062  29.160   9.423  1.00  0.00     0.119 C 
BRANCH  50  51
HETATM   51  N5  UNL     1       7.667  28.352  10.504  1.00  0.00    -0.401 N 
ATOM     52  H5  UNL     1       6.735  27.940  10.560  1.00  0.00     0.158 HD
BRANCH  51  53
HETATM   53  C24 UNL     1       8.631  28.146  11.497  1.00  0.00     0.082 C 
BRANCH  53  54
HETATM   54  C25 UNL     1       8.122  27.706  12.819  1.00  0.00     0.273 C 
BRANCH  54  55
HETATM   55  N6  UNL     1       8.383  26.364  13.204  1.00  0.00    -0.075 N 
ATOM     56  H63 UNL     1       7.951  26.182  14.110  1.00  0.00     0.274 HD
ATOM     57  H62 UNL     1       7.851  25.732  12.608  1.00  0.00     0.274 HD
ATOM     58  H61 UNL     1       9.358  26.067  13.228  1.00  0.00     0.274 HD
ENDBRANCH  54  55
ENDBRANCH  53  54
ENDBRANCH  51  53
ENDBRANCH  50  51
ENDBRANCH  49  50
ENDBRANCH  48  49
ENDBRANCH  47  48
ENDBRANCH  45  47
ENDBRANCH  44  45
ENDBRANCH  43  44
ENDBRANCH  42  43
ENDBRANCH  40  42
ENDBRANCH  37  38
ENDBRANCH  35  37
BRANCH  36  59
HETATM   59  O4  UNL     1       5.103  24.869   3.443  1.00  0.00    -0.393 OA
ATOM     60  H4  UNL     1       5.761  24.429   2.918  1.00  0.00     0.210 HD
ENDBRANCH  36  59
ENDBRANCH  31  32
ENDBRANCH   1  31
TORSDOF 25
ENDMDL
MODEL 3
REMARK VINA RESULT: -8.807157112      3.116      5.827
REMARK  25 active torsions:
REMARK  status: ('A' for Active; 'I' for Inactive)
REMARK    1  A    between atoms: C2_2  and  C4_4 
REMARK       I    between atoms: C4_4  and  N1_6 
REMARK    2  A    between atoms: N1_6  and  C5_8 
REMARK    3  A    between atoms: C6_11  and  C7_12 
REMARK    4  A    between atoms: C8_13  and  C9_14 
REMARK    5  A    between atoms: C9_14  and  C10_15 
REMARK    6  A    between atoms: C10_15  and  C11_16 
REMARK    7  A    between atoms: C11_16  and  C12_17 
REMARK    8  A    between atoms: C15_20  and  O2_21 
REMARK    9  A    between atoms: O2_21  and  C16_22 
REMARK       I    between atoms: C16_22  and  N3_24 
REMARK   10  A    between atoms: N3_24  and  C17_26 
REMARK   11  A    between atoms: C17_26  and  C18_27 
REMARK   12  A    between atoms: C18_27  and  C19_28 
REMARK   13  A    between atoms: C19_28  and  N4_29 
REMARK   14  A    between atoms: N4_29  and  C20_31 
REMARK   15  A    between atoms: C20_31  and  C21_32 
REMARK   16  A    between atoms: C21_32  and  C22_33 
REMARK   17  A    between atoms: C22_33  and  C23_34 
REMARK   18  A    between atoms: C23_34  and  N5_35 
REMARK   19  A    between atoms: N5_35  and  C24_37 
REMARK   20  A    between atoms: C24_37  and  C25_38 
REMARK   21  A    between atoms: C25_38  and  N6_39 
REMARK   22  A    between atoms: C26_43  and  O4_44 
REMARK   23  A    between atoms: C27_48  and  N8_49 
REMARK   24  A    between atoms: N8_49  and  C28_51 
REMARK   25  A    between atoms: C28_51  and  C29_52 
ROOT
HETATM    1  C10 UNL     1       1.531  21.995   6.859  1.00  0.00     0.012 C 
ENDROOT
BRANCH   1   2
HETATM    2  C9  UNL     1       0.966  20.926   7.779  1.00  0.00     0.094 C 
BRANCH   2   3
HETATM    3  C8  UNL     1      -0.469  21.258   7.930  1.00  0.00    -0.098 C 
HETATM    4  C7  UNL     1      -1.630  21.552   8.054  1.00  0.00    -0.029 C 
BRANCH   4   5
HETATM    5  C6  UNL     1      -3.016  21.934   8.200  1.00  0.00     0.191 A 
HETATM    6  N2  UNL     1      -3.976  21.019   8.414  1.00  0.00    -0.167 N 
HETATM    7  C5  UNL     1      -5.263  21.416   8.541  1.00  0.00     0.701 A 
ATOM      8  H2  UNL     1      -3.735  20.030   8.481  1.00  0.00     0.186 HD
HETATM    9  N9  UNL     1      -5.567  22.727   8.453  1.00  0.00    -0.022 N 
HETATM   10  C27 UNL     1      -4.639  23.669   8.240  1.00  0.00     0.695 A 
ATOM     11  H9  UNL     1      -6.542  23.012   8.552  1.00  0.00     0.203 HD
HETATM   12  N7  UNL     1      -3.371  23.240   8.119  1.00  0.00    -0.168 N 
ATOM     13  H7  UNL     1      -2.639  23.931   7.957  1.00  0.00     0.186 HD
BRANCH   7  14
HETATM   14  N1  UNL     1      -6.230  20.591   8.746  1.00  0.00    -0.159 N 
HETATM   15  C4  UNL     1      -6.194  19.626   9.799  1.00  0.00     0.239 C 
HETATM   16  O1  UNL     1      -6.108  18.414   9.400  1.00  0.00    -0.272 OA
ATOM     17  H1  UNL     1      -7.049  20.627   8.137  1.00  0.00     0.187 HD
BRANCH  15  18
HETATM   18  C2  UNL     1      -6.247  19.950  11.229  1.00  0.00     0.070 C 
HETATM   19  C1  UNL     1      -5.502  18.872  11.995  1.00  0.00     0.019 C 
HETATM   20  C3  UNL     1      -7.681  20.007  11.741  1.00  0.00     0.019 C 
ENDBRANCH  15  18
ENDBRANCH   7  14
BRANCH  10  21
HETATM   21  N8  UNL     1      -4.920  24.942   8.152  1.00  0.00    -0.221 N 
ATOM     22  H8  UNL     1      -5.524  25.260   7.394  1.00  0.00     0.178 HD
BRANCH  21  23
HETATM   23  C28 UNL     1      -4.412  25.906   9.081  1.00  0.00     0.176 C 
BRANCH  23  24
HETATM   24  C29 UNL     1      -3.619  26.970   8.434  1.00  0.00    -0.040 A 
HETATM   25  C30 UNL     1      -2.426  26.691   7.809  1.00  0.00     0.012 A 
HETATM   26  C31 UNL     1      -1.687  27.711   7.198  1.00  0.00     0.043 A 
HETATM   27  C32 UNL     1      -2.167  29.007   7.227  1.00  0.00     0.116 A 
HETATM   28  F1  UNL     1      -1.422  29.986   6.621  1.00  0.00    -0.206 F 
HETATM   29  C33 UNL     1      -3.351  29.285   7.846  1.00  0.00     0.043 A 
HETATM   30  C34 UNL     1      -4.067  28.265   8.444  1.00  0.00     0.012 A 
ENDBRANCH  23  24
ENDBRANCH  21  23
ENDBRANCH  10  21
ENDBRANCH   4   5
ENDBRANCH   2   3
ENDBRANCH   1   2
BRANCH   1  31
HETATM   31  C11 UNL     1       2.934  22.256   7.310  1.00  0.00     0.008 C 
BRANCH  31  32
HETATM   32  C12 UNL     1       3.856  22.305   6.136  1.00  0.00     0.017 C 
HETATM   33  C13 UNL     1       5.269  22.047   6.530  1.00  0.00     0.010 C 
HETATM   34  C14 UNL     1       6.084  23.207   6.009  1.00  0.00     0.036 C 
HETATM   35  C15 UNL     1       5.194  23.874   4.946  1.00  0.00     0.162 C 
HETATM   36  C26 UNL     1       3.813  23.673   5.442  1.00  0.00     0.151 C 
BRANCH  35  37
HETATM   37  O2  UNL     1       5.654  25.173   4.815  1.00  0.00    -0.296 OA
BRANCH  37  38
HETATM   38  C16 UNL     1       6.853  25.477   4.181  1.00  0.00     0.360 C 
HETATM   39  O3  UNL     1       6.944  25.033   3.004  1.00  0.00    -0.239 OA
HETATM   40  N3  UNL     1       7.880  26.225   4.818  1.00  0.00    -0.337 N 
ATOM     41  H3  UNL     1       7.707  26.546   5.771  1.00  0.00     0.164 HD
BRANCH  40  42
HETATM   42  C17 UNL     1       9.133  26.560   4.228  1.00  0.00     0.126 C 
BRANCH  42  43
HETATM   43  C18 UNL     1       9.278  28.059   3.987  1.00  0.00     0.039 C 
BRANCH  43  44
HETATM   44  C19 UNL     1       9.219  28.344   2.501  1.00  0.00     0.115 C 
BRANCH  44  45
HETATM   45  N4  UNL     1       8.080  27.833   1.833  1.00  0.00    -0.421 N 
ATOM     46  H4  UNL     1       7.208  27.661   2.332  1.00  0.00     0.153 HD
BRANCH  45  47
HETATM   47  C20 UNL     1       8.198  27.566   0.444  1.00  0.00     0.113 C 
BRANCH  47  48
HETATM   48  C21 UNL     1       9.371  26.726   0.064  1.00  0.00     0.021 C 
BRANCH  48  49
HETATM   49  C22 UNL     1       9.253  25.295   0.473  1.00  0.00     0.021 C 
BRANCH  49  50
HETATM   50  C23 UNL     1       9.724  24.452  -0.752  1.00  0.00     0.119 C 
BRANCH  50  51
HETATM   51  N5  UNL     1       9.280  25.028  -1.956  1.00  0.00    -0.401 N 
ATOM     52  H5  UNL     1       8.407  25.552  -2.016  1.00  0.00     0.158 HD
BRANCH  51  53
HETATM   53  C24 UNL     1      10.110  24.838  -3.067  1.00  0.00     0.082 C 
BRANCH  53  54
HETATM   54  C25 UNL     1      10.574  23.449  -3.305  1.00  0.00     0.273 C 
BRANCH  54  55
HETATM   55  N6  UNL     1       9.861  22.679  -4.261  1.00  0.00    -0.075 N 
ATOM     56  H63 UNL     1       9.427  23.302  -4.942  1.00  0.00     0.274 HD
ATOM     57  H62 UNL     1      10.523  22.180  -4.855  1.00  0.00     0.274 HD
ATOM     58  H61 UNL     1       9.163  22.025  -3.908  1.00  0.00     0.274 HD
ENDBRANCH  54  55
ENDBRANCH  53  54
ENDBRANCH  51  53
ENDBRANCH  50  51
ENDBRANCH  49  50
ENDBRANCH  48  49
ENDBRANCH  47  48
ENDBRANCH  45  47
ENDBRANCH  44  45
ENDBRANCH  43  44
ENDBRANCH  42  43
ENDBRANCH  40  42
ENDBRANCH  37  38
ENDBRANCH  35  37
BRANCH  36  59
HETATM   59  O4  UNL     1       2.881  23.534   4.407  1.00  0.00    -0.393 OA
ATOM     60  H4  UNL     1       3.332  23.822   3.622  1.00  0.00     0.210 HD
ENDBRANCH  36  59
ENDBRANCH  31  32
ENDBRANCH   1  31
TORSDOF 25
ENDMDL
MODEL 4
REMARK VINA RESULT: -8.798604992      3.102      6.196
REMARK  25 active torsions:
REMARK  status: ('A' for Active; 'I' for Inactive)
REMARK    1  A    between atoms: C2_2  and  C4_4 
REMARK       I    between atoms: C4_4  and  N1_6 
REMARK    2  A    between atoms: N1_6  and  C5_8 
REMARK    3  A    between atoms: C6_11  and  C7_12 
REMARK    4  A    between atoms: C8_13  and  C9_14 
REMARK    5  A    between atoms: C9_14  and  C10_15 
REMARK    6  A    between atoms: C10_15  and  C11_16 
REMARK    7  A    between atoms: C11_16  and  C12_17 
REMARK    8  A    between atoms: C15_20  and  O2_21 
REMARK    9  A    between atoms: O2_21  and  C16_22 
REMARK       I    between atoms: C16_22  and  N3_24 
REMARK   10  A    between atoms: N3_24  and  C17_26 
REMARK   11  A    between atoms: C17_26  and  C18_27 
REMARK   12  A    between atoms: C18_27  and  C19_28 
REMARK   13  A    between atoms: C19_28  and  N4_29 
REMARK   14  A    between atoms: N4_29  and  C20_31 
REMARK   15  A    between atoms: C20_31  and  C21_32 
REMARK   16  A    between atoms: C21_32  and  C22_33 
REMARK   17  A    between atoms: C22_33  and  C23_34 
REMARK   18  A    between atoms: C23_34  and  N5_35 
REMARK   19  A    between atoms: N5_35  and  C24_37 
REMARK   20  A    between atoms: C24_37  and  C25_38 
REMARK   21  A    between atoms: C25_38  and  N6_39 
REMARK   22  A    between atoms: C26_43  and  O4_44 
REMARK   23  A    between atoms: C27_48  and  N8_49 
REMARK   24  A    between atoms: N8_49  and  C28_51 
REMARK   25  A    between atoms: C28_51  and  C29_52 
ROOT
HETATM    1  C10 UNL     1       2.119  21.442   8.074  1.00  0.00     0.012 C 
ENDROOT
BRANCH   1   2
HETATM    2  C9  UNL     1       1.185  20.400   7.482  1.00  0.00     0.094 C 
BRANCH   2   3
HETATM    3  C8  UNL     1      -0.180  20.930   7.698  1.00  0.00    -0.098 C 
HETATM    4  C7  UNL     1      -1.300  21.340   7.866  1.00  0.00    -0.029 C 
BRANCH   4   5
HETATM    5  C6  UNL     1      -2.655  21.803   8.062  1.00  0.00     0.191 A 
HETATM    6  N2  UNL     1      -3.659  20.946   8.305  1.00  0.00    -0.167 N 
HETATM    7  C5  UNL     1      -4.915  21.418   8.479  1.00  0.00     0.701 A 
ATOM      8  H2  UNL     1      -3.477  19.944   8.359  1.00  0.00     0.186 HD
HETATM    9  N9  UNL     1      -5.143  22.746   8.408  1.00  0.00    -0.022 N 
HETATM   10  C27 UNL     1      -4.168  23.632   8.167  1.00  0.00     0.695 A 
ATOM     11  H9  UNL     1      -6.095  23.088   8.542  1.00  0.00     0.203 HD
HETATM   12  N7  UNL     1      -2.933  23.128   7.999  1.00  0.00    -0.168 N 
ATOM     13  H7  UNL     1      -2.167  23.775   7.815  1.00  0.00     0.186 HD
BRANCH   7  14
HETATM   14  N1  UNL     1      -5.923  20.652   8.715  1.00  0.00    -0.159 N 
HETATM   15  C4  UNL     1      -5.935  19.730   9.805  1.00  0.00     0.239 C 
HETATM   16  O1  UNL     1      -5.910  18.499   9.455  1.00  0.00    -0.272 OA
ATOM     17  H1  UNL     1      -6.738  20.704   8.103  1.00  0.00     0.187 HD
BRANCH  15  18
HETATM   18  C2  UNL     1      -5.973  20.113  11.222  1.00  0.00     0.070 C 
HETATM   19  C1  UNL     1      -5.581  18.908  12.057  1.00  0.00     0.019 C 
HETATM   20  C3  UNL     1      -7.365  20.566  11.645  1.00  0.00     0.019 C 
ENDBRANCH  15  18
ENDBRANCH   7  14
BRANCH  10  21
HETATM   21  N8  UNL     1      -4.374  24.920   8.095  1.00  0.00    -0.221 N 
ATOM     22  H8  UNL     1      -4.963  25.282   7.344  1.00  0.00     0.178 HD
BRANCH  21  23
HETATM   23  C28 UNL     1      -3.805  25.842   9.030  1.00  0.00     0.176 C 
BRANCH  23  24
HETATM   24  C29 UNL     1      -3.165  27.004   8.380  1.00  0.00    -0.040 A 
HETATM   25  C30 UNL     1      -3.647  28.279   8.563  1.00  0.00     0.012 A 
HETATM   26  C31 UNL     1      -3.027  29.369   7.942  1.00  0.00     0.043 A 
HETATM   27  C32 UNL     1      -1.922  29.156   7.140  1.00  0.00     0.116 A 
HETATM   28  F1  UNL     1      -1.336  30.243   6.545  1.00  0.00    -0.206 F 
HETATM   29  C33 UNL     1      -1.442  27.891   6.959  1.00  0.00     0.043 A 
HETATM   30  C34 UNL     1      -2.066  26.826   7.580  1.00  0.00     0.012 A 
ENDBRANCH  23  24
ENDBRANCH  21  23
ENDBRANCH  10  21
ENDBRANCH   4   5
ENDBRANCH   2   3
ENDBRANCH   1   2
BRANCH   1  31
HETATM   31  C11 UNL     1       2.100  22.616   7.146  1.00  0.00     0.008 C 
BRANCH  31  32
HETATM   32  C12 UNL     1       3.154  22.468   6.098  1.00  0.00     0.017 C 
HETATM   33  C13 UNL     1       4.455  22.032   6.676  1.00  0.00     0.010 C 
HETATM   34  C14 UNL     1       5.490  23.033   6.219  1.00  0.00     0.036 C 
HETATM   35  C15 UNL     1       4.843  23.761   5.028  1.00  0.00     0.162 C 
HETATM   36  C26 UNL     1       3.398  23.787   5.354  1.00  0.00     0.151 C 
BRANCH  35  37
HETATM   37  O2  UNL     1       5.503  24.971   4.909  1.00  0.00    -0.296 OA
BRANCH  37  38
HETATM   38  C16 UNL     1       6.776  25.073   4.360  1.00  0.00     0.360 C 
HETATM   39  O3  UNL     1       7.711  25.013   5.204  1.00  0.00    -0.239 OA
HETATM   40  N3  UNL     1       6.990  25.232   2.964  1.00  0.00    -0.337 N 
ATOM     41  H3  UNL     1       6.167  25.262   2.361  1.00  0.00     0.164 HD
BRANCH  40  42
HETATM   42  C17 UNL     1       8.266  25.352   2.341  1.00  0.00     0.126 C 
BRANCH  42  43
HETATM   43  C18 UNL     1       8.163  25.819   0.892  1.00  0.00     0.039 C 
BRANCH  43  44
HETATM   44  C19 UNL     1       8.656  27.246   0.779  1.00  0.00     0.115 C 
BRANCH  44  45
HETATM   45  N4  UNL     1       7.699  28.241   1.091  1.00  0.00    -0.421 N 
ATOM     46  H4  UNL     1       6.705  28.090   0.921  1.00  0.00     0.153 HD
BRANCH  45  47
HETATM   47  C20 UNL     1       8.175  29.458   1.647  1.00  0.00     0.113 C 
BRANCH  47  48
HETATM   48  C21 UNL     1       9.426  29.333   2.451  1.00  0.00     0.021 C 
BRANCH  48  49
HETATM   49  C22 UNL     1       9.241  29.593   3.909  1.00  0.00     0.021 C 
BRANCH  49  50
HETATM   50  C23 UNL     1       8.894  28.217   4.557  1.00  0.00     0.119 C 
BRANCH  50  51
HETATM   51  N5  UNL     1       7.558  28.196   4.998  1.00  0.00    -0.401 N 
ATOM     52  H5  UNL     1       6.902  27.471   4.706  1.00  0.00     0.158 HD
BRANCH  51  53
HETATM   53  C24 UNL     1       7.185  29.231   5.864  1.00  0.00     0.082 C 
BRANCH  53  54
HETATM   54  C25 UNL     1       7.346  28.959   7.313  1.00  0.00     0.273 C 
BRANCH  54  55
HETATM   55  N6  UNL     1       8.534  29.428   7.935  1.00  0.00    -0.075 N 
ATOM     56  H63 UNL     1       9.074  29.975   7.264  1.00  0.00     0.274 HD
ATOM     57  H62 UNL     1       8.296  30.146   8.619  1.00  0.00     0.274 HD
ATOM     58  H61 UNL     1       9.139  28.733   8.370  1.00  0.00     0.274 HD
ENDBRANCH  54  55
ENDBRANCH  53  54
ENDBRANCH  51  53
ENDBRANCH  50  51
ENDBRANCH  49  50
ENDBRANCH  48  49
ENDBRANCH  47  48
ENDBRANCH  45  47
ENDBRANCH  44  45
ENDBRANCH  43  44
ENDBRANCH  42  43
ENDBRANCH  40  42
ENDBRANCH  37  38
ENDBRANCH  35  37
BRANCH  36  59
HETATM   59  O4  UNL     1       2.586  23.726   4.215  1.00  0.00    -0.393 OA
ATOM     60  H4  UNL     1       2.618  24.597   3.836  1.00  0.00     0.210 HD
ENDBRANCH  36  59
ENDBRANCH  31  32
ENDBRANCH   1  31
TORSDOF 25
ENDMDL
MODEL 5
REMARK VINA RESULT: -8.709726229      2.013      2.908
REMARK  25 active torsions:
REMARK  status: ('A' for Active; 'I' for Inactive)
REMARK    1  A    between atoms: C2_2  and  C4_4 
REMARK       I    between atoms: C4_4  and  N1_6 
REMARK    2  A    between atoms: N1_6  and  C5_8 
REMARK    3  A    between atoms: C6_11  and  C7_12 
REMARK    4  A    between atoms: C8_13  and  C9_14 
REMARK    5  A    between atoms: C9_14  and  C10_15 
REMARK    6  A    between atoms: C10_15  and  C11_16 
REMARK    7  A    between atoms: C11_16  and  C12_17 
REMARK    8  A    between atoms: C15_20  and  O2_21 
REMARK    9  A    between atoms: O2_21  and  C16_22 
REMARK       I    between atoms: C16_22  and  N3_24 
REMARK   10  A    between atoms: N3_24  and  C17_26 
REMARK   11  A    between atoms: C17_26  and  C18_27 
REMARK   12  A    between atoms: C18_27  and  C19_28 
REMARK   13  A    between atoms: C19_28  and  N4_29 
REMARK   14  A    between atoms: N4_29  and  C20_31 
REMARK   15  A    between atoms: C20_31  and  C21_32 
REMARK   16  A    between atoms: C21_32  and  C22_33 
REMARK   17  A    between atoms: C22_33  and  C23_34 
REMARK   18  A    between atoms: C23_34  and  N5_35 
REMARK   19  A    between atoms: N5_35  and  C24_37 
REMARK   20  A    between atoms: C24_37  and  C25_38 
REMARK   21  A    between atoms: C25_38  and  N6_39 
REMARK   22  A    between atoms: C26_43  and  O4_44 
REMARK   23  A    between atoms: C27_48  and  N8_49 
REMARK   24  A    between atoms: N8_49  and  C28_51 
REMARK   25  A    between atoms: C28_51  and  C29_52 
ROOT
HETATM    1  C10 UNL     1       2.804  22.037   6.209  1.00  0.00     0.012 C 
ENDROOT
BRANCH   1   2
HETATM    2  C9  UNL     1       2.400  21.898   7.667  1.00  0.00     0.094 C 
BRANCH   2   3
HETATM    3  C8  UNL     1       0.923  21.996   7.674  1.00  0.00    -0.098 C 
HETATM    4  C7  UNL     1      -0.280  22.062   7.703  1.00  0.00    -0.029 C 
BRANCH   4   5
HETATM    5  C6  UNL     1      -1.722  22.132   7.764  1.00  0.00     0.191 A 
HETATM    6  N2  UNL     1      -2.369  23.307   7.696  1.00  0.00    -0.167 N 
HETATM    7  C5  UNL     1      -3.720  23.332   7.762  1.00  0.00     0.701 A 
ATOM      8  H2  UNL     1      -1.845  24.176   7.595  1.00  0.00     0.186 HD
HETATM    9  N9  UNL     1      -4.402  22.176   7.894  1.00  0.00    -0.022 N 
HETATM   10  C27 UNL     1      -3.792  20.985   7.965  1.00  0.00     0.695 A 
ATOM     11  H9  UNL     1      -5.420  22.209   7.940  1.00  0.00     0.203 HD
HETATM   12  N7  UNL     1      -2.450  20.997   7.897  1.00  0.00    -0.168 N 
ATOM     13  H7  UNL     1      -1.954  20.107   7.947  1.00  0.00     0.186 HD
BRANCH   7  14
HETATM   14  N1  UNL     1      -4.401  24.424   7.704  1.00  0.00    -0.159 N 
HETATM   15  C4  UNL     1      -4.614  25.246   8.851  1.00  0.00     0.239 C 
HETATM   16  O1  UNL     1      -5.826  25.278   9.260  1.00  0.00    -0.272 OA
ATOM     17  H1  UNL     1      -4.801  24.709   6.810  1.00  0.00     0.187 HD
BRANCH  15  18
HETATM   18  C2  UNL     1      -3.564  26.010   9.538  1.00  0.00     0.070 C 
HETATM   19  C1  UNL     1      -3.911  26.085  11.014  1.00  0.00     0.019 C 
HETATM   20  C3  UNL     1      -3.451  27.428   8.991  1.00  0.00     0.019 C 
ENDBRANCH  15  18
ENDBRANCH   7  14
BRANCH  10  21
HETATM   21  N8  UNL     1      -4.440  19.857   8.092  1.00  0.00    -0.221 N 
ATOM     22  H8  UNL     1      -3.979  18.992   7.812  1.00  0.00     0.178 HD
BRANCH  21  23
HETATM   23  C28 UNL     1      -5.772  19.792   8.612  1.00  0.00     0.176 C 
BRANCH  23  24
HETATM   24  C29 UNL     1      -5.819  19.810  10.088  1.00  0.00    -0.040 A 
HETATM   25  C30 UNL     1      -5.338  18.756  10.829  1.00  0.00     0.012 A 
HETATM   26  C31 UNL     1      -5.388  18.789  12.228  1.00  0.00     0.043 A 
HETATM   27  C32 UNL     1      -5.925  19.894  12.862  1.00  0.00     0.116 A 
HETATM   28  F1  UNL     1      -5.960  19.898  14.233  1.00  0.00    -0.206 F 
HETATM   29  C33 UNL     1      -6.402  20.940  12.127  1.00  0.00     0.043 A 
HETATM   30  C34 UNL     1      -6.344  20.890  10.747  1.00  0.00     0.012 A 
ENDBRANCH  23  24
ENDBRANCH  21  23
ENDBRANCH  10  21
ENDBRANCH   4   5
ENDBRANCH   2   3
ENDBRANCH   1   2
BRANCH   1  31
HETATM   31  C11 UNL     1       3.510  23.350   6.080  1.00  0.00     0.008 C 
BRANCH  31  32
HETATM   32  C12 UNL     1       4.797  23.179   5.343  1.00  0.00     0.017 C 
HETATM   33  C13 UNL     1       5.822  22.483   6.169  1.00  0.00     0.010 C 
HETATM   34  C14 UNL     1       7.047  23.367   6.176  1.00  0.00     0.036 C 
HETATM   35  C15 UNL     1       6.853  24.329   4.991  1.00  0.00     0.162 C 
HETATM   36  C26 UNL     1       5.387  24.531   4.917  1.00  0.00     0.151 C 
BRANCH  35  37
HETATM   37  O2  UNL     1       7.647  25.431   5.252  1.00  0.00    -0.296 OA
BRANCH  37  38
HETATM   38  C16 UNL     1       8.531  25.950   4.314  1.00  0.00     0.360 C 
HETATM   39  O3  UNL     1       9.681  25.433   4.345  1.00  0.00    -0.239 OA
HETATM   40  N3  UNL     1       8.157  26.976   3.404  1.00  0.00    -0.337 N 
ATOM     41  H3  UNL     1       7.200  27.323   3.454  1.00  0.00     0.164 HD
BRANCH  40  42
HETATM   42  C17 UNL     1       9.018  27.556   2.428  1.00  0.00     0.126 C 
BRANCH  42  43
HETATM   43  C18 UNL     1       9.275  29.038   2.688  1.00  0.00     0.039 C 
BRANCH  43  44
HETATM   44  C19 UNL     1       8.038  29.839   2.339  1.00  0.00     0.115 C 
BRANCH  44  45
HETATM   45  N4  UNL     1       7.333  29.391   1.196  1.00  0.00    -0.421 N 
ATOM     46  H4  UNL     1       6.733  28.567   1.234  1.00  0.00     0.153 HD
BRANCH  45  47
HETATM   47  C20 UNL     1       7.491  30.132  -0.005  1.00  0.00     0.113 C 
BRANCH  47  48
HETATM   48  C21 UNL     1       7.974  29.337  -1.172  1.00  0.00     0.021 C 
BRANCH  48  49
HETATM   49  C22 UNL     1       9.394  28.891  -1.059  1.00  0.00     0.021 C 
BRANCH  49  50
HETATM   50  C23 UNL     1       9.613  27.843  -2.194  1.00  0.00     0.119 C 
BRANCH  50  51
HETATM   51  N5  UNL     1      10.188  26.666  -1.683  1.00  0.00    -0.401 N 
ATOM     52  H5  UNL     1      11.167  26.427  -1.842  1.00  0.00     0.158 HD
BRANCH  51  53
HETATM   53  C24 UNL     1       9.334  25.842  -0.940  1.00  0.00     0.082 C 
BRANCH  53  54
HETATM   54  C25 UNL     1       9.784  24.441  -0.747  1.00  0.00     0.273 C 
BRANCH  54  55
HETATM   55  N6  UNL     1       9.458  23.817   0.486  1.00  0.00    -0.075 N 
ATOM     56  H63 UNL     1       8.597  24.222   0.853  1.00  0.00     0.274 HD
ATOM     57  H62 UNL     1       9.157  22.859   0.310  1.00  0.00     0.274 HD
ATOM     58  H61 UNL     1      10.172  23.820   1.214  1.00  0.00     0.274 HD
ENDBRANCH  54  55
ENDBRANCH  53  54
ENDBRANCH  51  53
ENDBRANCH  50  51
ENDBRANCH  49  50
ENDBRANCH  48  49
ENDBRANCH  47  48
ENDBRANCH  45  47
ENDBRANCH  44  45
ENDBRANCH  43  44
ENDBRANCH  42  43
ENDBRANCH  40  42
ENDBRANCH  37  38
ENDBRANCH  35  37
BRANCH  36  59
HETATM   59  O4  UNL     1       4.935  24.737   3.609  1.00  0.00    -0.393 OA
ATOM     60  H4  UNL     1       4.082  25.146   3.698  1.00  0.00     0.210 HD
ENDBRANCH  36  59
ENDBRANCH  31  32
ENDBRANCH   1  31
TORSDOF 25
ENDMDL
