MODEL 1
REMARK VINA RESULT: -8.221793389      0.000      0.000
REMARK  9 active torsions:
REMARK  status: ('A' for Active; 'I' for Inactive)
REMARK       I    between atoms: C1_2  and  N1_3 
REMARK       I    between atoms: C1_2  and  N3_12 
REMARK    1  A    between atoms: N1_3  and  C2_5 
REMARK    2  A    between atoms: N3_12  and  C7_14 
REMARK    3  A    between atoms: N4_17  and  C10_18 
REMARK    4  A    between atoms: C10_18  and  C11_19 
REMARK    5  A    between atoms: C11_19  and  O2_20 
REMARK    6  A    between atoms: C11_19  and  C12_22 
REMARK    7  A    between atoms: C12_22  and  O3_23 
REMARK    8  A    between atoms: C12_22  and  C19_30 
REMARK    9  A    between atoms: O3_23  and  C13_24 
ROOT
HETATM    1  C7  UNL     1      15.516 -11.501  -6.568  1.00  0.00     0.126 C 
HETATM    2  C8  UNL     1      15.316 -11.771  -5.086  1.00  0.00     0.051 C 
HETATM    3  C9  UNL     1      15.756 -10.472  -4.445  1.00  0.00     0.129 C 
HETATM    4  N4  UNL     1      16.599  -9.807  -5.374  1.00  0.00    -0.369 N 
HETATM    5  C25 UNL     1      16.593 -10.443  -6.626  1.00  0.00     0.088 C 
ENDROOT
BRANCH   4   6
HETATM    6  C10 UNL     1      17.778  -9.209  -4.889  1.00  0.00     0.097 C 
BRANCH   6   7
HETATM    7  C11 UNL     1      17.604  -8.225  -3.796  1.00  0.00     0.190 C 
BRANCH   7   8
HETATM    8  O2  UNL     1      18.765  -7.793  -3.184  1.00  0.00    -0.387 OA
ATOM      9  H2  UNL     1      19.506  -7.644  -3.760  1.00  0.00     0.210 HD
ENDBRANCH   7   8
BRANCH   7  10
HETATM   10  C12 UNL     1      16.844  -6.980  -4.211  1.00  0.00     0.195 C 
BRANCH  10  11
HETATM   11  O3  UNL     1      16.836  -6.784  -5.569  1.00  0.00    -0.338 OA
BRANCH  11  12
HETATM   12  C13 UNL     1      16.831  -5.725  -6.380  1.00  0.00     0.069 A 
HETATM   13  C14 UNL     1      15.942  -5.706  -7.442  1.00  0.00     0.037 A 
HETATM   14  C15 UNL     1      15.865  -4.655  -8.332  1.00  0.00     0.003 A 
HETATM   15  C16 UNL     1      16.708  -3.571  -8.161  1.00  0.00     0.000 A 
HETATM   16  C17 UNL     1      17.598  -3.599  -7.090  1.00  0.00     0.003 A 
HETATM   17  C18 UNL     1      17.670  -4.653  -6.206  1.00  0.00     0.037 A 
ENDBRANCH  11  12
ENDBRANCH  10  11
BRANCH  10  18
HETATM   18  C19 UNL     1      15.559  -6.817  -3.517  1.00  0.00    -0.026 A 
HETATM   19  C20 UNL     1      15.495  -6.440  -2.191  1.00  0.00     0.010 A 
HETATM   20  C21 UNL     1      14.319  -6.272  -1.501  1.00  0.00     0.001 A 
HETATM   21  C22 UNL     1      13.105  -6.491  -2.160  1.00  0.00     0.000 A 
HETATM   22  C23 UNL     1      13.129  -6.866  -3.474  1.00  0.00     0.001 A 
HETATM   23  C24 UNL     1      14.318  -7.024  -4.133  1.00  0.00     0.010 A 
ENDBRANCH  10  18
ENDBRANCH   7  10
ENDBRANCH   6   7
ENDBRANCH   4   6
BRANCH   1  24
HETATM   24  N3  UNL     1      14.301 -11.023  -7.144  1.00  0.00    -0.334 N 
HETATM   25  C1  UNL     1      13.897 -11.394  -8.492  1.00  0.00     0.321 C 
HETATM   26  O1  UNL     1      14.672 -12.150  -9.104  1.00  0.00    -0.247 OA
HETATM   27  N1  UNL     1      12.679 -10.863  -8.953  1.00  0.00    -0.308 N 
ATOM     28  H1  UNL     1      12.137 -10.262  -8.333  1.00  0.00     0.170 HD
ATOM     29  H3  UNL     1      13.701 -10.405  -6.598  1.00  0.00     0.165 HD
BRANCH  27  30
HETATM   30  C2  UNL     1      12.180 -11.134 -10.248  1.00  0.00     0.051 A 
HETATM   31  C3  UNL     1      12.176 -10.061 -11.132  1.00  0.00     0.032 A 
HETATM   32  C4  UNL     1      11.731 -10.244 -12.411  1.00  0.00     0.019 A 
HETATM   33  C5  UNL     1      11.289 -11.491 -12.812  1.00  0.00     0.088 A 
HETATM   34  N2  UNL     1      11.300 -12.515 -11.948  1.00  0.00    -0.373 N 
HETATM   35  C6  UNL     1      11.742 -12.343 -10.669  1.00  0.00     0.117 A 
ATOM     36  H2  UNL     1      10.973 -13.433 -12.249  1.00  0.00     0.164 HD
ENDBRANCH  27  30
ENDBRANCH   1  24
TORSDOF 9
ENDMDL
MODEL 2
REMARK VINA RESULT: -7.661904878      4.093      8.257
REMARK  9 active torsions:
REMARK  status: ('A' for Active; 'I' for Inactive)
REMARK       I    between atoms: C1_2  and  N1_3 
REMARK       I    between atoms: C1_2  and  N3_12 
REMARK    1  A    between atoms: N1_3  and  C2_5 
REMARK    2  A    between atoms: N3_12  and  C7_14 
REMARK    3  A    between atoms: N4_17  and  C10_18 
REMARK    4  A    between atoms: C10_18  and  C11_19 
REMARK    5  A    between atoms: C11_19  and  O2_20 
REMARK    6  A    between atoms: C11_19  and  C12_22 
REMARK    7  A    between atoms: C12_22  and  O3_23 
REMARK    8  A    between atoms: C12_22  and  C19_30 
REMARK    9  A    between atoms: O3_23  and  C13_24 
ROOT
HETATM    1  C7  UNL     1      16.906 -12.209  -4.223  1.00  0.00     0.126 C 
HETATM    2  C8  UNL     1      16.404 -10.816  -3.882  1.00  0.00     0.051 C 
HETATM    3  C9  UNL     1      15.031 -10.787  -4.522  1.00  0.00     0.129 C 
HETATM    4  N4  UNL     1      15.015 -11.783  -5.533  1.00  0.00    -0.369 N 
HETATM    5  C25 UNL     1      16.165 -12.589  -5.484  1.00  0.00     0.088 C 
ENDROOT
BRANCH   4   6
HETATM    6  C10 UNL     1      14.428 -11.461  -6.771  1.00  0.00     0.097 C 
BRANCH   6   7
HETATM    7  C11 UNL     1      15.340 -10.898  -7.795  1.00  0.00     0.190 C 
BRANCH   7   8
HETATM    8  O2  UNL     1      15.897 -11.810  -8.671  1.00  0.00    -0.387 OA
ATOM      9  H2  UNL     1      15.917 -11.548  -9.584  1.00  0.00     0.210 HD
ENDBRANCH   7   8
BRANCH   7  10
HETATM   10  C12 UNL     1      14.708  -9.812  -8.644  1.00  0.00     0.195 C 
BRANCH  10  11
HETATM   11  O3  UNL     1      13.369 -10.015  -8.865  1.00  0.00    -0.338 OA
BRANCH  11  12
HETATM   12  C13 UNL     1      12.625 -10.433  -9.891  1.00  0.00     0.069 A 
HETATM   13  C14 UNL     1      12.465  -9.594 -10.981  1.00  0.00     0.037 A 
HETATM   14  C15 UNL     1      11.715  -9.939 -12.085  1.00  0.00     0.003 A 
HETATM   15  C16 UNL     1      11.094 -11.176 -12.112  1.00  0.00     0.000 A 
HETATM   16  C17 UNL     1      11.262 -12.014 -11.012  1.00  0.00     0.003 A 
HETATM   17  C18 UNL     1      12.012 -11.661  -9.911  1.00  0.00     0.037 A 
ENDBRANCH  11  12
ENDBRANCH  10  11
BRANCH  10  18
HETATM   18  C19 UNL     1      15.109  -8.453  -8.253  1.00  0.00    -0.026 A 
HETATM   19  C20 UNL     1      15.590  -7.547  -9.177  1.00  0.00     0.010 A 
HETATM   20  C21 UNL     1      15.974  -6.266  -8.861  1.00  0.00     0.001 A 
HETATM   21  C22 UNL     1      15.881  -5.835  -7.533  1.00  0.00     0.000 A 
HETATM   22  C23 UNL     1      15.409  -6.705  -6.591  1.00  0.00     0.001 A 
HETATM   23  C24 UNL     1      15.035  -7.974  -6.939  1.00  0.00     0.010 A 
ENDBRANCH  10  18
ENDBRANCH   7  10
ENDBRANCH   6   7
ENDBRANCH   4   6
BRANCH   1  24
HETATM   24  N3  UNL     1      16.597 -13.111  -3.161  1.00  0.00    -0.334 N 
HETATM   25  C1  UNL     1      17.291 -14.381  -3.012  1.00  0.00     0.321 C 
HETATM   26  O1  UNL     1      18.163 -14.628  -3.865  1.00  0.00    -0.247 OA
HETATM   27  N1  UNL     1      16.904 -15.187  -1.927  1.00  0.00    -0.308 N 
ATOM     28  H1  UNL     1      16.177 -14.850  -1.297  1.00  0.00     0.170 HD
ATOM     29  H3  UNL     1      15.873 -12.859  -2.489  1.00  0.00     0.165 HD
BRANCH  27  30
HETATM   30  C2  UNL     1      17.489 -16.451  -1.680  1.00  0.00     0.051 A 
HETATM   31  C3  UNL     1      17.021 -17.498  -2.464  1.00  0.00     0.032 A 
HETATM   32  C4  UNL     1      17.550 -18.748  -2.304  1.00  0.00     0.019 A 
HETATM   33  C5  UNL     1      18.542 -18.958  -1.364  1.00  0.00     0.088 A 
HETATM   34  N2  UNL     1      18.982 -17.938  -0.616  1.00  0.00    -0.373 N 
HETATM   35  C6  UNL     1      18.460 -16.687  -0.769  1.00  0.00     0.117 A 
ATOM     36  H2  UNL     1      19.714 -18.098   0.076  1.00  0.00     0.164 HD
ENDBRANCH  27  30
ENDBRANCH   1  24
TORSDOF 9
ENDMDL
MODEL 3
REMARK VINA RESULT: -7.613859962      3.818      7.727
REMARK  9 active torsions:
REMARK  status: ('A' for Active; 'I' for Inactive)
REMARK       I    between atoms: C1_2  and  N1_3 
REMARK       I    between atoms: C1_2  and  N3_12 
REMARK    1  A    between atoms: N1_3  and  C2_5 
REMARK    2  A    between atoms: N3_12  and  C7_14 
REMARK    3  A    between atoms: N4_17  and  C10_18 
REMARK    4  A    between atoms: C10_18  and  C11_19 
REMARK    5  A    between atoms: C11_19  and  O2_20 
REMARK    6  A    between atoms: C11_19  and  C12_22 
REMARK    7  A    between atoms: C12_22  and  O3_23 
REMARK    8  A    between atoms: C12_22  and  C19_30 
REMARK    9  A    between atoms: O3_23  and  C13_24 
ROOT
HETATM    1  C7  UNL     1      16.182 -11.559  -3.013  1.00  0.00     0.126 C 
HETATM    2  C8  UNL     1      15.108 -10.485  -3.050  1.00  0.00     0.051 C 
HETATM    3  C9  UNL     1      14.942 -10.225  -4.533  1.00  0.00     0.129 C 
HETATM    4  N4  UNL     1      16.130 -10.665  -5.174  1.00  0.00    -0.369 N 
HETATM    5  C25 UNL     1      16.967 -11.364  -4.289  1.00  0.00     0.088 C 
ENDROOT
BRANCH   4   6
HETATM    6  C10 UNL     1      16.684  -9.847  -6.176  1.00  0.00     0.097 C 
BRANCH   6   7
HETATM    7  C11 UNL     1      16.532 -10.331  -7.568  1.00  0.00     0.190 C 
BRANCH   7   8
HETATM    8  O2  UNL     1      16.225 -11.671  -7.709  1.00  0.00    -0.387 OA
ATOM      9  H2  UNL     1      15.987 -11.952  -8.584  1.00  0.00     0.210 HD
ENDBRANCH   7   8
BRANCH   7  10
HETATM   10  C12 UNL     1      15.500  -9.564  -8.372  1.00  0.00     0.195 C 
BRANCH  10  11
HETATM   11  O3  UNL     1      14.238 -10.094  -8.270  1.00  0.00    -0.338 OA
BRANCH  11  12
HETATM   12  C13 UNL     1      13.381 -10.683  -9.105  1.00  0.00     0.069 A 
HETATM   13  C14 UNL     1      13.262 -12.063  -9.071  1.00  0.00     0.037 A 
HETATM   14  C15 UNL     1      12.404 -12.758  -9.895  1.00  0.00     0.003 A 
HETATM   15  C16 UNL     1      11.624 -12.055 -10.797  1.00  0.00     0.000 A 
HETATM   16  C17 UNL     1      11.750 -10.667 -10.824  1.00  0.00     0.003 A 
HETATM   17  C18 UNL     1      12.611  -9.979  -9.997  1.00  0.00     0.037 A 
ENDBRANCH  11  12
ENDBRANCH  10  11
BRANCH  10  18
HETATM   18  C19 UNL     1      15.612  -8.105  -8.232  1.00  0.00    -0.026 A 
HETATM   19  C20 UNL     1      15.314  -7.468  -7.044  1.00  0.00     0.010 A 
HETATM   20  C21 UNL     1      15.407  -6.109  -6.864  1.00  0.00     0.001 A 
HETATM   21  C22 UNL     1      15.824  -5.306  -7.931  1.00  0.00     0.000 A 
HETATM   22  C23 UNL     1      16.127  -5.903  -9.122  1.00  0.00     0.001 A 
HETATM   23  C24 UNL     1      16.026  -7.260  -9.269  1.00  0.00     0.010 A 
ENDBRANCH  10  18
ENDBRANCH   7  10
ENDBRANCH   6   7
ENDBRANCH   4   6
BRANCH   1  24
HETATM   24  N3  UNL     1      15.576 -12.851  -2.981  1.00  0.00    -0.334 N 
HETATM   25  C1  UNL     1      16.353 -14.052  -2.715  1.00  0.00     0.321 C 
HETATM   26  O1  UNL     1      17.570 -13.881  -2.519  1.00  0.00    -0.247 OA
HETATM   27  N1  UNL     1      15.649 -15.269  -2.706  1.00  0.00    -0.308 N 
ATOM     28  H1  UNL     1      14.643 -15.258  -2.873  1.00  0.00     0.170 HD
ATOM     29  H3  UNL     1      14.574 -12.935  -3.149  1.00  0.00     0.165 HD
BRANCH  27  30
HETATM   30  C2  UNL     1      16.289 -16.509  -2.475  1.00  0.00     0.051 A 
HETATM   31  C3  UNL     1      16.103 -17.477  -3.455  1.00  0.00     0.032 A 
HETATM   32  C4  UNL     1      16.706 -18.697  -3.319  1.00  0.00     0.019 A 
HETATM   33  C5  UNL     1      17.492 -18.954  -2.211  1.00  0.00     0.088 A 
HETATM   34  N2  UNL     1      17.660 -18.010  -1.276  1.00  0.00    -0.373 N 
HETATM   35  C6  UNL     1      17.063 -16.790  -1.402  1.00  0.00     0.117 A 
ATOM     36  H2  UNL     1      18.240 -18.205  -0.460  1.00  0.00     0.164 HD
ENDBRANCH  27  30
ENDBRANCH   1  24
TORSDOF 9
ENDMDL
MODEL 4
REMARK VINA RESULT: -7.589737143      0.850      3.873
REMARK  9 active torsions:
REMARK  status: ('A' for Active; 'I' for Inactive)
REMARK       I    between atoms: C1_2  and  N1_3 
REMARK       I    between atoms: C1_2  and  N3_12 
REMARK    1  A    between atoms: N1_3  and  C2_5 
REMARK    2  A    between atoms: N3_12  and  C7_14 
REMARK    3  A    between atoms: N4_17  and  C10_18 
REMARK    4  A    between atoms: C10_18  and  C11_19 
REMARK    5  A    between atoms: C11_19  and  O2_20 
REMARK    6  A    between atoms: C11_19  and  C12_22 
REMARK    7  A    between atoms: C12_22  and  O3_23 
REMARK    8  A    between atoms: C12_22  and  C19_30 
REMARK    9  A    between atoms: O3_23  and  C13_24 
ROOT
HETATM    1  C7  UNL     1      15.594 -11.683  -6.563  1.00  0.00     0.126 C 
HETATM    2  C8  UNL     1      15.538 -11.994  -5.076  1.00  0.00     0.051 C 
HETATM    3  C9  UNL     1      15.808 -10.647  -4.440  1.00  0.00     0.129 C 
HETATM    4  N4  UNL     1      16.471  -9.847  -5.408  1.00  0.00    -0.369 N 
HETATM    5  C25 UNL     1      16.483 -10.466  -6.669  1.00  0.00     0.088 C 
ENDROOT
BRANCH   4   6
HETATM    6  C10 UNL     1      17.569  -9.073  -4.988  1.00  0.00     0.097 C 
BRANCH   6   7
HETATM    7  C11 UNL     1      17.282  -8.041  -3.965  1.00  0.00     0.190 C 
BRANCH   7   8
HETATM    8  O2  UNL     1      18.343  -7.227  -3.616  1.00  0.00    -0.387 OA
ATOM      9  H2  UNL     1      18.851  -6.877  -4.338  1.00  0.00     0.210 HD
ENDBRANCH   7   8
BRANCH   7  10
HETATM   10  C12 UNL     1      16.133  -7.120  -4.333  1.00  0.00     0.195 C 
BRANCH  10  11
HETATM   11  O3  UNL     1      15.647  -6.415  -3.260  1.00  0.00    -0.338 OA
BRANCH  11  12
HETATM   12  C13 UNL     1      14.637  -6.561  -2.401  1.00  0.00     0.069 A 
HETATM   13  C14 UNL     1      13.591  -7.403  -2.743  1.00  0.00     0.037 A 
HETATM   14  C15 UNL     1      12.505  -7.616  -1.921  1.00  0.00     0.003 A 
HETATM   15  C16 UNL     1      12.452  -6.965  -0.701  1.00  0.00     0.000 A 
HETATM   16  C17 UNL     1      13.509  -6.121  -0.365  1.00  0.00     0.003 A 
HETATM   17  C18 UNL     1      14.590  -5.913  -1.193  1.00  0.00     0.037 A 
ENDBRANCH  11  12
ENDBRANCH  10  11
BRANCH  10  18
HETATM   18  C19 UNL     1      16.363  -6.359  -5.568  1.00  0.00    -0.026 A 
HETATM   19  C20 UNL     1      15.639  -6.609  -6.717  1.00  0.00     0.010 A 
HETATM   20  C21 UNL     1      15.815  -5.922  -7.894  1.00  0.00     0.001 A 
HETATM   21  C22 UNL     1      16.776  -4.908  -7.955  1.00  0.00     0.000 A 
HETATM   22  C23 UNL     1      17.512  -4.633  -6.836  1.00  0.00     0.001 A 
HETATM   23  C24 UNL     1      17.311  -5.335  -5.679  1.00  0.00     0.010 A 
ENDBRANCH  10  18
ENDBRANCH   7  10
ENDBRANCH   6   7
ENDBRANCH   4   6
BRANCH   1  24
HETATM   24  N3  UNL     1      14.283 -11.400  -7.050  1.00  0.00    -0.334 N 
HETATM   25  C1  UNL     1      13.939 -11.564  -8.454  1.00  0.00     0.321 C 
HETATM   26  O1  UNL     1      14.854 -11.963  -9.196  1.00  0.00    -0.247 OA
HETATM   27  N1  UNL     1      12.616 -11.256  -8.819  1.00  0.00    -0.308 N 
ATOM     28  H1  UNL     1      11.964 -10.948  -8.097  1.00  0.00     0.170 HD
ATOM     29  H3  UNL     1      13.570 -11.075  -6.399  1.00  0.00     0.165 HD
BRANCH  27  30
HETATM   30  C2  UNL     1      12.158 -11.359 -10.153  1.00  0.00     0.051 A 
HETATM   31  C3  UNL     1      12.184 -10.183 -10.893  1.00  0.00     0.032 A 
HETATM   32  C4  UNL     1      11.779 -10.200 -12.199  1.00  0.00     0.019 A 
HETATM   33  C5  UNL     1      11.347 -11.384 -12.768  1.00  0.00     0.088 A 
HETATM   34  N2  UNL     1      11.329 -12.508 -12.040  1.00  0.00    -0.373 N 
HETATM   35  C6  UNL     1      11.731 -12.501 -10.737  1.00  0.00     0.117 A 
ATOM     36  H2  UNL     1      11.010 -13.379 -12.465  1.00  0.00     0.164 HD
ENDBRANCH  27  30
ENDBRANCH   1  24
TORSDOF 9
ENDMDL
MODEL 5
REMARK VINA RESULT: -7.533533345      3.326      8.704
REMARK  9 active torsions:
REMARK  status: ('A' for Active; 'I' for Inactive)
REMARK       I    between atoms: C1_2  and  N1_3 
REMARK       I    between atoms: C1_2  and  N3_12 
REMARK    1  A    between atoms: N1_3  and  C2_5 
REMARK    2  A    between atoms: N3_12  and  C7_14 
REMARK    3  A    between atoms: N4_17  and  C10_18 
REMARK    4  A    between atoms: C10_18  and  C11_19 
REMARK    5  A    between atoms: C11_19  and  O2_20 
REMARK    6  A    between atoms: C11_19  and  C12_22 
REMARK    7  A    between atoms: C12_22  and  O3_23 
REMARK    8  A    between atoms: C12_22  and  C19_30 
REMARK    9  A    between atoms: O3_23  and  C13_24 
ROOT
HETATM    1  C7  UNL     1      17.282  -9.564  -3.972  1.00  0.00     0.126 C 
HETATM    2  C8  UNL     1      15.898  -9.324  -3.392  1.00  0.00     0.051 C 
HETATM    3  C9  UNL     1      15.082 -10.452  -3.987  1.00  0.00     0.129 C 
HETATM    4  N4  UNL     1      15.764 -10.898  -5.150  1.00  0.00    -0.369 N 
HETATM    5  C25 UNL     1      17.035 -10.311  -5.262  1.00  0.00     0.088 C 
ENDROOT
BRANCH   4   6
HETATM    6  C10 UNL     1      15.002 -11.162  -6.304  1.00  0.00     0.097 C 
BRANCH   6   7
HETATM    7  C11 UNL     1      15.672 -10.899  -7.599  1.00  0.00     0.190 C 
BRANCH   7   8
HETATM    8  O2  UNL     1      15.926 -12.009  -8.381  1.00  0.00    -0.387 OA
ATOM      9  H2  UNL     1      15.162 -12.485  -8.686  1.00  0.00     0.210 HD
ENDBRANCH   7   8
BRANCH   7  10
HETATM   10  C12 UNL     1      14.933  -9.909  -8.479  1.00  0.00     0.195 C 
BRANCH  10  11
HETATM   11  O3  UNL     1      13.606 -10.219  -8.637  1.00  0.00    -0.338 OA
BRANCH  11  12
HETATM   12  C13 UNL     1      12.837 -10.633  -9.646  1.00  0.00     0.069 A 
HETATM   13  C14 UNL     1      12.507  -9.731 -10.644  1.00  0.00     0.037 A 
HETATM   14  C15 UNL     1      11.719 -10.068 -11.723  1.00  0.00     0.003 A 
HETATM   15  C16 UNL     1      11.235 -11.361 -11.821  1.00  0.00     0.000 A 
HETATM   16  C17 UNL     1      11.573 -12.262 -10.814  1.00  0.00     0.003 A 
HETATM   17  C18 UNL     1      12.360 -11.917  -9.737  1.00  0.00     0.037 A 
ENDBRANCH  11  12
ENDBRANCH  10  11
BRANCH  10  18
HETATM   18  C19 UNL     1      15.247  -8.505  -8.176  1.00  0.00    -0.026 A 
HETATM   19  C20 UNL     1      15.771  -7.659  -9.132  1.00  0.00     0.010 A 
HETATM   20  C21 UNL     1      16.077  -6.340  -8.898  1.00  0.00     0.001 A 
HETATM   21  C22 UNL     1      15.854  -5.804  -7.625  1.00  0.00     0.000 A 
HETATM   22  C23 UNL     1      15.336  -6.613  -6.653  1.00  0.00     0.001 A 
HETATM   23  C24 UNL     1      15.041  -7.923  -6.919  1.00  0.00     0.010 A 
ENDBRANCH  10  18
ENDBRANCH   7  10
ENDBRANCH   6   7
ENDBRANCH   4   6
BRANCH   1  24
HETATM   24  N3  UNL     1      18.058 -10.351  -3.069  1.00  0.00    -0.334 N 
HETATM   25  C1  UNL     1      19.513 -10.339  -3.103  1.00  0.00     0.321 C 
HETATM   26  O1  UNL     1      20.031  -9.605  -3.962  1.00  0.00    -0.247 OA
HETATM   27  N1  UNL     1      20.171 -11.154  -2.164  1.00  0.00    -0.308 N 
ATOM     28  H1  UNL     1      19.613 -11.698  -1.506  1.00  0.00     0.170 HD
ATOM     29  H3  UNL     1      17.582 -10.936  -2.384  1.00  0.00     0.165 HD
BRANCH  27  30
HETATM   30  C2  UNL     1      21.580 -11.244  -2.101  1.00  0.00     0.051 A 
HETATM   31  C3  UNL     1      22.226 -10.198  -1.452  1.00  0.00     0.032 A 
HETATM   32  C4  UNL     1      23.587 -10.219  -1.329  1.00  0.00     0.019 A 
HETATM   33  C5  UNL     1      24.307 -11.278  -1.850  1.00  0.00     0.088 A 
HETATM   34  N2  UNL     1      23.669 -12.278  -2.473  1.00  0.00    -0.373 N 
HETATM   35  C6  UNL     1      22.312 -12.266  -2.601  1.00  0.00     0.117 A 
ATOM     36  H2  UNL     1      24.205 -13.057  -2.856  1.00  0.00     0.164 HD
ENDBRANCH  27  30
ENDBRANCH   1  24
TORSDOF 9
ENDMDL
