MODEL 1
REMARK VINA RESULT: -7.662019248      0.000      0.000
REMARK  10 active torsions:
REMARK  status: ('A' for Active; 'I' for Inactive)
REMARK    1  A    between atoms: C2_2  and  O1_3 
REMARK    2  A    between atoms: O1_3  and  C3_4 
REMARK    3  A    between atoms: C10_11  and  C11_12 
REMARK    4  A    between atoms: C12_13  and  C13_14 
REMARK    5  A    between atoms: C13_14  and  C14_15 
REMARK    6  A    between atoms: C15_16  and  O2_17 
REMARK    7  A    between atoms: C17_20  and  O3_21 
REMARK    8  A    between atoms: C18_23  and  C19_24 
REMARK    9  A    between atoms: C19_24  and  C20_25 
REMARK   10  A    between atoms: C20_25  and  C21_26 
ROOT
HETATM    1  C11 UNL     1      16.561 -10.490  -5.549  1.00  0.00    -0.026 C 
HETATM    2  C12 UNL     1      16.671 -11.495  -4.746  1.00  0.00    -0.030 C 
ENDROOT
BRANCH   1   3
HETATM    3  C10 UNL     1      15.392 -10.229  -6.437  1.00  0.00     0.008 C 
HETATM    4  C9  UNL     1      14.497 -11.430  -6.407  1.00  0.00     0.013 C 
HETATM    5  C8  UNL     1      13.673 -11.583  -7.657  1.00  0.00    -0.007 C 
HETATM    6  C7  UNL     1      14.235 -12.590  -8.631  1.00  0.00     0.005 C 
HETATM    7  C24 UNL     1      13.440 -10.260  -8.302  1.00  0.00     0.019 C 
HETATM    8  C6  UNL     1      13.159 -12.847  -9.666  1.00  0.00     0.007 C 
HETATM    9  C5  UNL     1      12.037 -11.865  -9.625  1.00  0.00     0.020 C 
HETATM   10  C4  UNL     1      11.466 -11.781 -11.047  1.00  0.00     0.068 C 
HETATM   11  C25 UNL     1      12.475 -10.434  -9.425  1.00  0.00     0.133 C 
HETATM   12  C3  UNL     1      12.188 -10.616 -11.628  1.00  0.00     0.260 C 
HETATM   13  O6  UNL     1      12.979 -10.047 -10.661  1.00  0.00    -0.355 OA
HETATM   14  C23 UNL     1      14.714  -9.586  -8.750  1.00  0.00     0.008 C 
HETATM   15  C22 UNL     1      15.851  -9.828  -7.779  1.00  0.00     0.009 C 
BRANCH  12  16
HETATM   16  O1  UNL     1      11.262  -9.727 -12.168  1.00  0.00    -0.362 OA
BRANCH  16  17
HETATM   17  C2  UNL     1      11.869  -8.689 -12.870  1.00  0.00     0.166 C 
HETATM   18  C1  UNL     1      13.011  -9.271 -13.664  1.00  0.00     0.033 C 
ENDBRANCH  16  17
ENDBRANCH  12  16
ENDBRANCH   1   3
BRANCH   2  19
HETATM   19  C13 UNL     1      17.766 -11.808  -3.867  1.00  0.00     0.034 C 
BRANCH  19  20
HETATM   20  C14 UNL     1      17.450 -12.460  -2.561  1.00  0.00     0.024 C 
HETATM   21  C15 UNL     1      17.569 -13.962  -2.560  1.00  0.00     0.125 C 
HETATM   22  C16 UNL     1      16.267 -14.505  -1.942  1.00  0.00     0.064 C 
HETATM   23  C17 UNL     1      15.756 -13.293  -1.141  1.00  0.00     0.125 C 
HETATM   24  C18 UNL     1      16.007 -12.216  -2.169  1.00  0.00     0.022 C 
BRANCH  21  25
HETATM   25  O2  UNL     1      17.667 -14.441  -3.853  1.00  0.00    -0.395 OA
ATOM     26  H2  UNL     1      16.996 -15.092  -4.018  1.00  0.00     0.210 HD
ENDBRANCH  21  25
BRANCH  23  27
HETATM   27  O3  UNL     1      16.586 -13.190  -0.038  1.00  0.00    -0.395 OA
ATOM     28  H3  UNL     1      16.823 -14.080   0.194  1.00  0.00     0.210 HD
ENDBRANCH  23  27
BRANCH  24  29
HETATM   29  C19 UNL     1      15.836 -10.834  -1.595  1.00  0.00     0.018 C 
BRANCH  29  30
HETATM   30  C20 UNL     1      14.700 -10.069  -2.170  1.00  0.00     0.113 C 
BRANCH  30  31
HETATM   31  C21 UNL     1      13.485 -10.009  -1.360  1.00  0.00     0.172 C 
HETATM   32  O4  UNL     1      12.835  -8.908  -1.340  1.00  0.00    -0.648 OA
HETATM   33  O5  UNL     1      12.945 -11.020  -0.599  1.00  0.00    -0.648 OA
ENDBRANCH  30  31
ENDBRANCH  29  30
ENDBRANCH  24  29
ENDBRANCH  19  20
ENDBRANCH   2  19
TORSDOF 10
ENDMDL
MODEL 2
REMARK VINA RESULT: -7.627906253      3.824      5.632
REMARK  10 active torsions:
REMARK  status: ('A' for Active; 'I' for Inactive)
REMARK    1  A    between atoms: C2_2  and  O1_3 
REMARK    2  A    between atoms: O1_3  and  C3_4 
REMARK    3  A    between atoms: C10_11  and  C11_12 
REMARK    4  A    between atoms: C12_13  and  C13_14 
REMARK    5  A    between atoms: C13_14  and  C14_15 
REMARK    6  A    between atoms: C15_16  and  O2_17 
REMARK    7  A    between atoms: C17_20  and  O3_21 
REMARK    8  A    between atoms: C18_23  and  C19_24 
REMARK    9  A    between atoms: C19_24  and  C20_25 
REMARK   10  A    between atoms: C20_25  and  C21_26 
ROOT
HETATM    1  C11 UNL     1      15.282  -8.022  -3.483  1.00  0.00    -0.026 C 
HETATM    2  C12 UNL     1      14.795  -9.218  -3.509  1.00  0.00    -0.030 C 
ENDROOT
BRANCH   1   3
HETATM    3  C10 UNL     1      15.363  -7.105  -4.656  1.00  0.00     0.008 C 
HETATM    4  C9  UNL     1      14.609  -7.723  -5.793  1.00  0.00     0.013 C 
HETATM    5  C8  UNL     1      15.103  -7.276  -7.142  1.00  0.00    -0.007 C 
HETATM    6  C7  UNL     1      16.024  -8.270  -7.809  1.00  0.00     0.005 C 
HETATM    7  C24 UNL     1      15.720  -5.922  -7.057  1.00  0.00     0.019 C 
HETATM    8  C6  UNL     1      16.183  -7.824  -9.247  1.00  0.00     0.007 C 
HETATM    9  C5  UNL     1      15.680  -6.446  -9.510  1.00  0.00     0.020 C 
HETATM   10  C4  UNL     1      16.499  -5.887 -10.681  1.00  0.00     0.068 C 
HETATM   11  C25 UNL     1      16.029  -5.445  -8.435  1.00  0.00     0.133 C 
HETATM   12  C3  UNL     1      17.588  -5.134  -9.998  1.00  0.00     0.260 C 
HETATM   13  O6  UNL     1      17.374  -5.164  -8.642  1.00  0.00    -0.355 OA
HETATM   14  C23 UNL     1      16.932  -5.878  -6.159  1.00  0.00     0.008 C 
HETATM   15  C22 UNL     1      16.770  -6.775  -4.949  1.00  0.00     0.009 C 
BRANCH  12  16
HETATM   16  O1  UNL     1      17.644  -3.843 -10.514  1.00  0.00    -0.362 OA
BRANCH  16  17
HETATM   17  C2  UNL     1      18.271  -2.952  -9.647  1.00  0.00     0.166 C 
HETATM   18  C1  UNL     1      17.381  -1.745  -9.495  1.00  0.00     0.033 C 
ENDBRANCH  16  17
ENDBRANCH  12  16
ENDBRANCH   1   3
BRANCH   2  19
HETATM   19  C13 UNL     1      14.688 -10.153  -2.422  1.00  0.00     0.034 C 
BRANCH  19  20
HETATM   20  C14 UNL     1      15.286 -11.509  -2.604  1.00  0.00     0.024 C 
HETATM   21  C15 UNL     1      16.365 -11.862  -1.613  1.00  0.00     0.125 C 
HETATM   22  C16 UNL     1      17.560 -12.384  -2.433  1.00  0.00     0.064 C 
HETATM   23  C17 UNL     1      16.888 -12.811  -3.751  1.00  0.00     0.125 C 
HETATM   24  C18 UNL     1      15.983 -11.618  -3.945  1.00  0.00     0.022 C 
BRANCH  21  25
HETATM   25  O2  UNL     1      16.774 -10.737  -0.922  1.00  0.00    -0.395 OA
ATOM     26  H2  UNL     1      17.491 -10.310  -1.375  1.00  0.00     0.210 HD
ENDBRANCH  21  25
BRANCH  23  27
HETATM   27  O3  UNL     1      16.195 -13.974  -3.465  1.00  0.00    -0.395 OA
ATOM     28  H3  UNL     1      15.584 -14.096  -4.183  1.00  0.00     0.210 HD
ENDBRANCH  23  27
BRANCH  24  29
HETATM   29  C19 UNL     1      14.983 -11.838  -5.049  1.00  0.00     0.018 C 
BRANCH  29  30
HETATM   30  C20 UNL     1      15.536 -11.669  -6.418  1.00  0.00     0.113 C 
BRANCH  30  31
HETATM   31  C21 UNL     1      14.616 -11.928  -7.524  1.00  0.00     0.172 C 
HETATM   32  O4  UNL     1      14.518 -13.130  -7.949  1.00  0.00    -0.648 OA
HETATM   33  O5  UNL     1      13.825 -11.011  -8.176  1.00  0.00    -0.648 OA
ENDBRANCH  30  31
ENDBRANCH  29  30
ENDBRANCH  24  29
ENDBRANCH  19  20
ENDBRANCH   2  19
TORSDOF 10
ENDMDL
MODEL 3
REMARK VINA RESULT: -7.598456116      4.229      8.733
REMARK  10 active torsions:
REMARK  status: ('A' for Active; 'I' for Inactive)
REMARK    1  A    between atoms: C2_2  and  O1_3 
REMARK    2  A    between atoms: O1_3  and  C3_4 
REMARK    3  A    between atoms: C10_11  and  C11_12 
REMARK    4  A    between atoms: C12_13  and  C13_14 
REMARK    5  A    between atoms: C13_14  and  C14_15 
REMARK    6  A    between atoms: C15_16  and  O2_17 
REMARK    7  A    between atoms: C17_20  and  O3_21 
REMARK    8  A    between atoms: C18_23  and  C19_24 
REMARK    9  A    between atoms: C19_24  and  C20_25 
REMARK   10  A    between atoms: C20_25  and  C21_26 
ROOT
HETATM    1  C11 UNL     1      15.010  -8.185  -8.609  1.00  0.00    -0.026 C 
HETATM    2  C12 UNL     1      15.970  -7.337  -8.770  1.00  0.00    -0.030 C 
ENDROOT
BRANCH   1   3
HETATM    3  C10 UNL     1      14.977  -9.253  -7.569  1.00  0.00     0.008 C 
HETATM    4  C9  UNL     1      15.444  -8.666  -6.272  1.00  0.00     0.013 C 
HETATM    5  C8  UNL     1      16.048  -9.686  -5.346  1.00  0.00    -0.007 C 
HETATM    6  C7  UNL     1      17.559  -9.696  -5.362  1.00  0.00     0.005 C 
HETATM    7  C24 UNL     1      15.484 -11.039  -5.609  1.00  0.00     0.019 C 
HETATM    8  C6  UNL     1      18.004 -10.538  -4.184  1.00  0.00     0.007 C 
HETATM    9  C5  UNL     1      16.906 -11.333  -3.563  1.00  0.00     0.020 C 
HETATM   10  C4  UNL     1      17.553 -12.581  -2.946  1.00  0.00     0.068 C 
HETATM   11  C25 UNL     1      15.970 -11.977  -4.557  1.00  0.00     0.133 C 
HETATM   12  C3  UNL     1      17.400 -13.601  -4.021  1.00  0.00     0.260 C 
HETATM   13  O6  UNL     1      16.684 -13.059  -5.059  1.00  0.00    -0.355 OA
HETATM   14  C23 UNL     1      15.779 -11.546  -6.999  1.00  0.00     0.008 C 
HETATM   15  C22 UNL     1      15.733 -10.433  -8.026  1.00  0.00     0.009 C 
BRANCH  12  16
HETATM   16  O1  UNL     1      16.809 -14.742  -3.487  1.00  0.00    -0.362 OA
BRANCH  16  17
HETATM   17  C2  UNL     1      17.660 -15.425  -2.622  1.00  0.00     0.166 C 
HETATM   18  C1  UNL     1      18.742 -16.071  -3.448  1.00  0.00     0.033 C 
ENDBRANCH  16  17
ENDBRANCH  12  16
ENDBRANCH   1   3
BRANCH   2  19
HETATM   19  C13 UNL     1      16.068  -6.287  -9.749  1.00  0.00     0.034 C 
BRANCH  19  20
HETATM   20  C14 UNL     1      16.815  -5.050  -9.375  1.00  0.00     0.024 C 
HETATM   21  C15 UNL     1      17.870  -4.626 -10.365  1.00  0.00     0.125 C 
HETATM   22  C16 UNL     1      19.157  -4.377  -9.556  1.00  0.00     0.064 C 
HETATM   23  C17 UNL     1      18.608  -4.136  -8.137  1.00  0.00     0.125 C 
HETATM   24  C18 UNL     1      17.593  -5.254  -8.090  1.00  0.00     0.022 C 
BRANCH  21  25
HETATM   25  O2  UNL     1      18.118  -5.639 -11.271  1.00  0.00    -0.395 OA
ATOM     26  H2  UNL     1      19.026  -5.621 -11.551  1.00  0.00     0.210 HD
ENDBRANCH  21  25
BRANCH  23  27
HETATM   27  O3  UNL     1      18.027  -2.880  -8.162  1.00  0.00    -0.395 OA
ATOM     28  H3  UNL     1      18.438  -2.389  -7.462  1.00  0.00     0.210 HD
ENDBRANCH  23  27
BRANCH  24  29
HETATM   29  C19 UNL     1      16.684  -5.145  -6.894  1.00  0.00     0.018 C 
BRANCH  29  30
HETATM   30  C20 UNL     1      17.302  -5.578  -5.615  1.00  0.00     0.113 C 
BRANCH  30  31
HETATM   31  C21 UNL     1      17.646  -4.517  -4.671  1.00  0.00     0.172 C 
HETATM   32  O4  UNL     1      17.653  -4.808  -3.425  1.00  0.00    -0.648 OA
HETATM   33  O5  UNL     1      17.970  -3.214  -4.969  1.00  0.00    -0.648 OA
ENDBRANCH  30  31
ENDBRANCH  29  30
ENDBRANCH  24  29
ENDBRANCH  19  20
ENDBRANCH   2  19
TORSDOF 10
ENDMDL
MODEL 4
REMARK VINA RESULT: -7.520070037      6.375      9.271
REMARK  10 active torsions:
REMARK  status: ('A' for Active; 'I' for Inactive)
REMARK    1  A    between atoms: C2_2  and  O1_3 
REMARK    2  A    between atoms: O1_3  and  C3_4 
REMARK    3  A    between atoms: C10_11  and  C11_12 
REMARK    4  A    between atoms: C12_13  and  C13_14 
REMARK    5  A    between atoms: C13_14  and  C14_15 
REMARK    6  A    between atoms: C15_16  and  O2_17 
REMARK    7  A    between atoms: C17_20  and  O3_21 
REMARK    8  A    between atoms: C18_23  and  C19_24 
REMARK    9  A    between atoms: C19_24  and  C20_25 
REMARK   10  A    between atoms: C20_25  and  C21_26 
ROOT
HETATM    1  C11 UNL     1      16.830  -4.716  -8.267  1.00  0.00    -0.026 C 
HETATM    2  C12 UNL     1      18.103  -4.722  -8.054  1.00  0.00    -0.030 C 
ENDROOT
BRANCH   1   3
HETATM    3  C10 UNL     1      15.932  -5.897  -8.118  1.00  0.00     0.008 C 
HETATM    4  C9  UNL     1      16.048  -6.406  -6.713  1.00  0.00     0.013 C 
HETATM    5  C8  UNL     1      15.733  -7.872  -6.589  1.00  0.00    -0.007 C 
HETATM    6  C7  UNL     1      16.960  -8.750  -6.525  1.00  0.00     0.005 C 
HETATM    7  C24 UNL     1      14.798  -8.305  -7.665  1.00  0.00     0.019 C 
HETATM    8  C6  UNL     1      16.492 -10.127  -6.102  1.00  0.00     0.007 C 
HETATM    9  C5  UNL     1      15.014 -10.308  -6.169  1.00  0.00     0.020 C 
HETATM   10  C4  UNL     1      14.759 -11.800  -6.426  1.00  0.00     0.068 C 
HETATM   11  C25 UNL     1      14.373  -9.709  -7.398  1.00  0.00     0.133 C 
HETATM   12  C3  UNL     1      14.624 -11.865  -7.908  1.00  0.00     0.260 C 
HETATM   13  O6  UNL     1      14.688 -10.594  -8.423  1.00  0.00    -0.355 OA
HETATM   14  C23 UNL     1      15.373  -8.142  -9.051  1.00  0.00     0.008 C 
HETATM   15  C22 UNL     1      16.221  -6.893  -9.166  1.00  0.00     0.009 C 
BRANCH  12  16
HETATM   16  O1  UNL     1      13.443 -12.527  -8.231  1.00  0.00    -0.362 OA
BRANCH  16  17
HETATM   17  C2  UNL     1      13.152 -12.459  -9.591  1.00  0.00     0.166 C 
HETATM   18  C1  UNL     1      11.911 -11.620  -9.760  1.00  0.00     0.033 C 
ENDBRANCH  16  17
ENDBRANCH  12  16
ENDBRANCH   1   3
BRANCH   2  19
HETATM   19  C13 UNL     1      19.026  -3.625  -8.180  1.00  0.00     0.034 C 
BRANCH  19  20
HETATM   20  C14 UNL     1      19.823  -3.523  -9.438  1.00  0.00     0.024 C 
HETATM   21  C15 UNL     1      21.306  -3.725  -9.263  1.00  0.00     0.125 C 
HETATM   22  C16 UNL     1      21.997  -2.549  -9.980  1.00  0.00     0.064 C 
HETATM   23  C17 UNL     1      20.908  -2.084 -10.965  1.00  0.00     0.125 C 
HETATM   24  C18 UNL     1      19.720  -2.134 -10.034  1.00  0.00     0.022 C 
BRANCH  21  25
HETATM   25  O2  UNL     1      21.647  -3.675  -7.925  1.00  0.00    -0.395 OA
ATOM     26  H2  UNL     1      22.537  -3.359  -7.819  1.00  0.00     0.210 HD
ENDBRANCH  21  25
BRANCH  23  27
HETATM   27  O3  UNL     1      20.858  -3.047 -11.958  1.00  0.00    -0.395 OA
ATOM     28  H3  UNL     1      20.023  -2.927 -12.394  1.00  0.00     0.210 HD
ENDBRANCH  23  27
BRANCH  24  29
HETATM   29  C19 UNL     1      18.416  -1.966 -10.770  1.00  0.00     0.018 C 
BRANCH  29  30
HETATM   30  C20 UNL     1      17.621  -0.786 -10.342  1.00  0.00     0.113 C 
BRANCH  30  31
HETATM   31  C21 UNL     1      16.814  -0.954  -9.135  1.00  0.00     0.172 C 
HETATM   32  O4  UNL     1      17.288  -0.509  -8.034  1.00  0.00    -0.648 OA
HETATM   33  O5  UNL     1      15.576  -1.547  -9.041  1.00  0.00    -0.648 OA
ENDBRANCH  30  31
ENDBRANCH  29  30
ENDBRANCH  24  29
ENDBRANCH  19  20
ENDBRANCH   2  19
TORSDOF 10
ENDMDL
MODEL 5
REMARK VINA RESULT: -7.498937294      4.871      7.499
REMARK  10 active torsions:
REMARK  status: ('A' for Active; 'I' for Inactive)
REMARK    1  A    between atoms: C2_2  and  O1_3 
REMARK    2  A    between atoms: O1_3  and  C3_4 
REMARK    3  A    between atoms: C10_11  and  C11_12 
REMARK    4  A    between atoms: C12_13  and  C13_14 
REMARK    5  A    between atoms: C13_14  and  C14_15 
REMARK    6  A    between atoms: C15_16  and  O2_17 
REMARK    7  A    between atoms: C17_20  and  O3_21 
REMARK    8  A    between atoms: C18_23  and  C19_24 
REMARK    9  A    between atoms: C19_24  and  C20_25 
REMARK   10  A    between atoms: C20_25  and  C21_26 
ROOT
HETATM    1  C11 UNL     1      16.900  -7.070  -5.777  1.00  0.00    -0.026 C 
HETATM    2  C12 UNL     1      16.905  -5.798  -5.556  1.00  0.00    -0.030 C 
ENDROOT
BRANCH   1   3
HETATM    3  C10 UNL     1      15.750  -7.836  -6.338  1.00  0.00     0.008 C 
HETATM    4  C9  UNL     1      15.868  -9.262  -5.891  1.00  0.00     0.013 C 
HETATM    5  C8  UNL     1      15.204 -10.231  -6.831  1.00  0.00    -0.007 C 
HETATM    6  C7  UNL     1      16.168 -10.921  -7.768  1.00  0.00     0.005 C 
HETATM    7  C24 UNL     1      14.091  -9.573  -7.571  1.00  0.00     0.019 C 
HETATM    8  C6  UNL     1      15.408 -12.058  -8.419  1.00  0.00     0.007 C 
HETATM    9  C5  UNL     1      13.933 -11.993  -8.213  1.00  0.00     0.020 C 
HETATM   10  C4  UNL     1      13.284 -12.683  -9.420  1.00  0.00     0.068 C 
HETATM   11  C25 UNL     1      13.350 -10.607  -8.349  1.00  0.00     0.133 C 
HETATM   12  C3  UNL     1      12.995 -11.547 -10.338  1.00  0.00     0.260 C 
HETATM   13  O6  UNL     1      13.330 -10.369  -9.718  1.00  0.00    -0.355 OA
HETATM   14  C23 UNL     1      14.551  -8.431  -8.443  1.00  0.00     0.008 C 
HETATM   15  C22 UNL     1      15.674  -7.646  -7.797  1.00  0.00     0.009 C 
BRANCH  12  16
HETATM   16  O1  UNL     1      11.658 -11.600 -10.725  1.00  0.00    -0.362 OA
BRANCH  16  17
HETATM   17  C2  UNL     1      11.425 -10.926 -11.920  1.00  0.00     0.166 C 
HETATM   18  C1  UNL     1      11.260 -11.955 -13.010  1.00  0.00     0.033 C 
ENDBRANCH  16  17
ENDBRANCH  12  16
ENDBRANCH   1   3
BRANCH   2  19
HETATM   19  C13 UNL     1      17.973  -4.998  -5.018  1.00  0.00     0.034 C 
BRANCH  19  20
HETATM   20  C14 UNL     1      18.414  -3.804  -5.799  1.00  0.00     0.024 C 
HETATM   21  C15 UNL     1      18.319  -2.496  -5.058  1.00  0.00     0.125 C 
HETATM   22  C16 UNL     1      17.582  -1.516  -5.991  1.00  0.00     0.064 C 
HETATM   23  C17 UNL     1      17.805  -2.154  -7.375  1.00  0.00     0.125 C 
HETATM   24  C18 UNL     1      17.530  -3.594  -7.012  1.00  0.00     0.022 C 
BRANCH  21  25
HETATM   25  O2  UNL     1      17.568  -2.644  -3.907  1.00  0.00    -0.395 OA
ATOM     26  H2  UNL     1      17.848  -2.023  -3.245  1.00  0.00     0.210 HD
ENDBRANCH  21  25
BRANCH  23  27
HETATM   27  O3  UNL     1      19.133  -1.920  -7.691  1.00  0.00    -0.395 OA
ATOM     28  H3  UNL     1      19.639  -2.295  -6.980  1.00  0.00     0.210 HD
ENDBRANCH  23  27
BRANCH  24  29
HETATM   29  C19 UNL     1      17.911  -4.540  -8.119  1.00  0.00     0.018 C 
BRANCH  29  30
HETATM   30  C20 UNL     1      17.180  -4.317  -9.393  1.00  0.00     0.113 C 
BRANCH  30  31
HETATM   31  C21 UNL     1      17.165  -5.435 -10.335  1.00  0.00     0.172 C 
HETATM   32  O4  UNL     1      18.287  -5.952 -10.663  1.00  0.00    -0.648 OA
HETATM   33  O5  UNL     1      16.062  -6.010 -10.922  1.00  0.00    -0.648 OA
ENDBRANCH  30  31
ENDBRANCH  29  30
ENDBRANCH  24  29
ENDBRANCH  19  20
ENDBRANCH   2  19
TORSDOF 10
ENDMDL
