MODEL 1
REMARK VINA RESULT: -8.229173721      0.000      0.000
REMARK  9 active torsions:
REMARK  status: ('A' for Active; 'I' for Inactive)
REMARK    1  A    between atoms: C1_4  and  C2_6 
REMARK    2  A    between atoms: C5_9  and  O1_10 
REMARK    3  A    between atoms: O1_10  and  C6_11 
REMARK    4  A    between atoms: C6_11  and  C7_12 
REMARK    5  A    between atoms: C7_12  and  O2_13 
REMARK    6  A    between atoms: C7_12  and  C8_15 
REMARK    7  A    between atoms: C8_15  and  N3_16 
REMARK    8  A    between atoms: C11_19  and  C12_20 
REMARK    9  A    between atoms: C17_25  and  N4_26 
ROOT
HETATM    1  N3  UNL     1      15.518  -9.630  -4.920  1.00  0.00    -0.391 N 
HETATM    2  C9  UNL     1      16.896  -9.356  -5.112  1.00  0.00     0.122 C 
HETATM    3  C10 UNL     1      17.336  -8.210  -4.237  1.00  0.00     0.029 C 
HETATM    4  C11 UNL     1      16.503  -6.982  -4.303  1.00  0.00     0.024 C 
HETATM    5  C23 UNL     1      15.034  -7.326  -4.480  1.00  0.00     0.029 C 
HETATM    6  C24 UNL     1      14.845  -8.775  -4.010  1.00  0.00     0.122 C 
ENDROOT
BRANCH   1   7
HETATM    7  C8  UNL     1      15.004 -10.898  -5.130  1.00  0.00     0.091 C 
BRANCH   7   8
HETATM    8  C7  UNL     1      15.748 -11.884  -5.950  1.00  0.00     0.180 C 
BRANCH   8   9
HETATM    9  C6  UNL     1      15.059 -12.438  -7.145  1.00  0.00     0.212 C 
BRANCH   9  10
HETATM   10  O1  UNL     1      13.861 -11.913  -7.517  1.00  0.00    -0.348 OA
BRANCH  10  11
HETATM   11  C5  UNL     1      13.273 -11.526  -8.666  1.00  0.00     0.068 A 
HETATM   12  C4  UNL     1      13.080 -10.219  -9.100  1.00  0.00     0.037 A 
HETATM   13  C3  UNL     1      12.463  -9.940 -10.298  1.00  0.00     0.017 A 
HETATM   14  C2  UNL     1      12.017 -10.957 -11.103  1.00  0.00     0.005 A 
HETATM   15  C26 UNL     1      12.203 -12.262 -10.683  1.00  0.00     0.017 A 
HETATM   16  C25 UNL     1      12.811 -12.557  -9.503  1.00  0.00     0.037 A 
BRANCH  14  17
HETATM   17  C1  UNL     1      11.365 -10.670 -12.369  1.00  0.00     0.120 C 
HETATM   18  N1  UNL     1      10.878 -11.628 -13.053  1.00  0.00    -0.387 N 
ATOM     19  H12 UNL     1      10.420 -11.427 -13.942  1.00  0.00     0.157 HD
ATOM     20  H11 UNL     1      10.944 -12.589 -12.718  1.00  0.00     0.157 HD
HETATM   21  N2  UNL     1      11.274  -9.344 -12.831  1.00  0.00    -0.082 NA
ENDBRANCH  14  17
ENDBRANCH  10  11
ENDBRANCH   9  10
ENDBRANCH   8   9
BRANCH   8  22
HETATM   22  O2  UNL     1      16.256 -12.966  -5.203  1.00  0.00    -0.388 OA
ATOM     23  H2  UNL     1      15.578 -13.246  -4.599  1.00  0.00     0.210 HD
ENDBRANCH   8  22
ENDBRANCH   7   8
ENDBRANCH   1   7
BRANCH   4  24
HETATM   24  C12 UNL     1      16.930  -5.975  -5.310  1.00  0.00    -0.027 A 
HETATM   25  C13 UNL     1      16.551  -6.123  -6.625  1.00  0.00     0.010 A 
HETATM   26  C14 UNL     1      16.895  -5.212  -7.611  1.00  0.00     0.001 A 
HETATM   27  C15 UNL     1      17.647  -4.121  -7.252  1.00  0.00     0.002 A 
HETATM   28  C16 UNL     1      18.025  -3.975  -5.951  1.00  0.00     0.030 A 
HETATM   29  C17 UNL     1      17.678  -4.898  -4.944  1.00  0.00     0.036 A 
BRANCH  29  30
HETATM   30  N4  UNL     1      18.165  -4.629  -3.628  1.00  0.00    -0.380 N 
HETATM   31  C18 UNL     1      17.401  -3.831  -2.703  1.00  0.00     0.123 C 
HETATM   32  C19 UNL     1      17.309  -4.488  -1.339  1.00  0.00     0.020 C 
HETATM   33  C20 UNL     1      17.820  -5.910  -1.369  1.00  0.00     0.003 C 
HETATM   34  C21 UNL     1      19.222  -6.020  -1.922  1.00  0.00     0.020 C 
HETATM   35  C22 UNL     1      19.426  -5.170  -3.158  1.00  0.00     0.123 C 
ENDBRANCH  29  30
ENDBRANCH   4  24
TORSDOF 9
ENDMDL
MODEL 2
REMARK VINA RESULT: -8.208350157      1.323      3.403
REMARK  9 active torsions:
REMARK  status: ('A' for Active; 'I' for Inactive)
REMARK    1  A    between atoms: C1_4  and  C2_6 
REMARK    2  A    between atoms: C5_9  and  O1_10 
REMARK    3  A    between atoms: O1_10  and  C6_11 
REMARK    4  A    between atoms: C6_11  and  C7_12 
REMARK    5  A    between atoms: C7_12  and  O2_13 
REMARK    6  A    between atoms: C7_12  and  C8_15 
REMARK    7  A    between atoms: C8_15  and  N3_16 
REMARK    8  A    between atoms: C11_19  and  C12_20 
REMARK    9  A    between atoms: C17_25  and  N4_26 
ROOT
HETATM    1  N3  UNL     1      15.351  -9.478  -5.489  1.00  0.00    -0.391 N 
HETATM    2  C9  UNL     1      14.871  -8.440  -4.651  1.00  0.00     0.122 C 
HETATM    3  C10 UNL     1      14.712  -7.160  -5.428  1.00  0.00     0.029 C 
HETATM    4  C11 UNL     1      15.887  -6.735  -6.232  1.00  0.00     0.024 C 
HETATM    5  C23 UNL     1      16.611  -7.935  -6.818  1.00  0.00     0.029 C 
HETATM    6  C24 UNL     1      15.618  -9.105  -6.832  1.00  0.00     0.122 C 
ENDROOT
BRANCH   1   7
HETATM    7  C8  UNL     1      15.063 -10.806  -5.223  1.00  0.00     0.091 C 
BRANCH   7   8
HETATM    8  C7  UNL     1      15.773 -11.887  -5.947  1.00  0.00     0.180 C 
BRANCH   8   9
HETATM    9  C6  UNL     1      15.071 -12.514  -7.098  1.00  0.00     0.212 C 
BRANCH   9  10
HETATM   10  O1  UNL     1      13.859 -12.023  -7.477  1.00  0.00    -0.348 OA
BRANCH  10  11
HETATM   11  C5  UNL     1      13.274 -11.635  -8.626  1.00  0.00     0.068 A 
HETATM   12  C4  UNL     1      13.054 -10.327  -9.046  1.00  0.00     0.037 A 
HETATM   13  C3  UNL     1      12.442 -10.047 -10.246  1.00  0.00     0.017 A 
HETATM   14  C2  UNL     1      12.028 -11.064 -11.069  1.00  0.00     0.005 A 
HETATM   15  C26 UNL     1      12.241 -12.369 -10.663  1.00  0.00     0.017 A 
HETATM   16  C25 UNL     1      12.844 -12.665  -9.482  1.00  0.00     0.037 A 
BRANCH  14  17
HETATM   17  C1  UNL     1      11.381 -10.775 -12.336  1.00  0.00     0.120 C 
HETATM   18  N1  UNL     1      10.932 -11.736 -13.042  1.00  0.00    -0.387 N 
ATOM     19  H12 UNL     1      10.478 -11.534 -13.933  1.00  0.00     0.157 HD
ATOM     20  H11 UNL     1      11.024 -12.700 -12.722  1.00  0.00     0.157 HD
HETATM   21  N2  UNL     1      11.254  -9.445 -12.778  1.00  0.00    -0.082 NA
ENDBRANCH  14  17
ENDBRANCH  10  11
ENDBRANCH   9  10
ENDBRANCH   8   9
BRANCH   8  22
HETATM   22  O2  UNL     1      16.230 -12.921  -5.105  1.00  0.00    -0.388 OA
ATOM     23  H2  UNL     1      17.175 -12.966  -5.185  1.00  0.00     0.210 HD
ENDBRANCH   8  22
ENDBRANCH   7   8
ENDBRANCH   1   7
BRANCH   4  24
HETATM   24  C12 UNL     1      16.845  -5.835  -5.535  1.00  0.00    -0.027 A 
HETATM   25  C13 UNL     1      17.121  -6.035  -4.202  1.00  0.00     0.010 A 
HETATM   26  C14 UNL     1      18.019  -5.248  -3.497  1.00  0.00     0.001 A 
HETATM   27  C15 UNL     1      18.650  -4.228  -4.164  1.00  0.00     0.002 A 
HETATM   28  C16 UNL     1      18.375  -4.028  -5.484  1.00  0.00     0.030 A 
HETATM   29  C17 UNL     1      17.464  -4.825  -6.206  1.00  0.00     0.036 A 
BRANCH  29  30
HETATM   30  N4  UNL     1      17.256  -4.484  -7.577  1.00  0.00    -0.380 N 
HETATM   31  C18 UNL     1      18.366  -4.179  -8.443  1.00  0.00     0.123 C 
HETATM   32  C19 UNL     1      18.271  -4.924  -9.761  1.00  0.00     0.020 C 
HETATM   33  C20 UNL     1      17.184  -5.973  -9.731  1.00  0.00     0.003 C 
HETATM   34  C21 UNL     1      15.837  -5.416  -9.333  1.00  0.00     0.020 C 
HETATM   35  C22 UNL     1      15.929  -4.460  -8.163  1.00  0.00     0.123 C 
ENDBRANCH  29  30
ENDBRANCH   4  24
TORSDOF 9
ENDMDL
MODEL 3
REMARK VINA RESULT: -8.181933713      2.105      3.248
REMARK  9 active torsions:
REMARK  status: ('A' for Active; 'I' for Inactive)
REMARK    1  A    between atoms: C1_4  and  C2_6 
REMARK    2  A    between atoms: C5_9  and  O1_10 
REMARK    3  A    between atoms: O1_10  and  C6_11 
REMARK    4  A    between atoms: C6_11  and  C7_12 
REMARK    5  A    between atoms: C7_12  and  O2_13 
REMARK    6  A    between atoms: C7_12  and  C8_15 
REMARK    7  A    between atoms: C8_15  and  N3_16 
REMARK    8  A    between atoms: C11_19  and  C12_20 
REMARK    9  A    between atoms: C17_25  and  N4_26 
ROOT
HETATM    1  N3  UNL     1      15.466  -8.484  -4.981  1.00  0.00    -0.391 N 
HETATM    2  C9  UNL     1      16.803  -8.274  -5.405  1.00  0.00     0.122 C 
HETATM    3  C10 UNL     1      17.083  -6.803  -5.571  1.00  0.00     0.029 C 
HETATM    4  C11 UNL     1      16.107  -6.042  -6.391  1.00  0.00     0.024 C 
HETATM    5  C23 UNL     1      14.694  -6.562  -6.183  1.00  0.00     0.029 C 
HETATM    6  C24 UNL     1      14.677  -7.313  -4.845  1.00  0.00     0.122 C 
ENDROOT
BRANCH   1   7
HETATM    7  C8  UNL     1      15.116  -9.600  -4.240  1.00  0.00     0.091 C 
BRANCH   7   8
HETATM    8  C7  UNL     1      15.485 -10.957  -4.707  1.00  0.00     0.180 C 
BRANCH   8   9
HETATM    9  C6  UNL     1      14.667 -11.549  -5.800  1.00  0.00     0.212 C 
BRANCH   9  10
HETATM   10  O1  UNL     1      14.759 -11.022  -7.051  1.00  0.00    -0.348 OA
BRANCH  10  11
HETATM   11  C5  UNL     1      13.982 -10.962  -8.150  1.00  0.00     0.068 A 
HETATM   12  C4  UNL     1      13.490  -9.812  -8.757  1.00  0.00     0.037 A 
HETATM   13  C3  UNL     1      12.700  -9.871  -9.882  1.00  0.00     0.017 A 
HETATM   14  C2  UNL     1      12.373 -11.082 -10.439  1.00  0.00     0.005 A 
HETATM   15  C26 UNL     1      12.857 -12.234  -9.844  1.00  0.00     0.017 A 
HETATM   16  C25 UNL     1      13.639 -12.195  -8.733  1.00  0.00     0.037 A 
BRANCH  14  17
HETATM   17  C1  UNL     1      11.539 -11.152 -11.626  1.00  0.00     0.120 C 
HETATM   18  N1  UNL     1      10.882 -12.216 -11.866  1.00  0.00    -0.387 N 
ATOM     19  H12 UNL     1      10.296 -12.266 -12.700  1.00  0.00     0.157 HD
ATOM     20  H11 UNL     1      10.937 -13.013 -11.232  1.00  0.00     0.157 HD
HETATM   21  N2  UNL     1      11.463 -10.052 -12.500  1.00  0.00    -0.082 NA
ENDBRANCH  14  17
ENDBRANCH  10  11
ENDBRANCH   9  10
ENDBRANCH   8   9
BRANCH   8  22
HETATM   22  O2  UNL     1      15.568 -11.906  -3.668  1.00  0.00    -0.388 OA
ATOM     23  H2  UNL     1      16.342 -11.707  -3.154  1.00  0.00     0.210 HD
ENDBRANCH   8  22
ENDBRANCH   7   8
ENDBRANCH   1   7
BRANCH   4  24
HETATM   24  C12 UNL     1      16.424  -5.953  -7.841  1.00  0.00    -0.027 A 
HETATM   25  C13 UNL     1      15.978  -6.933  -8.697  1.00  0.00     0.010 A 
HETATM   26  C14 UNL     1      16.219  -6.902 -10.062  1.00  0.00     0.001 A 
HETATM   27  C15 UNL     1      16.935  -5.847 -10.570  1.00  0.00     0.002 A 
HETATM   28  C16 UNL     1      17.378  -4.877  -9.723  1.00  0.00     0.030 A 
HETATM   29  C17 UNL     1      17.137  -4.902  -8.334  1.00  0.00     0.036 A 
BRANCH  29  30
HETATM   30  N4  UNL     1      17.683  -3.831  -7.565  1.00  0.00    -0.380 N 
HETATM   31  C18 UNL     1      18.933  -3.982  -6.865  1.00  0.00     0.123 C 
HETATM   32  C19 UNL     1      19.861  -2.808  -7.114  1.00  0.00     0.020 C 
HETATM   33  C20 UNL     1      19.346  -1.915  -8.218  1.00  0.00     0.003 C 
HETATM   34  C21 UNL     1      17.932  -1.436  -7.977  1.00  0.00     0.020 C 
HETATM   35  C22 UNL     1      17.024  -2.541  -7.481  1.00  0.00     0.123 C 
ENDBRANCH  29  30
ENDBRANCH   4  24
TORSDOF 9
ENDMDL
MODEL 4
REMARK VINA RESULT: -8.157119048      0.998      1.527
REMARK  9 active torsions:
REMARK  status: ('A' for Active; 'I' for Inactive)
REMARK    1  A    between atoms: C1_4  and  C2_6 
REMARK    2  A    between atoms: C5_9  and  O1_10 
REMARK    3  A    between atoms: O1_10  and  C6_11 
REMARK    4  A    between atoms: C6_11  and  C7_12 
REMARK    5  A    between atoms: C7_12  and  O2_13 
REMARK    6  A    between atoms: C7_12  and  C8_15 
REMARK    7  A    between atoms: C8_15  and  N3_16 
REMARK    8  A    between atoms: C11_19  and  C12_20 
REMARK    9  A    between atoms: C17_25  and  N4_26 
ROOT
HETATM    1  N3  UNL     1      15.490  -9.572  -5.203  1.00  0.00    -0.391 N 
HETATM    2  C9  UNL     1      16.767  -9.266  -5.738  1.00  0.00     0.122 C 
HETATM    3  C10 UNL     1      17.328  -8.025  -5.094  1.00  0.00     0.029 C 
HETATM    4  C11 UNL     1      16.431  -6.841  -5.066  1.00  0.00     0.024 C 
HETATM    5  C23 UNL     1      14.984  -7.256  -4.861  1.00  0.00     0.029 C 
HETATM    6  C24 UNL     1      14.996  -8.659  -4.237  1.00  0.00     0.122 C 
ENDROOT
BRANCH   1   7
HETATM    7  C8  UNL     1      15.018 -10.873  -5.176  1.00  0.00     0.091 C 
BRANCH   7   8
HETATM    8  C7  UNL     1      15.718 -11.942  -5.927  1.00  0.00     0.180 C 
BRANCH   8   9
HETATM    9  C6  UNL     1      15.028 -12.506  -7.117  1.00  0.00     0.212 C 
BRANCH   9  10
HETATM   10  O1  UNL     1      13.833 -11.978  -7.497  1.00  0.00    -0.348 OA
BRANCH  10  11
HETATM   11  C5  UNL     1      13.259 -11.578  -8.648  1.00  0.00     0.068 A 
HETATM   12  C4  UNL     1      13.089 -10.267  -9.080  1.00  0.00     0.037 A 
HETATM   13  C3  UNL     1      12.484  -9.974 -10.280  1.00  0.00     0.017 A 
HETATM   14  C2  UNL     1      12.026 -10.982 -11.091  1.00  0.00     0.005 A 
HETATM   15  C26 UNL     1      12.189 -12.291 -10.673  1.00  0.00     0.017 A 
HETATM   16  C25 UNL     1      12.784 -12.598  -9.491  1.00  0.00     0.037 A 
BRANCH  14  17
HETATM   17  C1  UNL     1      11.386 -10.680 -12.359  1.00  0.00     0.120 C 
HETATM   18  N1  UNL     1      10.918 -11.632 -13.065  1.00  0.00    -0.387 N 
ATOM     19  H12 UNL     1      10.468 -11.420 -13.956  1.00  0.00     0.157 HD
ATOM     20  H11 UNL     1      10.990 -12.597 -12.745  1.00  0.00     0.157 HD
HETATM   21  N2  UNL     1      11.287  -9.348 -12.801  1.00  0.00    -0.082 NA
ENDBRANCH  14  17
ENDBRANCH  10  11
ENDBRANCH   9  10
ENDBRANCH   8   9
BRANCH   8  22
HETATM   22  O2  UNL     1      16.133 -13.019  -5.117  1.00  0.00    -0.388 OA
ATOM     23  H2  UNL     1      16.993 -13.292  -5.414  1.00  0.00     0.210 HD
ENDBRANCH   8  22
ENDBRANCH   7   8
ENDBRANCH   1   7
BRANCH   4  24
HETATM   24  C12 UNL     1      16.552  -5.922  -6.229  1.00  0.00    -0.027 A 
HETATM   25  C13 UNL     1      15.886  -6.211  -7.398  1.00  0.00     0.010 A 
HETATM   26  C14 UNL     1      15.938  -5.388  -8.513  1.00  0.00     0.001 A 
HETATM   27  C15 UNL     1      16.688  -4.241  -8.438  1.00  0.00     0.002 A 
HETATM   28  C16 UNL     1      17.349  -3.955  -7.281  1.00  0.00     0.030 A 
HETATM   29  C17 UNL     1      17.301  -4.787  -6.145  1.00  0.00     0.036 A 
BRANCH  29  30
HETATM   30  N4  UNL     1      18.064  -4.375  -5.011  1.00  0.00    -0.380 N 
HETATM   31  C18 UNL     1      19.291  -3.638  -5.170  1.00  0.00     0.123 C 
HETATM   32  C19 UNL     1      19.341  -2.427  -4.258  1.00  0.00     0.020 C 
HETATM   33  C20 UNL     1      18.003  -2.164  -3.607  1.00  0.00     0.003 C 
HETATM   34  C21 UNL     1      17.460  -3.366  -2.870  1.00  0.00     0.020 C 
HETATM   35  C22 UNL     1      17.623  -4.650  -3.656  1.00  0.00     0.123 C 
ENDBRANCH  29  30
ENDBRANCH   4  24
TORSDOF 9
ENDMDL
MODEL 5
REMARK VINA RESULT: -8.138751379      3.313      5.463
REMARK  9 active torsions:
REMARK  status: ('A' for Active; 'I' for Inactive)
REMARK    1  A    between atoms: C1_4  and  C2_6 
REMARK    2  A    between atoms: C5_9  and  O1_10 
REMARK    3  A    between atoms: O1_10  and  C6_11 
REMARK    4  A    between atoms: C6_11  and  C7_12 
REMARK    5  A    between atoms: C7_12  and  O2_13 
REMARK    6  A    between atoms: C7_12  and  C8_15 
REMARK    7  A    between atoms: C8_15  and  N3_16 
REMARK    8  A    between atoms: C11_19  and  C12_20 
REMARK    9  A    between atoms: C17_25  and  N4_26 
ROOT
HETATM    1  N3  UNL     1      15.863  -6.138  -7.219  1.00  0.00    -0.391 N 
HETATM    2  C9  UNL     1      15.788  -5.910  -8.616  1.00  0.00     0.122 C 
HETATM    3  C10 UNL     1      17.108  -5.409  -9.144  1.00  0.00     0.029 C 
HETATM    4  C11 UNL     1      17.706  -4.260  -8.418  1.00  0.00     0.024 C 
HETATM    5  C23 UNL     1      17.432  -4.352  -6.926  1.00  0.00     0.029 C 
HETATM    6  C24 UNL     1      17.106  -5.819  -6.613  1.00  0.00     0.122 C 
ENDROOT
BRANCH   1   7
HETATM    7  C8  UNL     1      15.056  -7.078  -6.601  1.00  0.00     0.091 C 
BRANCH   7   8
HETATM    8  C7  UNL     1      15.638  -8.333  -6.068  1.00  0.00     0.180 C 
BRANCH   8   9
HETATM    9  C6  UNL     1      15.828  -9.457  -7.023  1.00  0.00     0.212 C 
BRANCH   9  10
HETATM   10  O1  UNL     1      14.773 -10.269  -7.303  1.00  0.00    -0.348 OA
BRANCH  10  11
HETATM   11  C5  UNL     1      13.974 -10.509  -8.361  1.00  0.00     0.068 A 
HETATM   12  C4  UNL     1      13.285  -9.564  -9.114  1.00  0.00     0.037 A 
HETATM   13  C3  UNL     1      12.492  -9.926 -10.178  1.00  0.00     0.017 A 
HETATM   14  C2  UNL     1      12.359 -11.246 -10.528  1.00  0.00     0.005 A 
HETATM   15  C26 UNL     1      13.040 -12.197  -9.787  1.00  0.00     0.017 A 
HETATM   16  C25 UNL     1      13.827 -11.858  -8.733  1.00  0.00     0.037 A 
BRANCH  14  17
HETATM   17  C1  UNL     1      11.524 -11.636 -11.650  1.00  0.00     0.120 C 
HETATM   18  N1  UNL     1      10.273 -11.794 -11.472  1.00  0.00    -0.387 N 
ATOM     19  H12 UNL     1       9.685 -12.067 -12.261  1.00  0.00     0.157 HD
ATOM     20  H11 UNL     1       9.858 -11.648 -10.552  1.00  0.00     0.157 HD
HETATM   21  N2  UNL     1      12.097 -11.837 -12.920  1.00  0.00    -0.082 NA
ENDBRANCH  14  17
ENDBRANCH  10  11
ENDBRANCH   9  10
ENDBRANCH   8   9
BRANCH   8  22
HETATM   22  O2  UNL     1      14.956  -8.834  -4.941  1.00  0.00    -0.388 OA
ATOM     23  H2  UNL     1      14.635  -8.093  -4.442  1.00  0.00     0.210 HD
ENDBRANCH   8  22
ENDBRANCH   7   8
ENDBRANCH   1   7
BRANCH   4  24
HETATM   24  C12 UNL     1      17.337  -2.915  -8.936  1.00  0.00    -0.027 A 
HETATM   25  C13 UNL     1      16.275  -2.239  -8.379  1.00  0.00     0.010 A 
HETATM   26  C14 UNL     1      15.890  -0.975  -8.798  1.00  0.00     0.001 A 
HETATM   27  C15 UNL     1      16.601  -0.383  -9.812  1.00  0.00     0.002 A 
HETATM   28  C16 UNL     1      17.651  -1.053 -10.365  1.00  0.00     0.030 A 
HETATM   29  C17 UNL     1      18.048  -2.338  -9.943  1.00  0.00     0.036 A 
BRANCH  29  30
HETATM   30  N4  UNL     1      19.152  -2.929 -10.630  1.00  0.00    -0.380 N 
HETATM   31  C18 UNL     1      18.956  -3.670 -11.850  1.00  0.00     0.123 C 
HETATM   32  C19 UNL     1      19.938  -3.248 -12.926  1.00  0.00     0.020 C 
HETATM   33  C20 UNL     1      20.694  -2.000 -12.533  1.00  0.00     0.003 C 
HETATM   34  C21 UNL     1      21.389  -2.129 -11.197  1.00  0.00     0.020 C 
HETATM   35  C22 UNL     1      20.513  -2.784 -10.149  1.00  0.00     0.123 C 
ENDBRANCH  29  30
ENDBRANCH   4  24
TORSDOF 9
ENDMDL
