MODEL 1
REMARK VINA RESULT: -7.303503082      0.000      0.000
REMARK  6 active torsions:
REMARK  status: ('A' for Active; 'I' for Inactive)
REMARK    1  A    between atoms: N1_2  and  C3_4 
REMARK    2  A    between atoms: C3_4  and  C4_5 
REMARK    3  A    between atoms: C4_5  and  C5_6 
REMARK    4  A    between atoms: C5_6  and  N2_7 
REMARK       I    between atoms: N2_7  and  C6_9 
REMARK    5  A    between atoms: C6_9  and  C7_11 
REMARK    6  A    between atoms: C17_24  and  C18_25 
ROOT
HETATM    1  C7  UNL     1     -12.327   6.784   0.138  1.00  0.00     0.078 C 
HETATM    2  C8  UNL     1     -12.757   7.468  -1.081  1.00  0.00     0.014 C 
HETATM    3  C9  UNL     1     -12.956   6.731  -2.346  1.00  0.00     0.001 C 
HETATM    4  C10 UNL     1     -11.703   6.388  -3.098  1.00  0.00     0.000 C 
HETATM    5  C11 UNL     1     -11.626   6.744  -4.530  1.00  0.00     0.000 C 
HETATM    6  C12 UNL     1     -10.132   6.937  -4.859  1.00  0.00     0.000 C 
HETATM    7  C13 UNL     1      -9.246   5.900  -4.282  1.00  0.00     0.000 C 
HETATM    8  C14 UNL     1      -7.939   6.433  -3.700  1.00  0.00     0.009 C 
HETATM    9  C15 UNL     1      -7.884   6.242  -2.173  1.00  0.00     0.103 C 
HETATM   10  C16 UNL     1      -8.084   7.562  -1.511  1.00  0.00     0.217 C 
HETATM   11  O2  UNL     1      -7.344   8.486  -2.017  1.00  0.00    -0.274 OA
HETATM   12  N3  UNL     1      -8.963   7.847  -0.449  1.00  0.00    -0.356 N 
ATOM     13  H3  UNL     1      -9.623   8.602  -0.638  1.00  0.00     0.162 HD
HETATM   14  C17 UNL     1      -9.090   7.267   0.837  1.00  0.00     0.094 C 
HETATM   15  C19 UNL     1     -10.043   6.207   1.095  1.00  0.00     0.027 C 
HETATM   16  C20 UNL     1     -11.166   5.896   0.172  1.00  0.00     0.016 C 
ENDROOT
BRANCH   1  17
HETATM   17  C6  UNL     1     -13.535   6.143   0.778  1.00  0.00     0.221 C 
HETATM   18  N2  UNL     1     -13.753   4.774   0.894  1.00  0.00    -0.360 N 
ATOM     19  H2  UNL     1     -13.054   4.130   0.523  1.00  0.00     0.162 HD
HETATM   20  O1  UNL     1     -14.407   6.943   1.242  1.00  0.00    -0.273 OA
BRANCH  18  21
HETATM   21  C5  UNL     1     -14.937   4.233   1.525  1.00  0.00     0.128 C 
BRANCH  21  22
HETATM   22  C4  UNL     1     -14.676   2.966   2.307  1.00  0.00     0.064 C 
BRANCH  22  23
HETATM   23  C3  UNL     1     -13.343   3.031   3.028  1.00  0.00     0.058 C 
BRANCH  23  24
HETATM   24  N1  UNL     1     -13.366   2.443   4.306  1.00  0.00    -0.402 N 
HETATM   25  C1  UNL     1     -14.609   2.112   4.885  1.00  0.00     0.148 C 
HETATM   26  C2  UNL     1     -12.236   2.571   5.143  1.00  0.00     0.148 C 
ENDBRANCH  23  24
ENDBRANCH  22  23
ENDBRANCH  21  22
ENDBRANCH  18  21
ENDBRANCH   1  17
BRANCH  14  27
HETATM   27  C18 UNL     1      -7.712   6.790   1.360  1.00  0.00     0.111 C 
HETATM   28  S1  UNL     1      -6.841   8.189   2.106  1.00  0.00    -0.096 SA
ENDBRANCH  14  27
TORSDOF 6
ENDMDL
MODEL 2
REMARK VINA RESULT: -6.462345140      2.955      4.820
REMARK  6 active torsions:
REMARK  status: ('A' for Active; 'I' for Inactive)
REMARK    1  A    between atoms: N1_2  and  C3_4 
REMARK    2  A    between atoms: C3_4  and  C4_5 
REMARK    3  A    between atoms: C4_5  and  C5_6 
REMARK    4  A    between atoms: C5_6  and  N2_7 
REMARK       I    between atoms: N2_7  and  C6_9 
REMARK    5  A    between atoms: C6_9  and  C7_11 
REMARK    6  A    between atoms: C17_24  and  C18_25 
ROOT
HETATM    1  C7  UNL     1      -9.481   6.479  -0.915  1.00  0.00     0.078 C 
HETATM    2  C8  UNL     1      -8.211   6.758  -0.248  1.00  0.00     0.014 C 
HETATM    3  C9  UNL     1      -7.720   8.142  -0.077  1.00  0.00     0.001 C 
HETATM    4  C10 UNL     1      -7.103   8.763  -1.296  1.00  0.00     0.000 C 
HETATM    5  C11 UNL     1      -5.768   9.383  -1.167  1.00  0.00     0.000 C 
HETATM    6  C12 UNL     1      -5.106   9.303  -2.557  1.00  0.00     0.000 C 
HETATM    7  C13 UNL     1      -6.006   9.658  -3.679  1.00  0.00     0.000 C 
HETATM    8  C14 UNL     1      -5.877   8.759  -4.906  1.00  0.00     0.009 C 
HETATM    9  C15 UNL     1      -7.160   7.940  -5.140  1.00  0.00     0.103 C 
HETATM   10  C16 UNL     1      -6.909   6.524  -4.752  1.00  0.00     0.217 C 
HETATM   11  O2  UNL     1      -5.815   6.061  -5.247  1.00  0.00    -0.274 OA
HETATM   12  N3  UNL     1      -7.728   5.717  -3.938  1.00  0.00    -0.356 N 
ATOM     13  H3  UNL     1      -7.253   5.315  -3.130  1.00  0.00     0.162 HD
HETATM   14  C17 UNL     1      -9.095   5.366  -4.049  1.00  0.00     0.094 C 
HETATM   15  C19 UNL     1     -10.123   6.110  -3.349  1.00  0.00     0.027 C 
HETATM   16  C20 UNL     1      -9.818   7.035  -2.225  1.00  0.00     0.016 C 
ENDROOT
BRANCH   1  17
HETATM   17  C6  UNL     1     -10.598   6.681   0.078  1.00  0.00     0.221 C 
HETATM   18  N2  UNL     1     -11.845   7.227  -0.212  1.00  0.00    -0.360 N 
ATOM     19  H2  UNL     1     -12.043   7.522  -1.168  1.00  0.00     0.162 HD
HETATM   20  O1  UNL     1     -10.355   6.315   1.271  1.00  0.00    -0.273 OA
BRANCH  18  21
HETATM   21  C5  UNL     1     -12.870   7.388   0.795  1.00  0.00     0.128 C 
BRANCH  21  22
HETATM   22  C4  UNL     1     -14.113   6.573   0.525  1.00  0.00     0.064 C 
BRANCH  22  23
HETATM   23  C3  UNL     1     -13.764   5.215  -0.055  1.00  0.00     0.058 C 
BRANCH  23  24
HETATM   24  N1  UNL     1     -13.848   4.167   0.881  1.00  0.00    -0.402 N 
HETATM   25  C1  UNL     1     -15.089   3.890   1.491  1.00  0.00     0.148 C 
HETATM   26  C2  UNL     1     -12.665   3.698   1.497  1.00  0.00     0.148 C 
ENDBRANCH  23  24
ENDBRANCH  22  23
ENDBRANCH  21  22
ENDBRANCH  18  21
ENDBRANCH   1  17
BRANCH  14  27
HETATM   27  C18 UNL     1      -9.519   5.277  -5.536  1.00  0.00     0.111 C 
HETATM   28  S1  UNL     1     -11.142   6.050  -5.739  1.00  0.00    -0.096 SA
ENDBRANCH  14  27
TORSDOF 6
ENDMDL
MODEL 3
REMARK VINA RESULT: -6.429885303      3.575      6.882
REMARK  6 active torsions:
REMARK  status: ('A' for Active; 'I' for Inactive)
REMARK    1  A    between atoms: N1_2  and  C3_4 
REMARK    2  A    between atoms: C3_4  and  C4_5 
REMARK    3  A    between atoms: C4_5  and  C5_6 
REMARK    4  A    between atoms: C5_6  and  N2_7 
REMARK       I    between atoms: N2_7  and  C6_9 
REMARK    5  A    between atoms: C6_9  and  C7_11 
REMARK    6  A    between atoms: C17_24  and  C18_25 
ROOT
HETATM    1  C7  UNL     1     -13.211   8.264  -2.364  1.00  0.00     0.078 C 
HETATM    2  C8  UNL     1     -12.284   9.394  -2.323  1.00  0.00     0.014 C 
HETATM    3  C9  UNL     1     -11.003   9.364  -3.061  1.00  0.00     0.001 C 
HETATM    4  C10 UNL     1      -9.906   8.567  -2.418  1.00  0.00     0.000 C 
HETATM    5  C11 UNL     1      -8.588   9.210  -2.236  1.00  0.00     0.000 C 
HETATM    6  C12 UNL     1      -7.924   8.525  -1.025  1.00  0.00     0.000 C 
HETATM    7  C13 UNL     1      -8.062   7.050  -1.013  1.00  0.00     0.000 C 
HETATM    8  C14 UNL     1      -8.372   6.453   0.358  1.00  0.00     0.009 C 
HETATM    9  C15 UNL     1      -9.775   5.819   0.391  1.00  0.00     0.103 C 
HETATM   10  C16 UNL     1     -10.686   6.700   1.173  1.00  0.00     0.217 C 
HETATM   11  O2  UNL     1     -10.177   7.065   2.298  1.00  0.00    -0.274 OA
HETATM   12  N3  UNL     1     -11.972   7.130   0.794  1.00  0.00    -0.356 N 
ATOM     13  H3  UNL     1     -12.095   8.143   0.792  1.00  0.00     0.162 HD
HETATM   14  C17 UNL     1     -13.125   6.400   0.415  1.00  0.00     0.094 C 
HETATM   15  C19 UNL     1     -13.430   6.143  -0.978  1.00  0.00     0.027 C 
HETATM   16  C20 UNL     1     -12.788   6.892  -2.090  1.00  0.00     0.016 C 
ENDROOT
BRANCH   1  17
HETATM   17  C6  UNL     1     -14.018   8.353  -3.636  1.00  0.00     0.221 C 
HETATM   18  N2  UNL     1     -13.893   7.503  -4.730  1.00  0.00    -0.360 N 
ATOM     19  H2  UNL     1     -13.205   6.751  -4.693  1.00  0.00     0.162 HD
HETATM   20  O1  UNL     1     -14.876   9.290  -3.685  1.00  0.00    -0.273 OA
BRANCH  18  21
HETATM   21  C5  UNL     1     -14.706   7.650  -5.917  1.00  0.00     0.128 C 
BRANCH  21  22
HETATM   22  C4  UNL     1     -13.902   7.685  -7.196  1.00  0.00     0.064 C 
BRANCH  22  23
HETATM   23  C3  UNL     1     -12.414   7.596  -6.912  1.00  0.00     0.058 C 
BRANCH  23  24
HETATM   24  N1  UNL     1     -11.812   6.434  -7.431  1.00  0.00    -0.402 N 
HETATM   25  C1  UNL     1     -12.058   6.076  -8.772  1.00  0.00     0.148 C 
HETATM   26  C2  UNL     1     -11.336   5.449  -6.537  1.00  0.00     0.148 C 
ENDBRANCH  23  24
ENDBRANCH  22  23
ENDBRANCH  21  22
ENDBRANCH  18  21
ENDBRANCH   1  17
BRANCH  14  27
HETATM   27  C18 UNL     1     -13.183   5.044   1.161  1.00  0.00     0.111 C 
HETATM   28  S1  UNL     1     -14.883   4.424   1.138  1.00  0.00    -0.096 SA
ENDBRANCH  14  27
TORSDOF 6
ENDMDL
MODEL 4
REMARK VINA RESULT: -6.364917097      3.643      6.499
REMARK  6 active torsions:
REMARK  status: ('A' for Active; 'I' for Inactive)
REMARK    1  A    between atoms: N1_2  and  C3_4 
REMARK    2  A    between atoms: C3_4  and  C4_5 
REMARK    3  A    between atoms: C4_5  and  C5_6 
REMARK    4  A    between atoms: C5_6  and  N2_7 
REMARK       I    between atoms: N2_7  and  C6_9 
REMARK    5  A    between atoms: C6_9  and  C7_11 
REMARK    6  A    between atoms: C17_24  and  C18_25 
ROOT
HETATM    1  C7  UNL     1      -9.305   6.746   1.025  1.00  0.00     0.078 C 
HETATM    2  C8  UNL     1      -8.367   6.795  -0.095  1.00  0.00     0.014 C 
HETATM    3  C9  UNL     1      -7.929   8.082  -0.675  1.00  0.00     0.001 C 
HETATM    4  C10 UNL     1      -8.912   8.743  -1.597  1.00  0.00     0.000 C 
HETATM    5  C11 UNL     1      -8.440   9.174  -2.930  1.00  0.00     0.000 C 
HETATM    6  C12 UNL     1      -9.668   9.154  -3.862  1.00  0.00     0.000 C 
HETATM    7  C13 UNL     1     -10.894   9.732  -3.262  1.00  0.00     0.000 C 
HETATM    8  C14 UNL     1     -12.174   8.954  -3.558  1.00  0.00     0.009 C 
HETATM    9  C15 UNL     1     -12.762   8.330  -2.279  1.00  0.00     0.103 C 
HETATM   10  C16 UNL     1     -12.512   6.862  -2.297  1.00  0.00     0.217 C 
HETATM   11  O2  UNL     1     -12.833   6.318  -3.419  1.00  0.00    -0.274 OA
HETATM   12  N3  UNL     1     -11.987   6.084  -1.247  1.00  0.00    -0.356 N 
ATOM     13  H3  UNL     1     -11.157   5.545  -1.495  1.00  0.00     0.162 HD
HETATM   14  C17 UNL     1     -12.413   5.920   0.094  1.00  0.00     0.094 C 
HETATM   15  C19 UNL     1     -11.844   6.711   1.167  1.00  0.00     0.027 C 
HETATM   16  C20 UNL     1     -10.575   7.471   1.017  1.00  0.00     0.016 C 
ENDROOT
BRANCH   1  17
HETATM   17  C6  UNL     1      -8.538   6.984   2.302  1.00  0.00     0.221 C 
HETATM   18  N2  UNL     1      -8.991   7.729   3.387  1.00  0.00    -0.360 N 
ATOM     19  H2  UNL     1      -9.915   8.159   3.338  1.00  0.00     0.162 HD
HETATM   20  O1  UNL     1      -7.386   6.450   2.367  1.00  0.00    -0.273 OA
BRANCH  18  21
HETATM   21  C5  UNL     1      -8.198   7.912   4.582  1.00  0.00     0.128 C 
BRANCH  21  22
HETATM   22  C4  UNL     1      -7.473   9.238   4.626  1.00  0.00     0.064 C 
BRANCH  22  23
HETATM   23  C3  UNL     1      -5.973   9.048   4.509  1.00  0.00     0.058 C 
BRANCH  23  24
HETATM   24  N1  UNL     1      -5.485   9.226   3.200  1.00  0.00    -0.402 N 
HETATM   25  C1  UNL     1      -6.241   9.987   2.285  1.00  0.00     0.148 C 
HETATM   26  C2  UNL     1      -4.508   8.334   2.703  1.00  0.00     0.148 C 
ENDBRANCH  23  24
ENDBRANCH  22  23
ENDBRANCH  21  22
ENDBRANCH  18  21
ENDBRANCH   1  17
BRANCH  14  27
HETATM   27  C18 UNL     1     -13.954   6.038   0.198  1.00  0.00     0.111 C 
HETATM   28  S1  UNL     1     -14.597   4.629   1.134  1.00  0.00    -0.096 SA
ENDBRANCH  14  27
TORSDOF 6
ENDMDL
MODEL 5
REMARK VINA RESULT: -6.352320435      4.497      7.043
REMARK  6 active torsions:
REMARK  status: ('A' for Active; 'I' for Inactive)
REMARK    1  A    between atoms: N1_2  and  C3_4 
REMARK    2  A    between atoms: C3_4  and  C4_5 
REMARK    3  A    between atoms: C4_5  and  C5_6 
REMARK    4  A    between atoms: C5_6  and  N2_7 
REMARK       I    between atoms: N2_7  and  C6_9 
REMARK    5  A    between atoms: C6_9  and  C7_11 
REMARK    6  A    between atoms: C17_24  and  C18_25 
ROOT
HETATM    1  C7  UNL     1     -13.217   8.004  -2.454  1.00  0.00     0.078 C 
HETATM    2  C8  UNL     1     -12.332   9.168  -2.445  1.00  0.00     0.014 C 
HETATM    3  C9  UNL     1     -11.030   9.150  -3.145  1.00  0.00     0.001 C 
HETATM    4  C10 UNL     1      -9.925   8.427  -2.433  1.00  0.00     0.000 C 
HETATM    5  C11 UNL     1      -8.636   9.127  -2.248  1.00  0.00     0.000 C 
HETATM    6  C12 UNL     1      -7.984   8.526  -0.986  1.00  0.00     0.000 C 
HETATM    7  C13 UNL     1      -8.069   7.049  -0.904  1.00  0.00     0.000 C 
HETATM    8  C14 UNL     1      -8.397   6.509   0.486  1.00  0.00     0.009 C 
HETATM    9  C15 UNL     1      -9.777   5.826   0.512  1.00  0.00     0.103 C 
HETATM   10  C16 UNL     1     -10.741   6.710   1.224  1.00  0.00     0.217 C 
HETATM   11  O2  UNL     1     -10.279   7.148   2.343  1.00  0.00    -0.274 OA
HETATM   12  N3  UNL     1     -12.031   7.073   0.789  1.00  0.00    -0.356 N 
ATOM     13  H3  UNL     1     -12.189   8.079   0.733  1.00  0.00     0.162 HD
HETATM   14  C17 UNL     1     -13.145   6.283   0.416  1.00  0.00     0.094 C 
HETATM   15  C19 UNL     1     -13.400   5.947  -0.970  1.00  0.00     0.027 C 
HETATM   16  C20 UNL     1     -12.753   6.663  -2.101  1.00  0.00     0.016 C 
ENDROOT
BRANCH   1  17
HETATM   17  C6  UNL     1     -13.989   8.001  -3.750  1.00  0.00     0.221 C 
HETATM   18  N2  UNL     1     -15.183   8.680  -3.978  1.00  0.00    -0.360 N 
ATOM     19  H2  UNL     1     -15.588   9.231  -3.221  1.00  0.00     0.162 HD
HETATM   20  O1  UNL     1     -13.487   7.315  -4.695  1.00  0.00    -0.273 OA
BRANCH  18  21
HETATM   21  C5  UNL     1     -15.866   8.631  -5.251  1.00  0.00     0.128 C 
BRANCH  21  22
HETATM   22  C4  UNL     1     -17.336   8.297  -5.133  1.00  0.00     0.064 C 
BRANCH  22  23
HETATM   23  C3  UNL     1     -18.197   9.383  -5.748  1.00  0.00     0.058 C 
BRANCH  23  24
HETATM   24  N1  UNL     1     -18.755  10.262  -4.800  1.00  0.00    -0.402 N 
HETATM   25  C1  UNL     1     -20.052  10.005  -4.308  1.00  0.00     0.148 C 
HETATM   26  C2  UNL     1     -18.221  11.563  -4.670  1.00  0.00     0.148 C 
ENDBRANCH  23  24
ENDBRANCH  22  23
ENDBRANCH  21  22
ENDBRANCH  18  21
ENDBRANCH   1  17
BRANCH  14  27
HETATM   27  C18 UNL     1     -13.177   4.963   1.226  1.00  0.00     0.111 C 
HETATM   28  S1  UNL     1     -14.861   4.303   1.224  1.00  0.00    -0.096 SA
ENDBRANCH  14  27
TORSDOF 6
ENDMDL
