MODEL 1
REMARK VINA RESULT: -7.147476104      0.000      0.000
REMARK  7 active torsions:
REMARK  status: ('A' for Active; 'I' for Inactive)
REMARK    1  A    between atoms: O1_2  and  C2_3 
REMARK    2  A    between atoms: C3_4  and  O2_6 
REMARK    3  A    between atoms: C8_11  and  C9_12 
REMARK    4  A    between atoms: C9_12  and  N1_13 
REMARK    5  A    between atoms: C9_12  and  C10_17 
REMARK    6  A    between atoms: N2_22  and  C14_23 
REMARK    7  A    between atoms: C14_23  and  C15_24 
ROOT
HETATM    1  C2  UNL     1      -6.925   7.332  -2.373  1.00  0.00     0.192 C 
HETATM    2  C3  UNL     1      -7.365   6.437  -3.457  1.00  0.00     0.083 C 
HETATM    3  C4  UNL     1      -6.692   5.062  -3.389  1.00  0.00     0.049 C 
HETATM    4  C5  UNL     1      -8.828   6.291  -3.709  1.00  0.00     0.041 C 
HETATM    5  C6  UNL     1      -9.689   6.867  -2.593  1.00  0.00     0.015 C 
HETATM    6  C7  UNL     1      -9.007   6.575  -1.315  1.00  0.00     0.062 C 
HETATM    7  C8  UNL     1      -9.865   6.453  -0.087  1.00  0.00     0.028 C 
HETATM    8  C13 UNL     1      -9.198   7.075   1.085  1.00  0.00     0.272 C 
HETATM    9  O3  UNL     1      -9.835   7.532   2.029  1.00  0.00    -0.266 OA
HETATM   10  N2  UNL     1      -7.777   7.133   1.094  1.00  0.00    -0.221 N 
HETATM   11  O4  UNL     1      -7.099   7.222  -0.056  1.00  0.00    -0.261 OA
HETATM   12  C21 UNL     1      -7.843   7.527  -1.189  1.00  0.00     0.122 C 
HETATM   13  C22 UNL     1      -8.238   8.966  -1.062  1.00  0.00     0.052 C 
ENDROOT
BRANCH   7  14
HETATM   14  C9  UNL     1     -11.307   6.624  -0.203  1.00  0.00     0.221 C 
BRANCH  14  15
HETATM   15  N1  UNL     1     -11.902   5.697   0.814  1.00  0.00    -0.071 N 
ATOM     16  H13 UNL     1     -12.617   5.076   0.435  1.00  0.00     0.275 HD
ATOM     17  H12 UNL     1     -11.263   4.967   1.127  1.00  0.00     0.275 HD
ATOM     18  H11 UNL     1     -12.239   6.298   1.565  1.00  0.00     0.275 HD
ENDBRANCH  14  15
BRANCH  14  19
HETATM   19  C10 UNL     1     -12.015   7.887   0.017  1.00  0.00     0.012 C 
HETATM   20  C11 UNL     1     -12.653   8.213  -1.362  1.00  0.00     0.012 C 
HETATM   21  C12 UNL     1     -13.217   7.853   0.930  1.00  0.00     0.012 C 
ENDBRANCH  14  19
ENDBRANCH   7  14
BRANCH  10  22
HETATM   22  C14 UNL     1      -7.013   7.079   2.322  1.00  0.00     0.164 C 
BRANCH  22  23
HETATM   23  C15 UNL     1      -6.344   8.337   2.738  1.00  0.00     0.006 C 
HETATM   24  C16 UNL     1      -7.032   8.730   4.067  1.00  0.00     0.006 C 
HETATM   25  C17 UNL     1      -6.390   9.933   4.671  1.00  0.00     0.000 C 
HETATM   26  C18 UNL     1      -4.970   9.538   5.065  1.00  0.00     0.000 C 
HETATM   27  C19 UNL     1      -4.240   9.237   3.795  1.00  0.00     0.000 C 
HETATM   28  C20 UNL     1      -4.901   8.051   3.122  1.00  0.00     0.006 C 
ENDBRANCH  22  23
ENDBRANCH  10  22
BRANCH   1  29
HETATM   29  O1  UNL     1      -6.558   8.594  -2.837  1.00  0.00    -0.385 OA
HETATM   30  C1  UNL     1      -5.236   8.908  -2.652  1.00  0.00     0.202 C 
ENDBRANCH   1  29
BRANCH   2  31
HETATM   31  O2  UNL     1      -6.842   6.997  -4.660  1.00  0.00    -0.388 OA
ATOM     32  H2  UNL     1      -6.365   7.775  -4.396  1.00  0.00     0.210 HD
ENDBRANCH   2  31
TORSDOF 7
ENDMDL
MODEL 2
REMARK VINA RESULT: -7.127870647      2.801      5.145
REMARK  7 active torsions:
REMARK  status: ('A' for Active; 'I' for Inactive)
REMARK    1  A    between atoms: O1_2  and  C2_3 
REMARK    2  A    between atoms: C3_4  and  O2_6 
REMARK    3  A    between atoms: C8_11  and  C9_12 
REMARK    4  A    between atoms: C9_12  and  N1_13 
REMARK    5  A    between atoms: C9_12  and  C10_17 
REMARK    6  A    between atoms: N2_22  and  C14_23 
REMARK    7  A    between atoms: C14_23  and  C15_24 
ROOT
HETATM    1  C2  UNL     1      -7.875   7.491  -2.140  1.00  0.00     0.192 C 
HETATM    2  C3  UNL     1      -7.392   6.831  -3.366  1.00  0.00     0.083 C 
HETATM    3  C4  UNL     1      -7.320   5.307  -3.219  1.00  0.00     0.049 C 
HETATM    4  C5  UNL     1      -8.019   7.203  -4.667  1.00  0.00     0.041 C 
HETATM    5  C6  UNL     1      -9.301   8.008  -4.507  1.00  0.00     0.015 C 
HETATM    6  C7  UNL     1     -10.019   7.464  -3.335  1.00  0.00     0.062 C 
HETATM    7  C8  UNL     1     -11.515   7.610  -3.315  1.00  0.00     0.028 C 
HETATM    8  C13 UNL     1     -11.993   7.933  -1.946  1.00  0.00     0.272 C 
HETATM    9  O3  UNL     1     -13.033   8.555  -1.751  1.00  0.00    -0.266 OA
HETATM   10  N2  UNL     1     -11.207   7.500  -0.843  1.00  0.00    -0.221 N 
HETATM   11  O4  UNL     1      -9.880   7.384  -0.966  1.00  0.00    -0.261 OA
HETATM   12  C21 UNL     1      -9.312   7.956  -2.097  1.00  0.00     0.122 C 
HETATM   13  C22 UNL     1      -9.378   9.440  -1.900  1.00  0.00     0.052 C 
ENDROOT
BRANCH   7  14
HETATM   14  C9  UNL     1     -12.184   8.268  -4.429  1.00  0.00     0.221 C 
BRANCH  14  15
HETATM   15  N1  UNL     1     -12.957   7.188  -5.125  1.00  0.00    -0.071 N 
ATOM     16  H13 UNL     1     -12.369   6.466  -5.541  1.00  0.00     0.275 HD
ATOM     17  H12 UNL     1     -13.467   6.575  -4.490  1.00  0.00     0.275 HD
ATOM     18  H11 UNL     1     -13.552   7.670  -5.797  1.00  0.00     0.275 HD
ENDBRANCH  14  15
BRANCH  14  19
HETATM   19  C10 UNL     1     -13.153   9.358  -4.290  1.00  0.00     0.012 C 
HETATM   20  C11 UNL     1     -12.327  10.642  -4.581  1.00  0.00     0.012 C 
HETATM   21  C12 UNL     1     -14.252   9.439  -5.323  1.00  0.00     0.012 C 
ENDBRANCH  14  19
ENDBRANCH   7  14
BRANCH  10  22
HETATM   22  C14 UNL     1     -11.797   7.154   0.433  1.00  0.00     0.164 C 
BRANCH  22  23
HETATM   23  C15 UNL     1     -12.199   5.736   0.611  1.00  0.00     0.006 C 
HETATM   24  C16 UNL     1     -11.220   5.180   1.673  1.00  0.00     0.006 C 
HETATM   25  C17 UNL     1     -11.566   3.776   2.040  1.00  0.00     0.000 C 
HETATM   26  C18 UNL     1     -12.923   3.812   2.737  1.00  0.00     0.000 C 
HETATM   27  C19 UNL     1     -13.918   4.261   1.715  1.00  0.00     0.000 C 
HETATM   28  C20 UNL     1     -13.565   5.667   1.274  1.00  0.00     0.006 C 
ENDBRANCH  22  23
ENDBRANCH  10  22
BRANCH   1  29
HETATM   29  O1  UNL     1      -7.071   8.563  -1.757  1.00  0.00    -0.385 OA
HETATM   30  C1  UNL     1      -6.506   8.437  -0.514  1.00  0.00     0.202 C 
ENDBRANCH   1  29
BRANCH   2  31
HETATM   31  O2  UNL     1      -6.024   7.211  -3.497  1.00  0.00    -0.388 OA
ATOM     32  H2  UNL     1      -5.575   6.447  -3.839  1.00  0.00     0.210 HD
ENDBRANCH   2  31
TORSDOF 7
ENDMDL
MODEL 3
REMARK VINA RESULT: -6.618576719      3.116      5.386
REMARK  7 active torsions:
REMARK  status: ('A' for Active; 'I' for Inactive)
REMARK    1  A    between atoms: O1_2  and  C2_3 
REMARK    2  A    between atoms: C3_4  and  O2_6 
REMARK    3  A    between atoms: C8_11  and  C9_12 
REMARK    4  A    between atoms: C9_12  and  N1_13 
REMARK    5  A    between atoms: C9_12  and  C10_17 
REMARK    6  A    between atoms: N2_22  and  C14_23 
REMARK    7  A    between atoms: C14_23  and  C15_24 
ROOT
HETATM    1  C2  UNL     1      -8.614   6.995   0.662  1.00  0.00     0.192 C 
HETATM    2  C3  UNL     1      -7.814   7.402  -0.507  1.00  0.00     0.083 C 
HETATM    3  C4  UNL     1      -7.186   6.206  -1.230  1.00  0.00     0.049 C 
HETATM    4  C5  UNL     1      -8.421   8.347  -1.489  1.00  0.00     0.041 C 
HETATM    5  C6  UNL     1      -9.921   8.527  -1.300  1.00  0.00     0.015 C 
HETATM    6  C7  UNL     1     -10.478   7.212  -0.921  1.00  0.00     0.062 C 
HETATM    7  C8  UNL     1     -11.915   6.944  -1.274  1.00  0.00     0.028 C 
HETATM    8  C13 UNL     1     -12.594   6.201  -0.183  1.00  0.00     0.272 C 
HETATM    9  O3  UNL     1     -13.804   6.282   0.003  1.00  0.00    -0.266 OA
HETATM   10  N2  UNL     1     -11.801   5.374   0.660  1.00  0.00    -0.221 N 
HETATM   11  O4  UNL     1     -10.523   5.688   0.900  1.00  0.00    -0.261 OA
HETATM   12  C21 UNL     1     -10.118   6.962   0.523  1.00  0.00     0.122 C 
HETATM   13  C22 UNL     1     -10.755   7.913   1.489  1.00  0.00     0.052 C 
ENDROOT
BRANCH   7  14
HETATM   14  C9  UNL     1     -12.684   7.970  -1.964  1.00  0.00     0.221 C 
BRANCH  14  15
HETATM   15  N1  UNL     1     -13.158   8.903  -0.890  1.00  0.00    -0.071 N 
ATOM     16  H13 UNL     1     -13.630   8.434  -0.117  1.00  0.00     0.275 HD
ATOM     17  H12 UNL     1     -12.403   9.311  -0.338  1.00  0.00     0.275 HD
ATOM     18  H11 UNL     1     -13.737   9.593  -1.366  1.00  0.00     0.275 HD
ENDBRANCH  14  15
BRANCH  14  19
HETATM   19  C10 UNL     1     -12.144   8.864  -2.991  1.00  0.00     0.012 C 
HETATM   20  C11 UNL     1     -11.957   7.949  -4.234  1.00  0.00     0.012 C 
HETATM   21  C12 UNL     1     -13.062   9.941  -3.519  1.00  0.00     0.012 C 
ENDBRANCH  14  19
ENDBRANCH   7  14
BRANCH  10  22
HETATM   22  C14 UNL     1     -12.324   4.170   1.269  1.00  0.00     0.164 C 
BRANCH  22  23
HETATM   23  C15 UNL     1     -12.442   4.177   2.749  1.00  0.00     0.006 C 
HETATM   24  C16 UNL     1     -13.485   3.079   3.066  1.00  0.00     0.006 C 
HETATM   25  C17 UNL     1     -13.638   2.892   4.538  1.00  0.00     0.000 C 
HETATM   26  C18 UNL     1     -12.316   2.341   5.064  1.00  0.00     0.000 C 
HETATM   27  C19 UNL     1     -11.293   3.413   4.857  1.00  0.00     0.000 C 
HETATM   28  C20 UNL     1     -11.151   3.672   3.371  1.00  0.00     0.006 C 
ENDBRANCH  22  23
ENDBRANCH  10  22
BRANCH   1  29
HETATM   29  O1  UNL     1      -8.309   7.737   1.802  1.00  0.00    -0.385 OA
HETATM   30  C1  UNL     1      -7.632   7.041   2.771  1.00  0.00     0.202 C 
ENDBRANCH   1  29
BRANCH   2  31
HETATM   31  O2  UNL     1      -6.685   8.096   0.018  1.00  0.00    -0.388 OA
ATOM     32  H2  UNL     1      -5.981   7.459   0.047  1.00  0.00     0.210 HD
ENDBRANCH   2  31
TORSDOF 7
ENDMDL
MODEL 4
REMARK VINA RESULT: -6.416552365      0.976      1.160
REMARK  7 active torsions:
REMARK  status: ('A' for Active; 'I' for Inactive)
REMARK    1  A    between atoms: O1_2  and  C2_3 
REMARK    2  A    between atoms: C3_4  and  O2_6 
REMARK    3  A    between atoms: C8_11  and  C9_12 
REMARK    4  A    between atoms: C9_12  and  N1_13 
REMARK    5  A    between atoms: C9_12  and  C10_17 
REMARK    6  A    between atoms: N2_22  and  C14_23 
REMARK    7  A    between atoms: C14_23  and  C15_24 
ROOT
HETATM    1  C2  UNL     1      -7.216   7.324  -2.154  1.00  0.00     0.192 C 
HETATM    2  C3  UNL     1      -7.921   6.477  -3.132  1.00  0.00     0.083 C 
HETATM    3  C4  UNL     1      -7.336   5.063  -3.210  1.00  0.00     0.049 C 
HETATM    4  C5  UNL     1      -9.411   6.424  -3.083  1.00  0.00     0.041 C 
HETATM    5  C6  UNL     1      -9.991   7.030  -1.813  1.00  0.00     0.015 C 
HETATM    6  C7  UNL     1      -9.085   6.674  -0.701  1.00  0.00     0.062 C 
HETATM    7  C8  UNL     1      -9.685   6.582   0.674  1.00  0.00     0.028 C 
HETATM    8  C13 UNL     1      -8.757   7.141   1.690  1.00  0.00     0.272 C 
HETATM    9  O3  UNL     1      -9.161   7.618   2.746  1.00  0.00    -0.266 OA
HETATM   10  N2  UNL     1      -7.362   7.113   1.412  1.00  0.00    -0.221 N 
HETATM   11  O4  UNL     1      -6.927   7.183   0.149  1.00  0.00    -0.261 OA
HETATM   12  C21 UNL     1      -7.863   7.552  -0.809  1.00  0.00     0.122 C 
HETATM   13  C22 UNL     1      -8.133   9.010  -0.596  1.00  0.00     0.052 C 
ENDROOT
BRANCH   7  14
HETATM   14  C9  UNL     1     -11.106   6.841   0.853  1.00  0.00     0.221 C 
BRANCH  14  15
HETATM   15  N1  UNL     1     -11.262   8.326   0.714  1.00  0.00    -0.071 N 
ATOM     16  H13 UNL     1     -10.543   8.862   1.201  1.00  0.00     0.275 HD
ATOM     17  H12 UNL     1     -11.057   8.674  -0.223  1.00  0.00     0.275 HD
ATOM     18  H11 UNL     1     -12.209   8.530   1.030  1.00  0.00     0.275 HD
ENDBRANCH  14  15
BRANCH  14  19
HETATM   19  C10 UNL     1     -12.164   6.297  -0.002  1.00  0.00     0.012 C 
HETATM   20  C11 UNL     1     -12.728   5.095   0.808  1.00  0.00     0.012 C 
HETATM   21  C12 UNL     1     -13.392   7.152  -0.208  1.00  0.00     0.012 C 
ENDBRANCH  14  19
ENDBRANCH   7  14
BRANCH  10  22
HETATM   22  C14 UNL     1      -6.371   6.991   2.460  1.00  0.00     0.164 C 
BRANCH  22  23
HETATM   23  C15 UNL     1      -5.639   8.230   2.822  1.00  0.00     0.006 C 
HETATM   24  C16 UNL     1      -6.324   8.730   4.116  1.00  0.00     0.006 C 
HETATM   25  C17 UNL     1      -5.625   9.926   4.669  1.00  0.00     0.000 C 
HETATM   26  C18 UNL     1      -4.235   9.474   5.108  1.00  0.00     0.000 C 
HETATM   27  C19 UNL     1      -3.504   9.067   3.868  1.00  0.00     0.000 C 
HETATM   28  C20 UNL     1      -4.221   7.886   3.246  1.00  0.00     0.006 C 
ENDBRANCH  22  23
ENDBRANCH  10  22
BRANCH   1  29
HETATM   29  O1  UNL     1      -6.872   8.570  -2.677  1.00  0.00    -0.385 OA
HETATM   30  C1  UNL     1      -5.523   8.803  -2.753  1.00  0.00     0.202 C 
ENDBRANCH   1  29
BRANCH   2  31
HETATM   31  O2  UNL     1      -7.617   7.026  -4.413  1.00  0.00    -0.388 OA
ATOM     32  H2  UNL     1      -8.423   6.977  -4.913  1.00  0.00     0.210 HD
ENDBRANCH   2  31
TORSDOF 7
ENDMDL
MODEL 5
REMARK VINA RESULT: -6.386714865      3.651      5.293
REMARK  7 active torsions:
REMARK  status: ('A' for Active; 'I' for Inactive)
REMARK    1  A    between atoms: O1_2  and  C2_3 
REMARK    2  A    between atoms: C3_4  and  O2_6 
REMARK    3  A    between atoms: C8_11  and  C9_12 
REMARK    4  A    between atoms: C9_12  and  N1_13 
REMARK    5  A    between atoms: C9_12  and  C10_17 
REMARK    6  A    between atoms: N2_22  and  C14_23 
REMARK    7  A    between atoms: C14_23  and  C15_24 
ROOT
HETATM    1  C2  UNL     1      -7.157   7.314  -3.321  1.00  0.00     0.192 C 
HETATM    2  C3  UNL     1      -6.868   5.960  -3.825  1.00  0.00     0.083 C 
HETATM    3  C4  UNL     1      -6.961   4.896  -2.726  1.00  0.00     0.049 C 
HETATM    4  C5  UNL     1      -7.564   5.499  -5.061  1.00  0.00     0.041 C 
HETATM    5  C6  UNL     1      -8.724   6.397  -5.467  1.00  0.00     0.015 C 
HETATM    6  C7  UNL     1      -9.390   6.845  -4.226  1.00  0.00     0.062 C 
HETATM    7  C8  UNL     1     -10.851   7.189  -4.313  1.00  0.00     0.028 C 
HETATM    8  C13 UNL     1     -11.160   8.380  -3.482  1.00  0.00     0.272 C 
HETATM    9  O3  UNL     1     -12.099   9.127  -3.741  1.00  0.00    -0.266 OA
HETATM   10  N2  UNL     1     -10.332   8.645  -2.356  1.00  0.00    -0.221 N 
HETATM   11  O4  UNL     1      -9.045   8.283  -2.368  1.00  0.00    -0.261 OA
HETATM   12  C21 UNL     1      -8.520   7.904  -3.597  1.00  0.00     0.122 C 
HETATM   13  C22 UNL     1      -8.395   9.158  -4.408  1.00  0.00     0.052 C 
ENDROOT
BRANCH   7  14
HETATM   14  C9  UNL     1     -11.538   7.069  -5.591  1.00  0.00     0.221 C 
BRANCH  14  15
HETATM   15  N1  UNL     1     -12.994   6.946  -5.252  1.00  0.00    -0.071 N 
ATOM     16  H13 UNL     1     -13.312   5.981  -5.151  1.00  0.00     0.275 HD
ATOM     17  H12 UNL     1     -13.221   7.246  -4.304  1.00  0.00     0.275 HD
ATOM     18  H11 UNL     1     -13.487   7.466  -5.976  1.00  0.00     0.275 HD
ENDBRANCH  14  15
BRANCH  14  19
HETATM   19  C10 UNL     1     -11.510   8.083  -6.649  1.00  0.00     0.012 C 
HETATM   20  C11 UNL     1     -11.159   7.282  -7.934  1.00  0.00     0.012 C 
HETATM   21  C12 UNL     1     -12.824   8.729  -7.019  1.00  0.00     0.012 C 
ENDBRANCH  14  19
ENDBRANCH   7  14
BRANCH  10  22
HETATM   22  C14 UNL     1     -10.839   9.290  -1.164  1.00  0.00     0.164 C 
BRANCH  22  23
HETATM   23  C15 UNL     1     -11.300   8.394  -0.074  1.00  0.00     0.006 C 
HETATM   24  C16 UNL     1     -12.760   8.040  -0.444  1.00  0.00     0.006 C 
HETATM   25  C17 UNL     1     -13.334   7.051   0.513  1.00  0.00     0.000 C 
HETATM   26  C18 UNL     1     -12.557   5.749   0.338  1.00  0.00     0.000 C 
HETATM   27  C19 UNL     1     -11.153   6.025   0.774  1.00  0.00     0.000 C 
HETATM   28  C20 UNL     1     -10.554   7.071  -0.144  1.00  0.00     0.006 C 
ENDBRANCH  22  23
ENDBRANCH  10  22
BRANCH   1  29
HETATM   29  O1  UNL     1      -6.202   8.248  -3.720  1.00  0.00    -0.385 OA
HETATM   30  C1  UNL     1      -5.506   8.827  -2.689  1.00  0.00     0.202 C 
ENDBRANCH   1  29
BRANCH   2  31
HETATM   31  O2  UNL     1      -5.483   5.960  -4.164  1.00  0.00    -0.388 OA
ATOM     32  H2  UNL     1      -5.172   6.839  -3.983  1.00  0.00     0.210 HD
ENDBRANCH   2  31
TORSDOF 7
ENDMDL
