MODEL 1
REMARK VINA RESULT: -8.029432404      0.000      0.000
REMARK  6 active torsions:
REMARK  status: ('A' for Active; 'I' for Inactive)
REMARK    1  A    between atoms: C1_2  and  C2_4 
REMARK    2  A    between atoms: C2_4  and  C3_5 
REMARK    3  A    between atoms: C3_5  and  C4_6 
REMARK       I    between atoms: N1_11  and  C9_12 
REMARK    4  A    between atoms: C9_12  and  C10_14 
REMARK    5  A    between atoms: C10_14  and  N2_15 
REMARK    6  A    between atoms: N2_15  and  C11_17 
ROOT
HETATM    1  C4  UNL     1      12.396   6.139   0.403  1.00  0.00     0.087 C 
HETATM    2  C5  UNL     1      12.662   5.236   1.621  1.00  0.00     0.025 C 
HETATM    3  C6  UNL     1      11.861   5.668   2.788  1.00  0.00     0.004 C 
HETATM    4  C7  UNL     1      10.478   6.138   2.561  1.00  0.00     0.020 C 
HETATM    5  C8  UNL     1      10.299   6.898   1.296  1.00  0.00     0.126 C 
HETATM    6  N1  UNL     1      10.974   6.181   0.240  1.00  0.00    -0.346 N 
HETATM    7  C9  UNL     1      10.256   5.615  -0.814  1.00  0.00     0.237 C 
HETATM    8  O3  UNL     1      10.720   5.073  -1.825  1.00  0.00    -0.272 OA
ENDROOT
BRANCH   7   9
HETATM    9  C10 UNL     1       8.744   5.634  -0.762  1.00  0.00     0.218 C 
BRANCH   9  10
HETATM   10  N2  UNL     1       8.135   5.819  -2.029  1.00  0.00    -0.404 N 
ATOM     11  H2  UNL     1       8.398   5.271  -2.848  1.00  0.00     0.154 HD
BRANCH  10  12
HETATM   12  C11 UNL     1       7.124   6.833  -2.073  1.00  0.00     0.027 C 
HETATM   13  C12 UNL     1       7.522   7.714  -3.257  1.00  0.00     0.035 C 
HETATM   14  C13 UNL     1       6.546   8.806  -3.534  1.00  0.00    -0.012 C 
HETATM   15  C14 UNL     1       5.221   8.188  -3.908  1.00  0.00     0.009 C 
HETATM   16  C18 UNL     1       6.419   9.666  -2.322  1.00  0.00     0.009 C 
HETATM   17  C15 UNL     1       4.785   7.343  -2.735  1.00  0.00    -0.012 C 
HETATM   18  C16 UNL     1       4.603   8.274  -1.563  1.00  0.00     0.009 C 
HETATM   19  C20 UNL     1       5.765   6.241  -2.439  1.00  0.00     0.035 C 
HETATM   20  C17 UNL     1       5.967   8.786  -1.173  1.00  0.00    -0.012 C 
HETATM   21  C19 UNL     1       6.957   7.678  -0.870  1.00  0.00     0.035 C 
ENDBRANCH  10  12
ENDBRANCH   9  10
ENDBRANCH   7   9
BRANCH   1  22
HETATM   22  C3  UNL     1      13.187   5.748  -0.768  1.00  0.00     0.036 C 
BRANCH  22  23
HETATM   23  C2  UNL     1      14.184   4.646  -0.511  1.00  0.00     0.115 C 
BRANCH  23  24
HETATM   24  C1  UNL     1      13.971   3.411  -1.279  1.00  0.00     0.172 C 
HETATM   25  O1  UNL     1      12.902   2.746  -0.989  1.00  0.00    -0.648 OA
HETATM   26  O2  UNL     1      14.814   2.950  -2.250  1.00  0.00    -0.648 OA
ENDBRANCH  23  24
ENDBRANCH  22  23
ENDBRANCH   1  22
TORSDOF 6
ENDMDL
MODEL 2
REMARK VINA RESULT: -7.970038707      0.151      1.451
REMARK  6 active torsions:
REMARK  status: ('A' for Active; 'I' for Inactive)
REMARK    1  A    between atoms: C1_2  and  C2_4 
REMARK    2  A    between atoms: C2_4  and  C3_5 
REMARK    3  A    between atoms: C3_5  and  C4_6 
REMARK       I    between atoms: N1_11  and  C9_12 
REMARK    4  A    between atoms: C9_12  and  C10_14 
REMARK    5  A    between atoms: C10_14  and  N2_15 
REMARK    6  A    between atoms: N2_15  and  C11_17 
ROOT
HETATM    1  C4  UNL     1      12.433   6.141   0.408  1.00  0.00     0.087 C 
HETATM    2  C5  UNL     1      12.656   5.197   1.604  1.00  0.00     0.025 C 
HETATM    3  C6  UNL     1      11.915   5.665   2.796  1.00  0.00     0.004 C 
HETATM    4  C7  UNL     1      10.567   6.242   2.609  1.00  0.00     0.020 C 
HETATM    5  C8  UNL     1      10.419   7.038   1.363  1.00  0.00     0.126 C 
HETATM    6  N1  UNL     1      11.015   6.292   0.279  1.00  0.00    -0.346 N 
HETATM    7  C9  UNL     1      10.234   5.803  -0.768  1.00  0.00     0.237 C 
HETATM    8  O3  UNL     1      10.634   5.247  -1.799  1.00  0.00    -0.272 OA
ENDROOT
BRANCH   7   9
HETATM    9  C10 UNL     1       8.729   5.935  -0.681  1.00  0.00     0.218 C 
BRANCH   9  10
HETATM   10  N2  UNL     1       8.069   5.726  -1.919  1.00  0.00    -0.404 N 
ATOM     11  H2  UNL     1       8.291   4.942  -2.532  1.00  0.00     0.154 HD
BRANCH  10  12
HETATM   12  C11 UNL     1       7.068   6.698  -2.244  1.00  0.00     0.027 C 
HETATM   13  C12 UNL     1       7.023   7.618  -1.024  1.00  0.00     0.035 C 
HETATM   14  C13 UNL     1       6.085   8.765  -1.185  1.00  0.00    -0.012 C 
HETATM   15  C14 UNL     1       6.562   9.624  -2.330  1.00  0.00     0.009 C 
HETATM   16  C18 UNL     1       4.711   8.240  -1.438  1.00  0.00     0.009 C 
HETATM   17  C15 UNL     1       6.576   8.746  -3.559  1.00  0.00    -0.012 C 
HETATM   18  C16 UNL     1       5.155   8.308  -3.807  1.00  0.00     0.009 C 
HETATM   19  C20 UNL     1       7.514   7.579  -3.408  1.00  0.00     0.035 C 
HETATM   20  C17 UNL     1       4.765   7.378  -2.684  1.00  0.00    -0.012 C 
HETATM   21  C19 UNL     1       5.705   6.199  -2.530  1.00  0.00     0.035 C 
ENDBRANCH  10  12
ENDBRANCH   9  10
ENDBRANCH   7   9
BRANCH   1  22
HETATM   22  C3  UNL     1      13.167   5.713  -0.787  1.00  0.00     0.036 C 
BRANCH  22  23
HETATM   23  C2  UNL     1      14.143   4.587  -0.555  1.00  0.00     0.115 C 
BRANCH  23  24
HETATM   24  C1  UNL     1      13.909   3.375  -1.352  1.00  0.00     0.172 C 
HETATM   25  O1  UNL     1      12.807   2.746  -1.110  1.00  0.00    -0.648 OA
HETATM   26  O2  UNL     1      14.765   2.900  -2.305  1.00  0.00    -0.648 OA
ENDBRANCH  23  24
ENDBRANCH  22  23
ENDBRANCH   1  22
TORSDOF 6
ENDMDL
MODEL 3
REMARK VINA RESULT: -7.929819493      0.115      1.472
REMARK  6 active torsions:
REMARK  status: ('A' for Active; 'I' for Inactive)
REMARK    1  A    between atoms: C1_2  and  C2_4 
REMARK    2  A    between atoms: C2_4  and  C3_5 
REMARK    3  A    between atoms: C3_5  and  C4_6 
REMARK       I    between atoms: N1_11  and  C9_12 
REMARK    4  A    between atoms: C9_12  and  C10_14 
REMARK    5  A    between atoms: C10_14  and  N2_15 
REMARK    6  A    between atoms: N2_15  and  C11_17 
ROOT
HETATM    1  C4  UNL     1      12.330   6.133   0.374  1.00  0.00     0.087 C 
HETATM    2  C5  UNL     1      12.607   5.227   1.588  1.00  0.00     0.025 C 
HETATM    3  C6  UNL     1      11.842   5.676   2.772  1.00  0.00     0.004 C 
HETATM    4  C7  UNL     1      10.463   6.172   2.576  1.00  0.00     0.020 C 
HETATM    5  C8  UNL     1      10.269   6.933   1.314  1.00  0.00     0.126 C 
HETATM    6  N1  UNL     1      10.906   6.201   0.245  1.00  0.00    -0.346 N 
HETATM    7  C9  UNL     1      10.153   5.648  -0.791  1.00  0.00     0.237 C 
HETATM    8  O3  UNL     1      10.582   5.095  -1.812  1.00  0.00    -0.272 OA
ENDROOT
BRANCH   7   9
HETATM    9  C10 UNL     1       8.643   5.696  -0.704  1.00  0.00     0.218 C 
BRANCH   9  10
HETATM   10  N2  UNL     1       8.002   5.733  -1.968  1.00  0.00    -0.404 N 
ATOM     11  H2  UNL     1       8.109   4.990  -2.659  1.00  0.00     0.154 HD
BRANCH  10  12
HETATM   12  C11 UNL     1       7.194   6.892  -2.205  1.00  0.00     0.027 C 
HETATM   13  C12 UNL     1       5.798   6.332  -2.472  1.00  0.00     0.035 C 
HETATM   14  C13 UNL     1       4.766   7.390  -2.671  1.00  0.00    -0.012 C 
HETATM   15  C14 UNL     1       4.649   8.197  -1.401  1.00  0.00     0.009 C 
HETATM   16  C18 UNL     1       5.164   8.250  -3.824  1.00  0.00     0.009 C 
HETATM   17  C15 UNL     1       6.011   8.796  -1.136  1.00  0.00    -0.012 C 
HETATM   18  C16 UNL     1       6.325   9.708  -2.295  1.00  0.00     0.009 C 
HETATM   19  C20 UNL     1       7.063   7.739  -0.941  1.00  0.00     0.035 C 
HETATM   20  C17 UNL     1       6.525   8.841  -3.513  1.00  0.00    -0.012 C 
HETATM   21  C19 UNL     1       7.588   7.777  -3.323  1.00  0.00     0.035 C 
ENDBRANCH  10  12
ENDBRANCH   9  10
ENDBRANCH   7   9
BRANCH   1  22
HETATM   22  C3  UNL     1      13.086   5.724  -0.814  1.00  0.00     0.036 C 
BRANCH  22  23
HETATM   23  C2  UNL     1      14.079   4.614  -0.575  1.00  0.00     0.115 C 
BRANCH  23  24
HETATM   24  C1  UNL     1      13.861   3.392  -1.361  1.00  0.00     0.172 C 
HETATM   25  O1  UNL     1      12.779   2.738  -1.095  1.00  0.00    -0.648 OA
HETATM   26  O2  UNL     1      14.711   2.933  -2.326  1.00  0.00    -0.648 OA
ENDBRANCH  23  24
ENDBRANCH  22  23
ENDBRANCH   1  22
TORSDOF 6
ENDMDL
MODEL 4
REMARK VINA RESULT: -7.210374861      2.311      6.806
REMARK  6 active torsions:
REMARK  status: ('A' for Active; 'I' for Inactive)
REMARK    1  A    between atoms: C1_2  and  C2_4 
REMARK    2  A    between atoms: C2_4  and  C3_5 
REMARK    3  A    between atoms: C3_5  and  C4_6 
REMARK       I    between atoms: N1_11  and  C9_12 
REMARK    4  A    between atoms: C9_12  and  C10_14 
REMARK    5  A    between atoms: C10_14  and  N2_15 
REMARK    6  A    between atoms: N2_15  and  C11_17 
ROOT
HETATM    1  C4  UNL     1       7.180   6.183  -0.906  1.00  0.00     0.087 C 
HETATM    2  C5  UNL     1       6.845   7.580  -0.353  1.00  0.00     0.025 C 
HETATM    3  C6  UNL     1       6.729   7.553   1.123  1.00  0.00     0.004 C 
HETATM    4  C7  UNL     1       7.669   6.709   1.890  1.00  0.00     0.020 C 
HETATM    5  C8  UNL     1       8.025   5.434   1.214  1.00  0.00     0.126 C 
HETATM    6  N1  UNL     1       8.319   5.725  -0.170  1.00  0.00    -0.346 N 
HETATM    7  C9  UNL     1       9.604   5.546  -0.682  1.00  0.00     0.237 C 
HETATM    8  O3  UNL     1       9.959   5.657  -1.862  1.00  0.00    -0.272 OA
ENDROOT
BRANCH   7   9
HETATM    9  C10 UNL     1      10.726   5.184   0.268  1.00  0.00     0.218 C 
BRANCH   9  10
HETATM   10  N2  UNL     1      11.652   6.237   0.480  1.00  0.00    -0.404 N 
ATOM     11  H2  UNL     1      12.128   6.710  -0.288  1.00  0.00     0.154 HD
BRANCH  10  12
HETATM   12  C11 UNL     1      11.869   6.587   1.852  1.00  0.00     0.027 C 
HETATM   13  C12 UNL     1      11.147   7.923   2.022  1.00  0.00     0.035 C 
HETATM   14  C13 UNL     1      11.182   8.439   3.420  1.00  0.00    -0.012 C 
HETATM   15  C14 UNL     1      10.458   7.464   4.315  1.00  0.00     0.009 C 
HETATM   16  C18 UNL     1      12.604   8.609   3.841  1.00  0.00     0.009 C 
HETATM   17  C15 UNL     1      11.180   6.142   4.196  1.00  0.00    -0.012 C 
HETATM   18  C16 UNL     1      12.583   6.357   4.704  1.00  0.00     0.009 C 
HETATM   19  C20 UNL     1      11.158   5.612   2.788  1.00  0.00     0.035 C 
HETATM   20  C17 UNL     1      13.287   7.261   3.722  1.00  0.00    -0.012 C 
HETATM   21  C19 UNL     1      13.271   6.729   2.302  1.00  0.00     0.035 C 
ENDBRANCH  10  12
ENDBRANCH   9  10
ENDBRANCH   7   9
BRANCH   1  22
HETATM   22  C3  UNL     1       7.287   6.172  -2.369  1.00  0.00     0.036 C 
BRANCH  22  23
HETATM   23  C2  UNL     1       7.300   7.538  -3.008  1.00  0.00     0.115 C 
BRANCH  23  24
HETATM   24  C1  UNL     1       7.961   7.615  -4.318  1.00  0.00     0.172 C 
HETATM   25  O1  UNL     1       8.467   6.511  -4.759  1.00  0.00    -0.648 OA
HETATM   26  O2  UNL     1       8.060   8.753  -5.067  1.00  0.00    -0.648 OA
ENDBRANCH  23  24
ENDBRANCH  22  23
ENDBRANCH   1  22
TORSDOF 6
ENDMDL
MODEL 5
REMARK VINA RESULT: -7.128694903      3.378      5.005
REMARK  6 active torsions:
REMARK  status: ('A' for Active; 'I' for Inactive)
REMARK    1  A    between atoms: C1_2  and  C2_4 
REMARK    2  A    between atoms: C2_4  and  C3_5 
REMARK    3  A    between atoms: C3_5  and  C4_6 
REMARK       I    between atoms: N1_11  and  C9_12 
REMARK    4  A    between atoms: C9_12  and  C10_14 
REMARK    5  A    between atoms: C10_14  and  N2_15 
REMARK    6  A    between atoms: N2_15  and  C11_17 
ROOT
HETATM    1  C4  UNL     1      12.753   4.294  -1.408  1.00  0.00     0.087 C 
HETATM    2  C5  UNL     1      13.758   4.025  -0.273  1.00  0.00     0.025 C 
HETATM    3  C6  UNL     1      14.316   5.291   0.254  1.00  0.00     0.004 C 
HETATM    4  C7  UNL     1      13.419   6.459   0.382  1.00  0.00     0.020 C 
HETATM    5  C8  UNL     1      12.404   6.563  -0.699  1.00  0.00     0.126 C 
HETATM    6  N1  UNL     1      11.823   5.256  -0.898  1.00  0.00    -0.346 N 
HETATM    7  C9  UNL     1      10.478   5.020  -0.613  1.00  0.00     0.237 C 
HETATM    8  O3  UNL     1       9.839   3.983  -0.838  1.00  0.00    -0.272 OA
ENDROOT
BRANCH   7   9
HETATM    9  C10 UNL     1       9.668   6.113   0.049  1.00  0.00     0.218 C 
BRANCH   9  10
HETATM   10  N2  UNL     1       8.430   5.663   0.574  1.00  0.00    -0.404 N 
ATOM     11  H2  UNL     1       7.682   5.304  -0.020  1.00  0.00     0.154 HD
BRANCH  10  12
HETATM   12  C11 UNL     1       8.307   5.750   1.998  1.00  0.00     0.027 C 
HETATM   13  C12 UNL     1       7.433   4.555   2.378  1.00  0.00     0.035 C 
HETATM   14  C13 UNL     1       7.239   4.410   3.848  1.00  0.00    -0.012 C 
HETATM   15  C14 UNL     1       8.580   4.159   4.492  1.00  0.00     0.009 C 
HETATM   16  C18 UNL     1       6.607   5.652   4.382  1.00  0.00     0.009 C 
HETATM   17  C15 UNL     1       9.452   5.348   4.165  1.00  0.00    -0.012 C 
HETATM   18  C16 UNL     1       8.803   6.557   4.791  1.00  0.00     0.009 C 
HETATM   19  C20 UNL     1       9.651   5.511   2.682  1.00  0.00     0.035 C 
HETATM   20  C17 UNL     1       7.517   6.816   4.048  1.00  0.00    -0.012 C 
HETATM   21  C19 UNL     1       7.712   6.986   2.553  1.00  0.00     0.035 C 
ENDBRANCH  10  12
ENDBRANCH   9  10
ENDBRANCH   7   9
BRANCH   1  22
HETATM   22  C3  UNL     1      12.192   3.058  -1.963  1.00  0.00     0.036 C 
BRANCH  22  23
HETATM   23  C2  UNL     1      13.121   1.871  -1.916  1.00  0.00     0.115 C 
BRANCH  23  24
HETATM   24  C1  UNL     1      13.902   1.632  -3.138  1.00  0.00     0.172 C 
HETATM   25  O1  UNL     1      15.167   1.881  -3.055  1.00  0.00    -0.648 OA
HETATM   26  O2  UNL     1      13.376   1.173  -4.312  1.00  0.00    -0.648 OA
ENDBRANCH  23  24
ENDBRANCH  22  23
ENDBRANCH   1  22
TORSDOF 6
ENDMDL
