MODEL 1
REMARK VINA RESULT: -8.780486215      0.000      0.000
REMARK  7 active torsions:
REMARK  status: ('A' for Active; 'I' for Inactive)
REMARK    1  A    between atoms: C17_21  and  C18_22 
REMARK    2  A    between atoms: C18_22  and  C19_23 
REMARK    3  A    between atoms: C19_23  and  C20_24 
REMARK    4  A    between atoms: C20_24  and  N3_25 
REMARK    5  A    between atoms: N3_25  and  C21_28 
REMARK    6  A    between atoms: C21_28  and  C22_29 
REMARK    7  A    between atoms: C22_29  and  C23_30 
ROOT
HETATM    1  C1  UNL     1       0.122   6.061  18.378  1.00  0.00     0.066 C 
HETATM    2  C2  UNL     1       1.576   6.230  18.018  1.00  0.00     0.015 C 
HETATM    3  N1  UNL     1       1.689   6.816  16.861  1.00  0.00    -0.274 N 
ATOM      4  H1  UNL     1       0.809   7.056  16.404  1.00  0.00     0.193 HD
HETATM    5  O1  UNL     1       2.836   7.161  16.159  1.00  0.00    -0.267 OA
HETATM    6  C3  UNL     1       4.079   7.439  16.873  1.00  0.00     0.110 C 
HETATM    7  C4  UNL     1       3.558   8.659  17.593  1.00  0.00     0.055 C 
HETATM    8  C5  UNL     1       4.781   9.287  18.169  1.00  0.00    -0.023 C 
HETATM    9  C6  UNL     1       4.599  10.822  18.131  1.00  0.00     0.019 C 
HETATM   10  C7  UNL     1       4.838   8.925  19.565  1.00  0.00    -0.021 C 
HETATM   11  C8  UNL     1       5.100   7.609  20.089  1.00  0.00    -0.025 C 
HETATM   12  C9  UNL     1       4.238   6.455  20.026  1.00  0.00     0.015 A 
HETATM   13  C10 UNL     1       2.758   6.508  20.284  1.00  0.00     0.024 A 
HETATM   14  C11 UNL     1       2.473   5.724  18.991  1.00  0.00     0.002 A 
HETATM   15  C12 UNL     1       1.910   4.348  19.438  1.00  0.00     0.022 C 
HETATM   16  C13 UNL     1       3.921   5.748  18.779  1.00  0.00     0.028 A 
HETATM   17  C14 UNL     1       4.444   6.219  17.477  1.00  0.00     0.136 C 
HETATM   18  C15 UNL     1       5.887   5.827  17.494  1.00  0.00     0.067 C 
HETATM   19  N2  UNL     1       7.019   5.491  17.529  1.00  0.00    -0.197 NA
HETATM   20  C16 UNL     1       5.811   8.935  17.167  1.00  0.00     0.021 C 
HETATM   21  C17 UNL     1       5.049   8.234  16.059  1.00  0.00     0.025 C 
ENDROOT
BRANCH  21  22
HETATM   22  C18 UNL     1       5.737   7.677  14.943  1.00  0.00     0.009 C 
BRANCH  22  23
HETATM   23  C19 UNL     1       5.216   8.292  13.633  1.00  0.00     0.028 C 
BRANCH  23  24
HETATM   24  C20 UNL     1       3.859   7.850  13.246  1.00  0.00     0.232 C 
BRANCH  24  25
HETATM   25  N3  UNL     1       2.928   8.927  13.470  1.00  0.00    -0.075 N 
ATOM     26  H32 UNL     1       2.108   8.822  12.872  1.00  0.00     0.277 HD
ATOM     27  H31 UNL     1       2.486   8.835  14.385  1.00  0.00     0.277 HD
BRANCH  25  28
HETATM   28  C21 UNL     1       3.502  10.234  13.316  1.00  0.00     0.232 C 
BRANCH  28  29
HETATM   29  C22 UNL     1       3.242  11.079  14.575  1.00  0.00     0.032 C 
BRANCH  29  30
HETATM   30  C23 UNL     1       3.592  12.506  14.308  1.00  0.00    -0.013 C 
HETATM   31  C24 UNL     1       4.504  13.039  15.407  1.00  0.00     0.005 C 
HETATM   32  C25 UNL     1       3.229  13.478  16.126  1.00  0.00     0.001 C 
HETATM   33  C26 UNL     1       2.575  13.532  14.771  1.00  0.00     0.005 C 
ENDBRANCH  29  30
ENDBRANCH  28  29
ENDBRANCH  25  28
ENDBRANCH  24  25
ENDBRANCH  23  24
ENDBRANCH  22  23
ENDBRANCH  21  22
TORSDOF 7
ENDMDL
MODEL 2
REMARK VINA RESULT: -8.568862761      2.707      6.567
REMARK  7 active torsions:
REMARK  status: ('A' for Active; 'I' for Inactive)
REMARK    1  A    between atoms: C17_21  and  C18_22 
REMARK    2  A    between atoms: C18_22  and  C19_23 
REMARK    3  A    between atoms: C19_23  and  C20_24 
REMARK    4  A    between atoms: C20_24  and  N3_25 
REMARK    5  A    between atoms: N3_25  and  C21_28 
REMARK    6  A    between atoms: C21_28  and  C22_29 
REMARK    7  A    between atoms: C22_29  and  C23_30 
ROOT
HETATM    1  C1  UNL     1       1.835   9.562  17.577  1.00  0.00     0.066 C 
HETATM    2  C2  UNL     1       3.160   9.487  18.292  1.00  0.00     0.015 C 
HETATM    3  N1  UNL     1       3.171   8.478  19.116  1.00  0.00    -0.274 N 
ATOM      4  H1  UNL     1       2.314   7.925  19.141  1.00  0.00     0.193 HD
HETATM    5  O1  UNL     1       4.181   8.047  19.964  1.00  0.00    -0.267 OA
HETATM    6  C3  UNL     1       5.580   8.313  19.637  1.00  0.00     0.110 C 
HETATM    7  C4  UNL     1       5.595   7.468  18.386  1.00  0.00     0.055 C 
HETATM    8  C5  UNL     1       7.041   7.361  18.042  1.00  0.00    -0.023 C 
HETATM    9  C6  UNL     1       7.292   5.959  17.441  1.00  0.00     0.019 C 
HETATM   10  C7  UNL     1       7.305   8.304  16.981  1.00  0.00    -0.021 C 
HETATM   11  C8  UNL     1       7.299   9.740  17.102  1.00  0.00    -0.025 C 
HETATM   12  C9  UNL     1       6.158  10.594  17.314  1.00  0.00     0.015 A 
HETATM   13  C10 UNL     1       4.848  10.425  16.595  1.00  0.00     0.024 A 
HETATM   14  C11 UNL     1       4.073  10.504  17.923  1.00  0.00     0.002 A 
HETATM   15  C12 UNL     1       3.263  11.827  17.870  1.00  0.00     0.022 C 
HETATM   16  C13 UNL     1       5.385  10.620  18.562  1.00  0.00     0.028 A 
HETATM   17  C14 UNL     1       5.714   9.716  19.686  1.00  0.00     0.136 C 
HETATM   18  C15 UNL     1       6.956  10.299  20.280  1.00  0.00     0.067 C 
HETATM   19  N2  UNL     1       7.927  10.793  20.738  1.00  0.00    -0.197 NA
HETATM   20  C16 UNL     1       7.681   7.397  19.376  1.00  0.00     0.021 C 
HETATM   21  C17 UNL     1       6.526   7.407  20.357  1.00  0.00     0.025 C 
ENDROOT
BRANCH  21  22
HETATM   22  C18 UNL     1       6.763   7.519  21.758  1.00  0.00     0.009 C 
BRANCH  22  23
HETATM   23  C19 UNL     1       5.823   6.581  22.535  1.00  0.00     0.028 C 
BRANCH  23  24
HETATM   24  C20 UNL     1       4.794   7.274  23.339  1.00  0.00     0.232 C 
BRANCH  24  25
HETATM   25  N3  UNL     1       3.487   6.880  22.877  1.00  0.00    -0.075 N 
ATOM     26  H32 UNL     1       2.842   6.790  23.662  1.00  0.00     0.277 HD
ATOM     27  H31 UNL     1       3.039   7.644  22.372  1.00  0.00     0.277 HD
BRANCH  25  28
HETATM   28  C21 UNL     1       3.487   5.683  22.085  1.00  0.00     0.232 C 
BRANCH  28  29
HETATM   29  C22 UNL     1       2.356   5.736  21.044  1.00  0.00     0.032 C 
BRANCH  29  30
HETATM   30  C23 UNL     1       2.450   4.557  20.132  1.00  0.00    -0.013 C 
HETATM   31  C24 UNL     1       3.094   4.963  18.812  1.00  0.00     0.005 C 
HETATM   32  C25 UNL     1       1.678   5.245  18.312  1.00  0.00     0.001 C 
HETATM   33  C26 UNL     1       1.201   4.242  19.330  1.00  0.00     0.005 C 
ENDBRANCH  29  30
ENDBRANCH  28  29
ENDBRANCH  25  28
ENDBRANCH  24  25
ENDBRANCH  23  24
ENDBRANCH  22  23
ENDBRANCH  21  22
TORSDOF 7
ENDMDL
MODEL 3
REMARK VINA RESULT: -8.495316379      2.396      5.912
REMARK  7 active torsions:
REMARK  status: ('A' for Active; 'I' for Inactive)
REMARK    1  A    between atoms: C17_21  and  C18_22 
REMARK    2  A    between atoms: C18_22  and  C19_23 
REMARK    3  A    between atoms: C19_23  and  C20_24 
REMARK    4  A    between atoms: C20_24  and  N3_25 
REMARK    5  A    between atoms: N3_25  and  C21_28 
REMARK    6  A    between atoms: C21_28  and  C22_29 
REMARK    7  A    between atoms: C22_29  and  C23_30 
ROOT
HETATM    1  C1  UNL     1       2.373   5.190  19.793  1.00  0.00     0.066 C 
HETATM    2  C2  UNL     1       2.772   6.439  19.048  1.00  0.00     0.015 C 
HETATM    3  N1  UNL     1       3.395   7.259  19.846  1.00  0.00    -0.274 N 
ATOM      4  H1  UNL     1       3.507   6.935  20.806  1.00  0.00     0.193 HD
HETATM    5  O1  UNL     1       3.929   8.511  19.575  1.00  0.00    -0.267 OA
HETATM    6  C3  UNL     1       4.380   8.842  18.225  1.00  0.00     0.110 C 
HETATM    7  C4  UNL     1       5.488   7.817  18.191  1.00  0.00     0.055 C 
HETATM    8  C5  UNL     1       6.283   8.188  16.986  1.00  0.00    -0.023 C 
HETATM    9  C6  UNL     1       7.773   7.895  17.282  1.00  0.00     0.019 C 
HETATM   10  C7  UNL     1       5.902   7.290  15.922  1.00  0.00    -0.021 C 
HETATM   11  C8  UNL     1       4.631   7.270  15.245  1.00  0.00    -0.025 C 
HETATM   12  C9  UNL     1       3.360   6.858  15.785  1.00  0.00     0.015 A 
HETATM   13  C10 UNL     1       3.177   5.635  16.640  1.00  0.00     0.024 A 
HETATM   14  C11 UNL     1       2.388   6.444  17.685  1.00  0.00     0.002 A 
HETATM   15  C12 UNL     1       0.932   5.909  17.634  1.00  0.00     0.022 C 
HETATM   16  C13 UNL     1       2.641   7.602  16.827  1.00  0.00     0.028 A 
HETATM   17  C14 UNL     1       3.217   8.826  17.429  1.00  0.00     0.136 C 
HETATM   18  C15 UNL     1       3.053   9.871  16.373  1.00  0.00     0.067 C 
HETATM   19  N2  UNL     1       2.894  10.680  15.527  1.00  0.00    -0.197 NA
HETATM   20  C16 UNL     1       6.118   9.658  16.946  1.00  0.00     0.021 C 
HETATM   21  C17 UNL     1       5.334   9.993  18.199  1.00  0.00     0.025 C 
ENDROOT
BRANCH  21  22
HETATM   22  C18 UNL     1       4.915  11.330  18.460  1.00  0.00     0.009 C 
BRANCH  22  23
HETATM   23  C19 UNL     1       5.778  11.953  19.570  1.00  0.00     0.028 C 
BRANCH  23  24
HETATM   24  C20 UNL     1       6.137  11.022  20.662  1.00  0.00     0.232 C 
BRANCH  24  25
HETATM   25  N3  UNL     1       7.534  10.683  20.555  1.00  0.00    -0.075 N 
ATOM     26  H32 UNL     1       7.883  10.893  19.621  1.00  0.00     0.277 HD
ATOM     27  H31 UNL     1       8.103  11.330  21.101  1.00  0.00     0.277 HD
BRANCH  25  28
HETATM   28  C21 UNL     1       7.831   9.325  20.912  1.00  0.00     0.232 C 
BRANCH  28  29
HETATM   29  C22 UNL     1       6.576   8.637  21.476  1.00  0.00     0.032 C 
BRANCH  29  30
HETATM   30  C23 UNL     1       6.963   7.386  22.193  1.00  0.00    -0.013 C 
HETATM   31  C24 UNL     1       5.721   6.574  22.542  1.00  0.00     0.005 C 
HETATM   32  C25 UNL     1       5.706   7.336  23.867  1.00  0.00     0.001 C 
HETATM   33  C26 UNL     1       7.189   7.524  23.687  1.00  0.00     0.005 C 
ENDBRANCH  29  30
ENDBRANCH  28  29
ENDBRANCH  25  28
ENDBRANCH  24  25
ENDBRANCH  23  24
ENDBRANCH  22  23
ENDBRANCH  21  22
TORSDOF 7
ENDMDL
MODEL 4
REMARK VINA RESULT: -8.467778119      2.587      6.532
REMARK  7 active torsions:
REMARK  status: ('A' for Active; 'I' for Inactive)
REMARK    1  A    between atoms: C17_21  and  C18_22 
REMARK    2  A    between atoms: C18_22  and  C19_23 
REMARK    3  A    between atoms: C19_23  and  C20_24 
REMARK    4  A    between atoms: C20_24  and  N3_25 
REMARK    5  A    between atoms: N3_25  and  C21_28 
REMARK    6  A    between atoms: C21_28  and  C22_29 
REMARK    7  A    between atoms: C22_29  and  C23_30 
ROOT
HETATM    1  C1  UNL     1       2.885  12.156  18.711  1.00  0.00     0.066 C 
HETATM    2  C2  UNL     1       3.845  11.078  18.277  1.00  0.00     0.015 C 
HETATM    3  N1  UNL     1       4.456  10.575  19.311  1.00  0.00    -0.274 N 
ATOM      4  H1  UNL     1       4.195  10.977  20.212  1.00  0.00     0.193 HD
HETATM    5  O1  UNL     1       5.411   9.570  19.364  1.00  0.00    -0.267 OA
HETATM    6  C3  UNL     1       5.448   8.534  18.334  1.00  0.00     0.110 C 
HETATM    7  C4  UNL     1       4.099   7.949  18.674  1.00  0.00     0.055 C 
HETATM    8  C5  UNL     1       4.063   6.665  17.917  1.00  0.00    -0.023 C 
HETATM    9  C6  UNL     1       3.288   5.628  18.762  1.00  0.00     0.019 C 
HETATM   10  C7  UNL     1       3.272   6.885  16.730  1.00  0.00    -0.021 C 
HETATM   11  C8  UNL     1       3.645   7.699  15.601  1.00  0.00    -0.025 C 
HETATM   12  C9  UNL     1       3.755   9.136  15.558  1.00  0.00     0.015 A 
HETATM   13  C10 UNL     1       2.751  10.065  16.182  1.00  0.00     0.024 A 
HETATM   14  C11 UNL     1       3.871  10.859  16.878  1.00  0.00     0.002 A 
HETATM   15  C12 UNL     1       3.883  12.261  16.212  1.00  0.00     0.022 C 
HETATM   16  C13 UNL     1       4.789   9.892  16.274  1.00  0.00     0.028 A 
HETATM   17  C14 UNL     1       5.777   9.208  17.140  1.00  0.00     0.136 C 
HETATM   18  C15 UNL     1       6.720   8.556  16.181  1.00  0.00     0.067 C 
HETATM   19  N2  UNL     1       7.459   8.066  15.401  1.00  0.00    -0.197 NA
HETATM   20  C16 UNL     1       5.488   6.266  17.915  1.00  0.00     0.021 C 
HETATM   21  C17 UNL     1       6.182   7.307  18.771  1.00  0.00     0.025 C 
ENDROOT
BRANCH  21  22
HETATM   22  C18 UNL     1       7.597   7.289  18.934  1.00  0.00     0.009 C 
BRANCH  22  23
HETATM   23  C19 UNL     1       7.964   7.396  20.425  1.00  0.00     0.028 C 
BRANCH  23  24
HETATM   24  C20 UNL     1       7.889   8.765  20.977  1.00  0.00     0.232 C 
BRANCH  24  25
HETATM   25  N3  UNL     1       6.934   8.789  22.056  1.00  0.00    -0.075 N 
ATOM     26  H32 UNL     1       6.928   9.703  22.509  1.00  0.00     0.277 HD
ATOM     27  H31 UNL     1       5.981   8.772  21.692  1.00  0.00     0.277 HD
BRANCH  25  28
HETATM   28  C21 UNL     1       7.123   7.747  23.024  1.00  0.00     0.232 C 
BRANCH  28  29
HETATM   29  C22 UNL     1       5.763   7.176  23.462  1.00  0.00     0.032 C 
BRANCH  29  30
HETATM   30  C23 UNL     1       4.876   7.013  22.272  1.00  0.00    -0.013 C 
HETATM   31  C24 UNL     1       3.688   7.964  22.368  1.00  0.00     0.005 C 
HETATM   32  C25 UNL     1       2.953   6.829  23.080  1.00  0.00     0.001 C 
HETATM   33  C26 UNL     1       3.868   5.881  22.351  1.00  0.00     0.005 C 
ENDBRANCH  29  30
ENDBRANCH  28  29
ENDBRANCH  25  28
ENDBRANCH  24  25
ENDBRANCH  23  24
ENDBRANCH  22  23
ENDBRANCH  21  22
TORSDOF 7
ENDMDL
MODEL 5
REMARK VINA RESULT: -8.385878820      2.421      6.091
REMARK  7 active torsions:
REMARK  status: ('A' for Active; 'I' for Inactive)
REMARK    1  A    between atoms: C17_21  and  C18_22 
REMARK    2  A    between atoms: C18_22  and  C19_23 
REMARK    3  A    between atoms: C19_23  and  C20_24 
REMARK    4  A    between atoms: C20_24  and  N3_25 
REMARK    5  A    between atoms: N3_25  and  C21_28 
REMARK    6  A    between atoms: C21_28  and  C22_29 
REMARK    7  A    between atoms: C22_29  and  C23_30 
ROOT
HETATM    1  C1  UNL     1       2.764   4.794  19.126  1.00  0.00     0.066 C 
HETATM    2  C2  UNL     1       3.148   6.181  18.676  1.00  0.00     0.015 C 
HETATM    3  N1  UNL     1       3.956   6.727  19.538  1.00  0.00    -0.274 N 
ATOM      4  H1  UNL     1       4.189   6.149  20.346  1.00  0.00     0.193 HD
HETATM    5  O1  UNL     1       4.547   7.983  19.515  1.00  0.00    -0.267 OA
HETATM    6  C3  UNL     1       4.807   8.650  18.242  1.00  0.00     0.110 C 
HETATM    7  C4  UNL     1       5.803   7.629  17.748  1.00  0.00     0.055 C 
HETATM    8  C5  UNL     1       6.429   8.281  16.563  1.00  0.00    -0.023 C 
HETATM    9  C6  UNL     1       7.915   7.857  16.507  1.00  0.00     0.019 C 
HETATM   10  C7  UNL     1       5.810   7.723  15.384  1.00  0.00    -0.021 C 
HETATM   11  C8  UNL     1       4.450   7.939  14.958  1.00  0.00    -0.025 C 
HETATM   12  C9  UNL     1       3.249   7.447  15.585  1.00  0.00     0.015 A 
HETATM   13  C10 UNL     1       3.099   6.046  16.109  1.00  0.00     0.024 A 
HETATM   14  C11 UNL     1       2.556   6.573  17.450  1.00  0.00     0.002 A 
HETATM   15  C12 UNL     1       1.070   6.132  17.515  1.00  0.00     0.022 C 
HETATM   16  C13 UNL     1       2.770   7.909  16.893  1.00  0.00     0.028 A 
HETATM   17  C14 UNL     1       3.536   8.898  17.685  1.00  0.00     0.136 C 
HETATM   18  C15 UNL     1       3.299  10.197  16.984  1.00  0.00     0.067 C 
HETATM   19  N2  UNL     1       3.080  11.211  16.419  1.00  0.00    -0.197 NA
HETATM   20  C16 UNL     1       6.386   9.712  16.937  1.00  0.00     0.021 C 
HETATM   21  C17 UNL     1       5.841   9.725  18.351  1.00  0.00     0.025 C 
ENDROOT
BRANCH  21  22
HETATM   22  C18 UNL     1       5.585  10.956  19.021  1.00  0.00     0.009 C 
BRANCH  22  23
HETATM   23  C19 UNL     1       6.305  10.985  20.380  1.00  0.00     0.028 C 
BRANCH  23  24
HETATM   24  C20 UNL     1       7.228   9.852  20.608  1.00  0.00     0.232 C 
BRANCH  24  25
HETATM   25  N3  UNL     1       6.708   9.024  21.667  1.00  0.00    -0.075 N 
ATOM     26  H32 UNL     1       6.926   9.428  22.578  1.00  0.00     0.277 HD
ATOM     27  H31 UNL     1       5.689   9.075  21.696  1.00  0.00     0.277 HD
BRANCH  25  28
HETATM   28  C21 UNL     1       7.142   7.657  21.604  1.00  0.00     0.232 C 
BRANCH  28  29
HETATM   29  C22 UNL     1       6.125   6.744  22.309  1.00  0.00     0.032 C 
BRANCH  29  30
HETATM   30  C23 UNL     1       5.250   7.557  23.205  1.00  0.00    -0.013 C 
HETATM   31  C24 UNL     1       4.696   6.689  24.328  1.00  0.00     0.005 C 
HETATM   32  C25 UNL     1       3.508   6.414  23.408  1.00  0.00     0.001 C 
HETATM   33  C26 UNL     1       3.814   7.732  22.746  1.00  0.00     0.005 C 
ENDBRANCH  29  30
ENDBRANCH  28  29
ENDBRANCH  25  28
ENDBRANCH  24  25
ENDBRANCH  23  24
ENDBRANCH  22  23
ENDBRANCH  21  22
TORSDOF 7
ENDMDL
