MODEL 1
REMARK VINA RESULT: -6.620331201      0.000      0.000
REMARK  7 active torsions:
REMARK  status: ('A' for Active; 'I' for Inactive)
REMARK    1  A    between atoms: C2_2  and  C3_3 
REMARK    2  A    between atoms: C3_3  and  N1_4 
REMARK    3  A    between atoms: N2_6  and  C5_8 
REMARK    4  A    between atoms: C5_8  and  C6_12 
REMARK    5  A    between atoms: C6_12  and  N4_13 
REMARK    6  A    between atoms: N4_13  and  C9_16 
REMARK    7  A    between atoms: C9_16  and  N5_17 
ROOT
HETATM    1  N1  UNL     1     -20.667  18.402 -10.987  1.00  0.00    -0.333 N 
HETATM    2  C4  UNL     1     -20.124  19.365 -11.929  1.00  0.00     0.176 C 
HETATM    3  N2  UNL     1     -19.394  18.989 -12.880  1.00  0.00    -0.327 N 
ATOM      4  H2  UNL     1     -19.253  17.979 -12.889  1.00  0.00     0.169 HD
HETATM    5  C10 UNL     1     -20.611  20.672 -11.518  1.00  0.00     0.287 C 
HETATM    6  O1  UNL     1     -20.358  21.788 -12.089  1.00  0.00    -0.264 OA
HETATM    7  N6  UNL     1     -21.413  20.478 -10.380  1.00  0.00    -0.328 N 
ATOM      8  H6  UNL     1     -22.074  21.150  -9.990  1.00  0.00     0.165 HD
HETATM    9  C11 UNL     1     -21.134  19.158  -9.858  1.00  0.00     0.103 C 
HETATM   10  C12 UNL     1     -20.044  19.348  -8.813  1.00  0.00     0.063 C 
HETATM   11  C13 UNL     1     -22.405  18.625  -9.255  1.00  0.00     0.063 C 
ENDROOT
BRANCH   3  12
HETATM   12  C5  UNL     1     -18.736  19.626 -13.918  1.00  0.00     0.103 C 
HETATM   13  N3  UNL     1     -19.146  19.391 -15.137  1.00  0.00    -0.387 N 
ATOM     14  H32 UNL     1     -19.920  18.739 -15.272  1.00  0.00     0.157 HD
ATOM     15  H31 UNL     1     -18.661  19.860 -15.902  1.00  0.00     0.157 HD
BRANCH  12  16
HETATM   16  C6  UNL     1     -17.624  20.561 -13.723  1.00  0.00     0.314 C 
BRANCH  16  17
HETATM   17  N4  UNL     1     -16.298  20.047 -13.710  1.00  0.00    -0.045 N 
HETATM   18  C7  UNL     1     -15.371  20.975 -13.046  1.00  0.00     0.274 C 
HETATM   19  C8  UNL     1     -16.301  18.868 -12.812  1.00  0.00     0.274 C 
BRANCH  17  20
HETATM   20  C9  UNL     1     -15.718  19.624 -14.931  1.00  0.00     0.464 C 
BRANCH  20  21
HETATM   21  N5  UNL     1     -15.462  20.635 -15.889  1.00  0.00    -0.055 N 
ATOM     22  H53 UNL     1     -16.310  20.827 -16.422  1.00  0.00     0.276 HD
ATOM     23  H52 UNL     1     -15.333  21.530 -15.418  1.00  0.00     0.276 HD
ATOM     24  H51 UNL     1     -14.685  20.467 -16.528  1.00  0.00     0.276 HD
ENDBRANCH  20  21
ENDBRANCH  17  20
ENDBRANCH  16  17
ENDBRANCH  12  16
ENDBRANCH   3  12
BRANCH   1  25
HETATM   25  C3  UNL     1     -20.720  16.963 -11.142  1.00  0.00     0.153 C 
BRANCH  25  26
HETATM   26  C2  UNL     1     -19.690  16.290 -10.305  1.00  0.00    -0.017 C 
HETATM   27  C1  UNL     1     -18.434  16.607 -10.464  1.00  0.00     0.008 C 
ENDBRANCH  25  26
ENDBRANCH   1  25
TORSDOF 7
ENDMDL
MODEL 2
REMARK VINA RESULT: -6.574550376      4.216      7.527
REMARK  7 active torsions:
REMARK  status: ('A' for Active; 'I' for Inactive)
REMARK    1  A    between atoms: C2_2  and  C3_3 
REMARK    2  A    between atoms: C3_3  and  N1_4 
REMARK    3  A    between atoms: N2_6  and  C5_8 
REMARK    4  A    between atoms: C5_8  and  C6_12 
REMARK    5  A    between atoms: C6_12  and  N4_13 
REMARK    6  A    between atoms: N4_13  and  C9_16 
REMARK    7  A    between atoms: C9_16  and  N5_17 
ROOT
HETATM    1  N1  UNL     1     -21.180  18.847  -8.845  1.00  0.00    -0.333 N 
HETATM    2  C4  UNL     1     -20.083  18.008  -8.395  1.00  0.00     0.176 C 
HETATM    3  N2  UNL     1     -19.773  17.958  -7.179  1.00  0.00    -0.327 N 
ATOM      4  H2  UNL     1     -20.365  18.551  -6.599  1.00  0.00     0.169 HD
HETATM    5  C10 UNL     1     -19.554  17.343  -9.575  1.00  0.00     0.287 C 
HETATM    6  O1  UNL     1     -18.578  16.518  -9.605  1.00  0.00    -0.264 OA
HETATM    7  N6  UNL     1     -20.317  17.777 -10.674  1.00  0.00    -0.328 N 
ATOM      8  H6  UNL     1     -20.350  17.336 -11.593  1.00  0.00     0.165 HD
HETATM    9  C11 UNL     1     -21.046  18.959 -10.271  1.00  0.00     0.103 C 
HETATM   10  C12 UNL     1     -20.171  20.140 -10.667  1.00  0.00     0.063 C 
HETATM   11  C13 UNL     1     -22.359  18.961 -11.006  1.00  0.00     0.063 C 
ENDROOT
BRANCH   3  12
HETATM   12  C5  UNL     1     -18.813  17.285  -6.442  1.00  0.00     0.103 C 
HETATM   13  N3  UNL     1     -17.558  17.585  -6.654  1.00  0.00    -0.387 N 
ATOM     14  H32 UNL     1     -17.340  18.289  -7.360  1.00  0.00     0.157 HD
ATOM     15  H31 UNL     1     -16.851  17.089  -6.111  1.00  0.00     0.157 HD
BRANCH  12  16
HETATM   16  C6  UNL     1     -19.127  16.274  -5.429  1.00  0.00     0.314 C 
BRANCH  16  17
HETATM   17  N4  UNL     1     -19.589  16.709  -4.155  1.00  0.00    -0.045 N 
HETATM   18  C7  UNL     1     -19.626  15.599  -3.192  1.00  0.00     0.274 C 
HETATM   19  C8  UNL     1     -18.549  17.607  -3.601  1.00  0.00     0.274 C 
BRANCH  17  20
HETATM   20  C9  UNL     1     -20.815  17.414  -4.080  1.00  0.00     0.464 C 
BRANCH  20  21
HETATM   21  N5  UNL     1     -20.735  18.776  -3.699  1.00  0.00    -0.055 N 
ATOM     22  H53 UNL     1     -19.761  19.030  -3.534  1.00  0.00     0.276 HD
ATOM     23  H52 UNL     1     -20.948  19.370  -4.500  1.00  0.00     0.276 HD
ATOM     24  H51 UNL     1     -21.304  19.057  -2.901  1.00  0.00     0.276 HD
ENDBRANCH  20  21
ENDBRANCH  17  20
ENDBRANCH  16  17
ENDBRANCH  12  16
ENDBRANCH   3  12
BRANCH   1  25
HETATM   25  C3  UNL     1     -22.202  19.464  -8.024  1.00  0.00     0.153 C 
BRANCH  25  26
HETATM   26  C2  UNL     1     -21.836  20.859  -7.662  1.00  0.00    -0.017 C 
HETATM   27  C1  UNL     1     -22.569  21.505  -6.796  1.00  0.00     0.008 C 
ENDBRANCH  25  26
ENDBRANCH   1  25
TORSDOF 7
ENDMDL
MODEL 3
REMARK VINA RESULT: -6.543489108      1.756      2.722
REMARK  7 active torsions:
REMARK  status: ('A' for Active; 'I' for Inactive)
REMARK    1  A    between atoms: C2_2  and  C3_3 
REMARK    2  A    between atoms: C3_3  and  N1_4 
REMARK    3  A    between atoms: N2_6  and  C5_8 
REMARK    4  A    between atoms: C5_8  and  C6_12 
REMARK    5  A    between atoms: C6_12  and  N4_13 
REMARK    6  A    between atoms: N4_13  and  C9_16 
REMARK    7  A    between atoms: C9_16  and  N5_17 
ROOT
HETATM    1  N1  UNL     1     -20.168  19.549 -10.656  1.00  0.00    -0.333 N 
HETATM    2  C4  UNL     1     -19.486  19.864 -11.899  1.00  0.00     0.176 C 
HETATM    3  N2  UNL     1     -18.734  20.867 -11.981  1.00  0.00    -0.327 N 
ATOM      4  H2  UNL     1     -18.678  21.386 -11.105  1.00  0.00     0.169 HD
HETATM    5  C10 UNL     1     -19.860  18.833 -12.854  1.00  0.00     0.287 C 
HETATM    6  O1  UNL     1     -19.471  18.749 -14.069  1.00  0.00    -0.264 OA
HETATM    7  N6  UNL     1     -20.727  17.947 -12.191  1.00  0.00    -0.328 N 
ATOM      8  H6  UNL     1     -20.983  17.010 -12.504  1.00  0.00     0.165 HD
HETATM    9  C11 UNL     1     -21.193  18.597 -10.986  1.00  0.00     0.103 C 
HETATM   10  C12 UNL     1     -22.500  19.279 -11.362  1.00  0.00     0.063 C 
HETATM   11  C13 UNL     1     -21.394  17.535  -9.939  1.00  0.00     0.063 C 
ENDROOT
BRANCH   3  12
HETATM   12  C5  UNL     1     -17.963  21.431 -12.982  1.00  0.00     0.103 C 
HETATM   13  N3  UNL     1     -18.582  22.012 -13.976  1.00  0.00    -0.387 N 
ATOM     14  H32 UNL     1     -19.602  22.013 -13.979  1.00  0.00     0.157 HD
ATOM     15  H31 UNL     1     -18.013  22.428 -14.714  1.00  0.00     0.157 HD
BRANCH  12  16
HETATM   16  C6  UNL     1     -16.497  21.429 -12.978  1.00  0.00     0.314 C 
BRANCH  16  17
HETATM   17  N4  UNL     1     -15.816  20.411 -13.702  1.00  0.00    -0.045 N 
HETATM   18  C7  UNL     1     -14.370  20.670 -13.759  1.00  0.00     0.274 C 
HETATM   19  C8  UNL     1     -15.908  19.171 -12.894  1.00  0.00     0.274 C 
BRANCH  17  20
HETATM   20  C9  UNL     1     -16.269  20.080 -15.002  1.00  0.00     0.464 C 
BRANCH  20  21
HETATM   21  N5  UNL     1     -15.394  20.390 -16.071  1.00  0.00    -0.055 N 
ATOM     22  H53 UNL     1     -15.779  20.034 -16.946  1.00  0.00     0.276 HD
ATOM     23  H52 UNL     1     -15.416  21.394 -16.254  1.00  0.00     0.276 HD
ATOM     24  H51 UNL     1     -14.428  20.081 -15.969  1.00  0.00     0.276 HD
ENDBRANCH  20  21
ENDBRANCH  17  20
ENDBRANCH  16  17
ENDBRANCH  12  16
ENDBRANCH   3  12
BRANCH   1  25
HETATM   25  C3  UNL     1     -19.887  20.092  -9.343  1.00  0.00     0.153 C 
BRANCH  25  26
HETATM   26  C2  UNL     1     -20.884  21.128  -8.961  1.00  0.00    -0.017 C 
HETATM   27  C1  UNL     1     -21.656  20.919  -7.930  1.00  0.00     0.008 C 
ENDBRANCH  25  26
ENDBRANCH   1  25
TORSDOF 7
ENDMDL
MODEL 4
REMARK VINA RESULT: -6.533430277      2.106      2.929
REMARK  7 active torsions:
REMARK  status: ('A' for Active; 'I' for Inactive)
REMARK    1  A    between atoms: C2_2  and  C3_3 
REMARK    2  A    between atoms: C3_3  and  N1_4 
REMARK    3  A    between atoms: N2_6  and  C5_8 
REMARK    4  A    between atoms: C5_8  and  C6_12 
REMARK    5  A    between atoms: C6_12  and  N4_13 
REMARK    6  A    between atoms: N4_13  and  C9_16 
REMARK    7  A    between atoms: C9_16  and  N5_17 
ROOT
HETATM    1  N1  UNL     1     -20.776  18.906  -8.274  1.00  0.00    -0.333 N 
HETATM    2  C4  UNL     1     -21.066  18.932  -9.697  1.00  0.00     0.176 C 
HETATM    3  N2  UNL     1     -20.135  18.933 -10.540  1.00  0.00    -0.327 N 
ATOM      4  H2  UNL     1     -19.213  18.911 -10.105  1.00  0.00     0.169 HD
HETATM    5  C10 UNL     1     -22.514  18.940  -9.828  1.00  0.00     0.287 C 
HETATM    6  O1  UNL     1     -23.175  18.964 -10.923  1.00  0.00    -0.264 OA
HETATM    7  N6  UNL     1     -23.050  18.916  -8.529  1.00  0.00    -0.328 N 
ATOM      8  H6  UNL     1     -24.013  18.689  -8.281  1.00  0.00     0.165 HD
HETATM    9  C11 UNL     1     -21.995  19.270  -7.605  1.00  0.00     0.103 C 
HETATM   10  C12 UNL     1     -22.105  20.775  -7.408  1.00  0.00     0.063 C 
HETATM   11  C13 UNL     1     -22.234  18.515  -6.325  1.00  0.00     0.063 C 
ENDROOT
BRANCH   3  12
HETATM   12  C5  UNL     1     -20.068  18.955 -11.922  1.00  0.00     0.103 C 
HETATM   13  N3  UNL     1     -20.571  17.939 -12.575  1.00  0.00    -0.387 N 
ATOM     14  H32 UNL     1     -20.975  17.170 -12.040  1.00  0.00     0.157 HD
ATOM     15  H31 UNL     1     -20.522  17.956 -13.593  1.00  0.00     0.157 HD
BRANCH  12  16
HETATM   16  C6  UNL     1     -19.487  20.059 -12.691  1.00  0.00     0.314 C 
BRANCH  16  17
HETATM   17  N4  UNL     1     -18.170  19.908 -13.208  1.00  0.00    -0.045 N 
HETATM   18  C7  UNL     1     -17.353  21.103 -12.951  1.00  0.00     0.274 C 
HETATM   19  C8  UNL     1     -17.505  18.860 -12.399  1.00  0.00     0.274 C 
BRANCH  17  20
HETATM   20  C9  UNL     1     -18.010  19.533 -14.565  1.00  0.00     0.464 C 
BRANCH  20  21
HETATM   21  N5  UNL     1     -19.186  19.503 -15.352  1.00  0.00    -0.055 N 
ATOM     22  H53 UNL     1     -19.000  19.918 -16.265  1.00  0.00     0.276 HD
ATOM     23  H52 UNL     1     -19.393  18.542 -15.624  1.00  0.00     0.276 HD
ATOM     24  H51 UNL     1     -20.016  19.931 -14.943  1.00  0.00     0.276 HD
ENDBRANCH  20  21
ENDBRANCH  17  20
ENDBRANCH  16  17
ENDBRANCH  12  16
ENDBRANCH   3  12
BRANCH   1  25
HETATM   25  C3  UNL     1     -19.510  18.589  -7.646  1.00  0.00     0.153 C 
BRANCH  25  26
HETATM   26  C2  UNL     1     -19.319  17.119  -7.524  1.00  0.00    -0.017 C 
HETATM   27  C1  UNL     1     -18.989  16.613  -6.367  1.00  0.00     0.008 C 
ENDBRANCH  25  26
ENDBRANCH   1  25
TORSDOF 7
ENDMDL
MODEL 5
REMARK VINA RESULT: -6.520034401      2.240      6.359
REMARK  7 active torsions:
REMARK  status: ('A' for Active; 'I' for Inactive)
REMARK    1  A    between atoms: C2_2  and  C3_3 
REMARK    2  A    between atoms: C3_3  and  N1_4 
REMARK    3  A    between atoms: N2_6  and  C5_8 
REMARK    4  A    between atoms: C5_8  and  C6_12 
REMARK    5  A    between atoms: C6_12  and  N4_13 
REMARK    6  A    between atoms: N4_13  and  C9_16 
REMARK    7  A    between atoms: C9_16  and  N5_17 
ROOT
HETATM    1  N1  UNL     1     -14.746  19.754 -13.283  1.00  0.00    -0.333 N 
HETATM    2  C4  UNL     1     -16.128  19.633 -13.714  1.00  0.00     0.176 C 
HETATM    3  N2  UNL     1     -17.056  19.543 -12.872  1.00  0.00    -0.327 N 
ATOM      4  H2  UNL     1     -16.716  19.568 -11.911  1.00  0.00     0.169 HD
HETATM    5  C10 UNL     1     -16.116  19.659 -15.168  1.00  0.00     0.287 C 
HETATM    6  O1  UNL     1     -17.136  19.576 -15.935  1.00  0.00    -0.264 OA
HETATM    7  N6  UNL     1     -14.776  19.794 -15.571  1.00  0.00    -0.328 N 
ATOM      8  H6  UNL     1     -14.452  20.067 -16.499  1.00  0.00     0.165 HD
HETATM    9  C11 UNL     1     -13.936  19.476 -14.436  1.00  0.00     0.103 C 
HETATM   10  C12 UNL     1     -13.615  17.994 -14.562  1.00  0.00     0.063 C 
HETATM   11  C13 UNL     1     -12.699  20.329 -14.529  1.00  0.00     0.063 C 
ENDROOT
BRANCH   3  12
HETATM   12  C5  UNL     1     -18.432  19.418 -12.945  1.00  0.00     0.103 C 
HETATM   13  N3  UNL     1     -18.939  18.849 -14.007  1.00  0.00    -0.387 N 
ATOM     14  H32 UNL     1     -18.302  18.536 -14.741  1.00  0.00     0.157 HD
ATOM     15  H31 UNL     1     -19.953  18.757 -14.061  1.00  0.00     0.157 HD
BRANCH  12  16
HETATM   16  C6  UNL     1     -19.346  19.868 -11.891  1.00  0.00     0.314 C 
BRANCH  16  17
HETATM   17  N4  UNL     1     -19.974  18.889 -11.071  1.00  0.00    -0.045 N 
HETATM   18  C7  UNL     1     -19.090  17.737 -10.842  1.00  0.00     0.274 C 
HETATM   19  C8  UNL     1     -20.117  19.483  -9.721  1.00  0.00     0.274 C 
BRANCH  17  20
HETATM   20  C9  UNL     1     -21.255  18.411 -11.441  1.00  0.00     0.464 C 
BRANCH  20  21
HETATM   21  N5  UNL     1     -21.295  17.150 -12.083  1.00  0.00    -0.055 N 
ATOM     22  H53 UNL     1     -20.353  16.876 -12.362  1.00  0.00     0.276 HD
ATOM     23  H52 UNL     1     -21.505  16.423 -11.400  1.00  0.00     0.276 HD
ATOM     24  H51 UNL     1     -21.927  17.067 -12.879  1.00  0.00     0.276 HD
ENDBRANCH  20  21
ENDBRANCH  17  20
ENDBRANCH  16  17
ENDBRANCH  12  16
ENDBRANCH   3  12
BRANCH   1  25
HETATM   25  C3  UNL     1     -14.271  20.076 -11.953  1.00  0.00     0.153 C 
BRANCH  25  26
HETATM   26  C2  UNL     1     -13.543  18.930 -11.346  1.00  0.00    -0.017 C 
HETATM   27  C1  UNL     1     -12.323  19.105 -10.917  1.00  0.00     0.008 C 
ENDBRANCH  25  26
ENDBRANCH   1  25
TORSDOF 7
ENDMDL
