MODEL 1
REMARK VINA RESULT: -6.792887680      0.000      0.000
REMARK  15 active torsions:
REMARK  status: ('A' for Active; 'I' for Inactive)
REMARK    1  A    between atoms: C2_2  and  C3_3 
REMARK    2  A    between atoms: C3_3  and  C4_4 
REMARK    3  A    between atoms: C4_4  and  C5_5 
REMARK    4  A    between atoms: C5_5  and  C6_6 
REMARK    5  A    between atoms: C6_6  and  C7_7 
REMARK    6  A    between atoms: C7_7  and  C8_8 
REMARK    7  A    between atoms: C7_7  and  N1_10 
REMARK       I    between atoms: N1_10  and  C9_12 
REMARK    8  A    between atoms: C9_12  and  C10_14 
REMARK    9  A    between atoms: C10_14  and  N2_15 
REMARK       I    between atoms: N2_15  and  C11_17 
REMARK   10  A    between atoms: C11_17  and  C12_19 
REMARK   11  A    between atoms: C12_19  and  N3_20 
REMARK   12  A    between atoms: C20_31  and  C21_32 
REMARK   13  A    between atoms: C21_32  and  C23_34 
REMARK   14  A    between atoms: C23_34  and  N5_38 
REMARK   15  A    between atoms: N6_41  and  C26_42 
ROOT
HETATM    1  N3  UNL     1      26.562  25.247  20.083  1.00  0.00    -0.313 N 
HETATM    2  C13 UNL     1      26.876  23.967  19.541  1.00  0.00     0.243 C 
HETATM    3  O4  UNL     1      26.937  23.929  18.257  1.00  0.00    -0.271 OA
HETATM    4  C14 UNL     1      27.150  22.676  20.138  1.00  0.00     0.092 C 
HETATM    5  C15 UNL     1      26.369  21.504  19.598  1.00  0.00     0.038 C 
HETATM    6  C16 UNL     1      28.606  22.326  19.703  1.00  0.00     0.038 C 
HETATM    7  S1  UNL     1      27.204  22.585  21.903  1.00  0.00    -0.077 SA
HETATM    8  S2  UNL     1      27.393  24.352  22.939  1.00  0.00    -0.081 SA
HETATM    9  C17 UNL     1      26.213  25.642  22.505  1.00  0.00     0.051 C 
HETATM   10  C18 UNL     1      27.024  26.927  22.536  1.00  0.00     0.034 C 
HETATM   11  C19 UNL     1      25.201  25.839  23.621  1.00  0.00     0.034 C 
HETATM   12  C20 UNL     1      25.604  25.508  21.174  1.00  0.00     0.022 C 
ENDROOT
BRANCH   1  13
HETATM   13  C12 UNL     1      27.212  26.297  19.354  1.00  0.00     0.234 C 
BRANCH  13  14
HETATM   14  C11 UNL     1      26.391  27.286  18.664  1.00  0.00     0.236 C 
HETATM   15  N2  UNL     1      26.011  26.975  17.310  1.00  0.00    -0.351 N 
ATOM     16  H2  UNL     1      26.319  26.102  16.882  1.00  0.00     0.163 HD
HETATM   17  O3  UNL     1      26.003  28.355  19.144  1.00  0.00    -0.272 OA
BRANCH  15  18
HETATM   18  C10 UNL     1      25.208  27.884  16.570  1.00  0.00     0.225 C 
BRANCH  18  19
HETATM   19  C9  UNL     1      23.794  27.516  16.543  1.00  0.00     0.235 C 
HETATM   20  N1  UNL     1      23.172  27.279  15.268  1.00  0.00    -0.349 N 
ATOM     21  H1  UNL     1      23.711  27.370  14.407  1.00  0.00     0.163 HD
HETATM   22  O2  UNL     1      23.126  27.405  17.592  1.00  0.00    -0.272 OA
BRANCH  20  23
HETATM   23  C7  UNL     1      21.784  26.913  15.221  1.00  0.00     0.146 C 
BRANCH  23  24
HETATM   24  C6  UNL     1      21.662  25.563  14.516  1.00  0.00     0.032 C 
BRANCH  24  25
HETATM   25  C5  UNL     1      20.254  25.152  14.339  1.00  0.00     0.002 C 
BRANCH  25  26
HETATM   26  C4  UNL     1      19.468  24.771  15.523  1.00  0.00     0.000 C 
BRANCH  26  27
HETATM   27  C3  UNL     1      18.190  25.415  15.816  1.00  0.00    -0.000 C 
BRANCH  27  28
HETATM   28  C2  UNL     1      16.967  25.067  15.045  1.00  0.00    -0.005 C 
HETATM   29  C1  UNL     1      16.669  23.592  15.000  1.00  0.00     0.005 C 
ENDBRANCH  27  28
ENDBRANCH  26  27
ENDBRANCH  25  26
ENDBRANCH  24  25
ENDBRANCH  23  24
BRANCH  23  30
HETATM   30  C8  UNL     1      20.962  27.959  14.585  1.00  0.00     0.256 C 
HETATM   31  O1  UNL     1      20.120  28.581  15.200  1.00  0.00    -0.305 OA
ENDBRANCH  23  30
ENDBRANCH  20  23
ENDBRANCH  18  19
ENDBRANCH  15  18
ENDBRANCH  13  14
ENDBRANCH   1  13
BRANCH  12  32
HETATM   32  C21 UNL     1      24.341  24.757  20.985  1.00  0.00     0.096 C 
HETATM   33  C22 UNL     1      23.713  23.930  22.005  1.00  0.00     0.024 C 
BRANCH  32  34
HETATM   34  C23 UNL     1      23.186  25.623  20.488  1.00  0.00     0.082 C 
HETATM   35  N4  UNL     1      23.409  26.866  20.328  1.00  0.00    -0.388 N 
ATOM     36  H42 UNL     1      24.329  27.271  20.498  1.00  0.00     0.157 HD
ATOM     37  H41 UNL     1      22.637  27.445  19.996  1.00  0.00     0.157 HD
BRANCH  34  38
HETATM   38  N5  UNL     1      21.916  25.063  20.254  1.00  0.00    -0.367 N 
HETATM   39  C24 UNL     1      20.769  25.632  20.913  1.00  0.00     0.143 C 
HETATM   40  C25 UNL     1      19.629  24.683  21.114  1.00  0.00     0.136 C 
HETATM   41  N6  UNL     1      19.330  23.907  19.973  1.00  0.00    -0.410 N 
HETATM   42  C28 UNL     1      20.286  23.846  18.933  1.00  0.00     0.136 C 
HETATM   43  C29 UNL     1      21.731  23.946  19.372  1.00  0.00     0.143 C 
BRANCH  41  44
HETATM   44  C26 UNL     1      18.583  22.716  20.196  1.00  0.00     0.112 C 
HETATM   45  C27 UNL     1      19.275  21.681  21.024  1.00  0.00     0.026 C 
ENDBRANCH  41  44
ENDBRANCH  34  38
ENDBRANCH  32  34
ENDBRANCH  12  32
TORSDOF 15
ENDMDL
MODEL 2
REMARK VINA RESULT: -6.783736062      8.329     14.083
REMARK  15 active torsions:
REMARK  status: ('A' for Active; 'I' for Inactive)
REMARK    1  A    between atoms: C2_2  and  C3_3 
REMARK    2  A    between atoms: C3_3  and  C4_4 
REMARK    3  A    between atoms: C4_4  and  C5_5 
REMARK    4  A    between atoms: C5_5  and  C6_6 
REMARK    5  A    between atoms: C6_6  and  C7_7 
REMARK    6  A    between atoms: C7_7  and  C8_8 
REMARK    7  A    between atoms: C7_7  and  N1_10 
REMARK       I    between atoms: N1_10  and  C9_12 
REMARK    8  A    between atoms: C9_12  and  C10_14 
REMARK    9  A    between atoms: C10_14  and  N2_15 
REMARK       I    between atoms: N2_15  and  C11_17 
REMARK   10  A    between atoms: C11_17  and  C12_19 
REMARK   11  A    between atoms: C12_19  and  N3_20 
REMARK   12  A    between atoms: C20_31  and  C21_32 
REMARK   13  A    between atoms: C21_32  and  C23_34 
REMARK   14  A    between atoms: C23_34  and  N5_38 
REMARK   15  A    between atoms: N6_41  and  C26_42 
ROOT
HETATM    1  N3  UNL     1      10.773  18.424  15.469  1.00  0.00    -0.313 N 
HETATM    2  C13 UNL     1      10.896  17.216  14.725  1.00  0.00     0.243 C 
HETATM    3  O4  UNL     1      11.227  16.188  15.422  1.00  0.00    -0.271 OA
HETATM    4  C14 UNL     1      10.720  16.891  13.324  1.00  0.00     0.092 C 
HETATM    5  C15 UNL     1      11.844  16.133  12.662  1.00  0.00     0.038 C 
HETATM    6  C16 UNL     1       9.558  15.851  13.289  1.00  0.00     0.038 C 
HETATM    7  S1  UNL     1      10.164  18.179  12.248  1.00  0.00    -0.077 SA
HETATM    8  S2  UNL     1       9.328  19.846  13.115  1.00  0.00    -0.081 SA
HETATM    9  C17 UNL     1      10.302  20.620  14.419  1.00  0.00     0.051 C 
HETATM   10  C18 UNL     1       9.279  21.036  15.464  1.00  0.00     0.034 C 
HETATM   11  C19 UNL     1      10.876  21.943  13.943  1.00  0.00     0.034 C 
HETATM   12  C20 UNL     1      11.292  19.744  15.061  1.00  0.00     0.022 C 
ENDROOT
BRANCH   1  13
HETATM   13  C12 UNL     1      10.173  18.190  16.751  1.00  0.00     0.234 C 
BRANCH  13  14
HETATM   14  C11 UNL     1      10.849  18.685  17.944  1.00  0.00     0.236 C 
HETATM   15  N2  UNL     1      11.455  17.696  18.798  1.00  0.00    -0.351 N 
ATOM     16  H2  UNL     1      11.395  16.707  18.554  1.00  0.00     0.163 HD
HETATM   17  O3  UNL     1      10.940  19.871  18.277  1.00  0.00    -0.272 OA
BRANCH  15  18
HETATM   18  C10 UNL     1      12.137  18.096  19.978  1.00  0.00     0.225 C 
BRANCH  18  19
HETATM   19  C9  UNL     1      13.553  18.382  19.758  1.00  0.00     0.235 C 
HETATM   20  N1  UNL     1      14.062  19.667  20.158  1.00  0.00    -0.349 N 
ATOM     21  H1  UNL     1      13.443  20.358  20.581  1.00  0.00     0.163 HD
HETATM   22  O2  UNL     1      14.319  17.544  19.239  1.00  0.00    -0.272 OA
BRANCH  20  23
HETATM   23  C7  UNL     1      15.452  19.966  19.954  1.00  0.00     0.146 C 
BRANCH  23  24
HETATM   24  C6  UNL     1      15.925  20.874  21.088  1.00  0.00     0.032 C 
BRANCH  24  25
HETATM   25  C5  UNL     1      16.989  21.802  20.653  1.00  0.00     0.002 C 
BRANCH  25  26
HETATM   26  C4  UNL     1      18.388  21.486  20.980  1.00  0.00     0.000 C 
BRANCH  26  27
HETATM   27  C3  UNL     1      19.456  21.710  20.009  1.00  0.00    -0.000 C 
BRANCH  27  28
HETATM   28  C2  UNL     1      20.457  22.791  20.211  1.00  0.00    -0.005 C 
HETATM   29  C1  UNL     1      19.875  24.074  20.744  1.00  0.00     0.005 C 
ENDBRANCH  27  28
ENDBRANCH  26  27
ENDBRANCH  25  26
ENDBRANCH  24  25
ENDBRANCH  23  24
BRANCH  23  30
HETATM   30  C8  UNL     1      15.697  20.551  18.622  1.00  0.00     0.256 C 
HETATM   31  O1  UNL     1      16.555  20.123  17.877  1.00  0.00    -0.305 OA
ENDBRANCH  23  30
ENDBRANCH  20  23
ENDBRANCH  18  19
ENDBRANCH  15  18
ENDBRANCH  13  14
ENDBRANCH   1  13
BRANCH  12  32
HETATM   32  C21 UNL     1      12.677  19.651  14.544  1.00  0.00     0.096 C 
HETATM   33  C22 UNL     1      13.126  20.219  13.281  1.00  0.00     0.024 C 
BRANCH  32  34
HETATM   34  C23 UNL     1      13.731  20.143  15.534  1.00  0.00     0.082 C 
HETATM   35  N4  UNL     1      13.938  19.437  16.572  1.00  0.00    -0.388 N 
ATOM     36  H42 UNL     1      13.442  18.560  16.732  1.00  0.00     0.157 HD
ATOM     37  H41 UNL     1      14.642  19.766  17.234  1.00  0.00     0.157 HD
BRANCH  34  38
HETATM   38  N5  UNL     1      14.415  21.354  15.314  1.00  0.00    -0.367 N 
HETATM   39  C24 UNL     1      15.556  21.361  14.435  1.00  0.00     0.143 C 
HETATM   40  C25 UNL     1      16.550  22.446  14.712  1.00  0.00     0.136 C 
HETATM   41  N6  UNL     1      15.961  23.712  14.926  1.00  0.00    -0.410 N 
HETATM   42  C28 UNL     1      14.574  23.770  15.192  1.00  0.00     0.136 C 
HETATM   43  C29 UNL     1      14.004  22.581  15.933  1.00  0.00     0.143 C 
BRANCH  41  44
HETATM   44  C26 UNL     1      16.762  24.675  15.603  1.00  0.00     0.112 C 
HETATM   45  C27 UNL     1      17.213  25.826  14.760  1.00  0.00     0.026 C 
ENDBRANCH  41  44
ENDBRANCH  34  38
ENDBRANCH  32  34
ENDBRANCH  12  32
TORSDOF 15
ENDMDL
MODEL 3
REMARK VINA RESULT: -6.745030526      5.524      9.743
REMARK  15 active torsions:
REMARK  status: ('A' for Active; 'I' for Inactive)
REMARK    1  A    between atoms: C2_2  and  C3_3 
REMARK    2  A    between atoms: C3_3  and  C4_4 
REMARK    3  A    between atoms: C4_4  and  C5_5 
REMARK    4  A    between atoms: C5_5  and  C6_6 
REMARK    5  A    between atoms: C6_6  and  C7_7 
REMARK    6  A    between atoms: C7_7  and  C8_8 
REMARK    7  A    between atoms: C7_7  and  N1_10 
REMARK       I    between atoms: N1_10  and  C9_12 
REMARK    8  A    between atoms: C9_12  and  C10_14 
REMARK    9  A    between atoms: C10_14  and  N2_15 
REMARK       I    between atoms: N2_15  and  C11_17 
REMARK   10  A    between atoms: C11_17  and  C12_19 
REMARK   11  A    between atoms: C12_19  and  N3_20 
REMARK   12  A    between atoms: C20_31  and  C21_32 
REMARK   13  A    between atoms: C21_32  and  C23_34 
REMARK   14  A    between atoms: C23_34  and  N5_38 
REMARK   15  A    between atoms: N6_41  and  C26_42 
ROOT
HETATM    1  N3  UNL     1      16.880  22.113  16.756  1.00  0.00    -0.313 N 
HETATM    2  C13 UNL     1      16.935  21.263  17.898  1.00  0.00     0.243 C 
HETATM    3  O4  UNL     1      18.025  20.592  18.014  1.00  0.00    -0.271 OA
HETATM    4  C14 UNL     1      16.011  20.991  18.979  1.00  0.00     0.092 C 
HETATM    5  C15 UNL     1      15.718  19.539  19.267  1.00  0.00     0.038 C 
HETATM    6  C16 UNL     1      16.754  21.439  20.275  1.00  0.00     0.038 C 
HETATM    7  S1  UNL     1      14.503  21.914  19.018  1.00  0.00    -0.077 SA
HETATM    8  S2  UNL     1      14.404  23.620  17.874  1.00  0.00    -0.081 SA
HETATM    9  C17 UNL     1      14.869  23.428  16.144  1.00  0.00     0.051 C 
HETATM   10  C18 UNL     1      15.647  24.692  15.816  1.00  0.00     0.034 C 
HETATM   11  C19 UNL     1      13.647  23.525  15.247  1.00  0.00     0.034 C 
HETATM   12  C20 UNL     1      15.723  22.268  15.853  1.00  0.00     0.022 C 
ENDROOT
BRANCH   1  13
HETATM   13  C12 UNL     1      18.148  22.735  16.506  1.00  0.00     0.234 C 
BRANCH  13  14
HETATM   14  C11 UNL     1      18.673  23.678  17.487  1.00  0.00     0.236 C 
HETATM   15  N2  UNL     1      20.090  23.937  17.436  1.00  0.00    -0.351 N 
ATOM     16  H2  UNL     1      20.669  23.466  16.741  1.00  0.00     0.163 HD
HETATM   17  O3  UNL     1      18.008  24.264  18.347  1.00  0.00    -0.272 OA
BRANCH  15  18
HETATM   18  C10 UNL     1      20.680  24.846  18.354  1.00  0.00     0.225 C 
BRANCH  18  19
HETATM   19  C9  UNL     1      21.154  26.076  17.725  1.00  0.00     0.235 C 
HETATM   20  N1  UNL     1      22.499  26.110  17.214  1.00  0.00    -0.349 N 
ATOM     21  H1  UNL     1      23.102  25.292  17.296  1.00  0.00     0.163 HD
HETATM   22  O2  UNL     1      20.424  27.084  17.622  1.00  0.00    -0.272 OA
BRANCH  20  23
HETATM   23  C7  UNL     1      22.982  27.309  16.588  1.00  0.00     0.146 C 
BRANCH  23  24
HETATM   24  C6  UNL     1      23.010  27.090  15.076  1.00  0.00     0.032 C 
BRANCH  24  25
HETATM   25  C5  UNL     1      22.201  28.092  14.353  1.00  0.00     0.002 C 
BRANCH  25  26
HETATM   26  C4  UNL     1      20.774  27.822  14.119  1.00  0.00     0.000 C 
BRANCH  26  27
HETATM   27  C3  UNL     1      20.258  26.456  14.116  1.00  0.00    -0.000 C 
BRANCH  27  28
HETATM   28  C2  UNL     1      18.891  26.155  14.619  1.00  0.00    -0.005 C 
HETATM   29  C1  UNL     1      17.786  26.623  13.710  1.00  0.00     0.005 C 
ENDBRANCH  27  28
ENDBRANCH  26  27
ENDBRANCH  25  26
ENDBRANCH  24  25
ENDBRANCH  23  24
BRANCH  23  30
HETATM   30  C8  UNL     1      24.294  27.717  17.125  1.00  0.00     0.256 C 
HETATM   31  O1  UNL     1      24.693  27.344  18.209  1.00  0.00    -0.305 OA
ENDBRANCH  23  30
ENDBRANCH  20  23
ENDBRANCH  18  19
ENDBRANCH  15  18
ENDBRANCH  13  14
ENDBRANCH   1  13
BRANCH  12  32
HETATM   32  C21 UNL     1      15.133  20.958  15.491  1.00  0.00     0.096 C 
HETATM   33  C22 UNL     1      14.034  20.323  16.203  1.00  0.00     0.024 C 
BRANCH  32  34
HETATM   34  C23 UNL     1      14.689  20.873  14.032  1.00  0.00     0.082 C 
HETATM   35  N4  UNL     1      15.399  21.477  13.165  1.00  0.00    -0.388 N 
ATOM     36  H42 UNL     1      16.248  21.979  13.423  1.00  0.00     0.157 HD
ATOM     37  H41 UNL     1      15.103  21.420  12.190  1.00  0.00     0.157 HD
BRANCH  34  38
HETATM   38  N5  UNL     1      13.516  20.180  13.676  1.00  0.00    -0.367 N 
HETATM   39  C24 UNL     1      12.248  20.852  13.786  1.00  0.00     0.143 C 
HETATM   40  C25 UNL     1      11.075  19.944  13.988  1.00  0.00     0.136 C 
HETATM   41  N6  UNL     1      11.077  18.819  13.134  1.00  0.00    -0.410 N 
HETATM   42  C28 UNL     1      12.275  18.489  12.460  1.00  0.00     0.136 C 
HETATM   43  C29 UNL     1      13.550  18.827  13.201  1.00  0.00     0.143 C 
BRANCH  41  44
HETATM   44  C26 UNL     1      10.271  17.717  13.538  1.00  0.00     0.112 C 
HETATM   45  C27 UNL     1      10.435  17.305  14.967  1.00  0.00     0.026 C 
ENDBRANCH  41  44
ENDBRANCH  34  38
ENDBRANCH  32  34
ENDBRANCH  12  32
TORSDOF 15
ENDMDL
MODEL 4
REMARK VINA RESULT: -6.705762544      2.187      3.856
REMARK  15 active torsions:
REMARK  status: ('A' for Active; 'I' for Inactive)
REMARK    1  A    between atoms: C2_2  and  C3_3 
REMARK    2  A    between atoms: C3_3  and  C4_4 
REMARK    3  A    between atoms: C4_4  and  C5_5 
REMARK    4  A    between atoms: C5_5  and  C6_6 
REMARK    5  A    between atoms: C6_6  and  C7_7 
REMARK    6  A    between atoms: C7_7  and  C8_8 
REMARK    7  A    between atoms: C7_7  and  N1_10 
REMARK       I    between atoms: N1_10  and  C9_12 
REMARK    8  A    between atoms: C9_12  and  C10_14 
REMARK    9  A    between atoms: C10_14  and  N2_15 
REMARK       I    between atoms: N2_15  and  C11_17 
REMARK   10  A    between atoms: C11_17  and  C12_19 
REMARK   11  A    between atoms: C12_19  and  N3_20 
REMARK   12  A    between atoms: C20_31  and  C21_32 
REMARK   13  A    between atoms: C21_32  and  C23_34 
REMARK   14  A    between atoms: C23_34  and  N5_38 
REMARK   15  A    between atoms: N6_41  and  C26_42 
ROOT
HETATM    1  N3  UNL     1      23.044  25.985  19.186  1.00  0.00    -0.313 N 
HETATM    2  C13 UNL     1      24.179  25.131  19.076  1.00  0.00     0.243 C 
HETATM    3  O4  UNL     1      24.784  25.187  17.944  1.00  0.00    -0.271 OA
HETATM    4  C14 UNL     1      24.810  24.198  19.986  1.00  0.00     0.092 C 
HETATM    5  C15 UNL     1      25.080  22.813  19.453  1.00  0.00     0.038 C 
HETATM    6  C16 UNL     1      26.252  24.752  20.203  1.00  0.00     0.038 C 
HETATM    7  S1  UNL     1      24.154  24.081  21.625  1.00  0.00    -0.077 SA
HETATM    8  S2  UNL     1      22.925  25.601  22.266  1.00  0.00    -0.081 SA
HETATM    9  C17 UNL     1      21.557  26.014  21.169  1.00  0.00     0.051 C 
HETATM   10  C18 UNL     1      21.465  27.530  21.229  1.00  0.00     0.034 C 
HETATM   11  C19 UNL     1      20.237  25.558  21.766  1.00  0.00     0.034 C 
HETATM   12  C20 UNL     1      21.739  25.614  19.766  1.00  0.00     0.022 C 
ENDROOT
BRANCH   1  13
HETATM   13  C12 UNL     1      23.276  27.248  18.547  1.00  0.00     0.234 C 
BRANCH  13  14
HETATM   14  C11 UNL     1      22.267  27.768  17.631  1.00  0.00     0.236 C 
HETATM   15  N2  UNL     1      22.745  28.290  16.376  1.00  0.00    -0.351 N 
ATOM     16  H2  UNL     1      23.744  28.284  16.168  1.00  0.00     0.163 HD
HETATM   17  O3  UNL     1      21.052  27.799  17.846  1.00  0.00    -0.272 OA
BRANCH  15  18
HETATM   18  C10 UNL     1      21.826  28.812  15.427  1.00  0.00     0.225 C 
BRANCH  18  19
HETATM   19  C9  UNL     1      21.196  27.780  14.605  1.00  0.00     0.235 C 
HETATM   20  N1  UNL     1      20.083  27.052  15.154  1.00  0.00    -0.349 N 
ATOM     21  H1  UNL     1      19.749  27.254  16.096  1.00  0.00     0.163 HD
HETATM   22  O2  UNL     1      21.599  27.524  13.451  1.00  0.00    -0.272 OA
BRANCH  20  23
HETATM   23  C7  UNL     1      19.447  26.038  14.359  1.00  0.00     0.146 C 
BRANCH  23  24
HETATM   24  C6  UNL     1      17.937  26.137  14.564  1.00  0.00     0.032 C 
BRANCH  24  25
HETATM   25  C5  UNL     1      17.449  25.186  15.583  1.00  0.00     0.002 C 
BRANCH  25  26
HETATM   26  C4  UNL     1      16.265  24.365  15.284  1.00  0.00     0.000 C 
BRANCH  26  27
HETATM   27  C3  UNL     1      16.392  23.087  14.589  1.00  0.00    -0.000 C 
BRANCH  27  28
HETATM   28  C2  UNL     1      15.268  22.113  14.572  1.00  0.00    -0.005 C 
HETATM   29  C1  UNL     1      15.155  21.329  13.291  1.00  0.00     0.005 C 
ENDBRANCH  27  28
ENDBRANCH  26  27
ENDBRANCH  25  26
ENDBRANCH  24  25
ENDBRANCH  23  24
BRANCH  23  30
HETATM   30  C8  UNL     1      19.973  24.694  14.666  1.00  0.00     0.256 C 
HETATM   31  O1  UNL     1      20.812  24.509  15.523  1.00  0.00    -0.305 OA
ENDBRANCH  23  30
ENDBRANCH  20  23
ENDBRANCH  18  19
ENDBRANCH  15  18
ENDBRANCH  13  14
ENDBRANCH   1  13
BRANCH  12  32
HETATM   32  C21 UNL     1      21.283  24.289  19.286  1.00  0.00     0.096 C 
HETATM   33  C22 UNL     1      21.346  23.062  20.067  1.00  0.00     0.024 C 
BRANCH  32  34
HETATM   34  C23 UNL     1      19.847  24.291  18.767  1.00  0.00     0.082 C 
HETATM   35  N4  UNL     1      19.424  25.353  18.209  1.00  0.00    -0.388 N 
ATOM     36  H42 UNL     1      20.024  26.168  18.085  1.00  0.00     0.157 HD
ATOM     37  H41 UNL     1      18.465  25.354  17.862  1.00  0.00     0.157 HD
BRANCH  34  38
HETATM   38  N5  UNL     1      19.019  23.165  18.939  1.00  0.00    -0.367 N 
HETATM   39  C24 UNL     1      18.778  22.297  17.816  1.00  0.00     0.143 C 
HETATM   40  C25 UNL     1      17.489  21.538  17.878  1.00  0.00     0.136 C 
HETATM   41  N6  UNL     1      17.236  20.956  19.140  1.00  0.00    -0.410 N 
HETATM   42  C28 UNL     1      17.989  21.403  20.249  1.00  0.00     0.136 C 
HETATM   43  C29 UNL     1      18.414  22.854  20.203  1.00  0.00     0.143 C 
BRANCH  41  44
HETATM   44  C26 UNL     1      15.884  20.602  19.412  1.00  0.00     0.112 C 
HETATM   45  C27 UNL     1      15.478  20.715  20.848  1.00  0.00     0.026 C 
ENDBRANCH  41  44
ENDBRANCH  34  38
ENDBRANCH  32  34
ENDBRANCH  12  32
TORSDOF 15
ENDMDL
MODEL 5
REMARK VINA RESULT: -6.391046101      6.832     11.327
REMARK  15 active torsions:
REMARK  status: ('A' for Active; 'I' for Inactive)
REMARK    1  A    between atoms: C2_2  and  C3_3 
REMARK    2  A    between atoms: C3_3  and  C4_4 
REMARK    3  A    between atoms: C4_4  and  C5_5 
REMARK    4  A    between atoms: C5_5  and  C6_6 
REMARK    5  A    between atoms: C6_6  and  C7_7 
REMARK    6  A    between atoms: C7_7  and  C8_8 
REMARK    7  A    between atoms: C7_7  and  N1_10 
REMARK       I    between atoms: N1_10  and  C9_12 
REMARK    8  A    between atoms: C9_12  and  C10_14 
REMARK    9  A    between atoms: C10_14  and  N2_15 
REMARK       I    between atoms: N2_15  and  C11_17 
REMARK   10  A    between atoms: C11_17  and  C12_19 
REMARK   11  A    between atoms: C12_19  and  N3_20 
REMARK   12  A    between atoms: C20_31  and  C21_32 
REMARK   13  A    between atoms: C21_32  and  C23_34 
REMARK   14  A    between atoms: C23_34  and  N5_38 
REMARK   15  A    between atoms: N6_41  and  C26_42 
ROOT
HETATM    1  N3  UNL     1      15.307  22.734  17.912  1.00  0.00    -0.313 N 
HETATM    2  C13 UNL     1      14.609  21.915  18.844  1.00  0.00     0.243 C 
HETATM    3  O4  UNL     1      13.650  22.507  19.464  1.00  0.00    -0.271 OA
HETATM    4  C14 UNL     1      14.747  20.531  19.249  1.00  0.00     0.092 C 
HETATM    5  C15 UNL     1      14.823  20.266  20.732  1.00  0.00     0.038 C 
HETATM    6  C16 UNL     1      13.394  19.857  18.865  1.00  0.00     0.038 C 
HETATM    7  S1  UNL     1      15.958  19.551  18.412  1.00  0.00    -0.077 SA
HETATM    8  S2  UNL     1      16.693  20.267  16.630  1.00  0.00    -0.081 SA
HETATM    9  C17 UNL     1      17.304  21.962  16.661  1.00  0.00     0.051 C 
HETATM   10  C18 UNL     1      16.853  22.554  15.336  1.00  0.00     0.034 C 
HETATM   11  C19 UNL     1      18.819  21.986  16.559  1.00  0.00     0.034 C 
HETATM   12  C20 UNL     1      16.773  22.796  17.749  1.00  0.00     0.022 C 
ENDROOT
BRANCH   1  13
HETATM   13  C12 UNL     1      14.411  23.604  17.205  1.00  0.00     0.234 C 
BRANCH  13  14
HETATM   14  C11 UNL     1      13.838  23.147  15.945  1.00  0.00     0.236 C 
HETATM   15  N2  UNL     1      13.463  21.757  15.874  1.00  0.00    -0.351 N 
ATOM     16  H2  UNL     1      13.608  21.149  16.681  1.00  0.00     0.163 HD
HETATM   17  O3  UNL     1      13.652  23.848  14.946  1.00  0.00    -0.272 OA
BRANCH  15  18
HETATM   18  C10 UNL     1      12.894  21.234  14.683  1.00  0.00     0.225 C 
BRANCH  18  19
HETATM   19  C9  UNL     1      11.627  20.538  14.906  1.00  0.00     0.235 C 
HETATM   20  N1  UNL     1      11.648  19.106  15.046  1.00  0.00    -0.349 N 
ATOM     21  H1  UNL     1      12.528  18.595  14.987  1.00  0.00     0.163 HD
HETATM   22  O2  UNL     1      10.544  21.155  14.977  1.00  0.00    -0.272 OA
BRANCH  20  23
HETATM   23  C7  UNL     1      10.414  18.405  15.269  1.00  0.00     0.146 C 
BRANCH  23  24
HETATM   24  C6  UNL     1      10.419  17.856  16.695  1.00  0.00     0.032 C 
BRANCH  24  25
HETATM   25  C5  UNL     1      10.464  16.380  16.723  1.00  0.00     0.002 C 
BRANCH  25  26
HETATM   26  C4  UNL     1      11.306  15.711  17.726  1.00  0.00     0.000 C 
BRANCH  26  27
HETATM   27  C3  UNL     1      12.067  16.483  18.705  1.00  0.00    -0.000 C 
BRANCH  27  28
HETATM   28  C2  UNL     1      11.458  16.880  20.003  1.00  0.00    -0.005 C 
HETATM   29  C1  UNL     1      12.461  17.223  21.072  1.00  0.00     0.005 C 
ENDBRANCH  27  28
ENDBRANCH  26  27
ENDBRANCH  25  26
ENDBRANCH  24  25
ENDBRANCH  23  24
BRANCH  23  30
HETATM   30  C8  UNL     1      10.191  17.354  14.259  1.00  0.00     0.256 C 
HETATM   31  O1  UNL     1       9.216  17.349  13.536  1.00  0.00    -0.305 OA
ENDBRANCH  23  30
ENDBRANCH  20  23
ENDBRANCH  18  19
ENDBRANCH  15  18
ENDBRANCH  13  14
ENDBRANCH   1  13
BRANCH  12  32
HETATM   32  C21 UNL     1      17.466  22.878  19.055  1.00  0.00     0.096 C 
HETATM   33  C22 UNL     1      18.542  21.992  19.475  1.00  0.00     0.024 C 
BRANCH  32  34
HETATM   34  C23 UNL     1      18.027  24.265  19.361  1.00  0.00     0.082 C 
HETATM   35  N4  UNL     1      17.793  24.754  20.512  1.00  0.00    -0.388 N 
ATOM     36  H42 UNL     1      17.273  24.235  21.219  1.00  0.00     0.157 HD
ATOM     37  H41 UNL     1      18.167  25.682  20.716  1.00  0.00     0.157 HD
BRANCH  34  38
HETATM   38  N5  UNL     1      18.744  24.982  18.383  1.00  0.00    -0.367 N 
HETATM   39  C24 UNL     1      18.027  25.561  17.276  1.00  0.00     0.143 C 
HETATM   40  C25 UNL     1      18.843  25.750  16.035  1.00  0.00     0.136 C 
HETATM   41  N6  UNL     1      20.116  26.313  16.275  1.00  0.00    -0.410 N 
HETATM   42  C28 UNL     1      20.608  26.320  17.600  1.00  0.00     0.136 C 
HETATM   43  C29 UNL     1      20.165  25.159  18.464  1.00  0.00     0.143 C 
BRANCH  41  44
HETATM   44  C26 UNL     1      21.091  26.129  15.254  1.00  0.00     0.112 C 
HETATM   45  C27 UNL     1      20.941  24.872  14.456  1.00  0.00     0.026 C 
ENDBRANCH  41  44
ENDBRANCH  34  38
ENDBRANCH  32  34
ENDBRANCH  12  32
TORSDOF 15
ENDMDL
