MODEL 1
REMARK VINA RESULT: -5.563922777      0.000      0.000
REMARK  5 active torsions:
REMARK  status: ('A' for Active; 'I' for Inactive)
REMARK    1  A    between atoms: C2_2  and  S1_3 
REMARK    2  A    between atoms: S1_3  and  C3_4 
REMARK    3  A    between atoms: C3_4  and  N2_8 
REMARK    4  A    between atoms: N2_8  and  C4_10 
REMARK    5  A    between atoms: C4_10  and  N3_11 
ROOT
HETATM    1  N3  UNL     1       8.083   7.758  43.005  1.00  0.00    -0.305 N 
HETATM    2  C5  UNL     1       8.615   6.745  43.671  1.00  0.00     0.125 A 
HETATM    3  C6  UNL     1       9.082   6.815  45.078  1.00  0.00     0.118 C 
HETATM    4  N4  UNL     1       9.442   6.891  46.181  1.00  0.00    -0.190 NA
HETATM    5  C7  UNL     1       8.737   5.557  43.005  1.00  0.00     0.094 A 
HETATM    6  S2  UNL     1       8.095   5.923  41.467  1.00  0.00    -0.069 SA
HETATM    7  C8  UNL     1       7.707   7.558  41.749  1.00  0.00     0.147 A 
HETATM    8  S3  UNL     1       7.018   8.660  40.706  1.00  0.00    -0.052 SA
ENDROOT
BRANCH   1   9
HETATM    9  C4  UNL     1       7.891   9.107  43.611  1.00  0.00     0.277 C 
BRANCH   9  10
HETATM   10  N2  UNL     1       6.832   9.064  44.581  1.00  0.00    -0.251 N 
HETATM   11 CL1  UNL     1       5.476   7.993  44.313  1.00  0.00     0.017 Cl
BRANCH  10  12
HETATM   12  C3  UNL     1       6.797   9.835  45.762  1.00  0.00     0.152 C 
HETATM   13  N1  UNL     1       7.305   9.354  46.846  1.00  0.00    -0.379 N 
ATOM     14  H12 UNL     1       7.280   9.912  47.700  1.00  0.00     0.158 HD
ATOM     15  H11 UNL     1       7.726   8.425  46.848  1.00  0.00     0.158 HD
BRANCH  12  16
HETATM   16  S1  UNL     1       6.054  11.473  45.758  1.00  0.00    -0.094 SA
BRANCH  16  17
HETATM   17  C2  UNL     1       6.415  12.317  44.214  1.00  0.00     0.078 C 
HETATM   18  C1  UNL     1       7.901  12.680  44.229  1.00  0.00     0.016 C 
ENDBRANCH  16  17
ENDBRANCH  12  16
ENDBRANCH  10  12
ENDBRANCH   9  10
ENDBRANCH   1   9
TORSDOF 5
ENDMDL
MODEL 2
REMARK VINA RESULT: -5.463318983      1.735      1.873
REMARK  5 active torsions:
REMARK  status: ('A' for Active; 'I' for Inactive)
REMARK    1  A    between atoms: C2_2  and  S1_3 
REMARK    2  A    between atoms: S1_3  and  C3_4 
REMARK    3  A    between atoms: C3_4  and  N2_8 
REMARK    4  A    between atoms: N2_8  and  C4_10 
REMARK    5  A    between atoms: C4_10  and  N3_11 
ROOT
HETATM    1  N3  UNL     1       8.976   8.175  41.971  1.00  0.00    -0.305 N 
HETATM    2  C5  UNL     1       9.842   7.177  42.067  1.00  0.00     0.125 A 
HETATM    3  C6  UNL     1      10.574   6.815  43.305  1.00  0.00     0.118 C 
HETATM    4  N4  UNL     1      11.139   6.548  44.287  1.00  0.00    -0.190 NA
HETATM    5  C7  UNL     1      10.067   6.438  40.939  1.00  0.00     0.094 A 
HETATM    6  S2  UNL     1       9.047   7.183  39.793  1.00  0.00    -0.069 SA
HETATM    7  C8  UNL     1       8.390   8.389  40.801  1.00  0.00     0.147 A 
HETATM    8  S3  UNL     1       7.274   9.568  40.424  1.00  0.00    -0.052 SA
ENDROOT
BRANCH   1   9
HETATM    9  C4  UNL     1       8.636   9.059  43.122  1.00  0.00     0.277 C 
BRANCH   9  10
HETATM   10  N2  UNL     1       7.745   8.377  44.020  1.00  0.00    -0.251 N 
HETATM   11 CL1  UNL     1       6.431   7.431  43.359  1.00  0.00     0.017 Cl
BRANCH  10  12
HETATM   12  C3  UNL     1       7.847   8.410  45.427  1.00  0.00     0.152 C 
HETATM   13  N1  UNL     1       8.504   7.481  46.034  1.00  0.00    -0.379 N 
ATOM     14  H12 UNL     1       8.578   7.505  47.052  1.00  0.00     0.158 HD
ATOM     15  H11 UNL     1       8.945   6.731  45.502  1.00  0.00     0.158 HD
BRANCH  12  16
HETATM   16  S1  UNL     1       7.070   9.733  46.365  1.00  0.00    -0.094 SA
BRANCH  16  17
HETATM   17  C2  UNL     1       6.188  10.844  45.262  1.00  0.00     0.078 C 
HETATM   18  C1  UNL     1       7.116  12.023  44.965  1.00  0.00     0.016 C 
ENDBRANCH  16  17
ENDBRANCH  12  16
ENDBRANCH  10  12
ENDBRANCH   9  10
ENDBRANCH   1   9
TORSDOF 5
ENDMDL
MODEL 3
REMARK VINA RESULT: -5.418649389      3.758      6.046
REMARK  5 active torsions:
REMARK  status: ('A' for Active; 'I' for Inactive)
REMARK    1  A    between atoms: C2_2  and  S1_3 
REMARK    2  A    between atoms: S1_3  and  C3_4 
REMARK    3  A    between atoms: C3_4  and  N2_8 
REMARK    4  A    between atoms: N2_8  and  C4_10 
REMARK    5  A    between atoms: C4_10  and  N3_11 
ROOT
HETATM    1  N3  UNL     1       9.107   7.522  41.492  1.00  0.00    -0.305 N 
HETATM    2  C5  UNL     1       9.126   7.382  42.809  1.00  0.00     0.125 A 
HETATM    3  C6  UNL     1      10.286   6.880  43.585  1.00  0.00     0.118 C 
HETATM    4  N4  UNL     1      11.208   6.484  44.174  1.00  0.00    -0.190 NA
HETATM    5  C7  UNL     1       7.991   7.727  43.488  1.00  0.00     0.094 A 
HETATM    6  S2  UNL     1       6.946   8.235  42.238  1.00  0.00    -0.069 SA
HETATM    7  C8  UNL     1       8.001   7.984  40.924  1.00  0.00     0.147 A 
HETATM    8  S3  UNL     1       7.725   8.248  39.302  1.00  0.00    -0.052 SA
ENDROOT
BRANCH   1   9
HETATM    9  C4  UNL     1      10.275   7.185  40.630  1.00  0.00     0.277 C 
BRANCH   9  10
HETATM   10  N2  UNL     1      10.491   5.765  40.626  1.00  0.00    -0.251 N 
HETATM   11 CL1  UNL     1      12.075   5.144  41.030  1.00  0.00     0.017 Cl
BRANCH  10  12
HETATM   12  C3  UNL     1       9.504   4.806  40.313  1.00  0.00     0.152 C 
HETATM   13  N1  UNL     1       9.048   4.043  41.248  1.00  0.00    -0.379 N 
ATOM     14  H12 UNL     1       8.334   3.349  41.022  1.00  0.00     0.158 HD
ATOM     15  H11 UNL     1       9.398   4.131  42.201  1.00  0.00     0.158 HD
BRANCH  12  16
HETATM   16  S1  UNL     1       8.886   4.650  38.631  1.00  0.00    -0.094 SA
BRANCH  16  17
HETATM   17  C2  UNL     1       7.091   4.595  38.631  1.00  0.00     0.078 C 
HETATM   18  C1  UNL     1       6.624   4.947  37.216  1.00  0.00     0.016 C 
ENDBRANCH  16  17
ENDBRANCH  12  16
ENDBRANCH  10  12
ENDBRANCH   9  10
ENDBRANCH   1   9
TORSDOF 5
ENDMDL
MODEL 4
REMARK VINA RESULT: -5.367934848      1.713      1.967
REMARK  5 active torsions:
REMARK  status: ('A' for Active; 'I' for Inactive)
REMARK    1  A    between atoms: C2_2  and  S1_3 
REMARK    2  A    between atoms: S1_3  and  C3_4 
REMARK    3  A    between atoms: C3_4  and  N2_8 
REMARK    4  A    between atoms: N2_8  and  C4_10 
REMARK    5  A    between atoms: C4_10  and  N3_11 
ROOT
HETATM    1  N3  UNL     1       8.811   7.045  41.637  1.00  0.00    -0.305 N 
HETATM    2  C5  UNL     1       9.814   6.264  42.007  1.00  0.00     0.125 A 
HETATM    3  C6  UNL     1      10.605   6.443  43.250  1.00  0.00     0.118 C 
HETATM    4  N4  UNL     1      11.213   6.601  44.229  1.00  0.00    -0.190 NA
HETATM    5  C7  UNL     1      10.134   5.225  41.178  1.00  0.00     0.094 A 
HETATM    6  S2  UNL     1       9.003   5.395  39.912  1.00  0.00    -0.069 SA
HETATM    7  C8  UNL     1       8.187   6.771  40.499  1.00  0.00     0.147 A 
HETATM    8  S3  UNL     1       6.908   7.593  39.818  1.00  0.00    -0.052 SA
ENDROOT
BRANCH   1   9
HETATM    9  C4  UNL     1       8.358   8.211  42.447  1.00  0.00     0.277 C 
BRANCH   9  10
HETATM   10  N2  UNL     1       7.697   7.757  43.638  1.00  0.00    -0.251 N 
HETATM   11 CL1  UNL     1       6.595   6.402  43.535  1.00  0.00     0.017 Cl
BRANCH  10  12
HETATM   12  C3  UNL     1       7.867   8.329  44.916  1.00  0.00     0.152 C 
HETATM   13  N1  UNL     1       8.426   7.635  45.849  1.00  0.00    -0.379 N 
ATOM     14  H12 UNL     1       8.549   8.048  46.774  1.00  0.00     0.158 HD
ATOM     15  H11 UNL     1       8.740   6.682  45.663  1.00  0.00     0.158 HD
BRANCH  12  16
HETATM   16  S1  UNL     1       7.312  10.008  45.244  1.00  0.00    -0.094 SA
BRANCH  16  17
HETATM   17  C2  UNL     1       8.299  11.183  44.310  1.00  0.00     0.078 C 
HETATM   18  C1  UNL     1       7.598  12.540  44.398  1.00  0.00     0.016 C 
ENDBRANCH  16  17
ENDBRANCH  12  16
ENDBRANCH  10  12
ENDBRANCH   9  10
ENDBRANCH   1   9
TORSDOF 5
ENDMDL
MODEL 5
REMARK VINA RESULT: -5.366303194      2.574      3.204
REMARK  5 active torsions:
REMARK  status: ('A' for Active; 'I' for Inactive)
REMARK    1  A    between atoms: C2_2  and  S1_3 
REMARK    2  A    between atoms: S1_3  and  C3_4 
REMARK    3  A    between atoms: C3_4  and  N2_8 
REMARK    4  A    between atoms: N2_8  and  C4_10 
REMARK    5  A    between atoms: C4_10  and  N3_11 
ROOT
HETATM    1  N3  UNL     1       6.761   9.987  43.255  1.00  0.00    -0.305 N 
HETATM    2  C5  UNL     1       7.753   9.313  43.818  1.00  0.00     0.125 A 
HETATM    3  C6  UNL     1       7.911   9.114  45.280  1.00  0.00     0.118 C 
HETATM    4  N4  UNL     1       8.016   8.969  46.429  1.00  0.00    -0.190 NA
HETATM    5  C7  UNL     1       8.688   8.768  42.984  1.00  0.00     0.094 A 
HETATM    6  S2  UNL     1       8.128   9.231  41.440  1.00  0.00    -0.069 SA
HETATM    7  C8  UNL     1       6.740  10.089  41.933  1.00  0.00     0.147 A 
HETATM    8  S3  UNL     1       5.613  10.875  40.991  1.00  0.00    -0.052 SA
ENDROOT
BRANCH   1   9
HETATM    9  C4  UNL     1       5.674  10.630  44.046  1.00  0.00     0.277 C 
BRANCH   9  10
HETATM   10  N2  UNL     1       6.191  11.763  44.763  1.00  0.00    -0.251 N 
HETATM   11 CL1  UNL     1       7.443  12.737  44.025  1.00  0.00     0.017 Cl
BRANCH  10  12
HETATM   12  C3  UNL     1       5.761  12.163  46.046  1.00  0.00     0.152 C 
HETATM   13  N1  UNL     1       5.756  11.302  47.006  1.00  0.00    -0.379 N 
ATOM     14  H12 UNL     1       5.445  11.591  47.935  1.00  0.00     0.158 HD
ATOM     15  H11 UNL     1       6.059  10.342  46.839  1.00  0.00     0.158 HD
BRANCH  12  16
HETATM   16  S1  UNL     1       5.226  13.854  46.341  1.00  0.00    -0.094 SA
BRANCH  16  17
HETATM   17  C2  UNL     1       3.482  14.033  45.950  1.00  0.00     0.078 C 
HETATM   18  C1  UNL     1       3.381  14.931  44.715  1.00  0.00     0.016 C 
ENDBRANCH  16  17
ENDBRANCH  12  16
ENDBRANCH  10  12
ENDBRANCH   9  10
ENDBRANCH   1   9
TORSDOF 5
ENDMDL
