MODEL 1
REMARK VINA RESULT: -6.042403301      0.000      0.000
REMARK  4 active torsions:
REMARK  status: ('A' for Active; 'I' for Inactive)
REMARK    1  A    between atoms: C2_2  and  C3_3 
REMARK    2  A    between atoms: N1_4  and  C4_6 
REMARK    3  A    between atoms: C9_16  and  N4_17 
REMARK    4  A    between atoms: N4_17  and  O1_19 
ROOT
HETATM    1  C4  UNL     1       9.041   8.305  43.110  1.00  0.00     0.097 A 
HETATM    2  C5  UNL     1       9.113   9.490  42.412  1.00  0.00     0.111 A 
HETATM    3  S1  UNL     1       9.963   9.505  40.841  1.00  0.00    -0.030 SA
HETATM    4  N2  UNL     1       8.561  10.613  42.894  1.00  0.00    -0.339 N 
ATOM      5  H2  UNL     1       8.639  11.469  42.345  1.00  0.00     0.167 HD
HETATM    6  C6  UNL     1       7.907  10.661  44.075  1.00  0.00     0.134 A 
HETATM    7  C7  UNL     1       7.330  11.887  44.555  1.00  0.00     0.119 C 
HETATM    8  N3  UNL     1       6.853  12.871  44.927  1.00  0.00    -0.190 NA
HETATM    9  C8  UNL     1       7.820   9.475  44.801  1.00  0.00     0.079 A 
HETATM   10 BR1  UNL     1       6.911   9.461  46.480  1.00  0.00    -0.045 Br
HETATM   11  C9  UNL     1       8.385   8.295  44.323  1.00  0.00     0.104 A 
ENDROOT
BRANCH  11  12
HETATM   12  N4  UNL     1       8.312   7.068  45.041  1.00  0.00    -0.266 N 
ATOM     13  H4  UNL     1       7.541   6.413  44.909  1.00  0.00     0.194 HD
BRANCH  12  14
HETATM   14  O1  UNL     1       9.245   6.835  45.840  1.00  0.00    -0.289 OA
ATOM     15  H1  UNL     1       9.741   6.039  45.692  1.00  0.00     0.244 HD
ENDBRANCH  12  14
ENDBRANCH  11  12
BRANCH   1  16
HETATM   16  N1  UNL     1       9.608   7.123  42.628  1.00  0.00    -0.362 N 
HETATM   17  C3  UNL     1      10.844   6.812  42.673  1.00  0.00     0.088 C 
ATOM     18  H1  UNL     1       8.976   6.445  42.202  1.00  0.00     0.165 HD
BRANCH  17  19
HETATM   19  C2  UNL     1      11.283   5.537  42.127  1.00  0.00     0.007 C 
HETATM   20  C1  UNL     1      12.271   5.515  41.248  1.00  0.00     0.012 C 
ENDBRANCH  17  19
ENDBRANCH   1  16
TORSDOF 4
ENDMDL
MODEL 2
REMARK VINA RESULT: -5.700829903      1.707      1.742
REMARK  4 active torsions:
REMARK  status: ('A' for Active; 'I' for Inactive)
REMARK    1  A    between atoms: C2_2  and  C3_3 
REMARK    2  A    between atoms: N1_4  and  C4_6 
REMARK    3  A    between atoms: C9_16  and  N4_17 
REMARK    4  A    between atoms: N4_17  and  O1_19 
ROOT
HETATM    1  C4  UNL     1       9.217   7.557  42.548  1.00  0.00     0.097 A 
HETATM    2  C5  UNL     1       9.219   8.885  42.185  1.00  0.00     0.111 A 
HETATM    3  S1  UNL     1      10.591   9.505  41.224  1.00  0.00    -0.030 SA
HETATM    4  N2  UNL     1       8.218   9.703  42.541  1.00  0.00    -0.339 N 
ATOM      5  H2  UNL     1       8.260  10.680  42.252  1.00  0.00     0.167 HD
HETATM    6  C6  UNL     1       7.156   9.289  43.267  1.00  0.00     0.134 A 
HETATM    7  C7  UNL     1       6.103  10.199  43.627  1.00  0.00     0.119 C 
HETATM    8  N3  UNL     1       5.252  10.931  43.899  1.00  0.00    -0.190 NA
HETATM    9  C8  UNL     1       7.129   7.949  43.647  1.00  0.00     0.079 A 
HETATM   10 BR1  UNL     1       5.661   7.288  44.673  1.00  0.00    -0.045 Br
HETATM   11  C9  UNL     1       8.157   7.079  43.290  1.00  0.00     0.104 A 
ENDROOT
BRANCH  11  12
HETATM   12  N4  UNL     1       8.159   5.705  43.662  1.00  0.00    -0.266 N 
ATOM     13  H4  UNL     1       7.551   5.024  43.206  1.00  0.00     0.194 HD
BRANCH  12  14
HETATM   14  O1  UNL     1       8.945   5.378  44.578  1.00  0.00    -0.289 OA
ATOM     15  H1  UNL     1       9.832   5.161  44.317  1.00  0.00     0.244 HD
ENDBRANCH  12  14
ENDBRANCH  11  12
BRANCH   1  16
HETATM   16  N1  UNL     1      10.249   6.686  42.189  1.00  0.00    -0.362 N 
HETATM   17  C3  UNL     1      10.302   5.983  41.126  1.00  0.00     0.088 C 
ATOM     18  H1  UNL     1      11.034   6.605  42.836  1.00  0.00     0.165 HD
BRANCH  17  19
HETATM   19  C2  UNL     1      11.449   5.120  40.894  1.00  0.00     0.007 C 
HETATM   20  C1  UNL     1      12.654   5.534  41.249  1.00  0.00     0.012 C 
ENDBRANCH  17  19
ENDBRANCH   1  16
TORSDOF 4
ENDMDL
MODEL 3
REMARK VINA RESULT: -5.679440025      2.774      5.925
REMARK  4 active torsions:
REMARK  status: ('A' for Active; 'I' for Inactive)
REMARK    1  A    between atoms: C2_2  and  C3_3 
REMARK    2  A    between atoms: N1_4  and  C4_6 
REMARK    3  A    between atoms: C9_16  and  N4_17 
REMARK    4  A    between atoms: N4_17  and  O1_19 
ROOT
HETATM    1  C4  UNL     1       6.277  10.486  44.757  1.00  0.00     0.097 A 
HETATM    2  C5  UNL     1       6.485  10.869  43.450  1.00  0.00     0.111 A 
HETATM    3  S1  UNL     1       5.630  12.313  42.838  1.00  0.00    -0.030 SA
HETATM    4  N2  UNL     1       7.308  10.179  42.648  1.00  0.00    -0.339 N 
ATOM      5  H2  UNL     1       7.433  10.497  41.687  1.00  0.00     0.167 HD
HETATM    6  C6  UNL     1       7.981   9.081  43.057  1.00  0.00     0.134 A 
HETATM    7  C7  UNL     1       8.855   8.370  42.164  1.00  0.00     0.119 C 
HETATM    8  N3  UNL     1       9.569   7.814  41.446  1.00  0.00    -0.190 NA
HETATM    9  C8  UNL     1       7.788   8.672  44.374  1.00  0.00     0.079 A 
HETATM   10 BR1  UNL     1       8.704   7.129  45.027  1.00  0.00    -0.045 Br
HETATM   11  C9  UNL     1       6.938   9.371  45.228  1.00  0.00     0.104 A 
ENDROOT
BRANCH  11  12
HETATM   12  N4  UNL     1       6.720   8.979  46.579  1.00  0.00    -0.266 N 
ATOM     13  H4  UNL     1       6.072   8.230  46.824  1.00  0.00     0.194 HD
BRANCH  12  14
HETATM   14  O1  UNL     1       7.366   9.602  47.450  1.00  0.00    -0.289 OA
ATOM     15  H1  UNL     1       7.747   9.082  48.148  1.00  0.00     0.244 HD
ENDBRANCH  12  14
ENDBRANCH  11  12
BRANCH   1  16
HETATM   16  N1  UNL     1       5.424  11.189  45.611  1.00  0.00    -0.362 N 
HETATM   17  C3  UNL     1       5.667  12.317  46.152  1.00  0.00     0.088 C 
ATOM     18  H1  UNL     1       4.522  10.759  45.821  1.00  0.00     0.165 HD
BRANCH  17  19
HETATM   19  C2  UNL     1       4.672  12.924  47.023  1.00  0.00     0.007 C 
HETATM   20  C1  UNL     1       3.403  12.933  46.649  1.00  0.00     0.012 C 
ENDBRANCH  17  19
ENDBRANCH   1  16
TORSDOF 4
ENDMDL
MODEL 4
REMARK VINA RESULT: -5.652464669      4.026      7.209
REMARK  4 active torsions:
REMARK  status: ('A' for Active; 'I' for Inactive)
REMARK    1  A    between atoms: C2_2  and  C3_3 
REMARK    2  A    between atoms: N1_4  and  C4_6 
REMARK    3  A    between atoms: C9_16  and  N4_17 
REMARK    4  A    between atoms: N4_17  and  O1_19 
ROOT
HETATM    1  C4  UNL     1       5.285  12.669  44.461  1.00  0.00     0.097 A 
HETATM    2  C5  UNL     1       5.176  12.312  43.135  1.00  0.00     0.111 A 
HETATM    3  S1  UNL     1       4.490  13.495  41.987  1.00  0.00    -0.030 SA
HETATM    4  N2  UNL     1       5.573  11.105  42.707  1.00  0.00    -0.339 N 
ATOM      5  H2  UNL     1       5.473  10.882  41.717  1.00  0.00     0.167 HD
HETATM    6  C6  UNL     1       6.099  10.171  43.530  1.00  0.00     0.134 A 
HETATM    7  C7  UNL     1       6.512   8.889  43.030  1.00  0.00     0.119 C 
HETATM    8  N3  UNL     1       6.859   7.867  42.618  1.00  0.00    -0.190 NA
HETATM    9  C8  UNL     1       6.220  10.507  44.876  1.00  0.00     0.079 A 
HETATM   10 BR1  UNL     1       6.955   9.241  46.102  1.00  0.00    -0.045 Br
HETATM   11  C9  UNL     1       5.815  11.754  45.347  1.00  0.00     0.104 A 
ENDROOT
BRANCH  11  12
HETATM   12  N4  UNL     1       5.926  12.128  46.716  1.00  0.00    -0.266 N 
ATOM     13  H4  UNL     1       6.748  12.615  47.075  1.00  0.00     0.194 HD
BRANCH  12  14
HETATM   14  O1  UNL     1       4.963  11.827  47.454  1.00  0.00    -0.289 OA
ATOM     15  H1  UNL     1       4.568  10.976  47.308  1.00  0.00     0.244 HD
ENDBRANCH  12  14
ENDBRANCH  11  12
BRANCH   1  16
HETATM   16  N1  UNL     1       4.878  13.920  44.930  1.00  0.00    -0.362 N 
HETATM   17  C3  UNL     1       3.696  14.239  45.285  1.00  0.00     0.088 C 
ATOM     18  H1  UNL     1       5.592  14.646  44.995  1.00  0.00     0.165 HD
BRANCH  17  19
HETATM   19  C2  UNL     1       3.428  15.590  45.754  1.00  0.00     0.007 C 
HETATM   20  C1  UNL     1       4.400  16.282  46.326  1.00  0.00     0.012 C 
ENDBRANCH  17  19
ENDBRANCH   1  16
TORSDOF 4
ENDMDL
MODEL 5
REMARK VINA RESULT: -5.604030362      4.334      5.650
REMARK  4 active torsions:
REMARK  status: ('A' for Active; 'I' for Inactive)
REMARK    1  A    between atoms: C2_2  and  C3_3 
REMARK    2  A    between atoms: N1_4  and  C4_6 
REMARK    3  A    between atoms: C9_16  and  N4_17 
REMARK    4  A    between atoms: N4_17  and  O1_19 
ROOT
HETATM    1  C4  UNL     1       5.524  11.488  43.994  1.00  0.00     0.097 A 
HETATM    2  C5  UNL     1       5.677  11.451  42.626  1.00  0.00     0.111 A 
HETATM    3  S1  UNL     1       6.556  10.074  41.903  1.00  0.00    -0.030 SA
HETATM    4  N2  UNL     1       5.181  12.421  41.846  1.00  0.00    -0.339 N 
ATOM      5  H2  UNL     1       5.318  12.354  40.838  1.00  0.00     0.167 HD
HETATM    6  C6  UNL     1       4.508  13.485  42.337  1.00  0.00     0.134 A 
HETATM    7  C7  UNL     1       3.992  14.505  41.465  1.00  0.00     0.119 C 
HETATM    8  N3  UNL     1       3.565  15.311  40.757  1.00  0.00    -0.190 NA
HETATM    9  C8  UNL     1       4.340  13.548  43.718  1.00  0.00     0.079 A 
HETATM   10 BR1  UNL     1       3.399  15.020  44.489  1.00  0.00    -0.045 Br
HETATM   11  C9  UNL     1       4.846  12.552  44.551  1.00  0.00     0.104 A 
ENDROOT
BRANCH  11  12
HETATM   12  N4  UNL     1       4.690  12.587  45.966  1.00  0.00    -0.266 N 
ATOM     13  H4  UNL     1       3.859  12.213  46.424  1.00  0.00     0.194 HD
BRANCH  12  14
HETATM   14  O1  UNL     1       5.627  13.101  46.616  1.00  0.00    -0.289 OA
ATOM     15  H1  UNL     1       5.601  14.044  46.720  1.00  0.00     0.244 HD
ENDBRANCH  12  14
ENDBRANCH  11  12
BRANCH   1  16
HETATM   16  N1  UNL     1       6.033  10.489  44.827  1.00  0.00    -0.362 N 
HETATM   17  C3  UNL     1       7.188  10.478  45.366  1.00  0.00     0.088 C 
ATOM     18  H1  UNL     1       5.424   9.694  45.023  1.00  0.00     0.165 HD
BRANCH  17  19
HETATM   19  C2  UNL     1       7.574   9.360  46.213  1.00  0.00     0.007 C 
HETATM   20  C1  UNL     1       7.929   8.215  45.654  1.00  0.00     0.012 C 
ENDBRANCH  17  19
ENDBRANCH   1  16
TORSDOF 4
ENDMDL
