MODEL 1
REMARK VINA RESULT: -5.944149247      0.000      0.000
REMARK  14 active torsions:
REMARK  status: ('A' for Active; 'I' for Inactive)
REMARK    1  A    between atoms: C2_2  and  C24_28 
REMARK    2  A    between atoms: C3_3  and  C4_4 
REMARK    3  A    between atoms: C4_4  and  C5_5 
REMARK    4  A    between atoms: C5_5  and  C6_6 
REMARK    5  A    between atoms: C8_8  and  C9_9 
REMARK    6  A    between atoms: C9_9  and  C10_10 
REMARK    7  A    between atoms: C10_10  and  C11_11 
REMARK    8  A    between atoms: C11_11  and  O1_12 
REMARK    9  A    between atoms: C12_14  and  C13_15 
REMARK   10  A    between atoms: C13_15  and  C14_16 
REMARK   11  A    between atoms: C14_16  and  C15_17 
REMARK   12  A    between atoms: N1_23  and  C21_24 
REMARK   13  A    between atoms: C24_28  and  C25_29 
REMARK   14  A    between atoms: N2_30  and  O3_32 
ROOT
HETATM    1  C11 UNL     1      63.871  -2.412  47.616  1.00  0.00     0.039 C 
HETATM    2  C12 UNL     1      62.865  -3.091  48.074  1.00  0.00     0.005 C 
ENDROOT
BRANCH   1   3
HETATM    3  C10 UNL     1      63.866  -1.746  46.317  1.00  0.00     0.068 C 
BRANCH   3   4
HETATM    4  C9  UNL     1      64.677  -2.449  45.286  1.00  0.00     0.034 C 
BRANCH   4   5
HETATM    5  C8  UNL     1      65.991  -1.801  45.116  1.00  0.00    -0.024 C 
HETATM    6  C6  UNL     1      67.104  -2.489  45.387  1.00  0.00    -0.087 C 
HETATM    7  C7  UNL     1      66.974  -3.864  45.911  1.00  0.00     0.043 C 
BRANCH   6   8
HETATM    8  C5  UNL     1      68.389  -1.782  45.192  1.00  0.00     0.037 C 
BRANCH   8   9
HETATM    9  C4  UNL     1      69.106  -2.062  43.928  1.00  0.00     0.031 C 
BRANCH   9  10
HETATM   10  C3  UNL     1      70.056  -3.177  44.040  1.00  0.00    -0.024 C 
HETATM   11  C2  UNL     1      70.728  -3.575  42.967  1.00  0.00    -0.083 C 
HETATM   12  C1  UNL     1      70.502  -2.888  41.678  1.00  0.00     0.043 C 
BRANCH  11  13
HETATM   13  C24 UNL     1      71.685  -4.708  43.110  1.00  0.00     0.080 C 
BRANCH  13  14
HETATM   14  C25 UNL     1      71.253  -5.885  42.353  1.00  0.00     0.091 C 
HETATM   15  N2  UNL     1      71.252  -7.039  42.923  1.00  0.00    -0.284 N 
ATOM     16  H2  UNL     1      70.950  -7.858  42.395  1.00  0.00     0.192 HD
BRANCH  15  17
HETATM   17  O3  UNL     1      71.645  -7.186  44.215  1.00  0.00    -0.291 OA
ATOM     18  H3  UNL     1      71.469  -6.514  44.863  1.00  0.00     0.244 HD
ENDBRANCH  15  17
ENDBRANCH  13  14
ENDBRANCH  11  13
ENDBRANCH   9  10
ENDBRANCH   8   9
ENDBRANCH   6   8
ENDBRANCH   4   5
ENDBRANCH   3   4
ENDBRANCH   1   3
BRANCH   1  19
HETATM   19  O1  UNL     1      65.016  -2.335  48.438  1.00  0.00    -0.365 OA
ATOM     20  H1  UNL     1      65.552  -3.107  48.573  1.00  0.00     0.217 HD
ENDBRANCH   1  19
BRANCH   2  21
HETATM   21  C13 UNL     1      61.565  -3.329  47.422  1.00  0.00     0.030 C 
BRANCH  21  22
HETATM   22  C14 UNL     1      61.405  -4.829  47.303  1.00  0.00     0.019 C 
BRANCH  22  23
HETATM   23  C15 UNL     1      60.849  -5.272  45.977  1.00  0.00    -0.001 C 
HETATM   24  C16 UNL     1      60.678  -3.986  45.151  1.00  0.00     0.022 C 
HETATM   25  C17 UNL     1      61.907  -6.046  45.279  1.00  0.00    -0.076 C 
HETATM   26  C18 UNL     1      63.315  -5.946  45.741  1.00  0.00     0.044 C 
HETATM   27  C19 UNL     1      61.654  -6.837  44.242  1.00  0.00    -0.004 C 
HETATM   28  C20 UNL     1      60.253  -6.931  43.788  1.00  0.00     0.153 C 
HETATM   29  N1  UNL     1      59.402  -6.972  44.956  1.00  0.00    -0.350 N 
HETATM   30  C22 UNL     1      59.576  -6.001  46.028  1.00  0.00     0.095 C 
HETATM   31  C23 UNL     1      59.276  -6.721  47.311  1.00  0.00     0.033 C 
BRANCH  29  32
HETATM   32  C21 UNL     1      58.401  -7.972  45.025  1.00  0.00     0.351 C 
HETATM   33  O2  UNL     1      58.639  -9.130  44.608  1.00  0.00    -0.284 OA
ENDBRANCH  29  32
ENDBRANCH  22  23
ENDBRANCH  21  22
ENDBRANCH   2  21
TORSDOF 14
ENDMDL
MODEL 2
REMARK VINA RESULT: -5.811583713      3.283      9.972
REMARK  14 active torsions:
REMARK  status: ('A' for Active; 'I' for Inactive)
REMARK    1  A    between atoms: C2_2  and  C24_28 
REMARK    2  A    between atoms: C3_3  and  C4_4 
REMARK    3  A    between atoms: C4_4  and  C5_5 
REMARK    4  A    between atoms: C5_5  and  C6_6 
REMARK    5  A    between atoms: C8_8  and  C9_9 
REMARK    6  A    between atoms: C9_9  and  C10_10 
REMARK    7  A    between atoms: C10_10  and  C11_11 
REMARK    8  A    between atoms: C11_11  and  O1_12 
REMARK    9  A    between atoms: C12_14  and  C13_15 
REMARK   10  A    between atoms: C13_15  and  C14_16 
REMARK   11  A    between atoms: C14_16  and  C15_17 
REMARK   12  A    between atoms: N1_23  and  C21_24 
REMARK   13  A    between atoms: C24_28  and  C25_29 
REMARK   14  A    between atoms: N2_30  and  O3_32 
ROOT
HETATM    1  C11 UNL     1      63.367  -3.315  47.260  1.00  0.00     0.039 C 
HETATM    2  C12 UNL     1      64.163  -2.414  47.749  1.00  0.00     0.005 C 
ENDROOT
BRANCH   1   3
HETATM    3  C10 UNL     1      63.813  -4.386  46.375  1.00  0.00     0.068 C 
BRANCH   3   4
HETATM    4  C9  UNL     1      62.970  -4.541  45.157  1.00  0.00     0.034 C 
BRANCH   4   5
HETATM    5  C8  UNL     1      62.388  -5.894  45.087  1.00  0.00    -0.024 C 
HETATM    6  C6  UNL     1      61.734  -6.272  43.986  1.00  0.00    -0.087 C 
HETATM    7  C7  UNL     1      61.561  -5.291  42.895  1.00  0.00     0.043 C 
BRANCH   6   8
HETATM    8  C5  UNL     1      61.177  -7.643  43.978  1.00  0.00     0.037 C 
BRANCH   8   9
HETATM    9  C4  UNL     1      59.736  -7.767  44.292  1.00  0.00     0.031 C 
BRANCH   9  10
HETATM   10  C3  UNL     1      59.309  -9.159  44.493  1.00  0.00    -0.024 C 
HETATM   11  C2  UNL     1      58.668  -9.492  45.606  1.00  0.00    -0.083 C 
HETATM   12  C1  UNL     1      58.398  -8.454  46.622  1.00  0.00     0.043 C 
BRANCH  11  13
HETATM   13  C24 UNL     1      58.246 -10.911  45.783  1.00  0.00     0.080 C 
BRANCH  13  14
HETATM   14  C25 UNL     1      58.823 -11.503  46.993  1.00  0.00     0.091 C 
HETATM   15  N2  UNL     1      58.046 -12.031  47.872  1.00  0.00    -0.284 N 
ATOM     16  H2  UNL     1      58.449 -12.443  48.713  1.00  0.00     0.192 HD
BRANCH  15  17
HETATM   17  O3  UNL     1      56.699 -12.049  47.700  1.00  0.00    -0.291 OA
ATOM     18  H3  UNL     1      56.108 -12.058  48.444  1.00  0.00     0.244 HD
ENDBRANCH  15  17
ENDBRANCH  13  14
ENDBRANCH  11  13
ENDBRANCH   9  10
ENDBRANCH   8   9
ENDBRANCH   6   8
ENDBRANCH   4   5
ENDBRANCH   3   4
ENDBRANCH   1   3
BRANCH   1  19
HETATM   19  O1  UNL     1      62.005  -3.225  47.619  1.00  0.00    -0.365 OA
ATOM     20  H1  UNL     1      61.649  -2.395  47.912  1.00  0.00     0.217 HD
ENDBRANCH   1  19
BRANCH   2  21
HETATM   21  C13 UNL     1      65.614  -2.280  47.532  1.00  0.00     0.030 C 
BRANCH  21  22
HETATM   22  C14 UNL     1      65.811  -1.083  46.628  1.00  0.00     0.019 C 
BRANCH  22  23
HETATM   23  C15 UNL     1      66.750  -1.339  45.482  1.00  0.00    -0.001 C 
HETATM   24  C16 UNL     1      66.983  -2.860  45.473  1.00  0.00     0.022 C 
HETATM   25  C17 UNL     1      66.017  -1.051  44.222  1.00  0.00    -0.076 C 
HETATM   26  C18 UNL     1      64.535  -0.954  44.241  1.00  0.00     0.044 C 
HETATM   27  C19 UNL     1      66.631  -0.873  43.058  1.00  0.00    -0.004 C 
HETATM   28  C20 UNL     1      68.103  -0.972  43.046  1.00  0.00     0.153 C 
HETATM   29  N1  UNL     1      68.609  -0.328  44.237  1.00  0.00    -0.350 N 
HETATM   30  C22 UNL     1      68.040  -0.641  45.541  1.00  0.00     0.095 C 
HETATM   31  C23 UNL     1      68.067   0.631  46.338  1.00  0.00     0.033 C 
BRANCH  29  32
HETATM   32  C21 UNL     1      69.665   0.606  44.101  1.00  0.00     0.351 C 
HETATM   33  O2  UNL     1      70.730   0.273  43.529  1.00  0.00    -0.284 OA
ENDBRANCH  29  32
ENDBRANCH  22  23
ENDBRANCH  21  22
ENDBRANCH   2  21
TORSDOF 14
ENDMDL
MODEL 3
REMARK VINA RESULT: -5.793296246      1.145      2.134
REMARK  14 active torsions:
REMARK  status: ('A' for Active; 'I' for Inactive)
REMARK    1  A    between atoms: C2_2  and  C24_28 
REMARK    2  A    between atoms: C3_3  and  C4_4 
REMARK    3  A    between atoms: C4_4  and  C5_5 
REMARK    4  A    between atoms: C5_5  and  C6_6 
REMARK    5  A    between atoms: C8_8  and  C9_9 
REMARK    6  A    between atoms: C9_9  and  C10_10 
REMARK    7  A    between atoms: C10_10  and  C11_11 
REMARK    8  A    between atoms: C11_11  and  O1_12 
REMARK    9  A    between atoms: C12_14  and  C13_15 
REMARK   10  A    between atoms: C13_15  and  C14_16 
REMARK   11  A    between atoms: C14_16  and  C15_17 
REMARK   12  A    between atoms: N1_23  and  C21_24 
REMARK   13  A    between atoms: C24_28  and  C25_29 
REMARK   14  A    between atoms: N2_30  and  O3_32 
ROOT
HETATM    1  C11 UNL     1      64.476  -2.209  47.566  1.00  0.00     0.039 C 
HETATM    2  C12 UNL     1      63.205  -2.210  47.831  1.00  0.00     0.005 C 
ENDROOT
BRANCH   1   3
HETATM    3  C10 UNL     1      65.262  -3.427  47.400  1.00  0.00     0.068 C 
BRANCH   3   4
HETATM    4  C9  UNL     1      65.703  -3.662  45.997  1.00  0.00     0.034 C 
BRANCH   4   5
HETATM    5  C8  UNL     1      67.164  -3.509  45.871  1.00  0.00    -0.024 C 
HETATM    6  C6  UNL     1      67.661  -2.483  45.174  1.00  0.00    -0.087 C 
HETATM    7  C7  UNL     1      66.719  -1.568  44.497  1.00  0.00     0.043 C 
BRANCH   6   8
HETATM    8  C5  UNL     1      69.135  -2.386  45.088  1.00  0.00     0.037 C 
BRANCH   8   9
HETATM    9  C4  UNL     1      69.723  -2.514  43.737  1.00  0.00     0.031 C 
BRANCH   9  10
HETATM   10  C3  UNL     1      70.609  -3.679  43.603  1.00  0.00    -0.024 C 
HETATM   11  C2  UNL     1      71.098  -3.996  42.411  1.00  0.00    -0.083 C 
HETATM   12  C1  UNL     1      70.737  -3.170  41.240  1.00  0.00     0.043 C 
BRANCH  11  13
HETATM   13  C24 UNL     1      71.995  -5.182  42.305  1.00  0.00     0.080 C 
BRANCH  13  14
HETATM   14  C25 UNL     1      71.246  -6.406  42.009  1.00  0.00     0.091 C 
HETATM   15  N2  UNL     1      71.119  -7.306  42.920  1.00  0.00    -0.284 N 
ATOM     16  H2  UNL     1      70.597  -8.158  42.713  1.00  0.00     0.192 HD
BRANCH  15  17
HETATM   17  O3  UNL     1      71.666  -7.143  44.153  1.00  0.00    -0.291 OA
ATOM     18  H3  UNL     1      72.060  -7.872  44.617  1.00  0.00     0.244 HD
ENDBRANCH  15  17
ENDBRANCH  13  14
ENDBRANCH  11  13
ENDBRANCH   9  10
ENDBRANCH   8   9
ENDBRANCH   6   8
ENDBRANCH   4   5
ENDBRANCH   3   4
ENDBRANCH   1   3
BRANCH   1  19
HETATM   19  O1  UNL     1      65.100  -0.950  47.443  1.00  0.00    -0.365 OA
ATOM     20  H1  UNL     1      64.806  -0.223  47.979  1.00  0.00     0.217 HD
ENDBRANCH   1  19
BRANCH   2  21
HETATM   21  C13 UNL     1      62.322  -3.376  48.012  1.00  0.00     0.030 C 
BRANCH  21  22
HETATM   22  C14 UNL     1      61.503  -3.502  46.746  1.00  0.00     0.019 C 
BRANCH  22  23
HETATM   23  C15 UNL     1      60.897  -4.866  46.553  1.00  0.00    -0.001 C 
HETATM   24  C16 UNL     1      60.767  -5.462  47.965  1.00  0.00     0.022 C 
HETATM   25  C17 UNL     1      59.502  -4.678  46.080  1.00  0.00    -0.076 C 
HETATM   26  C18 UNL     1      58.847  -3.354  46.230  1.00  0.00     0.044 C 
HETATM   27  C19 UNL     1      58.796  -5.654  45.519  1.00  0.00    -0.004 C 
HETATM   28  C20 UNL     1      59.451  -6.968  45.374  1.00  0.00     0.153 C 
HETATM   29  N1  UNL     1      60.824  -6.746  44.977  1.00  0.00    -0.350 N 
HETATM   30  C22 UNL     1      61.652  -5.786  45.694  1.00  0.00     0.095 C 
HETATM   31  C23 UNL     1      62.553  -5.151  44.675  1.00  0.00     0.033 C 
BRANCH  29  32
HETATM   32  C21 UNL     1      61.335  -7.484  43.881  1.00  0.00     0.351 C 
HETATM   33  O2  UNL     1      60.662  -8.416  43.381  1.00  0.00    -0.284 OA
ENDBRANCH  29  32
ENDBRANCH  22  23
ENDBRANCH  21  22
ENDBRANCH   2  21
TORSDOF 14
ENDMDL
MODEL 4
REMARK VINA RESULT: -5.782587114      3.351      4.623
REMARK  14 active torsions:
REMARK  status: ('A' for Active; 'I' for Inactive)
REMARK    1  A    between atoms: C2_2  and  C24_28 
REMARK    2  A    between atoms: C3_3  and  C4_4 
REMARK    3  A    between atoms: C4_4  and  C5_5 
REMARK    4  A    between atoms: C5_5  and  C6_6 
REMARK    5  A    between atoms: C8_8  and  C9_9 
REMARK    6  A    between atoms: C9_9  and  C10_10 
REMARK    7  A    between atoms: C10_10  and  C11_11 
REMARK    8  A    between atoms: C11_11  and  O1_12 
REMARK    9  A    between atoms: C12_14  and  C13_15 
REMARK   10  A    between atoms: C13_15  and  C14_16 
REMARK   11  A    between atoms: C14_16  and  C15_17 
REMARK   12  A    between atoms: N1_23  and  C21_24 
REMARK   13  A    between atoms: C24_28  and  C25_29 
REMARK   14  A    between atoms: N2_30  and  O3_32 
ROOT
HETATM    1  C11 UNL     1      64.404  -1.246  47.337  1.00  0.00     0.039 C 
HETATM    2  C12 UNL     1      63.472  -1.911  47.948  1.00  0.00     0.005 C 
ENDROOT
BRANCH   1   3
HETATM    3  C10 UNL     1      64.290  -0.788  45.956  1.00  0.00     0.068 C 
BRANCH   3   4
HETATM    4  C9  UNL     1      64.811  -1.766  44.961  1.00  0.00     0.034 C 
BRANCH   4   5
HETATM    5  C8  UNL     1      65.989  -1.225  44.257  1.00  0.00    -0.024 C 
HETATM    6  C6  UNL     1      67.186  -1.784  44.453  1.00  0.00    -0.087 C 
HETATM    7  C7  UNL     1      67.299  -2.892  45.424  1.00  0.00     0.043 C 
BRANCH   6   8
HETATM    8  C5  UNL     1      68.326  -1.196  43.714  1.00  0.00     0.037 C 
BRANCH   8   9
HETATM    9  C4  UNL     1      69.292  -0.412  44.515  1.00  0.00     0.031 C 
BRANCH   9  10
HETATM   10  C3  UNL     1      68.948   1.014  44.597  1.00  0.00    -0.024 C 
HETATM   11  C2  UNL     1      68.605   1.538  45.767  1.00  0.00    -0.083 C 
HETATM   12  C1  UNL     1      68.574   0.673  46.964  1.00  0.00     0.043 C 
BRANCH  11  13
HETATM   13  C24 UNL     1      68.262   2.987  45.821  1.00  0.00     0.080 C 
BRANCH  13  14
HETATM   14  C25 UNL     1      69.406   3.803  46.235  1.00  0.00     0.091 C 
HETATM   15  N2  UNL     1      69.356   4.445  47.349  1.00  0.00    -0.284 N 
ATOM     16  H2  UNL     1      70.153   5.012  47.636  1.00  0.00     0.192 HD
BRANCH  15  17
HETATM   17  O3  UNL     1      68.260   4.381  48.149  1.00  0.00    -0.291 OA
ATOM     18  H3  UNL     1      68.115   5.021  48.836  1.00  0.00     0.244 HD
ENDBRANCH  15  17
ENDBRANCH  13  14
ENDBRANCH  11  13
ENDBRANCH   9  10
ENDBRANCH   8   9
ENDBRANCH   6   8
ENDBRANCH   4   5
ENDBRANCH   3   4
ENDBRANCH   1   3
BRANCH   1  19
HETATM   19  O1  UNL     1      65.577  -0.971  48.071  1.00  0.00    -0.365 OA
ATOM     20  H1  UNL     1      66.411  -1.317  47.776  1.00  0.00     0.217 HD
ENDBRANCH   1  19
BRANCH   2  21
HETATM   21  C13 UNL     1      62.164  -2.328  47.415  1.00  0.00     0.030 C 
BRANCH  21  22
HETATM   22  C14 UNL     1      62.126  -3.839  47.484  1.00  0.00     0.019 C 
BRANCH  22  23
HETATM   23  C15 UNL     1      61.487  -4.483  46.285  1.00  0.00    -0.001 C 
HETATM   24  C16 UNL     1      61.206  -3.334  45.302  1.00  0.00     0.022 C 
HETATM   25  C17 UNL     1      62.517  -5.322  45.619  1.00  0.00    -0.076 C 
HETATM   26  C18 UNL     1      63.952  -5.120  45.946  1.00  0.00     0.044 C 
HETATM   27  C19 UNL     1      62.214  -6.260  44.729  1.00  0.00    -0.004 C 
HETATM   28  C20 UNL     1      60.788  -6.454  44.407  1.00  0.00     0.153 C 
HETATM   29  N1  UNL     1      60.030  -6.348  45.634  1.00  0.00    -0.350 N 
HETATM   30  C22 UNL     1      60.249  -5.230  46.541  1.00  0.00     0.095 C 
HETATM   31  C23 UNL     1      60.076  -5.765  47.933  1.00  0.00     0.033 C 
BRANCH  29  32
HETATM   32  C21 UNL     1      59.076  -7.354  45.925  1.00  0.00     0.351 C 
HETATM   33  O2  UNL     1      59.056  -8.415  45.256  1.00  0.00    -0.284 OA
ENDBRANCH  29  32
ENDBRANCH  22  23
ENDBRANCH  21  22
ENDBRANCH   2  21
TORSDOF 14
ENDMDL
MODEL 5
REMARK VINA RESULT: -5.770777326      2.422      8.463
REMARK  14 active torsions:
REMARK  status: ('A' for Active; 'I' for Inactive)
REMARK    1  A    between atoms: C2_2  and  C24_28 
REMARK    2  A    between atoms: C3_3  and  C4_4 
REMARK    3  A    between atoms: C4_4  and  C5_5 
REMARK    4  A    between atoms: C5_5  and  C6_6 
REMARK    5  A    between atoms: C8_8  and  C9_9 
REMARK    6  A    between atoms: C9_9  and  C10_10 
REMARK    7  A    between atoms: C10_10  and  C11_11 
REMARK    8  A    between atoms: C11_11  and  O1_12 
REMARK    9  A    between atoms: C12_14  and  C13_15 
REMARK   10  A    between atoms: C13_15  and  C14_16 
REMARK   11  A    between atoms: C14_16  and  C15_17 
REMARK   12  A    between atoms: N1_23  and  C21_24 
REMARK   13  A    between atoms: C24_28  and  C25_29 
REMARK   14  A    between atoms: N2_30  and  O3_32 
ROOT
HETATM    1  C11 UNL     1      63.409   0.943  47.207  1.00  0.00     0.039 C 
HETATM    2  C12 UNL     1      64.546   0.937  46.580  1.00  0.00     0.005 C 
ENDROOT
BRANCH   1   3
HETATM    3  C10 UNL     1      62.331   0.003  46.920  1.00  0.00     0.068 C 
BRANCH   3   4
HETATM    4  C9  UNL     1      62.379  -1.230  47.754  1.00  0.00     0.034 C 
BRANCH   4   5
HETATM    5  C8  UNL     1      62.704  -2.410  46.933  1.00  0.00    -0.024 C 
HETATM    6  C6  UNL     1      63.777  -3.147  47.236  1.00  0.00    -0.087 C 
HETATM    7  C7  UNL     1      64.640  -2.711  48.353  1.00  0.00     0.043 C 
BRANCH   6   8
HETATM    8  C5  UNL     1      64.045  -4.320  46.375  1.00  0.00     0.037 C 
BRANCH   8   9
HETATM    9  C4  UNL     1      63.029  -5.395  46.397  1.00  0.00     0.031 C 
BRANCH   9  10
HETATM   10  C3  UNL     1      62.882  -6.074  45.102  1.00  0.00    -0.024 C 
HETATM   11  C2  UNL     1      61.668  -6.352  44.643  1.00  0.00    -0.083 C 
HETATM   12  C1  UNL     1      60.487  -5.974  45.447  1.00  0.00     0.043 C 
BRANCH  11  13
HETATM   13  C24 UNL     1      61.549  -7.041  43.326  1.00  0.00     0.080 C 
BRANCH  13  14
HETATM   14  C25 UNL     1      60.700  -8.232  43.410  1.00  0.00     0.091 C 
HETATM   15  N2  UNL     1      60.759  -9.118  42.478  1.00  0.00    -0.284 N 
ATOM     16  H2  UNL     1      60.167  -9.946  42.537  1.00  0.00     0.192 HD
BRANCH  15  17
HETATM   17  O3  UNL     1      61.594  -8.969  41.417  1.00  0.00    -0.291 OA
ATOM     18  H3  UNL     1      62.135  -8.194  41.321  1.00  0.00     0.244 HD
ENDBRANCH  15  17
ENDBRANCH  13  14
ENDBRANCH  11  13
ENDBRANCH   9  10
ENDBRANCH   8   9
ENDBRANCH   6   8
ENDBRANCH   4   5
ENDBRANCH   3   4
ENDBRANCH   1   3
BRANCH   1  19
HETATM   19  O1  UNL     1      63.237   1.922  48.208  1.00  0.00    -0.365 OA
ATOM     20  H1  UNL     1      62.494   1.869  48.797  1.00  0.00     0.217 HD
ENDBRANCH   1  19
BRANCH   2  21
HETATM   21  C13 UNL     1      64.977   0.032  45.501  1.00  0.00     0.030 C 
BRANCH  21  22
HETATM   22  C14 UNL     1      66.302  -0.560  45.931  1.00  0.00     0.019 C 
BRANCH  22  23
HETATM   23  C15 UNL     1      67.310  -0.653  44.819  1.00  0.00    -0.001 C 
HETATM   24  C16 UNL     1      66.638  -0.002  43.598  1.00  0.00     0.022 C 
HETATM   25  C17 UNL     1      68.446   0.241  45.162  1.00  0.00    -0.076 C 
HETATM   26  C18 UNL     1      68.274   1.276  46.213  1.00  0.00     0.044 C 
HETATM   27  C19 UNL     1      69.630   0.161  44.564  1.00  0.00    -0.004 C 
HETATM   28  C20 UNL     1      69.793  -0.869  43.520  1.00  0.00     0.153 C 
HETATM   29  N1  UNL     1      69.122  -2.071  43.962  1.00  0.00    -0.350 N 
HETATM   30  C22 UNL     1      67.760  -2.008  44.473  1.00  0.00     0.095 C 
HETATM   31  C23 UNL     1      67.662  -3.035  45.563  1.00  0.00     0.033 C 
BRANCH  29  32
HETATM   32  C21 UNL     1      69.821  -3.300  43.882  1.00  0.00     0.351 C 
HETATM   33  O2  UNL     1      71.056  -3.338  44.096  1.00  0.00    -0.284 OA
ENDBRANCH  29  32
ENDBRANCH  22  23
ENDBRANCH  21  22
ENDBRANCH   2  21
TORSDOF 14
ENDMDL
