MODEL 1
REMARK VINA RESULT: -7.288085669      0.000      0.000
REMARK  5 active torsions:
REMARK  status: ('A' for Active; 'I' for Inactive)
REMARK    1  A    between atoms: C2_2  and  N1_3 
REMARK    2  A    between atoms: C2_2  and  C3_7 
REMARK    3  A    between atoms: C3_7  and  C4_8 
REMARK    4  A    between atoms: C5_9  and  C6_10 
REMARK    5  A    between atoms: C11_18  and  O1_19 
ROOT
HETATM    1  C6  UNL     1      47.338  48.133 -18.355  1.00  0.00     0.000 A 
HETATM    2  C7  UNL     1      46.887  47.693 -19.575  1.00  0.00     0.040 A 
HETATM    3  C8  UNL     1      47.359  48.284 -20.751  1.00  0.00     0.058 A 
HETATM    4 CL1  UNL     1      46.795  47.736 -22.318  1.00  0.00    -0.082 Cl
HETATM    5  C9  UNL     1      48.275  49.305 -20.688  1.00  0.00     0.080 A 
HETATM    6 CL2  UNL     1      48.838  50.017 -22.206  1.00  0.00    -0.081 Cl
HETATM    7  C10 UNL     1      48.733  49.754 -19.474  1.00  0.00     0.091 A 
HETATM    8 CL3  UNL     1      49.900  51.055 -19.376  1.00  0.00    -0.079 Cl
HETATM    9  C11 UNL     1      48.257  49.158 -18.296  1.00  0.00     0.099 A 
ENDROOT
BRANCH   1  10
HETATM   10  C5  UNL     1      46.862  47.535 -17.131  1.00  0.00     0.010 C 
HETATM   11  C4  UNL     1      45.820  48.033 -16.504  1.00  0.00    -0.024 C 
BRANCH  11  12
HETATM   12  C3  UNL     1      45.347  47.392 -15.235  1.00  0.00     0.059 C 
BRANCH  12  13
HETATM   13  C2  UNL     1      43.869  47.045 -15.464  1.00  0.00     0.183 C 
HETATM   14  C1  UNL     1      43.184  48.310 -15.869  1.00  0.00     0.040 C 
BRANCH  13  15
HETATM   15  N1  UNL     1      43.356  46.523 -14.211  1.00  0.00    -0.075 N 
ATOM     16  H13 UNL     1      44.013  46.683 -13.447  1.00  0.00     0.274 HD
ATOM     17  H12 UNL     1      42.573  47.082 -13.870  1.00  0.00     0.274 HD
ATOM     18  H11 UNL     1      43.103  45.537 -14.281  1.00  0.00     0.274 HD
ENDBRANCH  13  15
ENDBRANCH  12  13
ENDBRANCH  11  12
ENDBRANCH   1  10
BRANCH   9  19
HETATM   19  O1  UNL     1      48.740  49.636 -17.126  1.00  0.00    -0.358 OA
ATOM     20  H1  UNL     1      49.300  50.402 -17.080  1.00  0.00     0.217 HD
ENDBRANCH   9  19
TORSDOF 5
ENDMDL
MODEL 2
REMARK VINA RESULT: -6.999255364      1.301      2.601
REMARK  5 active torsions:
REMARK  status: ('A' for Active; 'I' for Inactive)
REMARK    1  A    between atoms: C2_2  and  N1_3 
REMARK    2  A    between atoms: C2_2  and  C3_7 
REMARK    3  A    between atoms: C3_7  and  C4_8 
REMARK    4  A    between atoms: C5_9  and  C6_10 
REMARK    5  A    between atoms: C11_18  and  O1_19 
ROOT
HETATM    1  C6  UNL     1      47.476  48.355 -18.674  1.00  0.00     0.000 A 
HETATM    2  C7  UNL     1      48.401  49.361 -18.544  1.00  0.00     0.040 A 
HETATM    3  C8  UNL     1      48.994  49.919 -19.681  1.00  0.00     0.058 A 
HETATM    4 CL1  UNL     1      50.177  51.204 -19.535  1.00  0.00    -0.082 Cl
HETATM    5  C9  UNL     1      48.653  49.461 -20.930  1.00  0.00     0.080 A 
HETATM    6 CL2  UNL     1      49.433  50.201 -22.334  1.00  0.00    -0.081 Cl
HETATM    7  C10 UNL     1      47.729  48.455 -21.073  1.00  0.00     0.091 A 
HETATM    8 CL3  UNL     1      47.283  47.859 -22.657  1.00  0.00    -0.079 Cl
HETATM    9  C11 UNL     1      47.136  47.898 -19.929  1.00  0.00     0.099 A 
ENDROOT
BRANCH   1  10
HETATM   10  C5  UNL     1      46.854  47.767 -17.513  1.00  0.00     0.010 C 
HETATM   11  C4  UNL     1      46.208  48.517 -16.648  1.00  0.00    -0.024 C 
BRANCH  11  12
HETATM   12  C3  UNL     1      45.570  47.882 -15.451  1.00  0.00     0.059 C 
BRANCH  12  13
HETATM   13  C2  UNL     1      44.119  47.582 -15.855  1.00  0.00     0.183 C 
HETATM   14  C1  UNL     1      43.426  48.900 -15.986  1.00  0.00     0.040 C 
BRANCH  13  15
HETATM   15  N1  UNL     1      43.545  46.765 -14.803  1.00  0.00    -0.075 N 
ATOM     16  H13 UNL     1      43.855  47.076 -13.882  1.00  0.00     0.274 HD
ATOM     17  H12 UNL     1      42.544  46.940 -14.703  1.00  0.00     0.274 HD
ATOM     18  H11 UNL     1      43.735  45.773 -14.941  1.00  0.00     0.274 HD
ENDBRANCH  13  15
ENDBRANCH  12  13
ENDBRANCH  11  12
ENDBRANCH   1  10
BRANCH   9  19
HETATM   19  O1  UNL     1      46.232  46.910 -20.123  1.00  0.00    -0.358 OA
ATOM     20  H1  UNL     1      45.792  46.473 -19.404  1.00  0.00     0.217 HD
ENDBRANCH   9  19
TORSDOF 5
ENDMDL
MODEL 3
REMARK VINA RESULT: -6.877759990      4.582      6.326
REMARK  5 active torsions:
REMARK  status: ('A' for Active; 'I' for Inactive)
REMARK    1  A    between atoms: C2_2  and  N1_3 
REMARK    2  A    between atoms: C2_2  and  C3_7 
REMARK    3  A    between atoms: C3_7  and  C4_8 
REMARK    4  A    between atoms: C5_9  and  C6_10 
REMARK    5  A    between atoms: C11_18  and  O1_19 
ROOT
HETATM    1  C6  UNL     1      47.363  49.291 -17.074  1.00  0.00     0.000 A 
HETATM    2  C7  UNL     1      46.065  49.688 -16.867  1.00  0.00     0.040 A 
HETATM    3  C8  UNL     1      45.189  48.872 -16.143  1.00  0.00     0.058 A 
HETATM    4 CL1  UNL     1      43.529  49.362 -15.869  1.00  0.00    -0.082 Cl
HETATM    5  C9  UNL     1      45.626  47.673 -15.637  1.00  0.00     0.080 A 
HETATM    6 CL2  UNL     1      44.478  46.681 -14.729  1.00  0.00    -0.081 Cl
HETATM    7  C10 UNL     1      46.923  47.265 -15.837  1.00  0.00     0.091 A 
HETATM    8 CL3  UNL     1      47.495  45.739 -15.199  1.00  0.00    -0.079 Cl
HETATM    9  C11 UNL     1      47.797  48.086 -16.564  1.00  0.00     0.099 A 
ENDROOT
BRANCH   1  10
HETATM   10  C5  UNL     1      48.280  50.118 -17.818  1.00  0.00     0.010 C 
HETATM   11  C4  UNL     1      48.346  50.035 -19.127  1.00  0.00    -0.024 C 
BRANCH  11  12
HETATM   12  C3  UNL     1      49.307  50.906 -19.876  1.00  0.00     0.059 C 
BRANCH  12  13
HETATM   13  C2  UNL     1      48.808  50.934 -21.328  1.00  0.00     0.183 C 
HETATM   14  C1  UNL     1      48.292  49.565 -21.634  1.00  0.00     0.040 C 
BRANCH  13  15
HETATM   15  N1  UNL     1      49.943  51.288 -22.161  1.00  0.00    -0.075 N 
ATOM     16  H13 UNL     1      50.062  50.624 -22.926  1.00  0.00     0.274 HD
ATOM     17  H12 UNL     1      49.754  52.130 -22.705  1.00  0.00     0.274 HD
ATOM     18  H11 UNL     1      50.802  51.383 -21.618  1.00  0.00     0.274 HD
ENDBRANCH  13  15
ENDBRANCH  12  13
ENDBRANCH  11  12
ENDBRANCH   1  10
BRANCH   9  19
HETATM   19  O1  UNL     1      49.064  47.639 -16.733  1.00  0.00    -0.358 OA
ATOM     20  H1  UNL     1      49.273  46.716 -16.810  1.00  0.00     0.217 HD
ENDBRANCH   9  19
TORSDOF 5
ENDMDL
MODEL 4
REMARK VINA RESULT: -6.874911838      3.809      5.034
REMARK  5 active torsions:
REMARK  status: ('A' for Active; 'I' for Inactive)
REMARK    1  A    between atoms: C2_2  and  N1_3 
REMARK    2  A    between atoms: C2_2  and  C3_7 
REMARK    3  A    between atoms: C3_7  and  C4_8 
REMARK    4  A    between atoms: C5_9  and  C6_10 
REMARK    5  A    between atoms: C11_18  and  O1_19 
ROOT
HETATM    1  C6  UNL     1      47.618  48.587 -20.964  1.00  0.00     0.000 A 
HETATM    2  C7  UNL     1      48.261  49.460 -21.807  1.00  0.00     0.040 A 
HETATM    3  C8  UNL     1      49.152  50.406 -21.289  1.00  0.00     0.058 A 
HETATM    4 CL1  UNL     1      49.980  51.529 -22.349  1.00  0.00    -0.082 Cl
HETATM    5  C9  UNL     1      49.386  50.463 -19.937  1.00  0.00     0.080 A 
HETATM    6 CL2  UNL     1      50.521  51.678 -19.336  1.00  0.00    -0.081 Cl
HETATM    7  C10 UNL     1      48.749  49.595 -19.084  1.00  0.00     0.091 A 
HETATM    8 CL3  UNL     1      49.036  49.654 -17.359  1.00  0.00    -0.079 Cl
HETATM    9  C11 UNL     1      47.856  48.647 -19.608  1.00  0.00     0.099 A 
ENDROOT
BRANCH   1  10
HETATM   10  C5  UNL     1      46.696  47.604 -21.480  1.00  0.00     0.010 C 
HETATM   11  C4  UNL     1      46.446  47.532 -22.767  1.00  0.00    -0.024 C 
BRANCH  11  12
HETATM   12  C3  UNL     1      45.485  46.502 -23.276  1.00  0.00     0.059 C 
BRANCH  12  13
HETATM   13  C2  UNL     1      45.595  45.311 -22.314  1.00  0.00     0.183 C 
HETATM   14  C1  UNL     1      46.561  44.348 -22.925  1.00  0.00     0.040 C 
BRANCH  13  15
HETATM   15  N1  UNL     1      44.265  44.743 -22.187  1.00  0.00    -0.075 N 
ATOM     16  H13 UNL     1      44.199  43.846 -22.668  1.00  0.00     0.274 HD
ATOM     17  H12 UNL     1      44.087  44.428 -21.232  1.00  0.00     0.274 HD
ATOM     18  H11 UNL     1      43.541  45.387 -22.505  1.00  0.00     0.274 HD
ENDBRANCH  13  15
ENDBRANCH  12  13
ENDBRANCH  11  12
ENDBRANCH   1  10
BRANCH   9  19
HETATM   19  O1  UNL     1      47.255  47.815 -18.726  1.00  0.00    -0.358 OA
ATOM     20  H1  UNL     1      47.735  47.365 -18.041  1.00  0.00     0.217 HD
ENDBRANCH   9  19
TORSDOF 5
ENDMDL
MODEL 5
REMARK VINA RESULT: -6.777710981      4.511      6.395
REMARK  5 active torsions:
REMARK  status: ('A' for Active; 'I' for Inactive)
REMARK    1  A    between atoms: C2_2  and  N1_3 
REMARK    2  A    between atoms: C2_2  and  C3_7 
REMARK    3  A    between atoms: C3_7  and  C4_8 
REMARK    4  A    between atoms: C5_9  and  C6_10 
REMARK    5  A    between atoms: C11_18  and  O1_19 
ROOT
HETATM    1  C6  UNL     1      46.931  47.649 -16.169  1.00  0.00     0.000 A 
HETATM    2  C7  UNL     1      45.878  48.503 -16.383  1.00  0.00     0.040 A 
HETATM    3  C8  UNL     1      44.615  48.206 -15.858  1.00  0.00     0.058 A 
HETATM    4 CL1  UNL     1      43.259  49.285 -16.122  1.00  0.00    -0.082 Cl
HETATM    5  C9  UNL     1      44.427  47.059 -15.128  1.00  0.00     0.080 A 
HETATM    6 CL2  UNL     1      42.812  46.731 -14.488  1.00  0.00    -0.081 Cl
HETATM    7  C10 UNL     1      45.473  46.196 -14.907  1.00  0.00     0.091 A 
HETATM    8 CL3  UNL     1      45.250  44.730 -13.978  1.00  0.00    -0.079 Cl
HETATM    9  C11 UNL     1      46.737  46.498 -15.435  1.00  0.00     0.099 A 
ENDROOT
BRANCH   1  10
HETATM   10  C5  UNL     1      48.239  47.939 -16.703  1.00  0.00     0.010 C 
HETATM   11  C4  UNL     1      48.448  49.026 -17.409  1.00  0.00    -0.024 C 
BRANCH  11  12
HETATM   12  C3  UNL     1      49.816  49.304 -17.951  1.00  0.00     0.059 C 
BRANCH  12  13
HETATM   13  C2  UNL     1      49.603  50.088 -19.254  1.00  0.00     0.183 C 
HETATM   14  C1  UNL     1      48.643  51.190 -18.944  1.00  0.00     0.040 C 
BRANCH  13  15
HETATM   15  N1  UNL     1      49.068  49.155 -20.228  1.00  0.00    -0.075 N 
ATOM     16  H13 UNL     1      48.158  48.796 -19.936  1.00  0.00     0.274 HD
ATOM     17  H12 UNL     1      48.785  49.635 -21.083  1.00  0.00     0.274 HD
ATOM     18  H11 UNL     1      49.717  48.394 -20.428  1.00  0.00     0.274 HD
ENDBRANCH  13  15
ENDBRANCH  12  13
ENDBRANCH  11  12
ENDBRANCH   1  10
BRANCH   9  19
HETATM   19  O1  UNL     1      47.734  45.617 -15.189  1.00  0.00    -0.358 OA
ATOM     20  H1  UNL     1      48.649  45.832 -15.324  1.00  0.00     0.217 HD
ENDBRANCH   9  19
TORSDOF 5
ENDMDL
