MODEL 1
REMARK VINA RESULT: -5.360281642      0.000      0.000
REMARK  4 active torsions:
REMARK  status: ('A' for Active; 'I' for Inactive)
REMARK    1  A    between atoms: C2_2  and  C3_3 
REMARK    2  A    between atoms: C13_18  and  C14_19 
REMARK    3  A    between atoms: C14_19  and  C16_21 
REMARK    4  A    between atoms: C16_21  and  O1_22 
ROOT
HETATM    1  C3  UNL     1      48.648  49.275 -20.213  1.00  0.00    -0.022 C 
HETATM    2  C4  UNL     1      48.866  50.592 -19.805  1.00  0.00     0.037 C 
HETATM    3  C5  UNL     1      49.096  51.044 -18.495  1.00  0.00     0.006 C 
HETATM    4  C6  UNL     1      49.776  52.340 -18.303  1.00  0.00     0.068 C 
HETATM    5  N1  UNL     1      48.763  50.420 -17.349  1.00  0.00    -0.359 N 
ATOM      6  H1  UNL     1      49.045  50.901 -16.495  1.00  0.00     0.166 HD
HETATM    7  C7  UNL     1      48.113  49.257 -17.161  1.00  0.00     0.049 A 
HETATM    8  C8  UNL     1      47.736  49.027 -15.853  1.00  0.00     0.073 A 
HETATM    9  C9  UNL     1      47.061  47.862 -15.547  1.00  0.00     0.126 A 
HETATM   10  F1  UNL     1      46.686  47.628 -14.278  1.00  0.00    -0.205 F 
HETATM   11  C10 UNL     1      46.758  46.926 -16.518  1.00  0.00     0.004 A 
HETATM   12  C11 UNL     1      46.043  45.674 -16.217  1.00  0.00     0.054 C 
HETATM   13  C12 UNL     1      47.144  47.168 -17.836  1.00  0.00     0.055 A 
HETATM   14  N2  UNL     1      47.003  46.485 -18.976  1.00  0.00    -0.357 N 
ATOM     15  H2  UNL     1      46.538  45.580 -19.040  1.00  0.00     0.166 HD
HETATM   16  C13 UNL     1      47.551  47.132 -20.042  1.00  0.00     0.027 A 
HETATM   17  C17 UNL     1      48.060  48.296 -19.494  1.00  0.00     0.012 A 
HETATM   18  C18 UNL     1      47.805  48.318 -18.109  1.00  0.00     0.031 A 
ENDROOT
BRANCH  16  19
HETATM   19  C14 UNL     1      47.601  46.590 -21.392  1.00  0.00     0.056 C 
HETATM   20  C15 UNL     1      46.301  47.131 -22.078  1.00  0.00     0.018 C 
BRANCH  19  21
HETATM   21  C16 UNL     1      47.239  45.112 -21.499  1.00  0.00     0.174 C 
BRANCH  21  22
HETATM   22  O1  UNL     1      45.860  45.009 -21.539  1.00  0.00    -0.400 OA
ATOM     23  H1  UNL     1      45.518  45.800 -21.940  1.00  0.00     0.209 HD
ENDBRANCH  21  22
ENDBRANCH  19  21
ENDBRANCH  16  19
BRANCH   1  24
HETATM   24  C2  UNL     1      49.068  49.003 -21.531  1.00  0.00     0.002 C 
HETATM   25  C1  UNL     1      50.018  49.769 -22.078  1.00  0.00     0.012 C 
ENDBRANCH   1  24
TORSDOF 4
ENDMDL
MODEL 2
REMARK VINA RESULT: -5.266268308      2.747      5.264
REMARK  4 active torsions:
REMARK  status: ('A' for Active; 'I' for Inactive)
REMARK    1  A    between atoms: C2_2  and  C3_3 
REMARK    2  A    between atoms: C13_18  and  C14_19 
REMARK    3  A    between atoms: C14_19  and  C16_21 
REMARK    4  A    between atoms: C16_21  and  O1_22 
ROOT
HETATM    1  C3  UNL     1      48.387  46.517 -16.049  1.00  0.00    -0.022 C 
HETATM    2  C4  UNL     1      48.406  45.448 -15.149  1.00  0.00     0.037 C 
HETATM    3  C5  UNL     1      47.301  44.723 -14.675  1.00  0.00     0.006 C 
HETATM    4  C6  UNL     1      47.523  43.364 -14.143  1.00  0.00     0.068 C 
HETATM    5  N1  UNL     1      46.016  45.125 -14.644  1.00  0.00    -0.359 N 
ATOM      6  H1  UNL     1      45.354  44.436 -14.288  1.00  0.00     0.166 HD
HETATM    7  C7  UNL     1      45.474  46.300 -15.014  1.00  0.00     0.049 A 
HETATM    8  C8  UNL     1      44.156  46.457 -14.633  1.00  0.00     0.073 A 
HETATM    9  C9  UNL     1      43.501  47.628 -14.961  1.00  0.00     0.126 A 
HETATM   10  F1  UNL     1      42.220  47.794 -14.594  1.00  0.00    -0.205 F 
HETATM   11  C10 UNL     1      44.135  48.640 -15.659  1.00  0.00     0.004 A 
HETATM   12  C11 UNL     1      43.458  49.895 -16.024  1.00  0.00     0.054 C 
HETATM   13  C12 UNL     1      45.466  48.470 -16.039  1.00  0.00     0.055 A 
HETATM   14  N2  UNL     1      46.338  49.237 -16.699  1.00  0.00    -0.357 N 
ATOM     15  H2  UNL     1      46.117  50.164 -17.061  1.00  0.00     0.166 HD
HETATM   16  C13 UNL     1      47.555  48.641 -16.835  1.00  0.00     0.027 A 
HETATM   17  C17 UNL     1      47.397  47.420 -16.204  1.00  0.00     0.012 A 
HETATM   18  C18 UNL     1      46.084  47.312 -15.705  1.00  0.00     0.031 A 
ENDROOT
BRANCH  16  19
HETATM   19  C14 UNL     1      48.673  49.219 -17.567  1.00  0.00     0.056 C 
HETATM   20  C15 UNL     1      48.642  50.739 -17.190  1.00  0.00     0.018 C 
BRANCH  19  21
HETATM   21  C16 UNL     1      48.424  49.416 -19.059  1.00  0.00     0.174 C 
BRANCH  21  22
HETATM   22  O1  UNL     1      47.615  48.383 -19.499  1.00  0.00    -0.400 OA
ATOM     23  H1  UNL     1      47.375  48.561 -20.400  1.00  0.00     0.209 HD
ENDBRANCH  21  22
ENDBRANCH  19  21
ENDBRANCH  16  19
BRANCH   1  24
HETATM   24  C2  UNL     1      49.560  46.641 -16.821  1.00  0.00     0.002 C 
HETATM   25  C1  UNL     1      49.606  46.059 -18.025  1.00  0.00     0.012 C 
ENDBRANCH   1  24
TORSDOF 4
ENDMDL
MODEL 3
REMARK VINA RESULT: -5.071850970      3.595      6.007
REMARK  4 active torsions:
REMARK  status: ('A' for Active; 'I' for Inactive)
REMARK    1  A    between atoms: C2_2  and  C3_3 
REMARK    2  A    between atoms: C13_18  and  C14_19 
REMARK    3  A    between atoms: C14_19  and  C16_21 
REMARK    4  A    between atoms: C16_21  and  O1_22 
ROOT
HETATM    1  C3  UNL     1      45.121  47.878 -15.618  1.00  0.00    -0.022 C 
HETATM    2  C4  UNL     1      43.744  47.944 -15.394  1.00  0.00     0.037 C 
HETATM    3  C5  UNL     1      43.021  47.292 -14.382  1.00  0.00     0.006 C 
HETATM    4  C6  UNL     1      41.706  47.836 -13.991  1.00  0.00     0.068 C 
HETATM    5  N1  UNL     1      43.389  46.193 -13.698  1.00  0.00    -0.359 N 
ATOM      6  H1  UNL     1      42.734  45.890 -12.978  1.00  0.00     0.166 HD
HETATM    7  C7  UNL     1      44.493  45.433 -13.820  1.00  0.00     0.049 A 
HETATM    8  C8  UNL     1      44.443  44.248 -13.115  1.00  0.00     0.073 A 
HETATM    9  C9  UNL     1      45.524  43.390 -13.171  1.00  0.00     0.126 A 
HETATM   10  F1  UNL     1      45.487  42.233 -12.492  1.00  0.00    -0.205 F 
HETATM   11  C10 UNL     1      46.650  43.695 -13.915  1.00  0.00     0.004 A 
HETATM   12  C11 UNL     1      47.817  42.800 -13.988  1.00  0.00     0.054 C 
HETATM   13  C12 UNL     1      46.690  44.896 -14.622  1.00  0.00     0.055 A 
HETATM   14  N2  UNL     1      47.602  45.466 -15.415  1.00  0.00    -0.357 N 
ATOM     15  H2  UNL     1      48.506  45.046 -15.632  1.00  0.00     0.166 HD
HETATM   16  C13 UNL     1      47.191  46.670 -15.900  1.00  0.00     0.027 A 
HETATM   17  C17 UNL     1      45.931  46.832 -15.353  1.00  0.00     0.012 A 
HETATM   18  C18 UNL     1      45.617  45.718 -14.550  1.00  0.00     0.031 A 
ENDROOT
BRANCH  16  19
HETATM   19  C14 UNL     1      48.008  47.540 -16.733  1.00  0.00     0.056 C 
HETATM   20  C15 UNL     1      47.679  47.097 -18.199  1.00  0.00     0.018 C 
BRANCH  19  21
HETATM   21  C16 UNL     1      49.488  47.172 -16.779  1.00  0.00     0.174 C 
BRANCH  21  22
HETATM   22  O1  UNL     1      49.682  46.306 -17.841  1.00  0.00    -0.400 OA
ATOM     23  H1  UNL     1      49.839  45.438 -17.488  1.00  0.00     0.209 HD
ENDBRANCH  21  22
ENDBRANCH  19  21
ENDBRANCH  16  19
BRANCH   1  24
HETATM   24  C2  UNL     1      45.663  49.033 -16.219  1.00  0.00     0.002 C 
HETATM   25  C1  UNL     1      45.139  50.226 -15.916  1.00  0.00     0.012 C 
ENDBRANCH   1  24
TORSDOF 4
ENDMDL
MODEL 4
REMARK VINA RESULT: -4.902956333      6.826      8.294
REMARK  4 active torsions:
REMARK  status: ('A' for Active; 'I' for Inactive)
REMARK    1  A    between atoms: C2_2  and  C3_3 
REMARK    2  A    between atoms: C13_18  and  C14_19 
REMARK    3  A    between atoms: C14_19  and  C16_21 
REMARK    4  A    between atoms: C16_21  and  O1_22 
ROOT
HETATM    1  C3  UNL     1      44.249  44.365 -15.045  1.00  0.00    -0.022 C 
HETATM    2  C4  UNL     1      43.460  45.496 -15.263  1.00  0.00     0.037 C 
HETATM    3  C5  UNL     1      43.221  46.546 -14.361  1.00  0.00     0.006 C 
HETATM    4  C6  UNL     1      42.790  47.853 -14.895  1.00  0.00     0.068 C 
HETATM    5  N1  UNL     1      43.340  46.510 -13.020  1.00  0.00    -0.359 N 
ATOM      6  H1  UNL     1      43.149  47.391 -12.543  1.00  0.00     0.166 HD
HETATM    7  C7  UNL     1      43.674  45.486 -12.213  1.00  0.00     0.049 A 
HETATM    8  C8  UNL     1      43.476  45.738 -10.871  1.00  0.00     0.073 A 
HETATM    9  C9  UNL     1      43.786  44.752  -9.953  1.00  0.00     0.126 A 
HETATM   10  F1  UNL     1      43.596  44.985  -8.644  1.00  0.00    -0.205 F 
HETATM   11  C10 UNL     1      44.287  43.527 -10.351  1.00  0.00     0.004 A 
HETATM   12  C11 UNL     1      44.629  42.462  -9.393  1.00  0.00     0.054 C 
HETATM   13  C12 UNL     1      44.484  43.284 -11.710  1.00  0.00     0.055 A 
HETATM   14  N2  UNL     1      44.936  42.232 -12.399  1.00  0.00    -0.357 N 
ATOM     15  H2  UNL     1      45.239  41.359 -11.968  1.00  0.00     0.166 HD
HETATM   16  C13 UNL     1      44.948  42.457 -13.742  1.00  0.00     0.027 A 
HETATM   17  C17 UNL     1      44.463  43.747 -13.864  1.00  0.00     0.012 A 
HETATM   18  C18 UNL     1      44.172  44.266 -12.587  1.00  0.00     0.031 A 
ENDROOT
BRANCH  16  19
HETATM   19  C14 UNL     1      45.452  41.512 -14.727  1.00  0.00     0.056 C 
HETATM   20  C15 UNL     1      44.496  40.277 -14.609  1.00  0.00     0.018 C 
BRANCH  19  21
HETATM   21  C16 UNL     1      46.722  40.774 -14.311  1.00  0.00     0.174 C 
BRANCH  21  22
HETATM   22  O1  UNL     1      47.562  41.683 -13.692  1.00  0.00    -0.400 OA
ATOM     23  H1  UNL     1      48.457  41.459 -13.920  1.00  0.00     0.209 HD
ENDBRANCH  21  22
ENDBRANCH  19  21
ENDBRANCH  16  19
BRANCH   1  24
HETATM   24  C2  UNL     1      44.828  43.832 -16.215  1.00  0.00     0.002 C 
HETATM   25  C1  UNL     1      44.073  43.080 -17.024  1.00  0.00     0.012 C 
ENDBRANCH   1  24
TORSDOF 4
ENDMDL
MODEL 5
REMARK VINA RESULT: -4.733476097      4.446      6.828
REMARK  4 active torsions:
REMARK  status: ('A' for Active; 'I' for Inactive)
REMARK    1  A    between atoms: C2_2  and  C3_3 
REMARK    2  A    between atoms: C13_18  and  C14_19 
REMARK    3  A    between atoms: C14_19  and  C16_21 
REMARK    4  A    between atoms: C16_21  and  O1_22 
ROOT
HETATM    1  C3  UNL     1      47.370  45.002 -14.579  1.00  0.00    -0.022 C 
HETATM    2  C4  UNL     1      48.231  45.406 -15.603  1.00  0.00     0.037 C 
HETATM    3  C5  UNL     1      48.278  46.668 -16.218  1.00  0.00     0.006 C 
HETATM    4  C6  UNL     1      49.521  47.074 -16.903  1.00  0.00     0.068 C 
HETATM    5  N1  UNL     1      47.297  47.589 -16.261  1.00  0.00    -0.359 N 
ATOM      6  H1  UNL     1      47.540  48.460 -16.733  1.00  0.00     0.166 HD
HETATM    7  C7  UNL     1      46.044  47.534 -15.776  1.00  0.00     0.049 A 
HETATM    8  C8  UNL     1      45.230  48.566 -16.198  1.00  0.00     0.073 A 
HETATM    9  C9  UNL     1      43.920  48.607 -15.760  1.00  0.00     0.126 A 
HETATM   10  F1  UNL     1      43.118  49.604 -16.166  1.00  0.00    -0.205 F 
HETATM   11  C10 UNL     1      43.412  47.641 -14.911  1.00  0.00     0.004 A 
HETATM   12  C11 UNL     1      42.022  47.664 -14.426  1.00  0.00     0.054 C 
HETATM   13  C12 UNL     1      44.244  46.604 -14.490  1.00  0.00     0.055 A 
HETATM   14  N2  UNL     1      44.062  45.543 -13.697  1.00  0.00    -0.357 N 
ATOM     15  H2  UNL     1      43.180  45.327 -13.234  1.00  0.00     0.166 HD
HETATM   16  C13 UNL     1      45.186  44.785 -13.577  1.00  0.00     0.027 A 
HETATM   17  C17 UNL     1      46.115  45.445 -14.361  1.00  0.00     0.012 A 
HETATM   18  C18 UNL     1      45.523  46.588 -14.934  1.00  0.00     0.031 A 
ENDROOT
BRANCH  16  19
HETATM   19  C14 UNL     1      45.294  43.610 -12.724  1.00  0.00     0.056 C 
HETATM   20  C15 UNL     1      44.317  42.569 -13.368  1.00  0.00     0.018 C 
BRANCH  19  21
HETATM   21  C16 UNL     1      44.560  43.720 -11.391  1.00  0.00     0.174 C 
BRANCH  21  22
HETATM   22  O1  UNL     1      43.206  43.820 -11.655  1.00  0.00    -0.400 OA
ATOM     23  H1  UNL     1      42.760  43.135 -11.170  1.00  0.00     0.209 HD
ENDBRANCH  21  22
ENDBRANCH  19  21
ENDBRANCH  16  19
BRANCH   1  24
HETATM   24  C2  UNL     1      47.903  44.002 -13.741  1.00  0.00     0.002 C 
HETATM   25  C1  UNL     1      47.821  42.723 -14.128  1.00  0.00     0.012 C 
ENDBRANCH   1  24
TORSDOF 4
ENDMDL
