MODEL 1
REMARK VINA RESULT: -8.325526974      0.000      0.000
REMARK  3 active torsions:
REMARK  status: ('A' for Active; 'I' for Inactive)
REMARK    1  A    between atoms: C2_2  and  N1_4 
REMARK       I    between atoms: N1_4  and  C4_6 
REMARK       I    between atoms: C4_6  and  N2_8 
REMARK    2  A    between atoms: N2_8  and  C5_10 
REMARK    3  A    between atoms: C5_10  and  C6_11 
ROOT
HETATM    1  C6  UNL     1      47.590  47.296 -17.244  1.00  0.00     0.142 C 
HETATM    2  C7  UNL     1      49.108  47.264 -17.076  1.00  0.00     0.057 C 
HETATM    3  C8  UNL     1      49.518  47.628 -18.510  1.00  0.00     0.119 C 
HETATM    4 CL1  UNL     1      49.493  46.222 -19.560  1.00  0.00    -0.122 Cl
HETATM    5  C9  UNL     1      48.449  48.653 -18.834  1.00  0.00     0.078 C 
HETATM    6  C10 UNL     1      48.971  49.973 -18.340  1.00  0.00     0.040 C 
HETATM    7  C11 UNL     1      49.949  50.615 -19.297  1.00  0.00     0.003 C 
HETATM    8  C12 UNL     1      49.166  50.856 -20.572  1.00  0.00     0.000 C 
HETATM    9  C13 UNL     1      48.938  49.486 -21.166  1.00  0.00     0.003 C 
HETATM   10  C14 UNL     1      48.136  48.590 -20.274  1.00  0.00     0.040 C 
HETATM   11  O2  UNL     1      47.326  48.347 -18.101  1.00  0.00    -0.372 OA
ENDROOT
BRANCH   1  12
HETATM   12  C5  UNL     1      46.901  47.493 -15.941  1.00  0.00     0.156 C 
BRANCH  12  13
HETATM   13  N2  UNL     1      46.888  46.298 -15.173  1.00  0.00    -0.341 N 
HETATM   14  C4  UNL     1      45.691  45.709 -14.705  1.00  0.00     0.316 C 
HETATM   15  N1  UNL     1      45.740  44.516 -13.925  1.00  0.00    -0.339 N 
HETATM   16  O1  UNL     1      44.597  46.247 -14.987  1.00  0.00    -0.247 OA
ATOM     17  H1  UNL     1      46.652  44.111 -13.718  1.00  0.00     0.164 HD
ATOM     18  H2  UNL     1      47.775  45.848 -14.950  1.00  0.00     0.164 HD
BRANCH  15  19
HETATM   19  C2  UNL     1      44.574  43.859 -13.416  1.00  0.00     0.078 C 
HETATM   20  C1  UNL     1      44.239  44.249 -11.997  1.00  0.00     0.032 C 
HETATM   21  C3  UNL     1      44.872  42.358 -13.417  1.00  0.00     0.032 C 
ENDBRANCH  15  19
ENDBRANCH  12  13
ENDBRANCH   1  12
TORSDOF 3
ENDMDL
MODEL 2
REMARK VINA RESULT: -8.157815095      1.037      1.039
REMARK  3 active torsions:
REMARK  status: ('A' for Active; 'I' for Inactive)
REMARK    1  A    between atoms: C2_2  and  N1_4 
REMARK       I    between atoms: N1_4  and  C4_6 
REMARK       I    between atoms: C4_6  and  N2_8 
REMARK    2  A    between atoms: N2_8  and  C5_10 
REMARK    3  A    between atoms: C5_10  and  C6_11 
ROOT
HETATM    1  C6  UNL     1      47.775  47.907 -17.269  1.00  0.00     0.142 C 
HETATM    2  C7  UNL     1      49.301  47.889 -17.197  1.00  0.00     0.057 C 
HETATM    3  C8  UNL     1      49.614  47.939 -18.699  1.00  0.00     0.119 C 
HETATM    4 CL1  UNL     1      49.519  46.345 -19.427  1.00  0.00    -0.122 Cl
HETATM    5  C9  UNL     1      48.527  48.890 -19.160  1.00  0.00     0.078 C 
HETATM    6  C10 UNL     1      49.081  50.276 -18.989  1.00  0.00     0.040 C 
HETATM    7  C11 UNL     1      49.994  50.690 -20.121  1.00  0.00     0.003 C 
HETATM    8  C12 UNL     1      49.128  50.670 -21.364  1.00  0.00     0.000 C 
HETATM    9  C13 UNL     1      48.860  49.209 -21.642  1.00  0.00     0.003 C 
HETATM   10  C14 UNL     1      48.119  48.531 -20.531  1.00  0.00     0.040 C 
HETATM   11  O2  UNL     1      47.455  48.760 -18.309  1.00  0.00    -0.372 OA
ENDROOT
BRANCH   1  12
HETATM   12  C5  UNL     1      47.174  48.383 -15.994  1.00  0.00     0.156 C 
BRANCH  12  13
HETATM   13  N2  UNL     1      46.886  47.301 -15.119  1.00  0.00    -0.341 N 
HETATM   14  C4  UNL     1      45.565  46.913 -14.801  1.00  0.00     0.316 C 
HETATM   15  N1  UNL     1      45.335  45.828 -13.904  1.00  0.00    -0.339 N 
HETATM   16  O1  UNL     1      44.608  47.532 -15.317  1.00  0.00    -0.247 OA
ATOM     17  H1  UNL     1      46.144  45.351 -13.506  1.00  0.00     0.164 HD
ATOM     18  H2  UNL     1      47.662  46.784 -14.705  1.00  0.00     0.164 HD
BRANCH  15  19
HETATM   19  C2  UNL     1      44.029  45.374 -13.532  1.00  0.00     0.078 C 
HETATM   20  C1  UNL     1      43.995  44.686 -12.189  1.00  0.00     0.032 C 
HETATM   21  C3  UNL     1      43.598  44.347 -14.581  1.00  0.00     0.032 C 
ENDBRANCH  15  19
ENDBRANCH  12  13
ENDBRANCH   1  12
TORSDOF 3
ENDMDL
MODEL 3
REMARK VINA RESULT: -8.081640549      1.240      1.457
REMARK  3 active torsions:
REMARK  status: ('A' for Active; 'I' for Inactive)
REMARK    1  A    between atoms: C2_2  and  N1_4 
REMARK       I    between atoms: N1_4  and  C4_6 
REMARK       I    between atoms: C4_6  and  N2_8 
REMARK    2  A    between atoms: N2_8  and  C5_10 
REMARK    3  A    between atoms: C5_10  and  C6_11 
ROOT
HETATM    1  C6  UNL     1      47.770  47.983 -17.308  1.00  0.00     0.142 C 
HETATM    2  C7  UNL     1      49.296  47.929 -17.241  1.00  0.00     0.057 C 
HETATM    3  C8  UNL     1      49.605  47.982 -18.744  1.00  0.00     0.119 C 
HETATM    4 CL1  UNL     1      49.471  46.395 -19.482  1.00  0.00    -0.122 Cl
HETATM    5  C9  UNL     1      48.539  48.960 -19.196  1.00  0.00     0.078 C 
HETATM    6  C10 UNL     1      49.126  50.332 -19.018  1.00  0.00     0.040 C 
HETATM    7  C11 UNL     1      50.044  50.732 -20.150  1.00  0.00     0.003 C 
HETATM    8  C12 UNL     1      49.174  50.740 -21.391  1.00  0.00     0.000 C 
HETATM    9  C13 UNL     1      48.871  49.287 -21.677  1.00  0.00     0.003 C 
HETATM   10  C14 UNL     1      48.118  48.619 -20.568  1.00  0.00     0.040 C 
HETATM   11  O2  UNL     1      47.467  48.849 -18.342  1.00  0.00    -0.372 OA
ENDROOT
BRANCH   1  12
HETATM   12  C5  UNL     1      47.185  48.464 -16.029  1.00  0.00     0.156 C 
BRANCH  12  13
HETATM   13  N2  UNL     1      45.961  47.804 -15.736  1.00  0.00    -0.341 N 
HETATM   14  C4  UNL     1      45.911  46.488 -15.223  1.00  0.00     0.316 C 
HETATM   15  N1  UNL     1      44.653  45.870 -14.962  1.00  0.00    -0.339 N 
HETATM   16  O1  UNL     1      46.983  45.880 -15.003  1.00  0.00    -0.247 OA
ATOM     17  H1  UNL     1      43.804  46.401 -15.157  1.00  0.00     0.164 HD
ATOM     18  H2  UNL     1      45.085  48.299 -15.902  1.00  0.00     0.164 HD
BRANCH  15  19
HETATM   19  C2  UNL     1      44.519  44.542 -14.443  1.00  0.00     0.078 C 
HETATM   20  C1  UNL     1      43.928  43.569 -15.434  1.00  0.00     0.032 C 
HETATM   21  C3  UNL     1      43.558  44.622 -13.255  1.00  0.00     0.032 C 
ENDBRANCH  15  19
ENDBRANCH  12  13
ENDBRANCH   1  12
TORSDOF 3
ENDMDL
MODEL 4
REMARK VINA RESULT: -8.002911936      1.623      2.239
REMARK  3 active torsions:
REMARK  status: ('A' for Active; 'I' for Inactive)
REMARK    1  A    between atoms: C2_2  and  N1_4 
REMARK       I    between atoms: N1_4  and  C4_6 
REMARK       I    between atoms: C4_6  and  N2_8 
REMARK    2  A    between atoms: N2_8  and  C5_10 
REMARK    3  A    between atoms: C5_10  and  C6_11 
ROOT
HETATM    1  C6  UNL     1      47.405  47.826 -16.386  1.00  0.00     0.142 C 
HETATM    2  C7  UNL     1      47.653  49.167 -17.075  1.00  0.00     0.057 C 
HETATM    3  C8  UNL     1      48.666  48.711 -18.134  1.00  0.00     0.119 C 
HETATM    4 CL1  UNL     1      50.290  48.625 -17.473  1.00  0.00    -0.122 Cl
HETATM    5  C9  UNL     1      48.077  47.361 -18.493  1.00  0.00     0.078 C 
HETATM    6  C10 UNL     1      47.058  47.619 -19.566  1.00  0.00     0.040 C 
HETATM    7  C11 UNL     1      47.673  47.773 -20.938  1.00  0.00     0.003 C 
HETATM    8  C12 UNL     1      48.348  46.447 -21.228  1.00  0.00     0.000 C 
HETATM    9  C13 UNL     1      49.545  46.398 -20.308  1.00  0.00     0.003 C 
HETATM   10  C14 UNL     1      49.168  46.438 -18.859  1.00  0.00     0.040 C 
HETATM   11  O2  UNL     1      47.412  46.877 -17.391  1.00  0.00    -0.372 OA
ENDROOT
BRANCH   1  12
HETATM   12  C5  UNL     1      46.106  47.817 -15.662  1.00  0.00     0.156 C 
BRANCH  12  13
HETATM   13  N2  UNL     1      46.140  46.942 -14.542  1.00  0.00    -0.341 N 
HETATM   14  C4  UNL     1      45.143  45.969 -14.307  1.00  0.00     0.316 C 
HETATM   15  N1  UNL     1      45.221  45.129 -13.158  1.00  0.00    -0.339 N 
HETATM   16  O1  UNL     1      44.197  45.859 -15.120  1.00  0.00    -0.247 OA
ATOM     17  H1  UNL     1      46.008  45.253 -12.521  1.00  0.00     0.164 HD
ATOM     18  H2  UNL     1      46.915  47.020 -13.883  1.00  0.00     0.164 HD
BRANCH  15  19
HETATM   19  C2  UNL     1      44.253  44.120 -12.850  1.00  0.00     0.078 C 
HETATM   20  C1  UNL     1      43.992  43.974 -11.371  1.00  0.00     0.032 C 
HETATM   21  C3  UNL     1      44.820  42.789 -13.347  1.00  0.00     0.032 C 
ENDBRANCH  15  19
ENDBRANCH  12  13
ENDBRANCH   1  12
TORSDOF 3
ENDMDL
MODEL 5
REMARK VINA RESULT: -7.880780960      1.517      1.775
REMARK  3 active torsions:
REMARK  status: ('A' for Active; 'I' for Inactive)
REMARK    1  A    between atoms: C2_2  and  N1_4 
REMARK       I    between atoms: N1_4  and  C4_6 
REMARK       I    between atoms: C4_6  and  N2_8 
REMARK    2  A    between atoms: N2_8  and  C5_10 
REMARK    3  A    between atoms: C5_10  and  C6_11 
ROOT
HETATM    1  C6  UNL     1      48.031  48.028 -17.280  1.00  0.00     0.142 C 
HETATM    2  C7  UNL     1      49.556  48.033 -17.374  1.00  0.00     0.057 C 
HETATM    3  C8  UNL     1      49.704  47.954 -18.900  1.00  0.00     0.119 C 
HETATM    4 CL1  UNL     1      49.564  46.301 -19.473  1.00  0.00    -0.122 Cl
HETATM    5  C9  UNL     1      48.554  48.848 -19.320  1.00  0.00     0.078 C 
HETATM    6  C10 UNL     1      49.095  50.250 -19.331  1.00  0.00     0.040 C 
HETATM    7  C11 UNL     1      49.872  50.573 -20.587  1.00  0.00     0.003 C 
HETATM    8  C12 UNL     1      48.877  50.434 -21.722  1.00  0.00     0.000 C 
HETATM    9  C13 UNL     1      48.611  48.952 -21.842  1.00  0.00     0.003 C 
HETATM   10  C14 UNL     1      48.008  48.366 -20.602  1.00  0.00     0.040 C 
HETATM   11  O2  UNL     1      47.583  48.782 -18.349  1.00  0.00    -0.372 OA
ENDROOT
BRANCH   1  12
HETATM   12  C5  UNL     1      47.561  48.607 -15.993  1.00  0.00     0.156 C 
BRANCH  12  13
HETATM   13  N2  UNL     1      46.848  47.651 -15.222  1.00  0.00    -0.341 N 
HETATM   14  C4  UNL     1      45.461  47.430 -15.380  1.00  0.00     0.316 C 
HETATM   15  N1  UNL     1      44.793  46.467 -14.566  1.00  0.00    -0.339 N 
HETATM   16  O1  UNL     1      44.834  48.088 -16.240  1.00  0.00    -0.247 OA
ATOM     17  H1  UNL     1      45.342  45.954 -13.877  1.00  0.00     0.164 HD
ATOM     18  H2  UNL     1      47.355  47.103 -14.528  1.00  0.00     0.164 HD
BRANCH  15  19
HETATM   19  C2  UNL     1      43.393  46.185 -14.666  1.00  0.00     0.078 C 
HETATM   20  C1  UNL     1      42.521  47.288 -14.117  1.00  0.00     0.032 C 
HETATM   21  C3  UNL     1      43.129  44.934 -13.826  1.00  0.00     0.032 C 
ENDBRANCH  15  19
ENDBRANCH  12  13
ENDBRANCH   1  12
TORSDOF 3
ENDMDL
