MODEL 1
REMARK VINA RESULT: -7.429925923      0.000      0.000
REMARK  6 active torsions:
REMARK  status: ('A' for Active; 'I' for Inactive)
REMARK    1  A    between atoms: C2_2  and  C3_3 
REMARK    2  A    between atoms: C3_3  and  C4_4 
REMARK    3  A    between atoms: C4_4  and  C5_5 
REMARK    4  A    between atoms: C8_10  and  O2_11 
REMARK    5  A    between atoms: C9_13  and  C10_14 
REMARK    6  A    between atoms: C13_18  and  O3_19 
ROOT
HETATM    1  C1  UNL     1     -45.822  10.697   5.633  1.00  0.00     0.044 C 
HETATM    2  C2  UNL     1     -46.142  11.206   6.997  1.00  0.00    -0.068 C 
HETATM    3  C6  UNL     1     -45.674  12.386   7.393  1.00  0.00     0.043 A 
HETATM    4  C7  UNL     1     -44.854  13.229   6.497  1.00  0.00     0.217 A 
HETATM    5  O1  UNL     1     -44.667  12.875   5.313  1.00  0.00    -0.284 OA
HETATM    6  C8  UNL     1     -44.265  14.474   6.988  1.00  0.00     0.128 A 
HETATM    7  C9  UNL     1     -44.426  14.907   8.221  1.00  0.00     0.037 A 
HETATM    8  C13 UNL     1     -45.223  14.077   9.081  1.00  0.00     0.099 A 
HETATM    9  C14 UNL     1     -45.803  12.924   8.738  1.00  0.00     0.082 A 
HETATM   10 CL3  UNL     1     -46.626  12.009  10.013  1.00  0.00    -0.080 Cl
ENDROOT
BRANCH   2  11
HETATM   11  C3  UNL     1     -47.127  10.474   7.811  1.00  0.00     0.036 C 
BRANCH  11  12
HETATM   12  C4  UNL     1     -47.971   9.489   6.965  1.00  0.00     0.019 C 
BRANCH  12  13
HETATM   13  C5  UNL     1     -47.759   8.124   7.646  1.00  0.00     0.115 C 
HETATM   14 CL1  UNL     1     -46.072   7.627   7.632  1.00  0.00    -0.130 Cl
ENDBRANCH  12  13
ENDBRANCH  11  12
ENDBRANCH   2  11
BRANCH   6  15
HETATM   15  O2  UNL     1     -43.505  15.199   6.061  1.00  0.00    -0.356 OA
ATOM     16  H2  UNL     1     -43.762  15.108   5.151  1.00  0.00     0.218 HD
ENDBRANCH   6  15
BRANCH   8  17
HETATM   17  O3  UNL     1     -45.414  14.500  10.391  1.00  0.00    -0.358 OA
ATOM     18  H3  UNL     1     -46.277  14.814  10.632  1.00  0.00     0.217 HD
ENDBRANCH   8  17
BRANCH   7  19
HETATM   19  C10 UNL     1     -43.792  16.171   8.613  1.00  0.00     0.062 C 
HETATM   20  C11 UNL     1     -42.667  15.987   9.607  1.00  0.00     0.037 C 
HETATM   21  C12 UNL     1     -44.786  17.135   9.261  1.00  0.00     0.037 C 
HETATM   22 CL2  UNL     1     -43.101  17.031   7.216  1.00  0.00    -0.115 Cl
ENDBRANCH   7  19
TORSDOF 6
ENDMDL
MODEL 2
REMARK VINA RESULT: -7.369084397      0.727      1.009
REMARK  6 active torsions:
REMARK  status: ('A' for Active; 'I' for Inactive)
REMARK    1  A    between atoms: C2_2  and  C3_3 
REMARK    2  A    between atoms: C3_3  and  C4_4 
REMARK    3  A    between atoms: C4_4  and  C5_5 
REMARK    4  A    between atoms: C8_10  and  O2_11 
REMARK    5  A    between atoms: C9_13  and  C10_14 
REMARK    6  A    between atoms: C13_18  and  O3_19 
ROOT
HETATM    1  C1  UNL     1     -45.861  10.671   5.629  1.00  0.00     0.044 C 
HETATM    2  C2  UNL     1     -46.167  11.183   6.996  1.00  0.00    -0.068 C 
HETATM    3  C6  UNL     1     -45.694  12.362   7.384  1.00  0.00     0.043 A 
HETATM    4  C7  UNL     1     -44.882  13.204   6.479  1.00  0.00     0.217 A 
HETATM    5  O1  UNL     1     -44.707  12.848   5.294  1.00  0.00    -0.284 OA
HETATM    6  C8  UNL     1     -44.287  14.449   6.962  1.00  0.00     0.128 A 
HETATM    7  C9  UNL     1     -44.435  14.884   8.196  1.00  0.00     0.037 A 
HETATM    8  C13 UNL     1     -45.224  14.056   9.066  1.00  0.00     0.099 A 
HETATM    9  C14 UNL     1     -45.808  12.903   8.731  1.00  0.00     0.082 A 
HETATM   10 CL3  UNL     1     -46.620  11.991  10.015  1.00  0.00    -0.080 Cl
ENDROOT
BRANCH   2  11
HETATM   11  C3  UNL     1     -47.144  10.453   7.820  1.00  0.00     0.036 C 
BRANCH  11  12
HETATM   12  C4  UNL     1     -47.995   9.465   6.985  1.00  0.00     0.019 C 
BRANCH  12  13
HETATM   13  C5  UNL     1     -47.783   8.104   7.674  1.00  0.00     0.115 C 
HETATM   14 CL1  UNL     1     -46.100   7.593   7.639  1.00  0.00    -0.130 Cl
ENDBRANCH  12  13
ENDBRANCH  11  12
ENDBRANCH   2  11
BRANCH   6  15
HETATM   15  O2  UNL     1     -43.536  15.172   6.026  1.00  0.00    -0.356 OA
ATOM     16  H2  UNL     1     -42.747  14.747   5.709  1.00  0.00     0.218 HD
ENDBRANCH   6  15
BRANCH   8  17
HETATM   17  O3  UNL     1     -45.401  14.481  10.376  1.00  0.00    -0.358 OA
ATOM     18  H3  UNL     1     -45.137  13.891  11.072  1.00  0.00     0.217 HD
ENDBRANCH   8  17
BRANCH   7  19
HETATM   19  C10 UNL     1     -43.796  16.148   8.580  1.00  0.00     0.062 C 
HETATM   20  C11 UNL     1     -44.762  17.141   9.187  1.00  0.00     0.037 C 
HETATM   21  C12 UNL     1     -43.152  16.851   7.384  1.00  0.00     0.037 C 
HETATM   22 CL2  UNL     1     -42.499  15.905   9.774  1.00  0.00    -0.115 Cl
ENDBRANCH   7  19
TORSDOF 6
ENDMDL
MODEL 3
REMARK VINA RESULT: -7.318615652      1.172      1.365
REMARK  6 active torsions:
REMARK  status: ('A' for Active; 'I' for Inactive)
REMARK    1  A    between atoms: C2_2  and  C3_3 
REMARK    2  A    between atoms: C3_3  and  C4_4 
REMARK    3  A    between atoms: C4_4  and  C5_5 
REMARK    4  A    between atoms: C8_10  and  O2_11 
REMARK    5  A    between atoms: C9_13  and  C10_14 
REMARK    6  A    between atoms: C13_18  and  O3_19 
ROOT
HETATM    1  C1  UNL     1     -45.864  10.619   5.628  1.00  0.00     0.044 C 
HETATM    2  C2  UNL     1     -46.183  11.144   6.987  1.00  0.00    -0.068 C 
HETATM    3  C6  UNL     1     -45.713  12.326   7.370  1.00  0.00     0.043 A 
HETATM    4  C7  UNL     1     -44.892  13.159   6.466  1.00  0.00     0.217 A 
HETATM    5  O1  UNL     1     -44.706  12.793   5.285  1.00  0.00    -0.284 OA
HETATM    6  C8  UNL     1     -44.301  14.409   6.943  1.00  0.00     0.128 A 
HETATM    7  C9  UNL     1     -44.461  14.854   8.172  1.00  0.00     0.037 A 
HETATM    8  C13 UNL     1     -45.258  14.034   9.041  1.00  0.00     0.099 A 
HETATM    9  C14 UNL     1     -45.840  12.879   8.710  1.00  0.00     0.082 A 
HETATM   10 CL3  UNL     1     -46.665  11.978   9.994  1.00  0.00    -0.080 Cl
ENDROOT
BRANCH   2  11
HETATM   11  C3  UNL     1     -47.169  10.421   7.808  1.00  0.00     0.036 C 
BRANCH  11  12
HETATM   12  C4  UNL     1     -46.860   8.907   7.900  1.00  0.00     0.019 C 
BRANCH  12  13
HETATM   13  C5  UNL     1     -48.199   8.224   7.560  1.00  0.00     0.115 C 
HETATM   14 CL1  UNL     1     -49.481   9.388   7.250  1.00  0.00    -0.130 Cl
ENDBRANCH  12  13
ENDBRANCH  11  12
ENDBRANCH   2  11
BRANCH   6  15
HETATM   15  O2  UNL     1     -43.540  15.123   6.008  1.00  0.00    -0.356 OA
ATOM     16  H2  UNL     1     -43.387  16.038   6.210  1.00  0.00     0.218 HD
ENDBRANCH   6  15
BRANCH   8  17
HETATM   17  O3  UNL     1     -45.448  14.471  10.346  1.00  0.00    -0.358 OA
ATOM     18  H3  UNL     1     -44.897  15.178  10.660  1.00  0.00     0.217 HD
ENDBRANCH   8  17
BRANCH   7  19
HETATM   19  C10 UNL     1     -43.824  16.121   8.550  1.00  0.00     0.062 C 
HETATM   20  C11 UNL     1     -43.188  16.838   7.380  1.00  0.00     0.037 C 
HETATM   21  C12 UNL     1     -42.717  15.920   9.585  1.00  0.00     0.037 C 
HETATM   22 CL2  UNL     1     -44.985  17.260   9.274  1.00  0.00    -0.115 Cl
ENDBRANCH   7  19
TORSDOF 6
ENDMDL
MODEL 4
REMARK VINA RESULT: -7.165920113      1.572      2.841
REMARK  6 active torsions:
REMARK  status: ('A' for Active; 'I' for Inactive)
REMARK    1  A    between atoms: C2_2  and  C3_3 
REMARK    2  A    between atoms: C3_3  and  C4_4 
REMARK    3  A    between atoms: C4_4  and  C5_5 
REMARK    4  A    between atoms: C8_10  and  O2_11 
REMARK    5  A    between atoms: C9_13  and  C10_14 
REMARK    6  A    between atoms: C13_18  and  O3_19 
ROOT
HETATM    1  C1  UNL     1     -47.424  10.470   8.955  1.00  0.00     0.044 C 
HETATM    2  C2  UNL     1     -46.662  11.009   7.792  1.00  0.00    -0.068 C 
HETATM    3  C6  UNL     1     -45.923  12.105   7.932  1.00  0.00     0.043 A 
HETATM    4  C7  UNL     1     -45.814  12.800   9.233  1.00  0.00     0.217 A 
HETATM    5  O1  UNL     1     -46.352  12.305  10.246  1.00  0.00    -0.284 OA
HETATM    6  C8  UNL     1     -45.079  14.060   9.339  1.00  0.00     0.128 A 
HETATM    7  C9  UNL     1     -44.487  14.634   8.312  1.00  0.00     0.037 A 
HETATM    8  C13 UNL     1     -44.603  13.949   7.054  1.00  0.00     0.099 A 
HETATM    9  C14 UNL     1     -45.250  12.800   6.846  1.00  0.00     0.082 A 
HETATM   10 CL3  UNL     1     -45.369  12.217   5.177  1.00  0.00    -0.080 Cl
ENDROOT
BRANCH   2  11
HETATM   11  C3  UNL     1     -46.596  10.207   6.559  1.00  0.00     0.036 C 
BRANCH  11  12
HETATM   12  C4  UNL     1     -47.866   9.345   6.352  1.00  0.00     0.019 C 
BRANCH  12  13
HETATM   13  C5  UNL     1     -47.323   7.925   6.102  1.00  0.00     0.115 C 
HETATM   14 CL1  UNL     1     -46.213   7.402   7.363  1.00  0.00    -0.130 Cl
ENDBRANCH  12  13
ENDBRANCH  11  12
ENDBRANCH   2  11
BRANCH   6  15
HETATM   15  O2  UNL     1     -45.036  14.638  10.614  1.00  0.00    -0.356 OA
ATOM     16  H2  UNL     1     -45.754  15.222  10.830  1.00  0.00     0.218 HD
ENDBRANCH   6  15
BRANCH   8  17
HETATM   17  O3  UNL     1     -43.992  14.525   5.947  1.00  0.00    -0.358 OA
ATOM     18  H3  UNL     1     -43.864  13.979   5.180  1.00  0.00     0.217 HD
ENDBRANCH   8  17
BRANCH   7  19
HETATM   19  C10 UNL     1     -43.775  15.899   8.526  1.00  0.00     0.062 C 
HETATM   20  C11 UNL     1     -43.229  16.496   7.248  1.00  0.00     0.037 C 
HETATM   21  C12 UNL     1     -42.582  15.733   9.468  1.00  0.00     0.037 C 
HETATM   22 CL2  UNL     1     -44.821  17.137   9.260  1.00  0.00    -0.115 Cl
ENDBRANCH   7  19
TORSDOF 6
ENDMDL
MODEL 5
REMARK VINA RESULT: -7.025339090      1.623      6.223
REMARK  6 active torsions:
REMARK  status: ('A' for Active; 'I' for Inactive)
REMARK    1  A    between atoms: C2_2  and  C3_3 
REMARK    2  A    between atoms: C3_3  and  C4_4 
REMARK    3  A    between atoms: C4_4  and  C5_5 
REMARK    4  A    between atoms: C8_10  and  O2_11 
REMARK    5  A    between atoms: C9_13  and  C10_14 
REMARK    6  A    between atoms: C13_18  and  O3_19 
ROOT
HETATM    1  C1  UNL     1     -44.070  14.807   6.479  1.00  0.00     0.044 C 
HETATM    2  C2  UNL     1     -44.716  14.277   7.714  1.00  0.00    -0.068 C 
HETATM    3  C6  UNL     1     -45.322  13.094   7.691  1.00  0.00     0.043 A 
HETATM    4  C7  UNL     1     -45.352  12.267   6.466  1.00  0.00     0.217 A 
HETATM    5  O1  UNL     1     -44.722  12.639   5.452  1.00  0.00    -0.284 OA
HETATM    6  C8  UNL     1     -46.112  11.018   6.435  1.00  0.00     0.128 A 
HETATM    7  C9  UNL     1     -46.793  10.567   7.468  1.00  0.00     0.037 A 
HETATM    8  C13 UNL     1     -46.757  11.381   8.651  1.00  0.00     0.099 A 
HETATM    9  C14 UNL     1     -46.101  12.536   8.786  1.00  0.00     0.082 A 
HETATM   10 CL3  UNL     1     -46.315  13.429  10.302  1.00  0.00    -0.080 Cl
ENDROOT
BRANCH   2  11
HETATM   11  C3  UNL     1     -44.506  14.993   8.983  1.00  0.00     0.036 C 
BRANCH  11  12
HETATM   12  C4  UNL     1     -44.587  16.529   8.811  1.00  0.00     0.019 C 
BRANCH  12  13
HETATM   13  C5  UNL     1     -43.155  17.020   9.099  1.00  0.00     0.115 C 
HETATM   14 CL1  UNL     1     -42.384  17.707   7.675  1.00  0.00    -0.130 Cl
ENDBRANCH  12  13
ENDBRANCH  11  12
ENDBRANCH   2  11
BRANCH   6  15
HETATM   15  O2  UNL     1     -46.077  10.310   5.227  1.00  0.00    -0.356 OA
ATOM     16  H2  UNL     1     -46.325  10.799   4.451  1.00  0.00     0.218 HD
ENDBRANCH   6  15
BRANCH   8  17
HETATM   17  O3  UNL     1     -47.465  10.939   9.761  1.00  0.00    -0.358 OA
ATOM     18  H3  UNL     1     -48.236  10.405   9.609  1.00  0.00     0.217 HD
ENDBRANCH   8  17
BRANCH   7  19
HETATM   19  C10 UNL     1     -47.522   9.301   7.332  1.00  0.00     0.062 C 
HETATM   20  C11 UNL     1     -46.785   8.125   7.935  1.00  0.00     0.037 C 
HETATM   21  C12 UNL     1     -47.781   8.942   5.869  1.00  0.00     0.037 C 
HETATM   22 CL2  UNL     1     -49.116   9.360   8.122  1.00  0.00    -0.115 Cl
ENDBRANCH   7  19
TORSDOF 6
ENDMDL
