MODEL 1
REMARK VINA RESULT: -6.865681749      0.000      0.000
REMARK  4 active torsions:
REMARK  status: ('A' for Active; 'I' for Inactive)
REMARK    1  A    between atoms: C3_5  and  C4_6 
REMARK    2  A    between atoms: C6_13  and  C7_14 
REMARK    3  A    between atoms: C7_14  and  O2_15 
REMARK    4  A    between atoms: O2_15  and  C8_16 
ROOT
HETATM    1  C1  UNL     1     -46.169  13.066  10.065  1.00  0.00     0.069 C 
HETATM    2  C2  UNL     1     -45.596  13.552   8.803  1.00  0.00     0.023 A 
HETATM    3  N1  UNL     1     -45.799  12.822   7.666  1.00  0.00    -0.341 N 
ATOM      4  H1  UNL     1     -46.375  11.982   7.727  1.00  0.00     0.167 HD
HETATM    5  C3  UNL     1     -45.281  13.153   6.472  1.00  0.00     0.173 A 
HETATM    6  N3  UNL     1     -44.530  14.253   6.410  1.00  0.00    -0.328 N 
ATOM      7  H3  UNL     1     -44.123  14.529   5.517  1.00  0.00     0.168 HD
HETATM    8  C5  UNL     1     -44.299  15.006   7.499  1.00  0.00     0.117 A 
HETATM    9  S1  UNL     1     -43.377  16.315   7.307  1.00  0.00    -0.059 SA
HETATM   10  C6  UNL     1     -44.841  14.662   8.745  1.00  0.00     0.060 A 
ENDROOT
BRANCH  10  11
HETATM   11  C7  UNL     1     -44.566  15.593   9.863  1.00  0.00     0.119 C 
HETATM   12  C10 UNL     1     -43.487  15.481  10.614  1.00  0.00     0.137 C 
HETATM   13 CL2  UNL     1     -43.087  16.549  11.951  1.00  0.00    -0.068 Cl
HETATM   14 CL3  UNL     1     -42.332  14.150  10.379  1.00  0.00    -0.068 Cl
BRANCH  11  15
HETATM   15  O2  UNL     1     -45.436  16.592  10.131  1.00  0.00    -0.328 OA
BRANCH  15  16
HETATM   16  C8  UNL     1     -46.646  16.801  10.660  1.00  0.00     0.220 C 
HETATM   17  C9  UNL     1     -46.633  16.228  12.101  1.00  0.00     0.057 C 
HETATM   18 CL1  UNL     1     -48.020  15.983   9.885  1.00  0.00    -0.095 Cl
ENDBRANCH  15  16
ENDBRANCH  11  15
ENDBRANCH  10  11
BRANCH   5  19
HETATM   19  C4  UNL     1     -45.529  12.338   5.289  1.00  0.00     0.298 C 
HETATM   20  N2  UNL     1     -44.957  11.054   5.123  1.00  0.00    -0.054 NA
HETATM   21  O1  UNL     1     -46.276  12.790   4.386  1.00  0.00    -0.268 OA
ENDBRANCH   5  19
TORSDOF 4
ENDMDL
MODEL 2
REMARK VINA RESULT: -6.726999980      1.346      2.029
REMARK  4 active torsions:
REMARK  status: ('A' for Active; 'I' for Inactive)
REMARK    1  A    between atoms: C3_5  and  C4_6 
REMARK    2  A    between atoms: C6_13  and  C7_14 
REMARK    3  A    between atoms: C7_14  and  O2_15 
REMARK    4  A    between atoms: O2_15  and  C8_16 
ROOT
HETATM    1  C1  UNL     1     -43.464  16.202   7.245  1.00  0.00     0.069 C 
HETATM    2  C2  UNL     1     -44.189  14.938   7.435  1.00  0.00     0.023 A 
HETATM    3  N1  UNL     1     -44.522  14.202   6.334  1.00  0.00    -0.341 N 
ATOM      4  H1  UNL     1     -44.223  14.538   5.418  1.00  0.00     0.167 HD
HETATM    5  C3  UNL     1     -45.223  13.058   6.394  1.00  0.00     0.173 A 
HETATM    6  N3  UNL     1     -45.607  12.633   7.598  1.00  0.00    -0.328 N 
ATOM      7  H3  UNL     1     -46.141  11.768   7.675  1.00  0.00     0.168 HD
HETATM    8  C5  UNL     1     -45.304  13.320   8.713  1.00  0.00     0.117 A 
HETATM    9  S1  UNL     1     -45.819  12.713  10.115  1.00  0.00    -0.059 SA
HETATM   10  C6  UNL     1     -44.572  14.514   8.651  1.00  0.00     0.060 A 
ENDROOT
BRANCH  10  11
HETATM   11  C7  UNL     1     -44.250  15.158   9.944  1.00  0.00     0.119 C 
HETATM   12  C10 UNL     1     -43.038  15.110  10.465  1.00  0.00     0.137 C 
HETATM   13 CL2  UNL     1     -42.578  15.854  11.988  1.00  0.00    -0.068 Cl
HETATM   14 CL3  UNL     1     -41.730  14.199   9.678  1.00  0.00    -0.068 Cl
BRANCH  11  15
HETATM   15  O2  UNL     1     -45.216  15.817  10.622  1.00  0.00    -0.328 OA
BRANCH  15  16
HETATM   16  C8  UNL     1     -46.276  16.605  10.415  1.00  0.00     0.220 C 
HETATM   17  C9  UNL     1     -46.695  17.197  11.785  1.00  0.00     0.057 C 
HETATM   18 CL1  UNL     1     -47.756  15.827   9.812  1.00  0.00    -0.095 Cl
ENDBRANCH  15  16
ENDBRANCH  11  15
ENDBRANCH  10  11
BRANCH   5  19
HETATM   19  C4  UNL     1     -45.553  12.309   5.187  1.00  0.00     0.298 C 
HETATM   20  N2  UNL     1     -45.043  11.011   4.941  1.00  0.00    -0.054 NA
HETATM   21  O1  UNL     1     -46.313  12.833   4.336  1.00  0.00    -0.268 OA
ENDBRANCH   5  19
TORSDOF 4
ENDMDL
MODEL 3
REMARK VINA RESULT: -6.632443891      1.758      3.319
REMARK  4 active torsions:
REMARK  status: ('A' for Active; 'I' for Inactive)
REMARK    1  A    between atoms: C3_5  and  C4_6 
REMARK    2  A    between atoms: C6_13  and  C7_14 
REMARK    3  A    between atoms: C7_14  and  O2_15 
REMARK    4  A    between atoms: O2_15  and  C8_16 
ROOT
HETATM    1  C1  UNL     1     -44.040  16.155   7.772  1.00  0.00     0.069 C 
HETATM    2  C2  UNL     1     -44.719  14.852   7.796  1.00  0.00     0.023 A 
HETATM    3  N1  UNL     1     -44.860  14.165   6.624  1.00  0.00    -0.341 N 
ATOM      4  H1  UNL     1     -44.456  14.564   5.777  1.00  0.00     0.167 HD
HETATM    5  C3  UNL     1     -45.504  12.989   6.530  1.00  0.00     0.173 A 
HETATM    6  N3  UNL     1     -46.027  12.482   7.646  1.00  0.00    -0.328 N 
ATOM      7  H3  UNL     1     -46.523  11.592   7.605  1.00  0.00     0.168 HD
HETATM    8  C5  UNL     1     -45.916  13.119   8.825  1.00  0.00     0.117 A 
HETATM    9  S1  UNL     1     -46.587  12.413  10.109  1.00  0.00    -0.059 SA
HETATM   10  C6  UNL     1     -45.243  14.345   8.924  1.00  0.00     0.060 A 
ENDROOT
BRANCH  10  11
HETATM   11  C7  UNL     1     -45.135  14.928  10.280  1.00  0.00     0.119 C 
HETATM   12  C10 UNL     1     -46.073  15.713  10.778  1.00  0.00     0.137 C 
HETATM   13 CL2  UNL     1     -46.021  16.436  12.378  1.00  0.00    -0.068 Cl
HETATM   14 CL3  UNL     1     -47.492  16.182   9.816  1.00  0.00    -0.068 Cl
BRANCH  11  15
HETATM   15  O2  UNL     1     -44.052  14.657  11.041  1.00  0.00    -0.328 OA
BRANCH  15  16
HETATM   16  C8  UNL     1     -42.724  14.811  11.049  1.00  0.00     0.220 C 
HETATM   17  C9  UNL     1     -42.428  16.333  11.017  1.00  0.00     0.057 C 
HETATM   18 CL1  UNL     1     -41.827  14.170   9.656  1.00  0.00    -0.095 Cl
ENDBRANCH  15  16
ENDBRANCH  11  15
ENDBRANCH  10  11
BRANCH   5  19
HETATM   19  C4  UNL     1     -45.626  12.296   5.253  1.00  0.00     0.298 C 
HETATM   20  N2  UNL     1     -45.011  11.043   5.012  1.00  0.00    -0.054 NA
HETATM   21  O1  UNL     1     -46.299  12.827   4.335  1.00  0.00    -0.268 OA
ENDBRANCH   5  19
TORSDOF 4
ENDMDL
MODEL 4
REMARK VINA RESULT: -6.195123276      3.578      5.414
REMARK  4 active torsions:
REMARK  status: ('A' for Active; 'I' for Inactive)
REMARK    1  A    between atoms: C3_5  and  C4_6 
REMARK    2  A    between atoms: C6_13  and  C7_14 
REMARK    3  A    between atoms: C7_14  and  O2_15 
REMARK    4  A    between atoms: O2_15  and  C8_16 
ROOT
HETATM    1  C1  UNL     1     -46.292  16.975  11.362  1.00  0.00     0.069 C 
HETATM    2  C2  UNL     1     -47.048  15.735  11.137  1.00  0.00     0.023 A 
HETATM    3  N1  UNL     1     -48.342  15.668  11.570  1.00  0.00    -0.341 N 
ATOM      4  H1  UNL     1     -48.750  16.496  12.003  1.00  0.00     0.167 HD
HETATM    5  C3  UNL     1     -49.104  14.568  11.454  1.00  0.00     0.173 A 
HETATM    6  N3  UNL     1     -48.554  13.495  10.886  1.00  0.00    -0.328 N 
ATOM      7  H3  UNL     1     -49.109  12.645  10.786  1.00  0.00     0.168 HD
HETATM    8  C5  UNL     1     -47.286  13.508  10.443  1.00  0.00     0.117 A 
HETATM    9  S1  UNL     1     -46.725  12.154   9.773  1.00  0.00    -0.059 SA
HETATM   10  C6  UNL     1     -46.490  14.657  10.562  1.00  0.00     0.060 A 
ENDROOT
BRANCH  10  11
HETATM   11  C7  UNL     1     -45.127  14.575   9.992  1.00  0.00     0.119 C 
HETATM   12  C10 UNL     1     -44.086  14.214  10.719  1.00  0.00     0.137 C 
HETATM   13 CL2  UNL     1     -42.442  14.086  10.113  1.00  0.00    -0.068 Cl
HETATM   14 CL3  UNL     1     -44.247  13.877  12.457  1.00  0.00    -0.068 Cl
BRANCH  11  15
HETATM   15  O2  UNL     1     -44.927  14.875   8.689  1.00  0.00    -0.328 OA
BRANCH  15  16
HETATM   16  C8  UNL     1     -44.559  15.891   7.902  1.00  0.00     0.220 C 
HETATM   17  C9  UNL     1     -43.604  15.325   6.820  1.00  0.00     0.057 C 
HETATM   18 CL1  UNL     1     -43.626  17.201   8.657  1.00  0.00    -0.095 Cl
ENDBRANCH  15  16
ENDBRANCH  11  15
ENDBRANCH  10  11
BRANCH   5  19
HETATM   19  C4  UNL     1     -50.481  14.550  11.933  1.00  0.00     0.298 C 
HETATM   20  N2  UNL     1     -50.831  14.040  13.207  1.00  0.00    -0.054 NA
HETATM   21  O1  UNL     1     -51.388  15.001  11.192  1.00  0.00    -0.268 OA
ENDBRANCH   5  19
TORSDOF 4
ENDMDL
MODEL 5
REMARK VINA RESULT: -6.119718102      3.489      5.317
REMARK  4 active torsions:
REMARK  status: ('A' for Active; 'I' for Inactive)
REMARK    1  A    between atoms: C3_5  and  C4_6 
REMARK    2  A    between atoms: C6_13  and  C7_14 
REMARK    3  A    between atoms: C7_14  and  O2_15 
REMARK    4  A    between atoms: O2_15  and  C8_16 
ROOT
HETATM    1  C1  UNL     1     -47.033  11.571  10.130  1.00  0.00     0.069 C 
HETATM    2  C2  UNL     1     -47.419  12.956  10.432  1.00  0.00     0.023 A 
HETATM    3  N1  UNL     1     -48.637  13.187  11.006  1.00  0.00    -0.341 N 
ATOM      4  H1  UNL     1     -49.222  12.385  11.239  1.00  0.00     0.167 HD
HETATM    5  C3  UNL     1     -49.104  14.417  11.280  1.00  0.00     0.173 A 
HETATM    6  N3  UNL     1     -48.327  15.454  10.968  1.00  0.00    -0.328 N 
ATOM      7  H3  UNL     1     -48.655  16.400  11.163  1.00  0.00     0.168 HD
HETATM    8  C5  UNL     1     -47.120  15.281  10.402  1.00  0.00     0.117 A 
HETATM    9  S1  UNL     1     -46.266  16.607  10.068  1.00  0.00    -0.059 SA
HETATM   10  C6  UNL     1     -46.632  13.998  10.117  1.00  0.00     0.060 A 
ENDROOT
BRANCH  10  11
HETATM   11  C7  UNL     1     -45.269  13.925   9.544  1.00  0.00     0.119 C 
HETATM   12  C10 UNL     1     -44.189  14.016  10.298  1.00  0.00     0.137 C 
HETATM   13 CL2  UNL     1     -42.542  13.930   9.694  1.00  0.00    -0.068 Cl
HETATM   14 CL3  UNL     1     -44.306  14.313  12.046  1.00  0.00    -0.068 Cl
BRANCH  11  15
HETATM   15  O2  UNL     1     -45.111  13.758   8.212  1.00  0.00    -0.328 OA
BRANCH  15  16
HETATM   16  C8  UNL     1     -45.105  14.456   7.072  1.00  0.00     0.220 C 
HETATM   17  C9  UNL     1     -45.159  13.441   5.900  1.00  0.00     0.057 C 
HETATM   18 CL1  UNL     1     -43.659  15.431   6.729  1.00  0.00    -0.095 Cl
ENDBRANCH  15  16
ENDBRANCH  11  15
ENDBRANCH  10  11
BRANCH   5  19
HETATM   19  C4  UNL     1     -50.412  14.608  11.894  1.00  0.00     0.298 C 
HETATM   20  N2  UNL     1     -50.658  14.305  13.255  1.00  0.00    -0.054 NA
HETATM   21  O1  UNL     1     -51.353  15.055  11.193  1.00  0.00    -0.268 OA
ENDBRANCH   5  19
TORSDOF 4
ENDMDL
