MODEL 1
REMARK VINA RESULT: -8.479390477      0.000      0.000
REMARK  7 active torsions:
REMARK  status: ('A' for Active; 'I' for Inactive)
REMARK    1  A    between atoms: C3_5  and  C4_6 
REMARK    2  A    between atoms: C4_6  and  N2_7 
REMARK    3  A    between atoms: C6_14  and  N4_15 
REMARK    4  A    between atoms: C7_20  and  N6_21 
REMARK    5  A    between atoms: N6_21  and  C8_23 
REMARK    6  A    between atoms: C8_23  and  C9_24 
REMARK    7  A    between atoms: C9_24  and  C10_25 
ROOT
HETATM    1  C1  UNL     1     -29.757  13.732  18.283  1.00  0.00     0.161 C 
HETATM    2  N1  UNL     1     -30.731  13.543  17.207  1.00  0.00    -0.301 N 
HETATM    3  C2  UNL     1     -31.872  14.237  17.137  1.00  0.00     0.273 A 
HETATM    4  O1  UNL     1     -32.079  15.156  17.951  1.00  0.00    -0.266 OA
HETATM    5  C3  UNL     1     -32.839  13.984  16.197  1.00  0.00     0.104 A 
HETATM    6  N3  UNL     1     -32.625  13.028  15.320  1.00  0.00    -0.348 N 
ATOM      7  H3  UNL     1     -33.332  12.843  14.608  1.00  0.00     0.166 HD
HETATM    8  C5  UNL     1     -31.485  12.275  15.334  1.00  0.00     0.122 A 
HETATM    9  C6  UNL     1     -31.254  11.245  14.460  1.00  0.00     0.145 A 
HETATM   10  N5  UNL     1     -30.155  10.510  14.562  1.00  0.00    -0.174 N 
ATOM     11  H5  UNL     1     -30.017   9.742  13.905  1.00  0.00     0.186 HD
HETATM   12  C7  UNL     1     -29.193  10.742  15.517  1.00  0.00     0.685 A 
HETATM   13  N11 UNL     1     -29.417  11.784  16.370  1.00  0.00    -0.174 N 
ATOM     14  H11 UNL     1     -28.715  11.991  17.081  1.00  0.00     0.186 HD
HETATM   15  C11 UNL     1     -30.525  12.551  16.315  1.00  0.00     0.156 A 
ENDROOT
BRANCH  12  16
HETATM   16  N6  UNL     1     -28.251   9.948  15.845  1.00  0.00    -0.205 N 
ATOM     17  H6  UNL     1     -28.271   9.117  15.255  1.00  0.00     0.183 HD
BRANCH  16  18
HETATM   18  C8  UNL     1     -27.209   9.863  16.752  1.00  0.00     0.086 C 
BRANCH  18  19
HETATM   19  C9  UNL     1     -27.615   9.674  18.172  1.00  0.00     0.124 C 
BRANCH  19  20
HETATM   20  C10 UNL     1     -26.557   9.146  19.023  1.00  0.00     0.117 A 
HETATM   21  N7  UNL     1     -26.495   8.188  19.948  1.00  0.00    -0.272 N 
HETATM   22  N8  UNL     1     -25.301   8.193  20.463  1.00  0.00    -0.227 N 
ATOM     23  H7  UNL     1     -27.254   7.558  20.206  1.00  0.00     0.190 HD
HETATM   24  N9  UNL     1     -24.536   9.120  19.928  1.00  0.00    -0.227 N 
ATOM     25  H8  UNL     1     -24.994   7.553  21.195  1.00  0.00     0.210 HD
HETATM   26  N10 UNL     1     -25.302   9.756  19.014  1.00  0.00    -0.272 N 
ATOM     27  H9  UNL     1     -23.563   9.318  20.157  1.00  0.00     0.210 HD
ATOM     28  H10 UNL     1     -25.015  10.538  18.425  1.00  0.00     0.190 HD
ENDBRANCH  19  20
ENDBRANCH  18  19
ENDBRANCH  16  18
ENDBRANCH  12  16
BRANCH   9  29
HETATM   29  N4  UNL     1     -32.119  11.074  13.482  1.00  0.00    -0.383 N 
ATOM     30  H42 UNL     1     -33.092  11.370  13.563  1.00  0.00     0.157 HD
ATOM     31  H41 UNL     1     -31.799  10.572  12.653  1.00  0.00     0.157 HD
ENDBRANCH   9  29
BRANCH   5  32
HETATM   32  C4  UNL     1     -34.065  14.896  16.166  1.00  0.00     0.292 C 
BRANCH  32  33
HETATM   33  N2  UNL     1     -33.664  16.097  15.426  1.00  0.00    -0.074 N 
ATOM     34  H23 UNL     1     -33.087  16.736  15.973  1.00  0.00     0.274 HD
ATOM     35  H22 UNL     1     -32.983  15.912  14.691  1.00  0.00     0.274 HD
ATOM     36  H21 UNL     1     -34.526  16.521  15.082  1.00  0.00     0.274 HD
ENDBRANCH  32  33
ENDBRANCH   5  32
TORSDOF 7
ENDMDL
MODEL 2
REMARK VINA RESULT: -8.125315947      4.426      5.381
REMARK  7 active torsions:
REMARK  status: ('A' for Active; 'I' for Inactive)
REMARK    1  A    between atoms: C3_5  and  C4_6 
REMARK    2  A    between atoms: C4_6  and  N2_7 
REMARK    3  A    between atoms: C6_14  and  N4_15 
REMARK    4  A    between atoms: C7_20  and  N6_21 
REMARK    5  A    between atoms: N6_21  and  C8_23 
REMARK    6  A    between atoms: C8_23  and  C9_24 
REMARK    7  A    between atoms: C9_24  and  C10_25 
ROOT
HETATM    1  C1  UNL     1     -27.288  13.040  10.885  1.00  0.00     0.161 C 
HETATM    2  N1  UNL     1     -28.660  13.365  10.493  1.00  0.00    -0.301 N 
HETATM    3  C2  UNL     1     -28.948  14.314   9.595  1.00  0.00     0.273 A 
HETATM    4  O1  UNL     1     -28.023  14.877   8.983  1.00  0.00    -0.266 OA
HETATM    5  C3  UNL     1     -30.234  14.700   9.310  1.00  0.00     0.104 A 
HETATM    6  N3  UNL     1     -31.223  14.100   9.936  1.00  0.00    -0.348 N 
ATOM      7  H3  UNL     1     -32.182  14.370   9.719  1.00  0.00     0.166 HD
HETATM    8  C5  UNL     1     -31.002  13.126  10.869  1.00  0.00     0.122 A 
HETATM    9  C6  UNL     1     -32.011  12.514  11.568  1.00  0.00     0.145 A 
HETATM   10  N5  UNL     1     -31.731  11.619  12.505  1.00  0.00    -0.174 N 
ATOM     11  H5  UNL     1     -32.502  11.191  13.018  1.00  0.00     0.186 HD
HETATM   12  C7  UNL     1     -30.444  11.245  12.814  1.00  0.00     0.685 A 
HETATM   13  N11 UNL     1     -29.446  11.840  12.099  1.00  0.00    -0.174 N 
ATOM     14  H11 UNL     1     -28.481  11.573  12.294  1.00  0.00     0.186 HD
HETATM   15  C11 UNL     1     -29.678  12.765  11.146  1.00  0.00     0.156 A 
ENDROOT
BRANCH  12  16
HETATM   16  N6  UNL     1     -30.076  10.598  13.849  1.00  0.00    -0.205 N 
ATOM     17  H6  UNL     1     -30.004   9.603  13.635  1.00  0.00     0.183 HD
BRANCH  16  18
HETATM   18  C8  UNL     1     -29.744  10.824  15.173  1.00  0.00     0.086 C 
BRANCH  18  19
HETATM   19  C9  UNL     1     -28.301  10.662  15.505  1.00  0.00     0.124 C 
BRANCH  19  20
HETATM   20  C10 UNL     1     -28.057  10.196  16.863  1.00  0.00     0.117 A 
HETATM   21  N7  UNL     1     -28.578  10.484  18.056  1.00  0.00    -0.272 N 
HETATM   22  N8  UNL     1     -27.919   9.823  18.961  1.00  0.00    -0.227 N 
ATOM     23  H7  UNL     1     -29.360  11.116  18.229  1.00  0.00     0.190 HD
HETATM   24  N9  UNL     1     -26.962   9.088  18.437  1.00  0.00    -0.227 N 
ATOM     25  H8  UNL     1     -28.121   9.868  19.960  1.00  0.00     0.210 HD
HETATM   26  N10 UNL     1     -27.010   9.306  17.104  1.00  0.00    -0.272 N 
ATOM     27  H9  UNL     1     -26.315   8.478  18.936  1.00  0.00     0.210 HD
ATOM     28  H10 UNL     1     -26.394   8.895  16.403  1.00  0.00     0.190 HD
ENDBRANCH  19  20
ENDBRANCH  18  19
ENDBRANCH  16  18
ENDBRANCH  12  16
BRANCH   9  29
HETATM   29  N4  UNL     1     -33.249  12.792  11.216  1.00  0.00    -0.383 N 
ATOM     30  H42 UNL     1     -33.700  12.338  10.422  1.00  0.00     0.157 HD
ATOM     31  H41 UNL     1     -33.729  13.531  11.730  1.00  0.00     0.157 HD
ENDBRANCH   9  29
BRANCH   5  32
HETATM   32  C4  UNL     1     -30.443  15.738   8.208  1.00  0.00     0.292 C 
BRANCH  32  33
HETATM   33  N2  UNL     1     -31.649  16.490   8.575  1.00  0.00    -0.074 N 
ATOM     34  H23 UNL     1     -32.201  16.787   7.771  1.00  0.00     0.274 HD
ATOM     35  H22 UNL     1     -32.367  15.914   9.014  1.00  0.00     0.274 HD
ATOM     36  H21 UNL     1     -31.334  17.263   9.161  1.00  0.00     0.274 HD
ENDBRANCH  32  33
ENDBRANCH   5  32
TORSDOF 7
ENDMDL
MODEL 3
REMARK VINA RESULT: -8.098828395      4.149      7.368
REMARK  7 active torsions:
REMARK  status: ('A' for Active; 'I' for Inactive)
REMARK    1  A    between atoms: C3_5  and  C4_6 
REMARK    2  A    between atoms: C4_6  and  N2_7 
REMARK    3  A    between atoms: C6_14  and  N4_15 
REMARK    4  A    between atoms: C7_20  and  N6_21 
REMARK    5  A    between atoms: N6_21  and  C8_23 
REMARK    6  A    between atoms: C8_23  and  C9_24 
REMARK    7  A    between atoms: C9_24  and  C10_25 
ROOT
HETATM    1  C1  UNL     1     -28.503  14.457  12.129  1.00  0.00     0.161 C 
HETATM    2  N1  UNL     1     -29.023  13.123  12.432  1.00  0.00    -0.301 N 
HETATM    3  C2  UNL     1     -29.180  12.180  11.496  1.00  0.00     0.273 A 
HETATM    4  O1  UNL     1     -28.776  12.395  10.339  1.00  0.00    -0.266 OA
HETATM    5  C3  UNL     1     -29.773  10.969  11.755  1.00  0.00     0.104 A 
HETATM    6  N3  UNL     1     -30.187  10.722  12.977  1.00  0.00    -0.348 N 
ATOM      7  H3  UNL     1     -30.615   9.819  13.182  1.00  0.00     0.166 HD
HETATM    8  C5  UNL     1     -30.064  11.640  13.982  1.00  0.00     0.122 A 
HETATM    9  C6  UNL     1     -30.526  11.427  15.256  1.00  0.00     0.145 A 
HETATM   10  N5  UNL     1     -30.432  12.380  16.172  1.00  0.00    -0.174 N 
ATOM     11  H5  UNL     1     -30.796  12.197  17.107  1.00  0.00     0.186 HD
HETATM   12  C7  UNL     1     -29.862  13.605  15.915  1.00  0.00     0.685 A 
HETATM   13  N11 UNL     1     -29.383  13.803  14.653  1.00  0.00    -0.174 N 
ATOM     14  H11 UNL     1     -28.941  14.696  14.434  1.00  0.00     0.186 HD
HETATM   15  C11 UNL     1     -29.467  12.871  13.682  1.00  0.00     0.156 A 
ENDROOT
BRANCH  12  16
HETATM   16  N6  UNL     1     -29.956  14.647  16.643  1.00  0.00    -0.205 N 
ATOM     17  H6  UNL     1     -29.081  14.807  17.141  1.00  0.00     0.183 HD
BRANCH  16  18
HETATM   18  C8  UNL     1     -30.875  15.629  16.969  1.00  0.00     0.086 C 
BRANCH  18  19
HETATM   19  C9  UNL     1     -32.134  15.140  17.596  1.00  0.00     0.124 C 
BRANCH  19  20
HETATM   20  C10 UNL     1     -33.342  15.545  16.890  1.00  0.00     0.117 A 
HETATM   21  N7  UNL     1     -34.252  14.904  16.157  1.00  0.00    -0.272 N 
HETATM   22  N8  UNL     1     -35.091  15.780  15.689  1.00  0.00    -0.227 N 
ATOM     23  H7  UNL     1     -34.285  13.897  15.992  1.00  0.00     0.190 HD
HETATM   24  N9  UNL     1     -34.794  17.002  16.072  1.00  0.00    -0.227 N 
ATOM     25  H8  UNL     1     -35.887  15.546  15.095  1.00  0.00     0.210 HD
HETATM   26  N10 UNL     1     -33.680  16.897  16.830  1.00  0.00    -0.272 N 
ATOM     27  H9  UNL     1     -35.301  17.857  15.842  1.00  0.00     0.210 HD
ATOM     28  H10 UNL     1     -33.179  17.665  17.276  1.00  0.00     0.190 HD
ENDBRANCH  19  20
ENDBRANCH  18  19
ENDBRANCH  16  18
ENDBRANCH  12  16
BRANCH   9  29
HETATM   29  N4  UNL     1     -30.985  10.226  15.541  1.00  0.00    -0.383 N 
ATOM     30  H42 UNL     1     -31.941   9.947  15.321  1.00  0.00     0.157 HD
ATOM     31  H41 UNL     1     -30.367   9.596  16.052  1.00  0.00     0.157 HD
ENDBRANCH   9  29
BRANCH   5  32
HETATM   32  C4  UNL     1     -29.825   9.942  10.624  1.00  0.00     0.292 C 
BRANCH  32  33
HETATM   33  N2  UNL     1     -31.167   9.350  10.670  1.00  0.00    -0.074 N 
ATOM     34  H23 UNL     1     -31.854   9.940  11.138  1.00  0.00     0.274 HD
ATOM     35  H22 UNL     1     -31.627   9.318   9.761  1.00  0.00     0.274 HD
ATOM     36  H21 UNL     1     -31.058   8.432  11.103  1.00  0.00     0.274 HD
ENDBRANCH  32  33
ENDBRANCH   5  32
TORSDOF 7
ENDMDL
MODEL 4
REMARK VINA RESULT: -8.096306566      4.928      7.498
REMARK  7 active torsions:
REMARK  status: ('A' for Active; 'I' for Inactive)
REMARK    1  A    between atoms: C3_5  and  C4_6 
REMARK    2  A    between atoms: C4_6  and  N2_7 
REMARK    3  A    between atoms: C6_14  and  N4_15 
REMARK    4  A    between atoms: C7_20  and  N6_21 
REMARK    5  A    between atoms: N6_21  and  C8_23 
REMARK    6  A    between atoms: C8_23  and  C9_24 
REMARK    7  A    between atoms: C9_24  and  C10_25 
ROOT
HETATM    1  C1  UNL     1     -28.024  14.217  12.814  1.00  0.00     0.161 C 
HETATM    2  N1  UNL     1     -29.151  13.984  11.911  1.00  0.00    -0.301 N 
HETATM    3  C2  UNL     1     -29.134  14.352  10.625  1.00  0.00     0.273 A 
HETATM    4  O1  UNL     1     -28.087  14.816  10.136  1.00  0.00    -0.266 OA
HETATM    5  C3  UNL     1     -30.229  14.240   9.805  1.00  0.00     0.104 A 
HETATM    6  N3  UNL     1     -31.336  13.735  10.303  1.00  0.00    -0.348 N 
ATOM      7  H3  UNL     1     -32.150  13.634   9.697  1.00  0.00     0.166 HD
HETATM    8  C5  UNL     1     -31.428  13.342  11.609  1.00  0.00     0.122 A 
HETATM    9  C6  UNL     1     -32.581  12.853  12.167  1.00  0.00     0.145 A 
HETATM   10  N5  UNL     1     -32.626  12.546  13.455  1.00  0.00    -0.174 N 
ATOM     11  H5  UNL     1     -33.502  12.196  13.845  1.00  0.00     0.186 HD
HETATM   12  C7  UNL     1     -31.540  12.679  14.289  1.00  0.00     0.685 A 
HETATM   13  N11 UNL     1     -30.389  13.144  13.723  1.00  0.00    -0.174 N 
ATOM     14  H11 UNL     1     -29.562  13.241  14.312  1.00  0.00     0.186 HD
HETATM   15  C11 UNL     1     -30.296  13.483  12.422  1.00  0.00     0.156 A 
ENDROOT
BRANCH  12  16
HETATM   16  N6  UNL     1     -31.562  12.651  15.564  1.00  0.00    -0.205 N 
ATOM     17  H6  UNL     1     -31.046  11.841  15.906  1.00  0.00     0.183 HD
BRANCH  16  18
HETATM   18  C8  UNL     1     -32.066  13.378  16.627  1.00  0.00     0.086 C 
BRANCH  18  19
HETATM   19  C9  UNL     1     -31.874  14.852  16.540  1.00  0.00     0.124 C 
BRANCH  19  20
HETATM   20  C10 UNL     1     -33.109  15.599  16.347  1.00  0.00     0.117 A 
HETATM   21  N7  UNL     1     -33.498  16.845  16.622  1.00  0.00    -0.272 N 
HETATM   22  N8  UNL     1     -34.754  16.959  16.307  1.00  0.00    -0.227 N 
ATOM     23  H7  UNL     1     -32.910  17.581  17.012  1.00  0.00     0.190 HD
HETATM   24  N9  UNL     1     -35.247  15.839  15.825  1.00  0.00    -0.227 N 
ATOM     25  H8  UNL     1     -35.294  17.817  16.420  1.00  0.00     0.210 HD
HETATM   26  N10 UNL     1     -34.233  14.945  15.844  1.00  0.00    -0.272 N 
ATOM     27  H9  UNL     1     -36.201  15.678  15.502  1.00  0.00     0.210 HD
ATOM     28  H10 UNL     1     -34.282  13.971  15.545  1.00  0.00     0.190 HD
ENDBRANCH  19  20
ENDBRANCH  18  19
ENDBRANCH  16  18
ENDBRANCH  12  16
BRANCH   9  29
HETATM   29  N4  UNL     1     -33.598  12.630  11.360  1.00  0.00    -0.383 N 
ATOM     30  H42 UNL     1     -33.760  11.718  10.933  1.00  0.00     0.157 HD
ATOM     31  H41 UNL     1     -34.192  13.425  11.122  1.00  0.00     0.157 HD
ENDBRANCH   9  29
BRANCH   5  32
HETATM   32  C4  UNL     1     -30.064  14.619   8.334  1.00  0.00     0.292 C 
BRANCH  32  33
HETATM   33  N2  UNL     1     -30.454  16.030   8.228  1.00  0.00    -0.074 N 
ATOM     34  H23 UNL     1     -30.901  16.391   9.071  1.00  0.00     0.274 HD
ATOM     35  H22 UNL     1     -29.660  16.670   8.224  1.00  0.00     0.274 HD
ATOM     36  H21 UNL     1     -31.038  16.103   7.395  1.00  0.00     0.274 HD
ENDBRANCH  32  33
ENDBRANCH   5  32
TORSDOF 7
ENDMDL
MODEL 5
REMARK VINA RESULT: -8.068244838      8.502     10.195
REMARK  7 active torsions:
REMARK  status: ('A' for Active; 'I' for Inactive)
REMARK    1  A    between atoms: C3_5  and  C4_6 
REMARK    2  A    between atoms: C4_6  and  N2_7 
REMARK    3  A    between atoms: C6_14  and  N4_15 
REMARK    4  A    between atoms: C7_20  and  N6_21 
REMARK    5  A    between atoms: N6_21  and  C8_23 
REMARK    6  A    between atoms: C8_23  and  C9_24 
REMARK    7  A    between atoms: C9_24  and  C10_25 
ROOT
HETATM    1  C1  UNL     1     -25.899  16.972   7.570  1.00  0.00     0.161 C 
HETATM    2  N1  UNL     1     -27.226  17.486   7.230  1.00  0.00    -0.301 N 
HETATM    3  C2  UNL     1     -27.412  18.679   6.656  1.00  0.00     0.273 A 
HETATM    4  O1  UNL     1     -26.424  19.345   6.295  1.00  0.00    -0.266 OA
HETATM    5  C3  UNL     1     -28.658  19.214   6.440  1.00  0.00     0.104 A 
HETATM    6  N3  UNL     1     -29.711  18.514   6.799  1.00  0.00    -0.348 N 
ATOM      7  H3  UNL     1     -30.641  18.896   6.628  1.00  0.00     0.166 HD
HETATM    8  C5  UNL     1     -29.597  17.289   7.395  1.00  0.00     0.122 A 
HETATM    9  C6  UNL     1     -30.676  16.557   7.820  1.00  0.00     0.145 A 
HETATM   10  N5  UNL     1     -30.498  15.403   8.447  1.00  0.00    -0.174 N 
ATOM     11  H5  UNL     1     -31.320  14.886   8.763  1.00  0.00     0.186 HD
HETATM   12  C7  UNL     1     -29.253  14.872   8.689  1.00  0.00     0.685 A 
HETATM   13  N11 UNL     1     -28.184  15.595   8.244  1.00  0.00    -0.174 N 
ATOM     14  H11 UNL     1     -27.247  15.221   8.395  1.00  0.00     0.186 HD
HETATM   15  C11 UNL     1     -28.311  16.779   7.613  1.00  0.00     0.156 A 
ENDROOT
BRANCH  12  16
HETATM   16  N6  UNL     1     -28.983  13.918   9.491  1.00  0.00    -0.205 N 
ATOM     17  H6  UNL     1     -28.559  13.142   8.983  1.00  0.00     0.183 HD
BRANCH  16  18
HETATM   18  C8  UNL     1     -29.087  13.607  10.835  1.00  0.00     0.086 C 
BRANCH  18  19
HETATM   19  C9  UNL     1     -30.392  13.028  11.257  1.00  0.00     0.124 C 
BRANCH  19  20
HETATM   20  C10 UNL     1     -30.422  11.572  11.253  1.00  0.00     0.117 A 
HETATM   21  N7  UNL     1     -29.540  10.621  11.561  1.00  0.00    -0.272 N 
HETATM   22  N8  UNL     1     -30.073   9.466  11.291  1.00  0.00    -0.227 N 
ATOM     23  H7  UNL     1     -28.606  10.773  11.942  1.00  0.00     0.190 HD
HETATM   24  N9  UNL     1     -31.290   9.585  10.808  1.00  0.00    -0.227 N 
ATOM     25  H8  UNL     1     -29.602   8.573  11.437  1.00  0.00     0.210 HD
HETATM   26  N10 UNL     1     -31.546  10.911  10.759  1.00  0.00    -0.272 N 
ATOM     27  H9  UNL     1     -31.915   8.829  10.528  1.00  0.00     0.210 HD
ATOM     28  H10 UNL     1     -32.404  11.348  10.422  1.00  0.00     0.190 HD
ENDBRANCH  19  20
ENDBRANCH  18  19
ENDBRANCH  16  18
ENDBRANCH  12  16
BRANCH   9  29
HETATM   29  N4  UNL     1     -31.874  17.006   7.509  1.00  0.00    -0.383 N 
ATOM     30  H42 UNL     1     -32.097  18.001   7.517  1.00  0.00     0.157 HD
ATOM     31  H41 UNL     1     -32.600  16.315   7.318  1.00  0.00     0.157 HD
ENDBRANCH   9  29
BRANCH   5  32
HETATM   32  C4  UNL     1     -28.747  20.550   5.704  1.00  0.00     0.292 C 
BRANCH  32  33
HETATM   33  N2  UNL     1     -28.182  21.556   6.610  1.00  0.00    -0.074 N 
ATOM     34  H23 UNL     1     -28.882  22.018   7.189  1.00  0.00     0.274 HD
ATOM     35  H22 UNL     1     -27.636  21.154   7.372  1.00  0.00     0.274 HD
ATOM     36  H21 UNL     1     -27.649  22.200   6.025  1.00  0.00     0.274 HD
ENDBRANCH  32  33
ENDBRANCH   5  32
TORSDOF 7
ENDMDL
