MODEL 1
REMARK VINA RESULT: -8.477917114      0.000      0.000
REMARK  6 active torsions:
REMARK  status: ('A' for Active; 'I' for Inactive)
REMARK    1  A    between atoms: N1_1  and  C1_4 
REMARK    2  A    between atoms: C3_6  and  C4_7 
REMARK    3  A    between atoms: C4_7  and  N2_8 
REMARK       I    between atoms: N2_8  and  C5_9 
REMARK    4  A    between atoms: C5_9  and  C6_11 
REMARK    5  A    between atoms: C7_18  and  N6_19 
REMARK    6  A    between atoms: C8_26  and  N9_27 
ROOT
HETATM    1  C1  UNL     1     -30.956  11.348  14.126  1.00  0.00     0.116 A 
HETATM    2  C2  UNL     1     -31.335  11.718  12.838  1.00  0.00     0.081 A 
HETATM    3  C3  UNL     1     -32.108  12.831  12.617  1.00  0.00     0.081 A 
HETATM    4  N8  UNL     1     -32.494  13.559  13.688  1.00  0.00    -0.189 N 
ATOM      5  H8  UNL     1     -33.070  14.387  13.536  1.00  0.00     0.184 HD
HETATM    6  C8  UNL     1     -32.144  13.230  14.965  1.00  0.00     0.682 A 
HETATM    7  N10 UNL     1     -31.387  12.136  15.135  1.00  0.00    -0.177 N 
ATOM      8  H10 UNL     1     -31.119  11.884  16.087  1.00  0.00     0.185 HD
ENDROOT
BRANCH   3   9
HETATM    9  C4  UNL     1     -32.451  13.210  11.229  1.00  0.00     0.216 C 
BRANCH   9  10
HETATM   10  N2  UNL     1     -31.464  13.606  10.361  1.00  0.00    -0.374 NA
HETATM   11  C5  UNL     1     -30.494  13.995   9.507  1.00  0.00     0.361 C 
HETATM   12  O1  UNL     1     -29.444  13.316   9.240  1.00  0.00    -0.248 OA
BRANCH  11  13
HETATM   13  C6  UNL     1     -30.520  15.277   8.757  1.00  0.00     0.220 A 
HETATM   14  N3  UNL     1     -31.640  16.003   8.704  1.00  0.00    -0.265 N 
HETATM   15  N4  UNL     1     -31.626  17.180   8.050  1.00  0.00    -0.227 N 
ATOM     16  H3  UNL     1     -32.493  15.671   9.153  1.00  0.00     0.190 HD
HETATM   17  N5  UNL     1     -30.516  17.599   7.470  1.00  0.00    -0.118 N 
ATOM     18  H4  UNL     1     -32.472  17.747   8.002  1.00  0.00     0.209 HD
HETATM   19  C7  UNL     1     -29.406  16.875   7.528  1.00  0.00     0.693 A 
ATOM     20  H5  UNL     1     -30.512  18.490   6.973  1.00  0.00     0.207 HD
HETATM   21  N7  UNL     1     -29.409  15.701   8.179  1.00  0.00    -0.168 N 
ATOM     22  H7  UNL     1     -28.559  15.139   8.227  1.00  0.00     0.186 HD
BRANCH  19  23
HETATM   23  N6  UNL     1     -28.320  17.287   6.989  1.00  0.00    -0.233 N 
ATOM     24  H62 UNL     1     -28.334  17.599   6.018  1.00  0.00     0.174 HD
ATOM     25  H61 UNL     1     -27.443  17.291   7.510  1.00  0.00     0.174 HD
ENDBRANCH  19  23
ENDBRANCH  11  13
ENDBRANCH   9  10
ENDBRANCH   3   9
BRANCH   1  26
HETATM   26  N1  UNL     1     -30.238  10.323  14.380  1.00  0.00    -0.385 N 
ATOM     27  H12 UNL     1     -30.249   9.525  13.745  1.00  0.00     0.157 HD
ATOM     28  H11 UNL     1     -29.637  10.248  15.200  1.00  0.00     0.157 HD
ENDBRANCH   1  26
BRANCH   6  29
HETATM   29  N9  UNL     1     -32.568  13.990  16.080  1.00  0.00    -0.213 N 
HETATM   30  C9  UNL     1     -33.792  14.756  16.002  1.00  0.00     0.167 C 
HETATM   31  C10 UNL     1     -33.808  15.829  17.083  1.00  0.00     0.188 C 
HETATM   32  O2  UNL     1     -32.494  16.280  17.240  1.00  0.00    -0.388 OA
HETATM   33  C11 UNL     1     -31.723  15.340  17.935  1.00  0.00     0.188 C 
HETATM   34  C12 UNL     1     -31.738  13.998  17.269  1.00  0.00     0.167 C 
ENDBRANCH   6  29
TORSDOF 6
ENDMDL
MODEL 2
REMARK VINA RESULT: -8.318123359      3.823      5.397
REMARK  6 active torsions:
REMARK  status: ('A' for Active; 'I' for Inactive)
REMARK    1  A    between atoms: N1_1  and  C1_4 
REMARK    2  A    between atoms: C3_6  and  C4_7 
REMARK    3  A    between atoms: C4_7  and  N2_8 
REMARK       I    between atoms: N2_8  and  C5_9 
REMARK    4  A    between atoms: C5_9  and  C6_11 
REMARK    5  A    between atoms: C7_18  and  N6_19 
REMARK    6  A    between atoms: C8_26  and  N9_27 
ROOT
HETATM    1  C1  UNL     1     -29.278  15.537  18.387  1.00  0.00     0.116 A 
HETATM    2  C2  UNL     1     -28.693  14.899  17.295  1.00  0.00     0.081 A 
HETATM    3  C3  UNL     1     -29.442  14.520  16.210  1.00  0.00     0.081 A 
HETATM    4  N8  UNL     1     -30.768  14.781  16.229  1.00  0.00    -0.189 N 
ATOM      5  H8  UNL     1     -31.334  14.502  15.428  1.00  0.00     0.184 HD
HETATM    6  C8  UNL     1     -31.378  15.403  17.279  1.00  0.00     0.682 A 
HETATM    7  N10 UNL     1     -30.609  15.759  18.318  1.00  0.00    -0.177 N 
ATOM      8  H10 UNL     1     -31.057  16.227  19.106  1.00  0.00     0.185 HD
ENDROOT
BRANCH   3   9
HETATM    9  C4  UNL     1     -28.772  13.883  15.055  1.00  0.00     0.216 C 
BRANCH   9  10
HETATM   10  N2  UNL     1     -29.201  12.662  14.599  1.00  0.00    -0.374 NA
HETATM   11  C5  UNL     1     -29.623  11.461  14.150  1.00  0.00     0.361 C 
HETATM   12  O1  UNL     1     -29.411  10.347  14.740  1.00  0.00    -0.248 OA
BRANCH  11  13
HETATM   13  C6  UNL     1     -30.399  11.274  12.897  1.00  0.00     0.220 A 
HETATM   14  N3  UNL     1     -30.148  10.233  12.098  1.00  0.00    -0.265 N 
HETATM   15  N4  UNL     1     -30.891  10.066  10.989  1.00  0.00    -0.227 N 
ATOM     16  H3  UNL     1     -29.405   9.573  12.327  1.00  0.00     0.190 HD
HETATM   17  N5  UNL     1     -31.850  10.927  10.702  1.00  0.00    -0.118 N 
ATOM     18  H4  UNL     1     -30.714   9.275  10.370  1.00  0.00     0.209 HD
HETATM   19  C7  UNL     1     -32.096  11.959  11.499  1.00  0.00     0.693 A 
ATOM     20  H5  UNL     1     -32.408  10.798   9.857  1.00  0.00     0.207 HD
HETATM   21  N7  UNL     1     -31.362  12.133  12.608  1.00  0.00    -0.168 N 
ATOM     22  H7  UNL     1     -31.545  12.924  13.226  1.00  0.00     0.186 HD
BRANCH  19  23
HETATM   23  N6  UNL     1     -33.040  12.783  11.239  1.00  0.00    -0.233 N 
ATOM     24  H62 UNL     1     -33.608  13.147  12.004  1.00  0.00     0.174 HD
ATOM     25  H61 UNL     1     -33.242  13.066  10.280  1.00  0.00     0.174 HD
ENDBRANCH  19  23
ENDBRANCH  11  13
ENDBRANCH   9  10
ENDBRANCH   3   9
BRANCH   1  26
HETATM   26  N1  UNL     1     -28.622  15.909  19.418  1.00  0.00    -0.385 N 
ATOM     27  H12 UNL     1     -29.041  15.826  20.344  1.00  0.00     0.157 HD
ATOM     28  H11 UNL     1     -27.680  16.296  19.374  1.00  0.00     0.157 HD
ENDBRANCH   1  26
BRANCH   6  29
HETATM   29  N9  UNL     1     -32.770  15.657  17.295  1.00  0.00    -0.213 N 
HETATM   30  C9  UNL     1     -33.644  14.923  16.408  1.00  0.00     0.167 C 
HETATM   31  C10 UNL     1     -34.968  15.656  16.251  1.00  0.00     0.188 C 
HETATM   32  O2  UNL     1     -34.690  17.027  16.280  1.00  0.00    -0.388 OA
HETATM   33  C11 UNL     1     -34.405  17.452  17.583  1.00  0.00     0.188 C 
HETATM   34  C12 UNL     1     -33.277  16.677  18.193  1.00  0.00     0.167 C 
ENDBRANCH   6  29
TORSDOF 6
ENDMDL
MODEL 3
REMARK VINA RESULT: -8.242582717      3.573      4.808
REMARK  6 active torsions:
REMARK  status: ('A' for Active; 'I' for Inactive)
REMARK    1  A    between atoms: N1_1  and  C1_4 
REMARK    2  A    between atoms: C3_6  and  C4_7 
REMARK    3  A    between atoms: C4_7  and  N2_8 
REMARK       I    between atoms: N2_8  and  C5_9 
REMARK    4  A    between atoms: C5_9  and  C6_11 
REMARK    5  A    between atoms: C7_18  and  N6_19 
REMARK    6  A    between atoms: C8_26  and  N9_27 
ROOT
HETATM    1  C1  UNL     1     -28.250  10.417  17.453  1.00  0.00     0.116 A 
HETATM    2  C2  UNL     1     -27.818  10.402  16.129  1.00  0.00     0.081 A 
HETATM    3  C3  UNL     1     -28.229  11.361  15.238  1.00  0.00     0.081 A 
HETATM    4  N8  UNL     1     -29.067  12.324  15.681  1.00  0.00    -0.189 N 
ATOM      5  H8  UNL     1     -29.379  13.041  15.026  1.00  0.00     0.184 HD
HETATM    6  C8  UNL     1     -29.512  12.374  16.969  1.00  0.00     0.682 A 
HETATM    7  N10 UNL     1     -29.085  11.418  17.808  1.00  0.00    -0.177 N 
ATOM      8  H10 UNL     1     -29.411  11.450  18.774  1.00  0.00     0.185 HD
ENDROOT
BRANCH   3   9
HETATM    9  C4  UNL     1     -27.712  11.329  13.852  1.00  0.00     0.216 C 
BRANCH   9  10
HETATM   10  N2  UNL     1     -28.574  11.137  12.801  1.00  0.00    -0.374 NA
HETATM   11  C5  UNL     1     -29.421  10.947  11.768  1.00  0.00     0.361 C 
HETATM   12  O1  UNL     1     -29.166  10.233  10.739  1.00  0.00    -0.248 OA
BRANCH  11  13
HETATM   13  C6  UNL     1     -30.776  11.550  11.690  1.00  0.00     0.220 A 
HETATM   14  N3  UNL     1     -31.340  11.789  10.503  1.00  0.00    -0.265 N 
HETATM   15  N4  UNL     1     -32.585  12.301  10.461  1.00  0.00    -0.227 N 
ATOM     16  H3  UNL     1     -30.836  11.586   9.640  1.00  0.00     0.190 HD
HETATM   17  N5  UNL     1     -33.228  12.562  11.584  1.00  0.00    -0.118 N 
ATOM     18  H4  UNL     1     -33.030  12.487   9.563  1.00  0.00     0.209 HD
HETATM   19  C7  UNL     1     -32.664  12.321  12.760  1.00  0.00     0.693 A 
ATOM     20  H5  UNL     1     -34.170  12.953  11.546  1.00  0.00     0.207 HD
HETATM   21  N7  UNL     1     -31.425  11.810  12.813  1.00  0.00    -0.168 N 
ATOM     22  H7  UNL     1     -30.985  11.622  13.714  1.00  0.00     0.186 HD
BRANCH  19  23
HETATM   23  N6  UNL     1     -33.292  12.550  13.853  1.00  0.00    -0.233 N 
ATOM     24  H62 UNL     1     -33.906  13.362  13.913  1.00  0.00     0.174 HD
ATOM     25  H61 UNL     1     -33.174  11.943  14.664  1.00  0.00     0.174 HD
ENDBRANCH  19  23
ENDBRANCH  11  13
ENDBRANCH   9  10
ENDBRANCH   3   9
BRANCH   1  26
HETATM   26  N1  UNL     1     -27.895   9.547  18.318  1.00  0.00    -0.385 N 
ATOM     27  H12 UNL     1     -27.570   9.847  19.237  1.00  0.00     0.157 HD
ATOM     28  H11 UNL     1     -27.915   8.542  18.145  1.00  0.00     0.157 HD
ENDBRANCH   1  26
BRANCH   6  29
HETATM   29  N9  UNL     1     -30.402  13.378  17.418  1.00  0.00    -0.213 N 
HETATM   30  C9  UNL     1     -31.757  13.412  16.914  1.00  0.00     0.167 C 
HETATM   31  C10 UNL     1     -32.367  14.788  17.145  1.00  0.00     0.188 C 
HETATM   32  O2  UNL     1     -31.343  15.728  16.987  1.00  0.00    -0.388 OA
HETATM   33  C11 UNL     1     -30.487  15.726  18.095  1.00  0.00     0.188 C 
HETATM   34  C12 UNL     1     -29.913  14.367  18.359  1.00  0.00     0.167 C 
ENDBRANCH   6  29
TORSDOF 6
ENDMDL
MODEL 4
REMARK VINA RESULT: -8.240987484      3.206      8.119
REMARK  6 active torsions:
REMARK  status: ('A' for Active; 'I' for Inactive)
REMARK    1  A    between atoms: N1_1  and  C1_4 
REMARK    2  A    between atoms: C3_6  and  C4_7 
REMARK    3  A    between atoms: C4_7  and  N2_8 
REMARK       I    between atoms: N2_8  and  C5_9 
REMARK    4  A    between atoms: C5_9  and  C6_11 
REMARK    5  A    between atoms: C7_18  and  N6_19 
REMARK    6  A    between atoms: C8_26  and  N9_27 
ROOT
HETATM    1  C1  UNL     1     -26.789  13.077  10.640  1.00  0.00     0.116 A 
HETATM    2  C2  UNL     1     -27.626  12.033  11.026  1.00  0.00     0.081 A 
HETATM    3  C3  UNL     1     -28.959  12.036  10.702  1.00  0.00     0.081 A 
HETATM    4  N8  UNL     1     -29.440  13.084   9.998  1.00  0.00    -0.189 N 
ATOM      5  H8  UNL     1     -30.431  13.097   9.753  1.00  0.00     0.184 HD
HETATM    6  C8  UNL     1     -28.653  14.125   9.601  1.00  0.00     0.682 A 
HETATM    7  N10 UNL     1     -27.355  14.081   9.936  1.00  0.00    -0.177 N 
ATOM      8  H10 UNL     1     -26.760  14.855   9.642  1.00  0.00     0.185 HD
ENDROOT
BRANCH   3   9
HETATM    9  C4  UNL     1     -29.802  10.886  11.097  1.00  0.00     0.216 C 
BRANCH   9  10
HETATM   10  N2  UNL     1     -30.597  10.967  12.213  1.00  0.00    -0.374 NA
HETATM   11  C5  UNL     1     -31.379  11.047  13.311  1.00  0.00     0.361 C 
HETATM   12  O1  UNL     1     -32.654  11.136  13.292  1.00  0.00    -0.248 OA
BRANCH  11  13
HETATM   13  C6  UNL     1     -30.853  11.043  14.700  1.00  0.00     0.220 A 
HETATM   14  N3  UNL     1     -31.539  11.636  15.682  1.00  0.00    -0.265 N 
HETATM   15  N4  UNL     1     -31.059  11.584  16.938  1.00  0.00    -0.227 N 
ATOM     16  H3  UNL     1     -32.413  12.121  15.482  1.00  0.00     0.190 HD
HETATM   17  N5  UNL     1     -29.925  10.955  17.186  1.00  0.00    -0.118 N 
ATOM     18  H4  UNL     1     -31.572  12.030  17.699  1.00  0.00     0.209 HD
HETATM   19  C7  UNL     1     -29.249  10.366  16.208  1.00  0.00     0.693 A 
ATOM     20  H5  UNL     1     -29.564  10.922  18.140  1.00  0.00     0.207 HD
HETATM   21  N7  UNL     1     -29.720  10.411  14.952  1.00  0.00    -0.168 N 
ATOM     22  H7  UNL     1     -29.205   9.960  14.196  1.00  0.00     0.186 HD
BRANCH  19  23
HETATM   23  N6  UNL     1     -28.161   9.734  16.446  1.00  0.00    -0.233 N 
ATOM     24  H62 UNL     1     -28.168   8.966  17.117  1.00  0.00     0.174 HD
ATOM     25  H61 UNL     1     -27.289   9.999  15.988  1.00  0.00     0.174 HD
ENDBRANCH  19  23
ENDBRANCH  11  13
ENDBRANCH   9  10
ENDBRANCH   3   9
BRANCH   1  26
HETATM   26  N1  UNL     1     -25.542  13.118  10.917  1.00  0.00    -0.385 N 
ATOM     27  H12 UNL     1     -25.111  14.000  11.190  1.00  0.00     0.157 HD
ATOM     28  H11 UNL     1     -24.933  12.301  10.881  1.00  0.00     0.157 HD
ENDBRANCH   1  26
BRANCH   6  29
HETATM   29  N9  UNL     1     -29.171  15.224   8.877  1.00  0.00    -0.213 N 
HETATM   30  C9  UNL     1     -30.602  15.398   8.762  1.00  0.00     0.167 C 
HETATM   31  C10 UNL     1     -30.926  16.322   7.596  1.00  0.00     0.188 C 
HETATM   32  O2  UNL     1     -29.985  16.069   6.592  1.00  0.00    -0.388 OA
HETATM   33  C11 UNL     1     -28.743  16.627   6.920  1.00  0.00     0.188 C 
HETATM   34  C12 UNL     1     -28.239  16.138   8.244  1.00  0.00     0.167 C 
ENDBRANCH   6  29
TORSDOF 6
ENDMDL
MODEL 5
REMARK VINA RESULT: -8.232261269      3.516      4.784
REMARK  6 active torsions:
REMARK  status: ('A' for Active; 'I' for Inactive)
REMARK    1  A    between atoms: N1_1  and  C1_4 
REMARK    2  A    between atoms: C3_6  and  C4_7 
REMARK    3  A    between atoms: C4_7  and  N2_8 
REMARK       I    between atoms: N2_8  and  C5_9 
REMARK    4  A    between atoms: C5_9  and  C6_11 
REMARK    5  A    between atoms: C7_18  and  N6_19 
REMARK    6  A    between atoms: C8_26  and  N9_27 
ROOT
HETATM    1  C1  UNL     1     -28.561  11.072  17.598  1.00  0.00     0.116 A 
HETATM    2  C2  UNL     1     -28.063  10.775  16.332  1.00  0.00     0.081 A 
HETATM    3  C3  UNL     1     -28.349  11.572  15.252  1.00  0.00     0.081 A 
HETATM    4  N8  UNL     1     -29.131  12.656  15.451  1.00  0.00    -0.189 N 
ATOM      5  H8  UNL     1     -29.351  13.254  14.654  1.00  0.00     0.184 HD
HETATM    6  C8  UNL     1     -29.638  12.981  16.675  1.00  0.00     0.682 A 
HETATM    7  N10 UNL     1     -29.332  12.177  17.704  1.00  0.00    -0.177 N 
ATOM      8  H10 UNL     1     -29.706  12.414  18.623  1.00  0.00     0.185 HD
ENDROOT
BRANCH   3   9
HETATM    9  C4  UNL     1     -27.764  11.241  13.934  1.00  0.00     0.216 C 
BRANCH   9  10
HETATM   10  N2  UNL     1     -28.568  11.172  12.824  1.00  0.00    -0.374 NA
HETATM   11  C5  UNL     1     -29.358  11.103  11.731  1.00  0.00     0.361 C 
HETATM   12  O1  UNL     1     -29.021  10.568  10.621  1.00  0.00    -0.248 OA
BRANCH  11  13
HETATM   13  C6  UNL     1     -30.739  11.647  11.676  1.00  0.00     0.220 A 
HETATM   14  N3  UNL     1     -31.322  11.888  10.498  1.00  0.00    -0.265 N 
HETATM   15  N4  UNL     1     -32.588  12.345  10.476  1.00  0.00    -0.227 N 
ATOM     16  H3  UNL     1     -30.815  11.728   9.628  1.00  0.00     0.190 HD
HETATM   17  N5  UNL     1     -33.235  12.551  11.609  1.00  0.00    -0.118 N 
ATOM     18  H4  UNL     1     -33.047  12.532   9.585  1.00  0.00     0.209 HD
HETATM   19  C7  UNL     1     -32.652  12.308  12.776  1.00  0.00     0.693 A 
ATOM     20  H5  UNL     1     -34.193  12.900  11.586  1.00  0.00     0.207 HD
HETATM   21  N7  UNL     1     -31.391  11.851  12.808  1.00  0.00    -0.168 N 
ATOM     22  H7  UNL     1     -30.937  11.662  13.702  1.00  0.00     0.186 HD
BRANCH  19  23
HETATM   23  N6  UNL     1     -33.282  12.482  13.877  1.00  0.00    -0.233 N 
ATOM     24  H62 UNL     1     -34.297  12.580  13.859  1.00  0.00     0.174 HD
ATOM     25  H61 UNL     1     -32.783  12.542  14.764  1.00  0.00     0.174 HD
ENDBRANCH  19  23
ENDBRANCH  11  13
ENDBRANCH   9  10
ENDBRANCH   3   9
BRANCH   1  26
HETATM   26  N1  UNL     1     -28.322  10.362  18.632  1.00  0.00    -0.385 N 
ATOM     27  H12 UNL     1     -28.305   9.345  18.558  1.00  0.00     0.157 HD
ATOM     28  H11 UNL     1     -28.142  10.756  19.555  1.00  0.00     0.157 HD
ENDBRANCH   1  26
BRANCH   6  29
HETATM   29  N9  UNL     1     -30.469  14.109  16.868  1.00  0.00    -0.213 N 
HETATM   30  C9  UNL     1     -30.758  14.567  18.208  1.00  0.00     0.167 C 
HETATM   31  C10 UNL     1     -31.997  15.451  18.205  1.00  0.00     0.188 C 
HETATM   32  O2  UNL     1     -32.871  14.939  17.239  1.00  0.00    -0.388 OA
HETATM   33  C11 UNL     1     -32.427  15.250  15.948  1.00  0.00     0.188 C 
HETATM   34  C12 UNL     1     -31.031  14.763  15.701  1.00  0.00     0.167 C 
ENDBRANCH   6  29
TORSDOF 6
ENDMDL
