MODEL 1
REMARK VINA RESULT: -7.024380387      0.000      0.000
REMARK  7 active torsions:
REMARK  status: ('A' for Active; 'I' for Inactive)
REMARK    1  A    between atoms: N1_2  and  C2_4 
REMARK    2  A    between atoms: C4_8  and  N3_9 
REMARK    3  A    between atoms: N6_19  and  C9_20 
REMARK    4  A    between atoms: C9_20  and  O1_21 
REMARK    5  A    between atoms: O1_21  and  C10_22 
REMARK    6  A    between atoms: C10_22  and  C11_23 
REMARK    7  A    between atoms: C11_23  and  O2_24 
ROOT
HETATM    1  C2  UNL     1     -30.951  14.189  17.609  1.00  0.00     0.694 A 
HETATM    2  N2  UNL     1     -30.525  12.999  17.174  1.00  0.00    -0.171 N 
ATOM      3  H2  UNL     1     -30.021  12.402  17.829  1.00  0.00     0.186 HD
HETATM    4  C3  UNL     1     -30.718  12.545  15.933  1.00  0.00     0.190 A 
HETATM    5  C4  UNL     1     -30.259  11.311  15.532  1.00  0.00     0.149 A 
HETATM    6  N4  UNL     1     -30.499  10.936  14.265  1.00  0.00    -0.322 N 
ATOM      7  H4  UNL     1     -30.168  10.024  13.951  1.00  0.00     0.169 HD
HETATM    8  C6  UNL     1     -31.155  11.712  13.403  1.00  0.00     0.158 A 
HETATM    9  C7  UNL     1     -31.616  12.955  13.812  1.00  0.00     0.176 A 
HETATM   10  N5  UNL     1     -32.222  13.473  12.730  1.00  0.00    -0.334 N 
ATOM     11  H5  UNL     1     -32.667  14.391  12.711  1.00  0.00     0.168 HD
HETATM   12  C8  UNL     1     -32.172  12.645  11.683  1.00  0.00     0.188 A 
HETATM   13  N6  UNL     1     -31.502  11.552  12.123  1.00  0.00    -0.304 N 
HETATM   14  N7  UNL     1     -31.397  13.370  15.074  1.00  0.00    -0.109 N 
HETATM   15  C12 UNL     1     -31.858  14.578  15.432  1.00  0.00     0.700 A 
HETATM   16  N8  UNL     1     -32.487  15.403  14.724  1.00  0.00    -0.233 N 
ATOM     17  H81 UNL     1     -32.838  16.321  14.996  1.00  0.00     0.174 HD
ATOM     18  H82 UNL     1     -32.673  15.125  13.760  1.00  0.00     0.174 HD
HETATM   19  N9  UNL     1     -31.606  14.955  16.740  1.00  0.00    -0.022 N 
ATOM     20  H9  UNL     1     -31.938  15.867  17.054  1.00  0.00     0.203 HD
ENDROOT
BRANCH  13  21
HETATM   21  C9  UNL     1     -31.234  10.407  11.272  1.00  0.00     0.301 C 
BRANCH  21  22
HETATM   22  O1  UNL     1     -29.912  10.066  11.491  1.00  0.00    -0.369 OA
BRANCH  22  23
HETATM   23  C10 UNL     1     -28.994  10.644  10.648  1.00  0.00     0.196 C 
BRANCH  23  24
HETATM   24  C11 UNL     1     -27.877  11.308  11.408  1.00  0.00     0.190 C 
BRANCH  24  25
HETATM   25  O2  UNL     1     -27.884  10.759  12.710  1.00  0.00    -0.399 OA
ATOM     26  H2  UNL     1     -27.304  11.296  13.238  1.00  0.00     0.209 HD
ENDBRANCH  24  25
ENDBRANCH  23  24
ENDBRANCH  22  23
ENDBRANCH  21  22
ENDBRANCH  13  21
BRANCH   5  27
HETATM   27  N3  UNL     1     -29.636  10.539  16.299  1.00  0.00    -0.378 N 
HETATM   28  C5  UNL     1     -28.302  10.070  16.302  1.00  0.00     0.148 C 
ATOM     29  H3  UNL     1     -30.200  10.179  17.068  1.00  0.00     0.160 HD
ENDBRANCH   5  27
BRANCH   1  30
HETATM   30  N1  UNL     1     -30.729  14.575  18.843  1.00  0.00    -0.230 N 
HETATM   31  C1  UNL     1     -31.265  15.863  19.227  1.00  0.00     0.165 C 
ATOM     32  H1  UNL     1     -30.204  13.997  19.499  1.00  0.00     0.177 HD
ENDBRANCH   1  30
TORSDOF 7
ENDMDL
MODEL 2
REMARK VINA RESULT: -7.018507194      2.345      3.981
REMARK  7 active torsions:
REMARK  status: ('A' for Active; 'I' for Inactive)
REMARK    1  A    between atoms: N1_2  and  C2_4 
REMARK    2  A    between atoms: C4_8  and  N3_9 
REMARK    3  A    between atoms: N6_19  and  C9_20 
REMARK    4  A    between atoms: C9_20  and  O1_21 
REMARK    5  A    between atoms: O1_21  and  C10_22 
REMARK    6  A    between atoms: C10_22  and  C11_23 
REMARK    7  A    between atoms: C11_23  and  O2_24 
ROOT
HETATM    1  C2  UNL     1     -29.942  12.462  17.453  1.00  0.00     0.694 A 
HETATM    2  N2  UNL     1     -30.646  13.346  16.739  1.00  0.00    -0.171 N 
ATOM      3  H2  UNL     1     -30.916  14.220  17.189  1.00  0.00     0.186 HD
HETATM    4  C3  UNL     1     -31.018  13.154  15.471  1.00  0.00     0.190 A 
HETATM    5  C4  UNL     1     -31.744  14.096  14.776  1.00  0.00     0.149 A 
HETATM    6  N4  UNL     1     -32.074  13.817  13.504  1.00  0.00    -0.322 N 
ATOM      7  H4  UNL     1     -32.610  14.504  12.974  1.00  0.00     0.169 HD
HETATM    8  C6  UNL     1     -31.726  12.677  12.909  1.00  0.00     0.158 A 
HETATM    9  C7  UNL     1     -30.995  11.731  13.614  1.00  0.00     0.176 A 
HETATM   10  N5  UNL     1     -30.811  10.720  12.748  1.00  0.00    -0.334 N 
ATOM     11  H5  UNL     1     -30.303   9.864  12.970  1.00  0.00     0.168 HD
HETATM   12  C8  UNL     1     -31.373  10.969  11.561  1.00  0.00     0.188 A 
HETATM   13  N6  UNL     1     -31.938  12.194  11.682  1.00  0.00    -0.304 N 
HETATM   14  N7  UNL     1     -30.642  11.970  14.891  1.00  0.00    -0.109 N 
HETATM   15  C12 UNL     1     -29.935  11.031  15.538  1.00  0.00     0.700 A 
HETATM   16  N8  UNL     1     -29.545   9.921  15.098  1.00  0.00    -0.233 N 
ATOM     17  H81 UNL     1     -29.007   9.208  15.590  1.00  0.00     0.174 HD
ATOM     18  H82 UNL     1     -29.792   9.703  14.133  1.00  0.00     0.174 HD
HETATM   19  N9  UNL     1     -29.600  11.327  16.849  1.00  0.00    -0.022 N 
ATOM     20  H9  UNL     1     -29.062  10.641  17.378  1.00  0.00     0.203 HD
ENDROOT
BRANCH  13  21
HETATM   21  C9  UNL     1     -32.659  12.832  10.595  1.00  0.00     0.301 C 
BRANCH  21  22
HETATM   22  O1  UNL     1     -32.110  14.093  10.458  1.00  0.00    -0.369 OA
BRANCH  22  23
HETATM   23  C10 UNL     1     -30.892  14.152   9.825  1.00  0.00     0.196 C 
BRANCH  23  24
HETATM   24  C11 UNL     1     -30.816  15.310   8.864  1.00  0.00     0.190 C 
BRANCH  24  25
HETATM   25  O2  UNL     1     -32.060  15.977   8.927  1.00  0.00    -0.399 OA
ATOM     26  H2  UNL     1     -32.206  16.368   8.074  1.00  0.00     0.209 HD
ENDBRANCH  24  25
ENDBRANCH  23  24
ENDBRANCH  22  23
ENDBRANCH  21  22
ENDBRANCH  13  21
BRANCH   5  27
HETATM   27  N3  UNL     1     -32.099  15.186  15.284  1.00  0.00    -0.378 N 
HETATM   28  C5  UNL     1     -33.251  15.570  16.007  1.00  0.00     0.148 C 
ATOM     29  H3  UNL     1     -31.427  15.941  15.149  1.00  0.00     0.160 HD
ENDBRANCH   5  27
BRANCH   1  30
HETATM   30  N1  UNL     1     -29.607  12.714  18.696  1.00  0.00    -0.230 N 
HETATM   31  C1  UNL     1     -28.201  12.619  19.022  1.00  0.00     0.165 C 
ATOM     32  H1  UNL     1     -30.303  12.964  19.398  1.00  0.00     0.177 HD
ENDBRANCH   1  30
TORSDOF 7
ENDMDL
MODEL 3
REMARK VINA RESULT: -6.877074384      2.826      4.340
REMARK  7 active torsions:
REMARK  status: ('A' for Active; 'I' for Inactive)
REMARK    1  A    between atoms: N1_2  and  C2_4 
REMARK    2  A    between atoms: C4_8  and  N3_9 
REMARK    3  A    between atoms: N6_19  and  C9_20 
REMARK    4  A    between atoms: C9_20  and  O1_21 
REMARK    5  A    between atoms: O1_21  and  C10_22 
REMARK    6  A    between atoms: C10_22  and  C11_23 
REMARK    7  A    between atoms: C11_23  and  O2_24 
ROOT
HETATM    1  C2  UNL     1     -27.977  10.325  16.077  1.00  0.00     0.694 A 
HETATM    2  N2  UNL     1     -27.895  10.616  14.775  1.00  0.00    -0.171 N 
ATOM      3  H2  UNL     1     -26.996  10.484  14.310  1.00  0.00     0.186 HD
HETATM    4  C3  UNL     1     -28.917  11.068  14.045  1.00  0.00     0.190 A 
HETATM    5  C4  UNL     1     -28.782  11.354  12.704  1.00  0.00     0.149 A 
HETATM    6  N4  UNL     1     -29.865  11.805  12.049  1.00  0.00    -0.322 N 
ATOM      7  H4  UNL     1     -29.783  12.020  11.055  1.00  0.00     0.169 HD
HETATM    8  C6  UNL     1     -31.041  11.981  12.650  1.00  0.00     0.158 A 
HETATM    9  C7  UNL     1     -31.172  11.693  14.000  1.00  0.00     0.176 A 
HETATM   10  N5  UNL     1     -32.453  11.971  14.292  1.00  0.00    -0.334 N 
ATOM     11  H5  UNL     1     -32.865  11.861  15.219  1.00  0.00     0.168 HD
HETATM   12  C8  UNL     1     -33.126  12.410  13.224  1.00  0.00     0.188 A 
HETATM   13  N6  UNL     1     -32.227  12.409  12.210  1.00  0.00    -0.304 N 
HETATM   14  N7  UNL     1     -30.112  11.237  14.695  1.00  0.00    -0.109 N 
HETATM   15  C12 UNL     1     -30.278  10.969  15.999  1.00  0.00     0.700 A 
HETATM   16  N8  UNL     1     -31.325  11.090  16.683  1.00  0.00    -0.233 N 
ATOM     17  H81 UNL     1     -31.452  10.886  17.674  1.00  0.00     0.174 HD
ATOM     18  H82 UNL     1     -32.151  11.432  16.192  1.00  0.00     0.174 HD
HETATM   19  N9  UNL     1     -29.157  10.505  16.666  1.00  0.00    -0.022 N 
ATOM     20  H9  UNL     1     -29.239  10.289  17.660  1.00  0.00     0.203 HD
ENDROOT
BRANCH  13  21
HETATM   21  C9  UNL     1     -32.571  12.827  10.863  1.00  0.00     0.301 C 
BRANCH  21  22
HETATM   22  O1  UNL     1     -31.908  14.021  10.649  1.00  0.00    -0.369 OA
BRANCH  22  23
HETATM   23  C10 UNL     1     -30.931  14.003   9.683  1.00  0.00     0.196 C 
BRANCH  23  24
HETATM   24  C11 UNL     1     -30.799  15.335   8.995  1.00  0.00     0.190 C 
BRANCH  24  25
HETATM   25  O2  UNL     1     -32.080  15.931   9.006  1.00  0.00    -0.399 OA
ATOM     26  H2  UNL     1     -32.713  15.223   9.065  1.00  0.00     0.209 HD
ENDBRANCH  24  25
ENDBRANCH  23  24
ENDBRANCH  22  23
ENDBRANCH  21  22
ENDBRANCH  13  21
BRANCH   5  27
HETATM   27  N3  UNL     1     -27.701  11.208  12.087  1.00  0.00    -0.378 N 
HETATM   28  C5  UNL     1     -27.031  12.010  11.135  1.00  0.00     0.148 C 
ATOM     29  H3  UNL     1     -27.210  10.343  12.315  1.00  0.00     0.160 HD
ENDBRANCH   5  27
BRANCH   1  30
HETATM   30  N1  UNL     1     -26.934   9.883  16.736  1.00  0.00    -0.230 N 
HETATM   31  C1  UNL     1     -26.832  10.269  18.127  1.00  0.00     0.165 C 
ATOM     32  H1  UNL     1     -26.229   9.295  16.292  1.00  0.00     0.177 HD
ENDBRANCH   1  30
TORSDOF 7
ENDMDL
MODEL 4
REMARK VINA RESULT: -6.826823745      4.207      6.877
REMARK  7 active torsions:
REMARK  status: ('A' for Active; 'I' for Inactive)
REMARK    1  A    between atoms: N1_2  and  C2_4 
REMARK    2  A    between atoms: C4_8  and  N3_9 
REMARK    3  A    between atoms: N6_19  and  C9_20 
REMARK    4  A    between atoms: C9_20  and  O1_21 
REMARK    5  A    between atoms: O1_21  and  C10_22 
REMARK    6  A    between atoms: C10_22  and  C11_23 
REMARK    7  A    between atoms: C11_23  and  O2_24 
ROOT
HETATM    1  C2  UNL     1     -30.289  11.125  15.446  1.00  0.00     0.694 A 
HETATM    2  N2  UNL     1     -30.131  11.949  16.487  1.00  0.00    -0.171 N 
ATOM      3  H2  UNL     1     -29.355  11.772  17.125  1.00  0.00     0.186 HD
HETATM    4  C3  UNL     1     -30.927  12.989  16.744  1.00  0.00     0.190 A 
HETATM    5  C4  UNL     1     -30.723  13.809  17.831  1.00  0.00     0.149 A 
HETATM    6  N4  UNL     1     -31.575  14.833  18.010  1.00  0.00    -0.322 N 
ATOM      7  H4  UNL     1     -31.437  15.452  18.810  1.00  0.00     0.169 HD
HETATM    8  C6  UNL     1     -32.592  15.070  17.182  1.00  0.00     0.158 A 
HETATM    9  C7  UNL     1     -32.793  14.240  16.089  1.00  0.00     0.176 A 
HETATM   10  N5  UNL     1     -33.875  14.740  15.469  1.00  0.00    -0.334 N 
ATOM     11  H5  UNL     1     -34.280  14.345  14.621  1.00  0.00     0.168 HD
HETATM   12  C8  UNL     1     -34.359  15.817  16.096  1.00  0.00     0.188 A 
HETATM   13  N6  UNL     1     -33.544  16.005  17.163  1.00  0.00    -0.304 N 
HETATM   14  N7  UNL     1     -31.962  13.203  15.871  1.00  0.00    -0.109 N 
HETATM   15  C12 UNL     1     -32.190  12.424  14.802  1.00  0.00     0.700 A 
HETATM   16  N8  UNL     1     -33.105  12.535  13.949  1.00  0.00    -0.233 N 
ATOM     17  H81 UNL     1     -33.278  11.944  13.136  1.00  0.00     0.174 HD
ATOM     18  H82 UNL     1     -33.756  13.310  14.079  1.00  0.00     0.174 HD
HETATM   19  N9  UNL     1     -31.307  11.372  14.626  1.00  0.00    -0.022 N 
ATOM     20  H9  UNL     1     -31.444  10.754  13.825  1.00  0.00     0.203 HD
ENDROOT
BRANCH  13  21
HETATM   21  C9  UNL     1     -33.736  17.089  18.110  1.00  0.00     0.301 C 
BRANCH  21  22
HETATM   22  O1  UNL     1     -34.677  17.931  17.546  1.00  0.00    -0.369 OA
BRANCH  22  23
HETATM   23  C10 UNL     1     -35.721  18.297  18.360  1.00  0.00     0.196 C 
BRANCH  23  24
HETATM   24  C11 UNL     1     -36.950  17.465  18.103  1.00  0.00     0.190 C 
BRANCH  24  25
HETATM   25  O2  UNL     1     -37.974  18.357  17.712  1.00  0.00    -0.399 OA
ATOM     26  H2  UNL     1     -37.587  19.225  17.682  1.00  0.00     0.209 HD
ENDBRANCH  24  25
ENDBRANCH  23  24
ENDBRANCH  22  23
ENDBRANCH  21  22
ENDBRANCH  13  21
BRANCH   5  27
HETATM   27  N3  UNL     1     -29.784  13.635  18.643  1.00  0.00    -0.378 N 
HETATM   28  C5  UNL     1     -29.580  14.071  19.972  1.00  0.00     0.148 C 
ATOM     29  H3  UNL     1     -29.019  13.070  18.273  1.00  0.00     0.160 HD
ENDBRANCH   5  27
BRANCH   1  30
HETATM   30  N1  UNL     1     -29.469  10.121  15.250  1.00  0.00    -0.230 N 
HETATM   31  C1  UNL     1     -28.393   9.965  16.205  1.00  0.00     0.165 C 
ATOM     32  H1  UNL     1     -29.584   9.481  14.465  1.00  0.00     0.177 HD
ENDBRANCH   1  30
TORSDOF 7
ENDMDL
MODEL 5
REMARK VINA RESULT: -6.727022567      1.893      4.083
REMARK  7 active torsions:
REMARK  status: ('A' for Active; 'I' for Inactive)
REMARK    1  A    between atoms: N1_2  and  C2_4 
REMARK    2  A    between atoms: C4_8  and  N3_9 
REMARK    3  A    between atoms: N6_19  and  C9_20 
REMARK    4  A    between atoms: C9_20  and  O1_21 
REMARK    5  A    between atoms: O1_21  and  C10_22 
REMARK    6  A    between atoms: C10_22  and  C11_23 
REMARK    7  A    between atoms: C11_23  and  O2_24 
ROOT
HETATM    1  C2  UNL     1     -33.845  15.439  16.208  1.00  0.00     0.694 A 
HETATM    2  N2  UNL     1     -33.504  14.381  15.465  1.00  0.00    -0.171 N 
ATOM      3  H2  UNL     1     -34.057  14.183  14.630  1.00  0.00     0.186 HD
HETATM    4  C3  UNL     1     -32.483  13.568  15.747  1.00  0.00     0.190 A 
HETATM    5  C4  UNL     1     -32.172  12.490  14.949  1.00  0.00     0.149 A 
HETATM    6  N4  UNL     1     -31.127  11.725  15.312  1.00  0.00    -0.322 N 
ATOM      7  H4  UNL     1     -30.881  10.923  14.731  1.00  0.00     0.169 HD
HETATM    8  C6  UNL     1     -30.402  11.977  16.401  1.00  0.00     0.158 A 
HETATM    9  C7  UNL     1     -30.721  13.064  17.201  1.00  0.00     0.176 A 
HETATM   10  N5  UNL     1     -29.817  13.039  18.195  1.00  0.00    -0.334 N 
ATOM     11  H5  UNL     1     -29.786  13.718  18.955  1.00  0.00     0.168 HD
HETATM   12  C8  UNL     1     -28.963  12.019  18.070  1.00  0.00     0.188 A 
HETATM   13  N6  UNL     1     -29.345  11.368  16.945  1.00  0.00    -0.304 N 
HETATM   14  N7  UNL     1     -31.759  13.857  16.874  1.00  0.00    -0.109 N 
HETATM   15  C12 UNL     1     -32.035  14.898  17.674  1.00  0.00     0.700 A 
HETATM   16  N8  UNL     1     -31.436  15.246  18.722  1.00  0.00    -0.233 N 
ATOM     17  H81 UNL     1     -31.645  16.038  19.329  1.00  0.00     0.174 HD
ATOM     18  H82 UNL     1     -30.642  14.670  19.003  1.00  0.00     0.174 HD
HETATM   19  N9  UNL     1     -33.113  15.680  17.292  1.00  0.00    -0.022 N 
ATOM     20  H9  UNL     1     -33.358  16.483  17.872  1.00  0.00     0.203 HD
ENDROOT
BRANCH  13  21
HETATM   21  C9  UNL     1     -28.660  10.185  16.457  1.00  0.00     0.301 C 
BRANCH  21  22
HETATM   22  O1  UNL     1     -28.604  10.312  15.081  1.00  0.00    -0.369 OA
BRANCH  22  23
HETATM   23  C10 UNL     1     -27.606  11.120  14.593  1.00  0.00     0.196 C 
BRANCH  23  24
HETATM   24  C11 UNL     1     -27.983  11.738  13.273  1.00  0.00     0.190 C 
BRANCH  24  25
HETATM   25  O2  UNL     1     -29.183  11.120  12.858  1.00  0.00    -0.399 OA
ATOM     26  H2  UNL     1     -29.131  11.021  11.914  1.00  0.00     0.209 HD
ENDBRANCH  24  25
ENDBRANCH  23  24
ENDBRANCH  22  23
ENDBRANCH  21  22
ENDBRANCH  13  21
BRANCH   5  27
HETATM   27  N3  UNL     1     -32.818  12.205  13.914  1.00  0.00    -0.378 N 
HETATM   28  C5  UNL     1     -32.485  12.245  12.541  1.00  0.00     0.148 C 
ATOM     29  H3  UNL     1     -33.768  11.881  14.098  1.00  0.00     0.160 HD
ENDBRANCH   5  27
BRANCH   1  30
HETATM   30  N1  UNL     1     -34.859  16.199  15.873  1.00  0.00    -0.230 N 
HETATM   31  C1  UNL     1     -35.648  16.745  16.956  1.00  0.00     0.165 C 
ATOM     32  H1  UNL     1     -35.082  16.397  14.898  1.00  0.00     0.177 HD
ENDBRANCH   1  30
TORSDOF 7
ENDMDL
