MODEL 1
REMARK VINA RESULT: -5.817462377      0.000      0.000
REMARK  5 active torsions:
REMARK  status: ('A' for Active; 'I' for Inactive)
REMARK    1  A    between atoms: C3_4  and  O2_5 
REMARK    2  A    between atoms: C4_7  and  C5_8 
REMARK    3  A    between atoms: C5_8  and  C6_9 
REMARK    4  A    between atoms: C6_9  and  C7_10 
REMARK    5  A    between atoms: C7_10  and  O3_11 
ROOT
HETATM    1  O1  UNL     1      14.991   5.497   0.652  1.00  0.00    -0.298 OA
HETATM    2  C1  UNL     1      14.191   5.144  -0.159  1.00  0.00     0.129 C 
HETATM    3  C2  UNL     1      12.848   5.697  -0.406  1.00  0.00     0.110 C 
HETATM    4  C3  UNL     1      12.024   4.439  -0.499  1.00  0.00     0.129 C 
HETATM    5  C4  UNL     1      12.925   3.393  -1.111  1.00  0.00     0.025 C 
HETATM    6  C10 UNL     1      14.317   4.046  -1.153  1.00  0.00     0.085 C 
ENDROOT
BRANCH   5   7
HETATM    7  C5  UNL     1      12.397   3.023  -2.443  1.00  0.00     0.048 C 
BRANCH   7   8
HETATM    8  C6  UNL     1      13.290   2.325  -3.390  1.00  0.00     0.084 C 
HETATM    9  C8  UNL     1      13.759   2.965  -4.631  1.00  0.00     0.066 C 
HETATM   10  C9  UNL     1      12.385   2.551  -5.105  1.00  0.00     0.172 C 
HETATM   11  O4  UNL     1      12.473   1.499  -4.218  1.00  0.00    -0.378 OA
BRANCH   8  12
HETATM   12  C7  UNL     1      14.264   1.363  -2.709  1.00  0.00     0.202 C 
BRANCH  12  13
HETATM   13  O3  UNL     1      15.574   1.585  -3.144  1.00  0.00    -0.398 OA
ATOM     14  H3  UNL     1      15.949   0.793  -3.512  1.00  0.00     0.209 HD
ENDBRANCH  12  13
ENDBRANCH   8  12
ENDBRANCH   7   8
ENDBRANCH   5   7
BRANCH   4  15
HETATM   15  O2  UNL     1      10.877   4.657  -1.253  1.00  0.00    -0.395 OA
ATOM     16  H2  UNL     1      10.122   4.255  -0.839  1.00  0.00     0.210 HD
ENDBRANCH   4  15
TORSDOF 5
ENDMDL
MODEL 2
REMARK VINA RESULT: -5.778976660      1.425      2.674
REMARK  5 active torsions:
REMARK  status: ('A' for Active; 'I' for Inactive)
REMARK    1  A    between atoms: C3_4  and  O2_5 
REMARK    2  A    between atoms: C4_7  and  C5_8 
REMARK    3  A    between atoms: C5_8  and  C6_9 
REMARK    4  A    between atoms: C6_9  and  C7_10 
REMARK    5  A    between atoms: C7_10  and  O3_11 
ROOT
HETATM    1  O1  UNL     1      12.032   6.909   0.561  1.00  0.00    -0.298 OA
HETATM    2  C1  UNL     1      12.492   5.838   0.308  1.00  0.00     0.129 C 
HETATM    3  C2  UNL     1      13.719   5.230   0.850  1.00  0.00     0.110 C 
HETATM    4  C3  UNL     1      14.365   4.701  -0.405  1.00  0.00     0.129 C 
HETATM    5  C4  UNL     1      13.232   4.296  -1.318  1.00  0.00     0.025 C 
HETATM    6  C10 UNL     1      11.961   4.809  -0.623  1.00  0.00     0.085 C 
ENDROOT
BRANCH   5   7
HETATM    7  C5  UNL     1      13.265   2.828  -1.501  1.00  0.00     0.048 C 
BRANCH   7   8
HETATM    8  C6  UNL     1      13.352   2.287  -2.873  1.00  0.00     0.084 C 
HETATM    9  C8  UNL     1      14.051   1.024  -3.167  1.00  0.00     0.066 C 
HETATM   10  C9  UNL     1      15.259   1.928  -3.089  1.00  0.00     0.172 C 
HETATM   11  O4  UNL     1      14.438   2.947  -3.523  1.00  0.00    -0.378 OA
BRANCH   8  12
HETATM   12  C7  UNL     1      12.126   2.605  -3.730  1.00  0.00     0.202 C 
BRANCH  12  13
HETATM   13  O3  UNL     1      12.191   1.943  -4.960  1.00  0.00    -0.398 OA
ATOM     14  H3  UNL     1      12.082   1.005  -4.848  1.00  0.00     0.209 HD
ENDBRANCH  12  13
ENDBRANCH   8  12
ENDBRANCH   7   8
ENDBRANCH   5   7
BRANCH   4  15
HETATM   15  O2  UNL     1      15.215   3.642  -0.112  1.00  0.00    -0.395 OA
ATOM     16  H2  UNL     1      14.828   3.072   0.542  1.00  0.00     0.210 HD
ENDBRANCH   4  15
TORSDOF 5
ENDMDL
MODEL 3
REMARK VINA RESULT: -5.705497040      1.024      2.023
REMARK  5 active torsions:
REMARK  status: ('A' for Active; 'I' for Inactive)
REMARK    1  A    between atoms: C3_4  and  O2_5 
REMARK    2  A    between atoms: C4_7  and  C5_8 
REMARK    3  A    between atoms: C5_8  and  C6_9 
REMARK    4  A    between atoms: C6_9  and  C7_10 
REMARK    5  A    between atoms: C7_10  and  O3_11 
ROOT
HETATM    1  O1  UNL     1      14.234   5.094   1.438  1.00  0.00    -0.298 OA
HETATM    2  C1  UNL     1      13.785   4.914   0.348  1.00  0.00     0.129 C 
HETATM    3  C2  UNL     1      12.454   5.296  -0.157  1.00  0.00     0.110 C 
HETATM    4  C3  UNL     1      12.030   4.029  -0.857  1.00  0.00     0.129 C 
HETATM    5  C4  UNL     1      13.294   3.414  -1.408  1.00  0.00     0.025 C 
HETATM    6  C10 UNL     1      14.436   4.257  -0.816  1.00  0.00     0.085 C 
ENDROOT
BRANCH   5   7
HETATM    7  C5  UNL     1      13.236   3.441  -2.887  1.00  0.00     0.048 C 
BRANCH   7   8
HETATM    8  C6  UNL     1      13.406   2.172  -3.624  1.00  0.00     0.084 C 
HETATM    9  C8  UNL     1      14.152   1.037  -3.055  1.00  0.00     0.066 C 
HETATM   10  C9  UNL     1      15.330   1.857  -3.528  1.00  0.00     0.172 C 
HETATM   11  O4  UNL     1      14.504   2.343  -4.519  1.00  0.00    -0.378 OA
BRANCH   8  12
HETATM   12  C7  UNL     1      12.216   1.826  -4.520  1.00  0.00     0.202 C 
BRANCH  12  13
HETATM   13  O3  UNL     1      11.210   2.792  -4.411  1.00  0.00    -0.398 OA
ATOM     14  H3  UNL     1      10.405   2.491  -4.815  1.00  0.00     0.209 HD
ENDBRANCH  12  13
ENDBRANCH   8  12
ENDBRANCH   7   8
ENDBRANCH   5   7
BRANCH   4  15
HETATM   15  O2  UNL     1      11.097   4.304  -1.849  1.00  0.00    -0.395 OA
ATOM     16  H2  UNL     1      10.229   4.028  -1.579  1.00  0.00     0.210 HD
ENDBRANCH   4  15
TORSDOF 5
ENDMDL
MODEL 4
REMARK VINA RESULT: -5.597987363      4.711      6.618
REMARK  5 active torsions:
REMARK  status: ('A' for Active; 'I' for Inactive)
REMARK    1  A    between atoms: C3_4  and  O2_5 
REMARK    2  A    between atoms: C4_7  and  C5_8 
REMARK    3  A    between atoms: C5_8  and  C6_9 
REMARK    4  A    between atoms: C6_9  and  C7_10 
REMARK    5  A    between atoms: C7_10  and  O3_11 
ROOT
HETATM    1  O1  UNL     1      10.706   6.549   2.363  1.00  0.00    -0.298 OA
HETATM    2  C1  UNL     1      10.188   6.281   1.323  1.00  0.00     0.129 C 
HETATM    3  C2  UNL     1      10.727   5.449   0.232  1.00  0.00     0.110 C 
HETATM    4  C3  UNL     1      10.420   6.305  -0.970  1.00  0.00     0.129 C 
HETATM    5  C4  UNL     1       9.130   7.023  -0.653  1.00  0.00     0.025 C 
HETATM    6  C10 UNL     1       8.853   6.705   0.826  1.00  0.00     0.085 C 
ENDROOT
BRANCH   5   7
HETATM    7  C5  UNL     1       8.075   6.547  -1.576  1.00  0.00     0.048 C 
BRANCH   7   8
HETATM    8  C6  UNL     1       7.459   7.515  -2.506  1.00  0.00     0.084 C 
HETATM    9  C8  UNL     1       6.855   8.771  -2.032  1.00  0.00     0.066 C 
HETATM   10  C9  UNL     1       5.707   7.842  -1.711  1.00  0.00     0.172 C 
HETATM   11  O4  UNL     1       6.130   7.067  -2.769  1.00  0.00    -0.378 OA
BRANCH   8  12
HETATM   12  C7  UNL     1       8.140   7.559  -3.874  1.00  0.00     0.202 C 
BRANCH  12  13
HETATM   13  O3  UNL     1       8.508   6.276  -4.291  1.00  0.00    -0.398 OA
ATOM     14  H3  UNL     1       9.051   5.849  -3.638  1.00  0.00     0.209 HD
ENDBRANCH  12  13
ENDBRANCH   8  12
ENDBRANCH   7   8
ENDBRANCH   5   7
BRANCH   4  15
HETATM   15  O2  UNL     1      10.325   5.525  -2.117  1.00  0.00    -0.395 OA
ATOM     16  H2  UNL     1       9.415   5.396  -2.361  1.00  0.00     0.210 HD
ENDBRANCH   4  15
TORSDOF 5
ENDMDL
MODEL 5
REMARK VINA RESULT: -5.578528657      1.500      4.796
REMARK  5 active torsions:
REMARK  status: ('A' for Active; 'I' for Inactive)
REMARK    1  A    between atoms: C3_4  and  O2_5 
REMARK    2  A    between atoms: C4_7  and  C5_8 
REMARK    3  A    between atoms: C5_8  and  C6_9 
REMARK    4  A    between atoms: C6_9  and  C7_10 
REMARK    5  A    between atoms: C7_10  and  O3_11 
ROOT
HETATM    1  O1  UNL     1      15.832   1.846  -3.068  1.00  0.00    -0.298 OA
HETATM    2  C1  UNL     1      14.844   2.196  -2.500  1.00  0.00     0.129 C 
HETATM    3  C2  UNL     1      13.450   1.814  -2.789  1.00  0.00     0.110 C 
HETATM    4  C3  UNL     1      12.761   3.154  -2.736  1.00  0.00     0.129 C 
HETATM    5  C4  UNL     1      13.499   3.962  -1.695  1.00  0.00     0.025 C 
HETATM    6  C10 UNL     1      14.731   3.114  -1.337  1.00  0.00     0.085 C 
ENDROOT
BRANCH   5   7
HETATM    7  C5  UNL     1      12.593   4.215  -0.553  1.00  0.00     0.048 C 
BRANCH   7   8
HETATM    8  C6  UNL     1      12.387   5.609  -0.110  1.00  0.00     0.084 C 
HETATM    9  C8  UNL     1      13.472   6.604  -0.146  1.00  0.00     0.066 C 
HETATM   10  C9  UNL     1      13.862   5.903   1.135  1.00  0.00     0.172 C 
HETATM   11  O4  UNL     1      12.522   5.630   1.311  1.00  0.00    -0.378 OA
BRANCH   8  12
HETATM   12  C7  UNL     1      10.975   6.129  -0.380  1.00  0.00     0.202 C 
BRANCH  12  13
HETATM   13  O3  UNL     1      10.312   5.319  -1.307  1.00  0.00    -0.398 OA
ATOM     14  H3  UNL     1      10.042   5.821  -2.067  1.00  0.00     0.209 HD
ENDBRANCH  12  13
ENDBRANCH   8  12
ENDBRANCH   7   8
ENDBRANCH   5   7
BRANCH   4  15
HETATM   15  O2  UNL     1      11.414   3.001  -2.432  1.00  0.00    -0.395 OA
ATOM     16  H2  UNL     1      11.095   2.158  -2.733  1.00  0.00     0.210 HD
ENDBRANCH   4  15
TORSDOF 5
ENDMDL
