MODEL 1
REMARK VINA RESULT: -5.142045748      0.000      0.000
REMARK  5 active torsions:
REMARK  status: ('A' for Active; 'I' for Inactive)
REMARK    1  A    between atoms: C2_2  and  C3_3 
REMARK    2  A    between atoms: C3_3  and  C4_4 
REMARK    3  A    between atoms: C4_4  and  O1_5 
REMARK    4  A    between atoms: C4_4  and  C5_7 
REMARK    5  A    between atoms: C8_11  and  O2_12 
ROOT
HETATM    1  C5  UNL     1      13.524   4.741  -0.165  1.00  0.00     0.106 C 
HETATM    2  C6  UNL     1      13.614   6.206  -0.342  1.00  0.00     0.291 C 
HETATM    3  N1  UNL     1      12.396   6.852  -0.161  1.00  0.00     0.109 N 
HETATM    4  C7  UNL     1      11.869   7.036   1.149  1.00  0.00     0.308 A 
HETATM    5  C8  UNL     1      10.639   6.259   0.730  1.00  0.00     0.190 A 
HETATM    6  C9  UNL     1      11.282   6.141  -0.628  1.00  0.00     0.315 A 
HETATM    7  S1  UNL     1      11.858   4.431  -0.882  1.00  0.00    -0.122 SA
ENDROOT
BRANCH   1   8
HETATM    8  C4  UNL     1      14.494   3.946  -1.005  1.00  0.00     0.133 C 
BRANCH   8   9
HETATM    9  C3  UNL     1      13.802   2.663  -1.395  1.00  0.00     0.032 C 
BRANCH   9  10
HETATM   10  C2  UNL     1      14.467   1.965  -2.544  1.00  0.00    -0.002 C 
HETATM   11  C1  UNL     1      13.581   2.092  -3.760  1.00  0.00     0.005 C 
ENDBRANCH   9  10
ENDBRANCH   8   9
BRANCH   8  12
HETATM   12  O1  UNL     1      15.701   3.775  -0.383  1.00  0.00    -0.394 OA
ATOM     13  H1  UNL     1      15.975   4.507   0.157  1.00  0.00     0.210 HD
ENDBRANCH   8  12
ENDBRANCH   1   8
BRANCH   5  14
HETATM   14  O2  UNL     1       9.476   7.008   0.643  1.00  0.00    -0.391 OA
ATOM     15  H2  UNL     1       8.823   6.812   1.304  1.00  0.00     0.210 HD
ENDBRANCH   5  14
TORSDOF 5
ENDMDL
MODEL 2
REMARK VINA RESULT: -4.978246675      1.226      1.333
REMARK  5 active torsions:
REMARK  status: ('A' for Active; 'I' for Inactive)
REMARK    1  A    between atoms: C2_2  and  C3_3 
REMARK    2  A    between atoms: C3_3  and  C4_4 
REMARK    3  A    between atoms: C4_4  and  O1_5 
REMARK    4  A    between atoms: C4_4  and  C5_7 
REMARK    5  A    between atoms: C8_11  and  O2_12 
ROOT
HETATM    1  C5  UNL     1      13.902   4.536   0.248  1.00  0.00     0.106 C 
HETATM    2  C6  UNL     1      14.522   5.783   0.741  1.00  0.00     0.291 C 
HETATM    3  N1  UNL     1      13.608   6.652   1.328  1.00  0.00     0.109 N 
HETATM    4  C7  UNL     1      13.096   6.384   2.629  1.00  0.00     0.308 A 
HETATM    5  C8  UNL     1      11.700   6.368   2.044  1.00  0.00     0.190 A 
HETATM    6  C9  UNL     1      12.347   6.671   0.716  1.00  0.00     0.315 A 
HETATM    7  S1  UNL     1      12.287   5.190  -0.343  1.00  0.00    -0.122 SA
ENDROOT
BRANCH   1   8
HETATM    8  C4  UNL     1      14.576   3.934  -0.961  1.00  0.00     0.133 C 
BRANCH   8   9
HETATM    9  C3  UNL     1      13.770   2.725  -1.368  1.00  0.00     0.032 C 
BRANCH   9  10
HETATM   10  C2  UNL     1      14.406   1.944  -2.479  1.00  0.00    -0.002 C 
HETATM   11  C1  UNL     1      13.619   2.181  -3.745  1.00  0.00     0.005 C 
ENDBRANCH   9  10
ENDBRANCH   8   9
BRANCH   8  12
HETATM   12  O1  UNL     1      15.905   3.687  -0.745  1.00  0.00    -0.394 OA
ATOM     13  H1  UNL     1      16.156   3.646   0.170  1.00  0.00     0.210 HD
ENDBRANCH   8  12
ENDBRANCH   1   8
BRANCH   5  14
HETATM   14  O2  UNL     1      10.891   7.424   2.432  1.00  0.00    -0.391 OA
ATOM     15  H2  UNL     1      10.322   7.765   1.752  1.00  0.00     0.210 HD
ENDBRANCH   5  14
TORSDOF 5
ENDMDL
MODEL 3
REMARK VINA RESULT: -4.706843610      3.046      4.793
REMARK  5 active torsions:
REMARK  status: ('A' for Active; 'I' for Inactive)
REMARK    1  A    between atoms: C2_2  and  C3_3 
REMARK    2  A    between atoms: C3_3  and  C4_4 
REMARK    3  A    between atoms: C4_4  and  O1_5 
REMARK    4  A    between atoms: C4_4  and  C5_7 
REMARK    5  A    between atoms: C8_11  and  O2_12 
ROOT
HETATM    1  C5  UNL     1      14.134   3.409  -2.005  1.00  0.00     0.106 C 
HETATM    2  C6  UNL     1      14.270   2.142  -2.755  1.00  0.00     0.291 C 
HETATM    3  N1  UNL     1      13.211   1.909  -3.627  1.00  0.00     0.109 N 
HETATM    4  C7  UNL     1      13.117   2.630  -4.850  1.00  0.00     0.308 A 
HETATM    5  C8  UNL     1      11.766   3.149  -4.405  1.00  0.00     0.190 A 
HETATM    6  C9  UNL     1      11.961   2.331  -3.154  1.00  0.00     0.315 A 
HETATM    7  S1  UNL     1      12.312   3.438  -1.750  1.00  0.00    -0.122 SA
ENDROOT
BRANCH   1   8
HETATM    8  C4  UNL     1      14.748   3.391  -0.627  1.00  0.00     0.133 C 
BRANCH   8   9
HETATM    9  C3  UNL     1      13.934   4.321   0.238  1.00  0.00     0.032 C 
BRANCH   9  10
HETATM   10  C2  UNL     1      14.590   5.654   0.447  1.00  0.00    -0.002 C 
HETATM   11  C1  UNL     1      13.794   6.702  -0.290  1.00  0.00     0.005 C 
ENDBRANCH   9  10
ENDBRANCH   8   9
BRANCH   8  12
HETATM   12  O1  UNL     1      16.089   3.664  -0.652  1.00  0.00    -0.394 OA
ATOM     13  H1  UNL     1      16.422   4.084   0.133  1.00  0.00     0.210 HD
ENDBRANCH   8  12
ENDBRANCH   1   8
BRANCH   5  14
HETATM   14  O2  UNL     1      10.687   2.666  -5.127  1.00  0.00    -0.391 OA
ATOM     15  H2  UNL     1      10.119   2.072  -4.649  1.00  0.00     0.210 HD
ENDBRANCH   5  14
TORSDOF 5
ENDMDL
MODEL 4
REMARK VINA RESULT: -4.675375860      2.011      5.163
REMARK  5 active torsions:
REMARK  status: ('A' for Active; 'I' for Inactive)
REMARK    1  A    between atoms: C2_2  and  C3_3 
REMARK    2  A    between atoms: C3_3  and  C4_4 
REMARK    3  A    between atoms: C4_4  and  O1_5 
REMARK    4  A    between atoms: C4_4  and  C5_7 
REMARK    5  A    between atoms: C8_11  and  O2_12 
ROOT
HETATM    1  C5  UNL     1      12.861   5.157  -0.564  1.00  0.00     0.106 C 
HETATM    2  C6  UNL     1      13.875   4.440   0.238  1.00  0.00     0.291 C 
HETATM    3  N1  UNL     1      14.295   3.252  -0.351  1.00  0.00     0.109 N 
HETATM    4  C7  UNL     1      15.183   3.278  -1.464  1.00  0.00     0.308 A 
HETATM    5  C8  UNL     1      14.141   2.536  -2.274  1.00  0.00     0.190 A 
HETATM    6  C9  UNL     1      13.290   2.549  -1.030  1.00  0.00     0.315 A 
HETATM    7  S1  UNL     1      11.918   3.729  -1.242  1.00  0.00    -0.122 SA
ENDROOT
BRANCH   1   8
HETATM    8  C4  UNL     1      11.874   5.961   0.246  1.00  0.00     0.133 C 
BRANCH   8   9
HETATM    9  C3  UNL     1      10.557   5.929  -0.491  1.00  0.00     0.032 C 
BRANCH   9  10
HETATM   10  C2  UNL     1       9.401   6.374   0.354  1.00  0.00    -0.002 C 
HETATM   11  C1  UNL     1       8.235   6.684  -0.553  1.00  0.00     0.005 C 
ENDBRANCH   9  10
ENDBRANCH   8   9
BRANCH   8  12
HETATM   12  O1  UNL     1      12.337   7.217   0.531  1.00  0.00    -0.394 OA
ATOM     13  H1  UNL     1      13.283   7.296   0.547  1.00  0.00     0.210 HD
ENDBRANCH   8  12
ENDBRANCH   1   8
BRANCH   5  14
HETATM   14  O2  UNL     1      14.478   1.234  -2.607  1.00  0.00    -0.391 OA
ATOM     15  H2  UNL     1      15.194   1.151  -3.226  1.00  0.00     0.210 HD
ENDBRANCH   5  14
TORSDOF 5
ENDMDL
MODEL 5
REMARK VINA RESULT: -4.649308835      1.791      1.926
REMARK  5 active torsions:
REMARK  status: ('A' for Active; 'I' for Inactive)
REMARK    1  A    between atoms: C2_2  and  C3_3 
REMARK    2  A    between atoms: C3_3  and  C4_4 
REMARK    3  A    between atoms: C4_4  and  O1_5 
REMARK    4  A    between atoms: C4_4  and  C5_7 
REMARK    5  A    between atoms: C8_11  and  O2_12 
ROOT
HETATM    1  C5  UNL     1      12.732   4.067  -0.399  1.00  0.00     0.106 C 
HETATM    2  C6  UNL     1      13.855   5.023  -0.497  1.00  0.00     0.291 C 
HETATM    3  N1  UNL     1      13.561   6.266   0.055  1.00  0.00     0.109 N 
HETATM    4  C7  UNL     1      13.530   6.435   1.468  1.00  0.00     0.308 A 
HETATM    5  C8  UNL     1      12.090   6.885   1.353  1.00  0.00     0.190 A 
HETATM    6  C9  UNL     1      12.239   6.691  -0.134  1.00  0.00     0.315 A 
HETATM    7  S1  UNL     1      11.312   5.210  -0.651  1.00  0.00    -0.122 SA
ENDROOT
BRANCH   1   8
HETATM    8  C4  UNL     1      12.664   3.063  -1.525  1.00  0.00     0.133 C 
BRANCH   8   9
HETATM    9  C3  UNL     1      14.026   3.023  -2.173  1.00  0.00     0.032 C 
BRANCH   9  10
HETATM   10  C2  UNL     1      14.419   1.649  -2.628  1.00  0.00    -0.002 C 
HETATM   11  C1  UNL     1      14.389   1.617  -4.137  1.00  0.00     0.005 C 
ENDBRANCH   9  10
ENDBRANCH   8   9
BRANCH   8  12
HETATM   12  O1  UNL     1      11.630   3.317  -2.386  1.00  0.00    -0.394 OA
ATOM     13  H1  UNL     1      10.782   3.014  -2.085  1.00  0.00     0.210 HD
ENDBRANCH   8  12
ENDBRANCH   1   8
BRANCH   5  14
HETATM   14  O2  UNL     1      11.871   8.224   1.639  1.00  0.00    -0.391 OA
ATOM     15  H2  UNL     1      10.979   8.522   1.504  1.00  0.00     0.210 HD
ENDBRANCH   5  14
TORSDOF 5
ENDMDL
