MODEL 1
REMARK VINA RESULT: -7.736042558      0.000      0.000
REMARK  5 active torsions:
REMARK  status: ('A' for Active; 'I' for Inactive)
REMARK       I    between atoms: N2_6  and  C5_7 
REMARK       I    between atoms: C5_7  and  N5_20 
REMARK    1  A    between atoms: N3_8  and  C6_10 
REMARK    2  A    between atoms: C7_12  and  S1_13 
REMARK    3  A    between atoms: S1_13  and  C8_14 
REMARK    4  A    between atoms: N5_20  and  C14_22 
REMARK    5  A    between atoms: C14_22  and  C15_23 
ROOT
HETATM    1  N1  UNL     1     -46.630  -1.281   8.519  1.00  0.00    -0.197 NA
HETATM    2  C1  UNL     1     -46.763  -1.323   7.376  1.00  0.00     0.064 C 
HETATM    3  C2  UNL     1     -46.916  -1.392   5.897  1.00  0.00     0.096 C 
HETATM    4  C3  UNL     1     -46.002  -0.382   5.300  1.00  0.00     0.039 C 
HETATM    5  C4  UNL     1     -46.017  -0.633   3.777  1.00  0.00     0.142 C 
HETATM    6  N2  UNL     1     -45.351  -1.899   3.651  1.00  0.00    -0.218 N 
HETATM    7  C5  UNL     1     -44.178  -1.998   2.816  1.00  0.00     0.677 C 
HETATM    8  N3  UNL     1     -44.373  -1.848   1.605  1.00  0.00    -0.179 N 
ATOM      9  H3  UNL     1     -45.366  -1.679   1.442  1.00  0.00     0.185 HD
HETATM   10  N5  UNL     1     -42.944  -2.234   3.521  1.00  0.00    -0.222 N 
ATOM     11  H5  UNL     1     -42.751  -3.138   3.950  1.00  0.00     0.177 HD
HETATM   12  C16 UNL     1     -45.807  -3.064   4.346  1.00  0.00     0.142 C 
HETATM   13  C17 UNL     1     -46.828  -2.774   5.395  1.00  0.00     0.039 C 
ENDROOT
BRANCH   8  14
HETATM   14  C6  UNL     1     -43.747  -1.832   0.472  1.00  0.00     0.138 C 
HETATM   15  N4  UNL     1     -45.195  -1.357  -0.223  1.00  0.00    -0.082 NA
HETATM   16  C7  UNL     1     -43.071  -1.814  -0.758  1.00  0.00     0.091 C 
BRANCH  16  17
HETATM   17  S1  UNL     1     -41.611  -2.957  -0.643  1.00  0.00    -0.133 SA
BRANCH  17  18
HETATM   18  C8  UNL     1     -40.226  -1.889  -0.096  1.00  0.00     0.052 C 
HETATM   19  C9  UNL     1     -39.253  -1.743  -1.241  1.00  0.00     0.015 C 
HETATM   20  C10 UNL     1     -38.475  -3.044  -1.397  1.00  0.00     0.001 C 
HETATM   21  C11 UNL     1     -37.662  -3.161  -0.099  1.00  0.00     0.000 C 
HETATM   22  C12 UNL     1     -38.646  -3.520   0.984  1.00  0.00     0.001 C 
HETATM   23  C13 UNL     1     -39.659  -2.432   1.157  1.00  0.00     0.015 C 
ENDBRANCH  17  18
ENDBRANCH  16  17
ENDBRANCH   8  14
BRANCH  10  24
HETATM   24  C14 UNL     1     -41.989  -1.156   3.602  1.00  0.00     0.197 C 
BRANCH  24  25
HETATM   25  C15 UNL     1     -40.948  -1.330   4.663  1.00  0.00     0.204 C 
HETATM   26 CL1  UNL     1     -41.716  -0.985   6.250  1.00  0.00    -0.082 Cl
HETATM   27 CL2  UNL     1     -40.330  -3.002   4.720  1.00  0.00    -0.082 Cl
HETATM   28 CL3  UNL     1     -39.563  -0.254   4.459  1.00  0.00    -0.082 Cl
ENDBRANCH  24  25
ENDBRANCH  10  24
TORSDOF 5
ENDMDL
MODEL 2
REMARK VINA RESULT: -7.704017635      3.812      5.786
REMARK  5 active torsions:
REMARK  status: ('A' for Active; 'I' for Inactive)
REMARK       I    between atoms: N2_6  and  C5_7 
REMARK       I    between atoms: C5_7  and  N5_20 
REMARK    1  A    between atoms: N3_8  and  C6_10 
REMARK    2  A    between atoms: C7_12  and  S1_13 
REMARK    3  A    between atoms: S1_13  and  C8_14 
REMARK    4  A    between atoms: N5_20  and  C14_22 
REMARK    5  A    between atoms: C14_22  and  C15_23 
ROOT
HETATM    1  N1  UNL     1     -40.163  -4.706  10.998  1.00  0.00    -0.197 NA
HETATM    2  C1  UNL     1     -39.551  -4.682  10.024  1.00  0.00     0.064 C 
HETATM    3  C2  UNL     1     -38.771  -4.631   8.757  1.00  0.00     0.096 C 
HETATM    4  C3  UNL     1     -39.549  -5.357   7.718  1.00  0.00     0.039 C 
HETATM    5  C4  UNL     1     -38.831  -5.094   6.377  1.00  0.00     0.142 C 
HETATM    6  N2  UNL     1     -39.070  -3.696   6.150  1.00  0.00    -0.218 N 
HETATM    7  C5  UNL     1     -39.719  -3.282   4.930  1.00  0.00     0.677 C 
HETATM    8  N3  UNL     1     -39.067  -3.458   3.895  1.00  0.00    -0.179 N 
ATOM      9  H3  UNL     1     -38.168  -3.876   4.131  1.00  0.00     0.185 HD
HETATM   10  N5  UNL     1     -41.046  -2.744   5.095  1.00  0.00    -0.222 N 
ATOM     11  H5  UNL     1     -41.190  -1.828   5.518  1.00  0.00     0.177 HD
HETATM   12  C16 UNL     1     -38.700  -2.701   7.111  1.00  0.00     0.142 C 
HETATM   13  C17 UNL     1     -38.318  -3.265   8.440  1.00  0.00     0.039 C 
ENDROOT
BRANCH   8  14
HETATM   14  C6  UNL     1     -39.137  -3.292   2.613  1.00  0.00     0.138 C 
HETATM   15  N4  UNL     1     -37.507  -3.674   2.562  1.00  0.00    -0.082 NA
HETATM   16  C7  UNL     1     -39.209  -3.112   1.223  1.00  0.00     0.091 C 
BRANCH  16  17
HETATM   17  S1  UNL     1     -40.635  -1.980   0.850  1.00  0.00    -0.133 SA
BRANCH  17  18
HETATM   18  C8  UNL     1     -40.351  -1.425  -0.873  1.00  0.00     0.052 C 
HETATM   19  C9  UNL     1     -41.632  -1.603  -1.650  1.00  0.00     0.015 C 
HETATM   20  C10 UNL     1     -41.837  -3.088  -1.931  1.00  0.00     0.001 C 
HETATM   21  C11 UNL     1     -40.669  -3.467  -2.853  1.00  0.00     0.000 C 
HETATM   22  C12 UNL     1     -39.437  -3.487  -1.987  1.00  0.00     0.001 C 
HETATM   23  C13 UNL     1     -39.170  -2.127  -1.421  1.00  0.00     0.015 C 
ENDBRANCH  17  18
ENDBRANCH  16  17
ENDBRANCH   8  14
BRANCH  10  24
HETATM   24  C14 UNL     1     -42.163  -3.537   4.645  1.00  0.00     0.197 C 
BRANCH  24  25
HETATM   25  C15 UNL     1     -43.377  -2.744   4.278  1.00  0.00     0.204 C 
HETATM   26 CL1  UNL     1     -44.787  -3.478   5.116  1.00  0.00    -0.082 Cl
HETATM   27 CL2  UNL     1     -43.254  -1.050   4.822  1.00  0.00    -0.082 Cl
HETATM   28 CL3  UNL     1     -43.697  -2.727   2.542  1.00  0.00    -0.082 Cl
ENDBRANCH  24  25
ENDBRANCH  10  24
TORSDOF 5
ENDMDL
MODEL 3
REMARK VINA RESULT: -7.538035595      1.943      2.466
REMARK  5 active torsions:
REMARK  status: ('A' for Active; 'I' for Inactive)
REMARK       I    between atoms: N2_6  and  C5_7 
REMARK       I    between atoms: C5_7  and  N5_20 
REMARK    1  A    between atoms: N3_8  and  C6_10 
REMARK    2  A    between atoms: C7_12  and  S1_13 
REMARK    3  A    between atoms: S1_13  and  C8_14 
REMARK    4  A    between atoms: N5_20  and  C14_22 
REMARK    5  A    between atoms: C14_22  and  C15_23 
ROOT
HETATM    1  N1  UNL     1     -42.716  -2.270   9.438  1.00  0.00    -0.197 NA
HETATM    2  C1  UNL     1     -43.350  -1.991   8.519  1.00  0.00     0.064 C 
HETATM    3  C2  UNL     1     -44.160  -1.650   7.317  1.00  0.00     0.096 C 
HETATM    4  C3  UNL     1     -43.291  -0.877   6.390  1.00  0.00     0.039 C 
HETATM    5  C4  UNL     1     -44.084  -0.737   5.072  1.00  0.00     0.142 C 
HETATM    6  N2  UNL     1     -44.112  -2.081   4.566  1.00  0.00    -0.218 N 
HETATM    7  C5  UNL     1     -43.585  -2.349   3.250  1.00  0.00     0.677 C 
HETATM    8  N3  UNL     1     -44.222  -1.858   2.312  1.00  0.00    -0.179 N 
ATOM      9  H3  UNL     1     -45.022  -1.344   2.681  1.00  0.00     0.185 HD
HETATM   10  N5  UNL     1     -42.376  -3.132   3.224  1.00  0.00    -0.222 N 
ATOM     11  H5  UNL     1     -42.390  -4.126   3.453  1.00  0.00     0.177 HD
HETATM   12  C16 UNL     1     -44.632  -3.167   5.340  1.00  0.00     0.142 C 
HETATM   13  C17 UNL     1     -44.865  -2.824   6.774  1.00  0.00     0.039 C 
ENDROOT
BRANCH   8  14
HETATM   14  C6  UNL     1     -44.220  -1.774   1.021  1.00  0.00     0.138 C 
HETATM   15  N4  UNL     1     -45.709  -1.019   1.154  1.00  0.00    -0.082 NA
HETATM   16  C7  UNL     1     -44.221  -1.681  -0.380  1.00  0.00     0.091 C 
BRANCH  16  17
HETATM   17  S1  UNL     1     -43.120  -3.015  -1.058  1.00  0.00    -0.133 SA
BRANCH  17  18
HETATM   18  C8  UNL     1     -41.919  -2.131  -2.123  1.00  0.00     0.052 C 
HETATM   19  C9  UNL     1     -41.073  -3.153  -2.841  1.00  0.00     0.015 C 
HETATM   20  C10 UNL     1     -40.082  -3.758  -1.853  1.00  0.00     0.001 C 
HETATM   21  C11 UNL     1     -39.172  -2.585  -1.458  1.00  0.00     0.000 C 
HETATM   22  C12 UNL     1     -39.994  -1.696  -0.563  1.00  0.00     0.001 C 
HETATM   23  C13 UNL     1     -41.174  -1.149  -1.304  1.00  0.00     0.015 C 
ENDBRANCH  17  18
ENDBRANCH  16  17
ENDBRANCH   8  14
BRANCH  10  24
HETATM   24  C14 UNL     1     -41.145  -2.473   2.864  1.00  0.00     0.197 C 
BRANCH  24  25
HETATM   25  C15 UNL     1     -40.155  -2.357   3.980  1.00  0.00     0.204 C 
HETATM   26 CL1  UNL     1     -38.614  -3.098   3.429  1.00  0.00    -0.082 Cl
HETATM   27 CL2  UNL     1     -39.812  -0.654   4.389  1.00  0.00    -0.082 Cl
HETATM   28 CL3  UNL     1     -40.676  -3.168   5.459  1.00  0.00    -0.082 Cl
ENDBRANCH  24  25
ENDBRANCH  10  24
TORSDOF 5
ENDMDL
MODEL 4
REMARK VINA RESULT: -7.460736035      1.215      1.579
REMARK  5 active torsions:
REMARK  status: ('A' for Active; 'I' for Inactive)
REMARK       I    between atoms: N2_6  and  C5_7 
REMARK       I    between atoms: C5_7  and  N5_20 
REMARK    1  A    between atoms: N3_8  and  C6_10 
REMARK    2  A    between atoms: C7_12  and  S1_13 
REMARK    3  A    between atoms: S1_13  and  C8_14 
REMARK    4  A    between atoms: N5_20  and  C14_22 
REMARK    5  A    between atoms: C14_22  and  C15_23 
ROOT
HETATM    1  N1  UNL     1     -46.406  -1.201   9.299  1.00  0.00    -0.197 NA
HETATM    2  C1  UNL     1     -46.697  -1.208   8.186  1.00  0.00     0.064 C 
HETATM    3  C2  UNL     1     -47.055  -1.233   6.741  1.00  0.00     0.096 C 
HETATM    4  C3  UNL     1     -46.175  -0.260   6.040  1.00  0.00     0.039 C 
HETATM    5  C4  UNL     1     -46.414  -0.473   4.529  1.00  0.00     0.142 C 
HETATM    6  N2  UNL     1     -45.844  -1.770   4.292  1.00  0.00    -0.218 N 
HETATM    7  C5  UNL     1     -44.806  -1.912   3.301  1.00  0.00     0.677 C 
HETATM    8  N3  UNL     1     -45.156  -1.723   2.131  1.00  0.00    -0.179 N 
ATOM      9  H3  UNL     1     -46.150  -1.497   2.110  1.00  0.00     0.185 HD
HETATM   10  N5  UNL     1     -43.501  -2.231   3.824  1.00  0.00    -0.222 N 
ATOM     11  H5  UNL     1     -43.302  -3.155   4.208  1.00  0.00     0.177 HD
HETATM   12  C16 UNL     1     -46.266  -2.925   5.024  1.00  0.00     0.142 C 
HETATM   13  C17 UNL     1     -47.116  -2.605   6.210  1.00  0.00     0.039 C 
ENDROOT
BRANCH   8  14
HETATM   14  C6  UNL     1     -44.692  -1.713   0.923  1.00  0.00     0.138 C 
HETATM   15  N4  UNL     1     -46.263  -1.434   0.414  1.00  0.00    -0.082 NA
HETATM   16  C7  UNL     1     -44.191  -1.703  -0.388  1.00  0.00     0.091 C 
BRANCH  16  17
HETATM   17  S1  UNL     1     -42.612  -2.681  -0.422  1.00  0.00    -0.133 SA
BRANCH  17  18
HETATM   18  C8  UNL     1     -41.676  -2.005  -1.845  1.00  0.00     0.052 C 
HETATM   19  C9  UNL     1     -41.194  -3.157  -2.693  1.00  0.00     0.015 C 
HETATM   20  C10 UNL     1     -40.036  -3.845  -1.979  1.00  0.00     0.001 C 
HETATM   21  C11 UNL     1     -38.925  -2.785  -1.946  1.00  0.00     0.000 C 
HETATM   22  C12 UNL     1     -39.348  -1.761  -0.927  1.00  0.00     0.001 C 
HETATM   23  C13 UNL     1     -40.622  -1.096  -1.345  1.00  0.00     0.015 C 
ENDBRANCH  17  18
ENDBRANCH  16  17
ENDBRANCH   8  14
BRANCH  10  24
HETATM   24  C14 UNL     1     -42.485  -1.209   3.790  1.00  0.00     0.197 C 
BRANCH  24  25
HETATM   25  C15 UNL     1     -41.093  -1.712   4.007  1.00  0.00     0.204 C 
HETATM   26 CL1  UNL     1     -40.155  -0.407   4.812  1.00  0.00    -0.082 Cl
HETATM   27 CL2  UNL     1     -41.060  -3.135   5.083  1.00  0.00    -0.082 Cl
HETATM   28 CL3  UNL     1     -40.272  -2.156   2.508  1.00  0.00    -0.082 Cl
ENDBRANCH  24  25
ENDBRANCH  10  24
TORSDOF 5
ENDMDL
MODEL 5
REMARK VINA RESULT: -7.451904066      1.220      1.593
REMARK  5 active torsions:
REMARK  status: ('A' for Active; 'I' for Inactive)
REMARK       I    between atoms: N2_6  and  C5_7 
REMARK       I    between atoms: C5_7  and  N5_20 
REMARK    1  A    between atoms: N3_8  and  C6_10 
REMARK    2  A    between atoms: C7_12  and  S1_13 
REMARK    3  A    between atoms: S1_13  and  C8_14 
REMARK    4  A    between atoms: N5_20  and  C14_22 
REMARK    5  A    between atoms: C14_22  and  C15_23 
ROOT
HETATM    1  N1  UNL     1     -46.481  -1.211   9.315  1.00  0.00    -0.197 NA
HETATM    2  C1  UNL     1     -46.766  -1.229   8.201  1.00  0.00     0.064 C 
HETATM    3  C2  UNL     1     -47.117  -1.267   6.754  1.00  0.00     0.096 C 
HETATM    4  C3  UNL     1     -46.256  -0.278   6.053  1.00  0.00     0.039 C 
HETATM    5  C4  UNL     1     -46.482  -0.501   4.542  1.00  0.00     0.142 C 
HETATM    6  N2  UNL     1     -45.883  -1.786   4.312  1.00  0.00    -0.218 N 
HETATM    7  C5  UNL     1     -44.836  -1.909   3.327  1.00  0.00     0.677 C 
HETATM    8  N3  UNL     1     -45.185  -1.731   2.155  1.00  0.00    -0.179 N 
ATOM      9  H3  UNL     1     -46.184  -1.528   2.129  1.00  0.00     0.185 HD
HETATM   10  N5  UNL     1     -43.528  -2.197   3.858  1.00  0.00    -0.222 N 
ATOM     11  H5  UNL     1     -43.310  -3.114   4.246  1.00  0.00     0.177 HD
HETATM   12  C16 UNL     1     -46.282  -2.948   5.047  1.00  0.00     0.142 C 
HETATM   13  C17 UNL     1     -47.144  -2.643   6.227  1.00  0.00     0.039 C 
ENDROOT
BRANCH   8  14
HETATM   14  C6  UNL     1     -44.715  -1.716   0.949  1.00  0.00     0.138 C 
HETATM   15  N4  UNL     1     -46.288  -1.463   0.432  1.00  0.00    -0.082 NA
HETATM   16  C7  UNL     1     -44.209  -1.699  -0.360  1.00  0.00     0.091 C 
BRANCH  16  17
HETATM   17  S1  UNL     1     -42.614  -2.652  -0.385  1.00  0.00    -0.133 SA
BRANCH  17  18
HETATM   18  C8  UNL     1     -41.685  -1.966  -1.808  1.00  0.00     0.052 C 
HETATM   19  C9  UNL     1     -41.207  -3.113  -2.665  1.00  0.00     0.015 C 
HETATM   20  C10 UNL     1     -40.046  -3.806  -1.961  1.00  0.00     0.001 C 
HETATM   21  C11 UNL     1     -38.934  -2.746  -1.927  1.00  0.00     0.000 C 
HETATM   22  C12 UNL     1     -39.352  -1.729  -0.898  1.00  0.00     0.001 C 
HETATM   23  C13 UNL     1     -40.627  -1.061  -1.307  1.00  0.00     0.015 C 
ENDBRANCH  17  18
ENDBRANCH  16  17
ENDBRANCH   8  14
BRANCH  10  24
HETATM   24  C14 UNL     1     -42.534  -1.152   3.825  1.00  0.00     0.197 C 
BRANCH  24  25
HETATM   25  C15 UNL     1     -41.128  -1.629   4.012  1.00  0.00     0.204 C 
HETATM   26 CL1  UNL     1     -41.192  -3.214   4.856  1.00  0.00    -0.082 Cl
HETATM   27 CL2  UNL     1     -40.300  -1.887   2.453  1.00  0.00    -0.082 Cl
HETATM   28 CL3  UNL     1     -40.139  -0.519   4.965  1.00  0.00    -0.082 Cl
ENDBRANCH  24  25
ENDBRANCH  10  24
TORSDOF 5
ENDMDL
