MODEL 1
REMARK VINA RESULT: -7.919274502      0.000      0.000
REMARK  5 active torsions:
REMARK  status: ('A' for Active; 'I' for Inactive)
REMARK    1  A    between atoms: C2_2  and  O1_4 
REMARK    2  A    between atoms: O1_4  and  C4_5 
REMARK    3  A    between atoms: C4_5  and  C5_7 
REMARK    4  A    between atoms: C6_8  and  C7_9 
REMARK    5  A    between atoms: C7_9  and  C8_10 
ROOT
HETATM    1  C5  UNL     1     -41.046  -2.105   1.239  1.00  0.00     0.075 A 
HETATM    2  C6  UNL     1     -41.114  -1.964  -0.128  1.00  0.00     0.037 A 
HETATM    3  N1  UNL     1     -42.421  -1.784  -0.485  1.00  0.00    -0.356 N 
ATOM      4  H1  UNL     1     -42.751  -1.653  -1.440  1.00  0.00     0.166 HD
HETATM    5  C9  UNL     1     -43.207  -1.805   0.606  1.00  0.00     0.061 A 
HETATM    6  C10 UNL     1     -44.576  -1.673   0.802  1.00  0.00     0.039 A 
HETATM    7 BR1  UNL     1     -45.680  -1.402  -0.703  1.00  0.00    -0.049 Br
HETATM    8  C11 UNL     1     -45.104  -1.741   2.091  1.00  0.00     0.040 A 
HETATM    9  C12 UNL     1     -44.282  -1.940   3.176  1.00  0.00     0.013 A 
HETATM   10 BR2  UNL     1     -44.899  -2.047   4.958  1.00  0.00    -0.051 Br
HETATM   11  C13 UNL     1     -42.907  -2.070   2.953  1.00  0.00     0.034 A 
HETATM   12  C14 UNL     1     -42.369  -2.004   1.685  1.00  0.00     0.011 A 
ENDROOT
BRANCH   1  13
HETATM   13  C4  UNL     1     -39.896  -2.313   2.104  1.00  0.00     0.296 C 
HETATM   14  O2  UNL     1     -39.557  -1.488   2.980  1.00  0.00    -0.259 OA
BRANCH  13  15
HETATM   15  O1  UNL     1     -39.117  -3.448   1.991  1.00  0.00    -0.313 OA
BRANCH  15  16
HETATM   16  C2  UNL     1     -37.746  -3.378   2.048  1.00  0.00     0.124 C 
HETATM   17  C1  UNL     1     -37.175  -4.644   2.668  1.00  0.00     0.040 C 
HETATM   18  C3  UNL     1     -37.048  -3.180   0.730  1.00  0.00     0.040 C 
ENDBRANCH  15  16
ENDBRANCH  13  15
ENDBRANCH   1  13
BRANCH   2  19
HETATM   19  C7  UNL     1     -39.978  -2.000  -1.072  1.00  0.00     0.171 C 
BRANCH  19  20
HETATM   20  C8  UNL     1     -40.038  -3.162  -1.985  1.00  0.00     0.178 C 
HETATM   21  O3  UNL     1     -39.070  -3.961  -2.031  1.00  0.00    -0.648 OA
HETATM   22  O4  UNL     1     -41.128  -3.408  -2.799  1.00  0.00    -0.648 OA
ENDBRANCH  19  20
ENDBRANCH   2  19
TORSDOF 5
ENDMDL
MODEL 2
REMARK VINA RESULT: -7.843009939      2.447      4.194
REMARK  5 active torsions:
REMARK  status: ('A' for Active; 'I' for Inactive)
REMARK    1  A    between atoms: C2_2  and  O1_4 
REMARK    2  A    between atoms: O1_4  and  C4_5 
REMARK    3  A    between atoms: C4_5  and  C5_7 
REMARK    4  A    between atoms: C6_8  and  C7_9 
REMARK    5  A    between atoms: C7_9  and  C8_10 
ROOT
HETATM    1  C5  UNL     1     -40.925  -1.993   1.781  1.00  0.00     0.075 A 
HETATM    2  C6  UNL     1     -39.689  -2.461   1.403  1.00  0.00     0.037 A 
HETATM    3  N1  UNL     1     -39.751  -2.855   0.096  1.00  0.00    -0.356 N 
ATOM      4  H1  UNL     1     -38.971  -3.242  -0.434  1.00  0.00     0.166 HD
HETATM    5  C9  UNL     1     -40.990  -2.658  -0.390  1.00  0.00     0.061 A 
HETATM    6  C10 UNL     1     -41.579  -2.881  -1.628  1.00  0.00     0.039 A 
HETATM    7 BR1  UNL     1     -40.525  -3.613  -3.010  1.00  0.00    -0.049 Br
HETATM    8  C11 UNL     1     -42.923  -2.563  -1.825  1.00  0.00     0.040 A 
HETATM    9  C12 UNL     1     -43.675  -2.030  -0.805  1.00  0.00     0.013 A 
HETATM   10 BR2  UNL     1     -45.499  -1.568  -0.973  1.00  0.00    -0.051 Br
HETATM   11  C13 UNL     1     -43.059  -1.815   0.432  1.00  0.00     0.034 A 
HETATM   12  C14 UNL     1     -41.731  -2.124   0.644  1.00  0.00     0.011 A 
ENDROOT
BRANCH   1  13
HETATM   13  C4  UNL     1     -41.376  -1.458   3.056  1.00  0.00     0.296 C 
HETATM   14  O2  UNL     1     -41.575  -0.238   3.241  1.00  0.00    -0.259 OA
BRANCH  13  15
HETATM   15  O1  UNL     1     -41.605  -2.291   4.134  1.00  0.00    -0.313 OA
BRANCH  15  16
HETATM   16  C2  UNL     1     -42.362  -3.431   4.004  1.00  0.00     0.124 C 
HETATM   17  C1  UNL     1     -41.604  -4.636   4.539  1.00  0.00     0.040 C 
HETATM   18  C3  UNL     1     -43.697  -3.408   4.695  1.00  0.00     0.040 C 
ENDBRANCH  15  16
ENDBRANCH  13  15
ENDBRANCH   1  13
BRANCH   2  19
HETATM   19  C7  UNL     1     -38.482  -2.539   2.252  1.00  0.00     0.171 C 
BRANCH  19  20
HETATM   20  C8  UNL     1     -37.411  -3.355   1.640  1.00  0.00     0.178 C 
HETATM   21  O3  UNL     1     -37.037  -4.410   2.211  1.00  0.00    -0.648 OA
HETATM   22  O4  UNL     1     -36.799  -3.002   0.452  1.00  0.00    -0.648 OA
ENDBRANCH  19  20
ENDBRANCH   2  19
TORSDOF 5
ENDMDL
MODEL 3
REMARK VINA RESULT: -7.794253463      2.845      5.208
REMARK  5 active torsions:
REMARK  status: ('A' for Active; 'I' for Inactive)
REMARK    1  A    between atoms: C2_2  and  O1_4 
REMARK    2  A    between atoms: O1_4  and  C4_5 
REMARK    3  A    between atoms: C4_5  and  C5_7 
REMARK    4  A    between atoms: C6_8  and  C7_9 
REMARK    5  A    between atoms: C7_9  and  C8_10 
ROOT
HETATM    1  C5  UNL     1     -41.150  -2.709  -1.005  1.00  0.00     0.075 A 
HETATM    2  C6  UNL     1     -40.177  -3.417  -1.670  1.00  0.00     0.037 A 
HETATM    3  N1  UNL     1     -39.128  -3.623  -0.820  1.00  0.00    -0.356 N 
ATOM      4  H1  UNL     1     -38.272  -4.123  -1.061  1.00  0.00     0.166 HD
HETATM    5  C9  UNL     1     -39.385  -3.071   0.379  1.00  0.00     0.061 A 
HETATM    6  C10 UNL     1     -38.674  -2.992   1.569  1.00  0.00     0.039 A 
HETATM    7 BR1  UNL     1     -36.967  -3.790   1.655  1.00  0.00    -0.049 Br
HETATM    8  C11 UNL     1     -39.227  -2.334   2.667  1.00  0.00     0.040 A 
HETATM    9  C12 UNL     1     -40.473  -1.758   2.586  1.00  0.00     0.013 A 
HETATM   10 BR2  UNL     1     -41.307  -0.845   4.014  1.00  0.00    -0.051 Br
HETATM   11  C13 UNL     1     -41.170  -1.851   1.376  1.00  0.00     0.034 A 
HETATM   12  C14 UNL     1     -40.637  -2.499   0.281  1.00  0.00     0.011 A 
ENDROOT
BRANCH   1  13
HETATM   13  C4  UNL     1     -42.452  -2.246  -1.461  1.00  0.00     0.296 C 
HETATM   14  O2  UNL     1     -42.596  -1.563  -2.497  1.00  0.00    -0.259 OA
BRANCH  13  15
HETATM   15  O1  UNL     1     -43.600  -2.547  -0.755  1.00  0.00    -0.313 OA
BRANCH  15  16
HETATM   16  C2  UNL     1     -44.446  -1.556  -0.318  1.00  0.00     0.124 C 
HETATM   17  C1  UNL     1     -45.787  -1.650  -1.030  1.00  0.00     0.040 C 
HETATM   18  C3  UNL     1     -44.731  -1.548   1.159  1.00  0.00     0.040 C 
ENDBRANCH  15  16
ENDBRANCH  13  15
ENDBRANCH   1  13
BRANCH   2  19
HETATM   19  C7  UNL     1     -40.234  -3.883  -3.071  1.00  0.00     0.171 C 
BRANCH  19  20
HETATM   20  C8  UNL     1     -38.894  -3.982  -3.689  1.00  0.00     0.178 C 
HETATM   21  O3  UNL     1     -38.010  -3.144  -3.382  1.00  0.00    -0.648 OA
HETATM   22  O4  UNL     1     -38.570  -4.970  -4.600  1.00  0.00    -0.648 OA
ENDBRANCH  19  20
ENDBRANCH   2  19
TORSDOF 5
ENDMDL
MODEL 4
REMARK VINA RESULT: -7.766341170      3.106      5.390
REMARK  5 active torsions:
REMARK  status: ('A' for Active; 'I' for Inactive)
REMARK    1  A    between atoms: C2_2  and  O1_4 
REMARK    2  A    between atoms: O1_4  and  C4_5 
REMARK    3  A    between atoms: C4_5  and  C5_7 
REMARK    4  A    between atoms: C6_8  and  C7_9 
REMARK    5  A    between atoms: C7_9  and  C8_10 
ROOT
HETATM    1  C5  UNL     1     -38.924  -3.173   1.185  1.00  0.00     0.075 A 
HETATM    2  C6  UNL     1     -40.083  -2.467   1.407  1.00  0.00     0.037 A 
HETATM    3  N1  UNL     1     -40.431  -2.602   2.722  1.00  0.00    -0.356 N 
ATOM      4  H1  UNL     1     -41.252  -2.178   3.154  1.00  0.00     0.166 HD
HETATM    5  C9  UNL     1     -39.536  -3.374   3.363  1.00  0.00     0.061 A 
HETATM    6  C10 UNL     1     -39.419  -3.817   4.674  1.00  0.00     0.039 A 
HETATM    7 BR1  UNL     1     -40.731  -3.294   5.924  1.00  0.00    -0.049 Br
HETATM    8  C11 UNL     1     -38.346  -4.629   5.040  1.00  0.00     0.040 A 
HETATM    9  C12 UNL     1     -37.399  -5.000   4.115  1.00  0.00     0.013 A 
HETATM   10 BR2  UNL     1     -35.912  -6.096   4.511  1.00  0.00    -0.051 Br
HETATM   11  C13 UNL     1     -37.539  -4.542   2.801  1.00  0.00     0.034 A 
HETATM   12  C14 UNL     1     -38.594  -3.738   2.422  1.00  0.00     0.011 A 
ENDROOT
BRANCH   1  13
HETATM   13  C4  UNL     1     -38.148  -3.342  -0.034  1.00  0.00     0.296 C 
HETATM   14  O2  UNL     1     -36.978  -2.920  -0.150  1.00  0.00    -0.259 OA
BRANCH  13  15
HETATM   15  O1  UNL     1     -38.684  -3.985  -1.133  1.00  0.00    -0.313 OA
BRANCH  15  16
HETATM   16  C2  UNL     1     -39.072  -3.283  -2.249  1.00  0.00     0.124 C 
HETATM   17  C1  UNL     1     -38.067  -3.476  -3.374  1.00  0.00     0.040 C 
HETATM   18  C3  UNL     1     -40.426  -3.634  -2.801  1.00  0.00     0.040 C 
ENDBRANCH  15  16
ENDBRANCH  13  15
ENDBRANCH   1  13
BRANCH   2  19
HETATM   19  C7  UNL     1     -40.844  -1.690   0.407  1.00  0.00     0.171 C 
BRANCH  19  20
HETATM   20  C8  UNL     1     -42.233  -2.173   0.253  1.00  0.00     0.178 C 
HETATM   21  O3  UNL     1     -42.815  -2.033  -0.852  1.00  0.00    -0.648 OA
HETATM   22  O4  UNL     1     -42.925  -2.779   1.285  1.00  0.00    -0.648 OA
ENDBRANCH  19  20
ENDBRANCH   2  19
TORSDOF 5
ENDMDL
MODEL 5
REMARK VINA RESULT: -7.678992618      2.465      4.549
REMARK  5 active torsions:
REMARK  status: ('A' for Active; 'I' for Inactive)
REMARK    1  A    between atoms: C2_2  and  O1_4 
REMARK    2  A    between atoms: O1_4  and  C4_5 
REMARK    3  A    between atoms: C4_5  and  C5_7 
REMARK    4  A    between atoms: C6_8  and  C7_9 
REMARK    5  A    between atoms: C7_9  and  C8_10 
ROOT
HETATM    1  C5  UNL     1     -41.354  -1.870   2.047  1.00  0.00     0.075 A 
HETATM    2  C6  UNL     1     -42.535  -1.388   2.560  1.00  0.00     0.037 A 
HETATM    3  N1  UNL     1     -43.479  -1.401   1.573  1.00  0.00    -0.356 N 
ATOM      4  H1  UNL     1     -44.445  -1.095   1.686  1.00  0.00     0.166 HD
HETATM    5  C9  UNL     1     -42.951  -1.877   0.431  1.00  0.00     0.061 A 
HETATM    6  C10 UNL     1     -43.461  -2.096  -0.842  1.00  0.00     0.039 A 
HETATM    7 BR1  UNL     1     -45.270  -1.676  -1.173  1.00  0.00    -0.049 Br
HETATM    8  C11 UNL     1     -42.639  -2.615  -1.841  1.00  0.00     0.040 A 
HETATM    9  C12 UNL     1     -41.322  -2.914  -1.581  1.00  0.00     0.013 A 
HETATM   10 BR2  UNL     1     -40.129  -3.620  -2.865  1.00  0.00    -0.051 Br
HETATM   11  C13 UNL     1     -40.831  -2.686  -0.291  1.00  0.00     0.034 A 
HETATM   12  C14 UNL     1     -41.631  -2.173   0.708  1.00  0.00     0.011 A 
ENDROOT
BRANCH   1  13
HETATM   13  C4  UNL     1     -40.061  -2.061   2.686  1.00  0.00     0.296 C 
HETATM   14  O2  UNL     1     -39.508  -1.167   3.362  1.00  0.00    -0.259 OA
BRANCH  13  15
HETATM   15  O1  UNL     1     -39.380  -3.256   2.568  1.00  0.00    -0.313 OA
BRANCH  15  16
HETATM   16  C2  UNL     1     -38.010  -3.286   2.456  1.00  0.00     0.124 C 
HETATM   17  C1  UNL     1     -37.463  -4.605   2.979  1.00  0.00     0.040 C 
HETATM   18  C3  UNL     1     -37.467  -3.104   1.065  1.00  0.00     0.040 C 
ENDBRANCH  15  16
ENDBRANCH  13  15
ENDBRANCH   1  13
BRANCH   2  19
HETATM   19  C7  UNL     1     -42.766  -0.923   3.944  1.00  0.00     0.171 C 
BRANCH  19  20
HETATM   20  C8  UNL     1     -44.142  -1.198   4.411  1.00  0.00     0.178 C 
HETATM   21  O3  UNL     1     -44.744  -0.334   5.096  1.00  0.00    -0.648 OA
HETATM   22  O4  UNL     1     -44.800  -2.378   4.121  1.00  0.00    -0.648 OA
ENDBRANCH  19  20
ENDBRANCH   2  19
TORSDOF 5
ENDMDL
