MODEL 1
REMARK VINA RESULT: -7.020574734      0.000      0.000
REMARK  13 active torsions:
REMARK  status: ('A' for Active; 'I' for Inactive)
REMARK    1  A    between atoms: O1_2  and  C2_3 
REMARK    2  A    between atoms: C2_3  and  C3_5 
REMARK    3  A    between atoms: C4_6  and  C5_7 
REMARK    4  A    between atoms: C5_7  and  O3_8 
REMARK    5  A    between atoms: C5_7  and  C6_10 
REMARK    6  A    between atoms: C5_7  and  C15_22 
REMARK    7  A    between atoms: C8_12  and  O4_13 
REMARK    8  A    between atoms: C10_15  and  O5_16 
REMARK    9  A    between atoms: C12_18  and  O6_19 
REMARK   10  A    between atoms: C21_31  and  C22_32 
REMARK   11  A    between atoms: C24_34  and  O8_35 
REMARK   12  A    between atoms: C26_37  and  O9_38 
REMARK   13  A    between atoms: C28_40  and  O10_41 
ROOT
HETATM    1  C3  UNL     1       7.747   6.748  12.581  1.00  0.00     0.104 A 
HETATM    2  C4  UNL     1       7.803   7.742  13.494  1.00  0.00     0.091 A 
HETATM    3  N1  UNL     1       7.403   7.092  14.665  1.00  0.00    -0.260 N 
ATOM      4  H1  UNL     1       7.332   7.561  15.568  1.00  0.00     0.194 HD
HETATM    5  O7  UNL     1       7.146   5.904  14.502  1.00  0.00    -0.236 OA
HETATM    6  C21 UNL     1       7.330   5.583  13.223  1.00  0.00     0.127 A 
ENDROOT
BRANCH   2   7
HETATM    7  C5  UNL     1       8.137   9.131  13.609  1.00  0.00     0.134 C 
BRANCH   7   8
HETATM    8  O3  UNL     1       7.647   9.434  14.979  1.00  0.00    -0.378 OA
ATOM      9  H3  UNL     1       7.351  10.331  14.877  1.00  0.00     0.211 HD
ENDBRANCH   7   8
BRANCH   7  10
HETATM   10  C6  UNL     1       9.626   9.312  13.815  1.00  0.00    -0.012 A 
HETATM   11  C7  UNL     1      10.199   9.210  15.067  1.00  0.00     0.050 A 
HETATM   12  C8  UNL     1      11.551   9.347  15.252  1.00  0.00     0.104 A 
HETATM   13  C10 UNL     1      12.338   9.589  14.145  1.00  0.00     0.135 A 
HETATM   14  C12 UNL     1      11.813   9.699  12.878  1.00  0.00     0.104 A 
HETATM   15  C14 UNL     1      10.455   9.558  12.734  1.00  0.00     0.050 A 
BRANCH  12  16
HETATM   16  O4  UNL     1      12.206   9.266  16.466  1.00  0.00    -0.353 OA
HETATM   17  C9  UNL     1      11.621   9.712  17.657  1.00  0.00     0.210 C 
ENDBRANCH  12  16
BRANCH  13  18
HETATM   18  O5  UNL     1      13.722   9.730  14.305  1.00  0.00    -0.351 OA
HETATM   19  C11 UNL     1      14.242  11.036  14.358  1.00  0.00     0.210 C 
ENDBRANCH  13  18
BRANCH  14  20
HETATM   20  O6  UNL     1      12.696   9.937  11.856  1.00  0.00    -0.353 OA
HETATM   21  C13 UNL     1      12.398   9.621  10.493  1.00  0.00     0.210 C 
ENDBRANCH  14  20
ENDBRANCH   7  10
BRANCH   7  22
HETATM   22  C15 UNL     1       7.708  10.232  12.763  1.00  0.00     0.031 C 
HETATM   23  C16 UNL     1       6.475  10.045  11.976  1.00  0.00     0.008 C 
HETATM   24  C17 UNL     1       6.339  11.091  10.862  1.00  0.00     0.001 C 
HETATM   25  C18 UNL     1       6.254  12.426  11.605  1.00  0.00     0.000 C 
HETATM   26  C19 UNL     1       7.470  12.646  12.422  1.00  0.00     0.001 C 
HETATM   27  C20 UNL     1       7.573  11.575  13.511  1.00  0.00     0.008 C 
ENDBRANCH   7  22
ENDBRANCH   2   7
BRANCH   1  28
HETATM   28  C2  UNL     1       8.085   6.806  11.201  1.00  0.00     0.298 C 
HETATM   29  O2  UNL     1       9.323   6.723  10.875  1.00  0.00    -0.259 OA
BRANCH  28  30
HETATM   30  O1  UNL     1       7.209   6.952  10.130  1.00  0.00    -0.322 OA
HETATM   31  C1  UNL     1       7.370   6.206   8.948  1.00  0.00     0.213 C 
ENDBRANCH  28  30
ENDBRANCH   1  28
BRANCH   6  32
HETATM   32  C22 UNL     1       7.103   4.222  12.750  1.00  0.00     0.006 A 
HETATM   33  C23 UNL     1       6.467   3.850  11.612  1.00  0.00     0.054 A 
HETATM   34  C24 UNL     1       6.325   2.522  11.169  1.00  0.00     0.105 A 
HETATM   35  C26 UNL     1       6.864   1.495  11.927  1.00  0.00     0.135 A 
HETATM   36  C28 UNL     1       7.509   1.851  13.076  1.00  0.00     0.105 A 
HETATM   37  C30 UNL     1       7.644   3.153  13.503  1.00  0.00     0.054 A 
BRANCH  34  38
HETATM   38  O8  UNL     1       5.678   2.182  10.021  1.00  0.00    -0.353 OA
HETATM   39  C25 UNL     1       6.065   2.353   8.705  1.00  0.00     0.210 C 
ENDBRANCH  34  38
BRANCH  35  40
HETATM   40  O9  UNL     1       6.738   0.179  11.507  1.00  0.00    -0.351 OA
HETATM   41  C27 UNL     1       7.622  -0.464  10.627  1.00  0.00     0.210 C 
ENDBRANCH  35  40
BRANCH  36  42
HETATM   42  O10 UNL     1       8.048   0.810  13.833  1.00  0.00    -0.353 OA
HETATM   43  C29 UNL     1       7.623   0.430  15.106  1.00  0.00     0.210 C 
ENDBRANCH  36  42
ENDBRANCH   6  32
TORSDOF 13
ENDMDL
MODEL 2
REMARK VINA RESULT: -6.952913954      0.374      2.003
REMARK  13 active torsions:
REMARK  status: ('A' for Active; 'I' for Inactive)
REMARK    1  A    between atoms: O1_2  and  C2_3 
REMARK    2  A    between atoms: C2_3  and  C3_5 
REMARK    3  A    between atoms: C4_6  and  C5_7 
REMARK    4  A    between atoms: C5_7  and  O3_8 
REMARK    5  A    between atoms: C5_7  and  C6_10 
REMARK    6  A    between atoms: C5_7  and  C15_22 
REMARK    7  A    between atoms: C8_12  and  O4_13 
REMARK    8  A    between atoms: C10_15  and  O5_16 
REMARK    9  A    between atoms: C12_18  and  O6_19 
REMARK   10  A    between atoms: C21_31  and  C22_32 
REMARK   11  A    between atoms: C24_34  and  O8_35 
REMARK   12  A    between atoms: C26_37  and  O9_38 
REMARK   13  A    between atoms: C28_40  and  O10_41 
ROOT
HETATM    1  C3  UNL     1       8.015   6.613  12.667  1.00  0.00     0.104 A 
HETATM    2  C4  UNL     1       7.896   7.650  13.524  1.00  0.00     0.091 A 
HETATM    3  N1  UNL     1       7.315   7.046  14.642  1.00  0.00    -0.260 N 
ATOM      4  H1  UNL     1       7.083   7.555  15.495  1.00  0.00     0.194 HD
HETATM    5  O7  UNL     1       7.112   5.845  14.500  1.00  0.00    -0.236 OA
HETATM    6  C21 UNL     1       7.517   5.468  13.288  1.00  0.00     0.127 A 
ENDROOT
BRANCH   2   7
HETATM    7  C5  UNL     1       8.179   9.051  13.623  1.00  0.00     0.134 C 
BRANCH   7   8
HETATM    8  O3  UNL     1       7.690   9.350  14.994  1.00  0.00    -0.378 OA
ATOM      9  H3  UNL     1       8.385   9.909  15.321  1.00  0.00     0.211 HD
ENDBRANCH   7   8
BRANCH   7  10
HETATM   10  C6  UNL     1       9.663   9.289  13.815  1.00  0.00    -0.012 A 
HETATM   11  C7  UNL     1      10.249   9.221  15.062  1.00  0.00     0.050 A 
HETATM   12  C8  UNL     1      11.596   9.410  15.235  1.00  0.00     0.104 A 
HETATM   13  C10 UNL     1      12.365   9.669  14.120  1.00  0.00     0.135 A 
HETATM   14  C12 UNL     1      11.827   9.746  12.855  1.00  0.00     0.104 A 
HETATM   15  C14 UNL     1      10.473   9.554  12.724  1.00  0.00     0.050 A 
BRANCH  12  16
HETATM   16  O4  UNL     1      12.263   9.366  16.445  1.00  0.00    -0.353 OA
HETATM   17  C9  UNL     1      11.600   9.537  17.666  1.00  0.00     0.210 C 
ENDBRANCH  12  16
BRANCH  13  18
HETATM   18  O5  UNL     1      13.744   9.862  14.266  1.00  0.00    -0.351 OA
HETATM   19  C11 UNL     1      14.219  11.186  14.281  1.00  0.00     0.210 C 
ENDBRANCH  13  18
BRANCH  14  20
HETATM   20  O6  UNL     1      12.692  10.005  11.824  1.00  0.00    -0.353 OA
HETATM   21  C13 UNL     1      12.435   9.586  10.480  1.00  0.00     0.210 C 
ENDBRANCH  14  20
ENDBRANCH   7  10
BRANCH   7  22
HETATM   22  C15 UNL     1       7.703  10.127  12.770  1.00  0.00     0.031 C 
HETATM   23  C16 UNL     1       6.458   9.896  12.015  1.00  0.00     0.008 C 
HETATM   24  C17 UNL     1       6.270  10.920  10.888  1.00  0.00     0.001 C 
HETATM   25  C18 UNL     1       6.169  12.264  11.610  1.00  0.00     0.000 C 
HETATM   26  C19 UNL     1       7.398  12.529  12.394  1.00  0.00     0.001 C 
HETATM   27  C20 UNL     1       7.553  11.479  13.499  1.00  0.00     0.008 C 
ENDBRANCH   7  22
ENDBRANCH   2   7
BRANCH   1  28
HETATM   28  C2  UNL     1       8.582   6.614  11.363  1.00  0.00     0.298 C 
HETATM   29  O2  UNL     1       9.860   6.626  11.256  1.00  0.00    -0.259 OA
BRANCH  28  30
HETATM   30  O1  UNL     1       7.896   6.611  10.153  1.00  0.00    -0.322 OA
HETATM   31  C1  UNL     1       7.794   7.775   9.368  1.00  0.00     0.213 C 
ENDBRANCH  28  30
ENDBRANCH   1  28
BRANCH   6  32
HETATM   32  C22 UNL     1       7.399   4.081  12.854  1.00  0.00     0.006 A 
HETATM   33  C23 UNL     1       7.940   2.991  13.452  1.00  0.00     0.054 A 
HETATM   34  C24 UNL     1       7.748   1.663  13.027  1.00  0.00     0.105 A 
HETATM   35  C26 UNL     1       6.951   1.416  11.920  1.00  0.00     0.135 A 
HETATM   36  C28 UNL     1       6.398   2.502  11.306  1.00  0.00     0.105 A 
HETATM   37  C30 UNL     1       6.591   3.799  11.727  1.00  0.00     0.054 A 
BRANCH  34  38
HETATM   38  O8  UNL     1       8.307   0.591  13.649  1.00  0.00    -0.353 OA
HETATM   39  C25 UNL     1       8.262   0.218  14.980  1.00  0.00     0.210 C 
ENDBRANCH  34  38
BRANCH  35  40
HETATM   40  O9  UNL     1       6.746   0.115  11.485  1.00  0.00    -0.351 OA
HETATM   41  C27 UNL     1       7.568  -0.555  10.565  1.00  0.00     0.210 C 
ENDBRANCH  35  40
BRANCH  36  42
HETATM   42  O10 UNL     1       5.598   2.244  10.192  1.00  0.00    -0.353 OA
HETATM   43  C29 UNL     1       6.015   2.316   8.862  1.00  0.00     0.210 C 
ENDBRANCH  36  42
ENDBRANCH   6  32
TORSDOF 13
ENDMDL
MODEL 3
REMARK VINA RESULT: -6.913853470      0.383      2.863
REMARK  13 active torsions:
REMARK  status: ('A' for Active; 'I' for Inactive)
REMARK    1  A    between atoms: O1_2  and  C2_3 
REMARK    2  A    between atoms: C2_3  and  C3_5 
REMARK    3  A    between atoms: C4_6  and  C5_7 
REMARK    4  A    between atoms: C5_7  and  O3_8 
REMARK    5  A    between atoms: C5_7  and  C6_10 
REMARK    6  A    between atoms: C5_7  and  C15_22 
REMARK    7  A    between atoms: C8_12  and  O4_13 
REMARK    8  A    between atoms: C10_15  and  O5_16 
REMARK    9  A    between atoms: C12_18  and  O6_19 
REMARK   10  A    between atoms: C21_31  and  C22_32 
REMARK   11  A    between atoms: C24_34  and  O8_35 
REMARK   12  A    between atoms: C26_37  and  O9_38 
REMARK   13  A    between atoms: C28_40  and  O10_41 
ROOT
HETATM    1  C3  UNL     1       8.007   6.730  12.672  1.00  0.00     0.104 A 
HETATM    2  C4  UNL     1       7.922   7.779  13.519  1.00  0.00     0.091 A 
HETATM    3  N1  UNL     1       7.367   7.195  14.661  1.00  0.00    -0.260 N 
ATOM      4  H1  UNL     1       7.164   7.716  15.513  1.00  0.00     0.194 HD
HETATM    5  O7  UNL     1       7.149   5.994  14.539  1.00  0.00    -0.236 OA
HETATM    6  C21 UNL     1       7.516   5.599  13.321  1.00  0.00     0.127 A 
ENDROOT
BRANCH   2   7
HETATM    7  C5  UNL     1       8.220   9.178  13.591  1.00  0.00     0.134 C 
BRANCH   7   8
HETATM    8  O3  UNL     1       7.775   9.499  14.973  1.00  0.00    -0.378 OA
ATOM      9  H3  UNL     1       7.227   8.747  15.170  1.00  0.00     0.211 HD
ENDBRANCH   7   8
BRANCH   7  10
HETATM   10  C6  UNL     1       9.711   9.404  13.736  1.00  0.00    -0.012 A 
HETATM   11  C7  UNL     1      10.517   9.629  12.638  1.00  0.00     0.050 A 
HETATM   12  C8  UNL     1      11.862   9.861  12.770  1.00  0.00     0.104 A 
HETATM   13  C10 UNL     1      12.401   9.868  14.040  1.00  0.00     0.135 A 
HETATM   14  C12 UNL     1      11.638   9.649  15.164  1.00  0.00     0.104 A 
HETATM   15  C14 UNL     1      10.295   9.418  14.991  1.00  0.00     0.050 A 
BRANCH  12  16
HETATM   16  O4  UNL     1      12.742  10.089  11.728  1.00  0.00    -0.353 OA
HETATM   17  C9  UNL     1      12.546   9.537  10.456  1.00  0.00     0.210 C 
ENDBRANCH  12  16
BRANCH  13  18
HETATM   18  O5  UNL     1      13.771  10.105  14.203  1.00  0.00    -0.351 OA
HETATM   19  C11 UNL     1      14.214  11.438  14.129  1.00  0.00     0.210 C 
ENDBRANCH  13  18
BRANCH  14  20
HETATM   20  O6  UNL     1      12.285   9.684  16.372  1.00  0.00    -0.353 OA
HETATM   21  C13 UNL     1      11.589   9.605  17.620  1.00  0.00     0.210 C 
ENDBRANCH  14  20
ENDBRANCH   7  10
BRANCH   7  22
HETATM   22  C15 UNL     1       7.729  10.249  12.740  1.00  0.00     0.031 C 
HETATM   23  C16 UNL     1       6.489  10.000  11.982  1.00  0.00     0.008 C 
HETATM   24  C17 UNL     1       6.286  11.023  10.857  1.00  0.00     0.001 C 
HETATM   25  C18 UNL     1       6.163  12.364  11.582  1.00  0.00     0.000 C 
HETATM   26  C19 UNL     1       7.387  12.646  12.368  1.00  0.00     0.001 C 
HETATM   27  C20 UNL     1       7.557  11.597  13.471  1.00  0.00     0.008 C 
ENDBRANCH   7  22
ENDBRANCH   2   7
BRANCH   1  28
HETATM   28  C2  UNL     1       8.535   6.710  11.352  1.00  0.00     0.298 C 
HETATM   29  O2  UNL     1       9.807   6.622  11.209  1.00  0.00    -0.259 OA
BRANCH  28  30
HETATM   30  O1  UNL     1       7.818   6.784  10.162  1.00  0.00    -0.322 OA
HETATM   31  C1  UNL     1       7.973   7.873   9.283  1.00  0.00     0.213 C 
ENDBRANCH  28  30
ENDBRANCH   1  28
BRANCH   6  32
HETATM   32  C22 UNL     1       7.373   4.207  12.908  1.00  0.00     0.006 A 
HETATM   33  C23 UNL     1       7.855   3.114  13.548  1.00  0.00     0.054 A 
HETATM   34  C24 UNL     1       7.639   1.784  13.140  1.00  0.00     0.105 A 
HETATM   35  C26 UNL     1       6.881   1.540  12.006  1.00  0.00     0.135 A 
HETATM   36  C28 UNL     1       6.387   2.630  11.349  1.00  0.00     0.105 A 
HETATM   37  C30 UNL     1       6.602   3.928  11.754  1.00  0.00     0.054 A 
BRANCH  34  38
HETATM   38  O8  UNL     1       8.138   0.708  13.804  1.00  0.00    -0.353 OA
HETATM   39  C25 UNL     1       7.889   0.269  15.091  1.00  0.00     0.210 C 
ENDBRANCH  34  38
BRANCH  35  40
HETATM   40  O9  UNL     1       6.653   0.237  11.587  1.00  0.00    -0.351 OA
HETATM   41  C27 UNL     1       7.453  -0.452  10.661  1.00  0.00     0.210 C 
ENDBRANCH  35  40
BRANCH  36  42
HETATM   42  O10 UNL     1       5.626   2.373  10.208  1.00  0.00    -0.353 OA
HETATM   43  C29 UNL     1       6.076   2.488   8.892  1.00  0.00     0.210 C 
ENDBRANCH  36  42
ENDBRANCH   6  32
TORSDOF 13
ENDMDL
MODEL 4
REMARK VINA RESULT: -6.483313419      1.741      3.078
REMARK  13 active torsions:
REMARK  status: ('A' for Active; 'I' for Inactive)
REMARK    1  A    between atoms: O1_2  and  C2_3 
REMARK    2  A    between atoms: C2_3  and  C3_5 
REMARK    3  A    between atoms: C4_6  and  C5_7 
REMARK    4  A    between atoms: C5_7  and  O3_8 
REMARK    5  A    between atoms: C5_7  and  C6_10 
REMARK    6  A    between atoms: C5_7  and  C15_22 
REMARK    7  A    between atoms: C8_12  and  O4_13 
REMARK    8  A    between atoms: C10_15  and  O5_16 
REMARK    9  A    between atoms: C12_18  and  O6_19 
REMARK   10  A    between atoms: C21_31  and  C22_32 
REMARK   11  A    between atoms: C24_34  and  O8_35 
REMARK   12  A    between atoms: C26_37  and  O9_38 
REMARK   13  A    between atoms: C28_40  and  O10_41 
ROOT
HETATM    1  C3  UNL     1       8.100   7.064  12.181  1.00  0.00     0.104 A 
HETATM    2  C4  UNL     1       7.640   8.318  12.382  1.00  0.00     0.091 A 
HETATM    3  N1  UNL     1       6.284   8.099  12.643  1.00  0.00    -0.260 N 
ATOM      4  H1  UNL     1       5.625   8.851  12.843  1.00  0.00     0.194 HD
HETATM    5  O7  UNL     1       5.965   6.915  12.609  1.00  0.00    -0.236 OA
HETATM    6  C21 UNL     1       7.035   6.175  12.326  1.00  0.00     0.127 A 
ENDROOT
BRANCH   2   7
HETATM    7  C5  UNL     1       8.092   9.677  12.421  1.00  0.00     0.134 C 
BRANCH   7   8
HETATM    8  O3  UNL     1       6.850  10.384  12.830  1.00  0.00    -0.378 OA
ATOM      9  H3  UNL     1       7.123  11.292  12.764  1.00  0.00     0.211 HD
ENDBRANCH   7   8
BRANCH   7  10
HETATM   10  C6  UNL     1       8.950   9.924  13.644  1.00  0.00    -0.012 A 
HETATM   11  C7  UNL     1       8.392  10.254  14.862  1.00  0.00     0.050 A 
HETATM   12  C8  UNL     1       9.166  10.453  15.977  1.00  0.00     0.104 A 
HETATM   13  C10 UNL     1      10.533  10.311  15.855  1.00  0.00     0.135 A 
HETATM   14  C12 UNL     1      11.135   9.983  14.661  1.00  0.00     0.104 A 
HETATM   15  C14 UNL     1      10.326   9.795  13.567  1.00  0.00     0.050 A 
BRANCH  12  16
HETATM   16  O4  UNL     1       8.693  10.790  17.231  1.00  0.00    -0.353 OA
HETATM   17  C9  UNL     1       8.587  12.121  17.652  1.00  0.00     0.210 C 
ENDBRANCH  12  16
BRANCH  13  18
HETATM   18  O5  UNL     1      11.346  10.504  16.978  1.00  0.00    -0.351 OA
HETATM   19  C11 UNL     1      11.607   9.388  17.793  1.00  0.00     0.210 C 
ENDBRANCH  13  18
BRANCH  14  20
HETATM   20  O6  UNL     1      12.501   9.866  14.664  1.00  0.00    -0.353 OA
HETATM   21  C13 UNL     1      13.165   8.606  14.793  1.00  0.00     0.210 C 
ENDBRANCH  14  20
ENDBRANCH   7  10
BRANCH   7  22
HETATM   22  C15 UNL     1       8.680  10.460  11.347  1.00  0.00     0.031 C 
HETATM   23  C16 UNL     1       8.384  10.047   9.963  1.00  0.00     0.008 C 
HETATM   24  C17 UNL     1       9.343  10.690   8.953  1.00  0.00     0.001 C 
HETATM   25  C18 UNL     1       9.083  12.192   9.087  1.00  0.00     0.000 C 
HETATM   26  C19 UNL     1       9.355  12.646  10.471  1.00  0.00     0.001 C 
HETATM   27  C20 UNL     1       8.386  11.972  11.447  1.00  0.00     0.008 C 
ENDBRANCH   7  22
ENDBRANCH   2   7
BRANCH   1  28
HETATM   28  C2  UNL     1       9.433   6.652  11.910  1.00  0.00     0.298 C 
HETATM   29  O2  UNL     1      10.125   6.163  12.873  1.00  0.00    -0.259 OA
BRANCH  28  30
HETATM   30  O1  UNL     1      10.100   6.726  10.691  1.00  0.00    -0.322 OA
HETATM   31  C1  UNL     1      11.151   7.641  10.489  1.00  0.00     0.213 C 
ENDBRANCH  28  30
ENDBRANCH   1  28
BRANCH   6  32
HETATM   32  C22 UNL     1       6.941   4.723  12.231  1.00  0.00     0.006 A 
HETATM   33  C23 UNL     1       7.281   3.820  13.183  1.00  0.00     0.054 A 
HETATM   34  C24 UNL     1       7.115   2.427  13.066  1.00  0.00     0.105 A 
HETATM   35  C26 UNL     1       6.566   1.908  11.904  1.00  0.00     0.135 A 
HETATM   36  C28 UNL     1       6.218   2.803  10.934  1.00  0.00     0.105 A 
HETATM   37  C30 UNL     1       6.383   4.164  11.056  1.00  0.00     0.054 A 
BRANCH  34  38
HETATM   38  O8  UNL     1       7.468   1.548  14.041  1.00  0.00    -0.353 OA
HETATM   39  C25 UNL     1       6.813   1.217  15.213  1.00  0.00     0.210 C 
ENDBRANCH  34  38
BRANCH  35  40
HETATM   40  O9  UNL     1       6.392   0.539  11.768  1.00  0.00    -0.351 OA
HETATM   41  C27 UNL     1       7.288  -0.315  11.106  1.00  0.00     0.210 C 
ENDBRANCH  35  40
BRANCH  36  42
HETATM   42  O10 UNL     1       5.666   2.270   9.768  1.00  0.00    -0.353 OA
HETATM   43  C29 UNL     1       6.181   2.433   8.481  1.00  0.00     0.210 C 
ENDBRANCH  36  42
ENDBRANCH   6  32
TORSDOF 13
ENDMDL
MODEL 5
REMARK VINA RESULT: -6.441707502      1.767      2.354
REMARK  13 active torsions:
REMARK  status: ('A' for Active; 'I' for Inactive)
REMARK    1  A    between atoms: O1_2  and  C2_3 
REMARK    2  A    between atoms: C2_3  and  C3_5 
REMARK    3  A    between atoms: C4_6  and  C5_7 
REMARK    4  A    between atoms: C5_7  and  O3_8 
REMARK    5  A    between atoms: C5_7  and  C6_10 
REMARK    6  A    between atoms: C5_7  and  C15_22 
REMARK    7  A    between atoms: C8_12  and  O4_13 
REMARK    8  A    between atoms: C10_15  and  O5_16 
REMARK    9  A    between atoms: C12_18  and  O6_19 
REMARK   10  A    between atoms: C21_31  and  C22_32 
REMARK   11  A    between atoms: C24_34  and  O8_35 
REMARK   12  A    between atoms: C26_37  and  O9_38 
REMARK   13  A    between atoms: C28_40  and  O10_41 
ROOT
HETATM    1  C3  UNL     1       8.089   7.137  12.018  1.00  0.00     0.104 A 
HETATM    2  C4  UNL     1       7.711   8.400  12.310  1.00  0.00     0.091 A 
HETATM    3  N1  UNL     1       6.367   8.237  12.653  1.00  0.00    -0.260 N 
ATOM      4  H1  UNL     1       5.763   9.010  12.934  1.00  0.00     0.194 HD
HETATM    5  O7  UNL     1       5.982   7.074  12.585  1.00  0.00    -0.236 OA
HETATM    6  C21 UNL     1       6.990   6.297  12.193  1.00  0.00     0.127 A 
ENDROOT
BRANCH   2   7
HETATM    7  C5  UNL     1       8.238   9.731  12.382  1.00  0.00     0.134 C 
BRANCH   7   8
HETATM    8  O3  UNL     1       7.032  10.498  12.791  1.00  0.00    -0.378 OA
ATOM      9  H3  UNL     1       7.401  11.098  13.429  1.00  0.00     0.211 HD
ENDBRANCH   7   8
BRANCH   7  10
HETATM   10  C6  UNL     1       9.093   9.906  13.619  1.00  0.00    -0.012 A 
HETATM   11  C7  UNL     1       8.551  10.322  14.818  1.00  0.00     0.050 A 
HETATM   12  C8  UNL     1       9.319  10.455  15.946  1.00  0.00     0.104 A 
HETATM   13  C10 UNL     1      10.663  10.158  15.858  1.00  0.00     0.135 A 
HETATM   14  C12 UNL     1      11.249   9.739  14.685  1.00  0.00     0.104 A 
HETATM   15  C14 UNL     1      10.447   9.621  13.577  1.00  0.00     0.050 A 
BRANCH  12  16
HETATM   16  O4  UNL     1       8.862  10.870  17.183  1.00  0.00    -0.353 OA
HETATM   17  C9  UNL     1       8.700  12.224  17.499  1.00  0.00     0.210 C 
ENDBRANCH  12  16
BRANCH  13  18
HETATM   18  O5  UNL     1      11.471  10.281  16.996  1.00  0.00    -0.351 OA
HETATM   19  C11 UNL     1      11.748   9.113  17.728  1.00  0.00     0.210 C 
ENDBRANCH  13  18
BRANCH  14  20
HETATM   20  O6  UNL     1      12.593   9.469  14.721  1.00  0.00    -0.353 OA
HETATM   21  C13 UNL     1      13.576  10.399  14.257  1.00  0.00     0.210 C 
ENDBRANCH  14  20
ENDBRANCH   7  10
BRANCH   7  22
HETATM   22  C15 UNL     1       8.882  10.502  11.331  1.00  0.00     0.031 C 
HETATM   23  C16 UNL     1       8.504  10.201   9.938  1.00  0.00     0.008 C 
HETATM   24  C17 UNL     1       9.502  10.788   8.932  1.00  0.00     0.001 C 
HETATM   25  C18 UNL     1       9.416  12.299   9.152  1.00  0.00     0.000 C 
HETATM   26  C19 UNL     1       9.775  12.644  10.548  1.00  0.00     0.001 C 
HETATM   27  C20 UNL     1       8.763  12.029  11.518  1.00  0.00     0.008 C 
ENDBRANCH   7  22
ENDBRANCH   2   7
BRANCH   1  28
HETATM   28  C2  UNL     1       9.377   6.673  11.635  1.00  0.00     0.298 C 
HETATM   29  O2  UNL     1      10.151   6.210  12.548  1.00  0.00    -0.259 OA
BRANCH  28  30
HETATM   30  O1  UNL     1       9.918   6.667  10.354  1.00  0.00    -0.322 OA
HETATM   31  C1  UNL     1      11.058   7.432  10.039  1.00  0.00     0.213 C 
ENDBRANCH  28  30
ENDBRANCH   1  28
BRANCH   6  32
HETATM   32  C22 UNL     1       6.811   4.858  12.036  1.00  0.00     0.006 A 
HETATM   33  C23 UNL     1       6.300   4.213  10.959  1.00  0.00     0.054 A 
HETATM   34  C24 UNL     1       6.203   2.815  10.831  1.00  0.00     0.105 A 
HETATM   35  C26 UNL     1       6.656   2.009  11.863  1.00  0.00     0.135 A 
HETATM   36  C28 UNL     1       7.174   2.642  12.956  1.00  0.00     0.105 A 
HETATM   37  C30 UNL     1       7.266   4.010  13.074  1.00  0.00     0.054 A 
BRANCH  34  38
HETATM   38  O8  UNL     1       5.683   2.199   9.736  1.00  0.00    -0.353 OA
HETATM   39  C25 UNL     1       6.143   2.175   8.432  1.00  0.00     0.210 C 
ENDBRANCH  34  38
BRANCH  35  40
HETATM   40  O9  UNL     1       6.572   0.628  11.757  1.00  0.00    -0.351 OA
HETATM   41  C27 UNL     1       7.507  -0.177  11.088  1.00  0.00     0.210 C 
ENDBRANCH  35  40
BRANCH  36  42
HETATM   42  O10 UNL     1       7.626   1.821  13.991  1.00  0.00    -0.353 OA
HETATM   43  C29 UNL     1       6.837   1.309  15.021  1.00  0.00     0.210 C 
ENDBRANCH  36  42
ENDBRANCH   6  32
TORSDOF 13
ENDMDL
