MODEL 1
REMARK VINA RESULT: -7.121049362      0.000      0.000
REMARK  4 active torsions:
REMARK  status: ('A' for Active; 'I' for Inactive)
REMARK    1  A    between atoms: O1_2  and  C2_3 
REMARK    2  A    between atoms: C6_7  and  O2_9 
REMARK    3  A    between atoms: C8_11  and  C9_12 
REMARK    4  A    between atoms: C13_16  and  O3_17 
ROOT
HETATM    1  C9  UNL     1      26.229  33.852  28.868  1.00  0.00    -0.014 C 
HETATM    2  C10 UNL     1      25.739  32.960  28.046  1.00  0.00    -0.083 C 
HETATM    3  C11 UNL     1      26.146  31.546  28.267  1.00  0.00     0.037 C 
HETATM    4  C12 UNL     1      25.370  30.573  27.442  1.00  0.00     0.043 C 
HETATM    5  C13 UNL     1      25.505  30.631  25.998  1.00  0.00     0.075 C 
HETATM    6  C14 UNL     1      26.783  31.156  25.427  1.00  0.00     0.082 C 
HETATM    7  C15 UNL     1      26.699  32.639  25.567  1.00  0.00     0.023 C 
HETATM    8  C16 UNL     1      25.223  32.917  25.601  1.00  0.00    -0.002 C 
HETATM    9  C17 UNL     1      24.819  33.413  26.960  1.00  0.00     0.039 C 
HETATM   10  C18 UNL     1      24.519  31.589  25.308  1.00  0.00     0.035 C 
HETATM   11  C19 UNL     1      24.580  31.245  23.832  1.00  0.00     0.082 C 
HETATM   12  S1  UNL     1      26.370  30.841  23.653  1.00  0.00    -0.161 SA
ENDROOT
BRANCH   1  13
HETATM   13  C8  UNL     1      27.140  33.620  29.992  1.00  0.00     0.071 C 
HETATM   14  C2  UNL     1      26.304  33.543  31.253  1.00  0.00     0.131 C 
HETATM   15  C3  UNL     1      27.128  33.377  32.496  1.00  0.00     0.033 C 
HETATM   16  C4  UNL     1      28.263  34.367  32.591  1.00  0.00     0.006 C 
HETATM   17  C5  UNL     1      29.078  34.244  31.322  1.00  0.00     0.038 C 
HETATM   18  C6  UNL     1      28.148  34.732  30.202  1.00  0.00     0.063 C 
HETATM   19  C7  UNL     1      29.003  35.008  29.017  1.00  0.00     0.046 C 
BRANCH  14  20
HETATM   20  O1  UNL     1      25.398  32.494  31.203  1.00  0.00    -0.390 OA
HETATM   21  C1  UNL     1      25.836  31.491  32.057  1.00  0.00     0.202 C 
ENDBRANCH  14  20
BRANCH  18  22
HETATM   22  O2  UNL     1      27.462  35.849  30.638  1.00  0.00    -0.389 OA
ATOM     23  H2  UNL     1      27.960  36.627  30.413  1.00  0.00     0.210 HD
ENDBRANCH  18  22
ENDBRANCH   1  13
BRANCH   5  24
HETATM   24  O3  UNL     1      25.307  29.343  25.450  1.00  0.00    -0.388 OA
ATOM     25  H3  UNL     1      26.108  29.046  25.035  1.00  0.00     0.210 HD
ENDBRANCH   5  24
TORSDOF 4
ENDMDL
MODEL 2
REMARK VINA RESULT: -6.627560245      3.048      6.692
REMARK  4 active torsions:
REMARK  status: ('A' for Active; 'I' for Inactive)
REMARK    1  A    between atoms: O1_2  and  C2_3 
REMARK    2  A    between atoms: C6_7  and  O2_9 
REMARK    3  A    between atoms: C8_11  and  C9_12 
REMARK    4  A    between atoms: C13_16  and  O3_17 
ROOT
HETATM    1  C9  UNL     1      26.833  32.473  28.998  1.00  0.00    -0.014 C 
HETATM    2  C10 UNL     1      26.727  32.586  30.297  1.00  0.00    -0.083 C 
HETATM    3  C11 UNL     1      25.349  32.682  30.854  1.00  0.00     0.037 C 
HETATM    4  C12 UNL     1      25.306  32.576  32.342  1.00  0.00     0.043 C 
HETATM    5  C13 UNL     1      25.949  33.614  33.128  1.00  0.00     0.075 C 
HETATM    6  C14 UNL     1      26.058  34.983  32.536  1.00  0.00     0.082 C 
HETATM    7  C15 UNL     1      27.184  34.902  31.560  1.00  0.00     0.023 C 
HETATM    8  C16 UNL     1      28.028  33.769  32.072  1.00  0.00    -0.002 C 
HETATM    9  C17 UNL     1      27.972  32.609  31.121  1.00  0.00     0.039 C 
HETATM   10  C18 UNL     1      27.436  33.356  33.422  1.00  0.00     0.035 C 
HETATM   11  C19 UNL     1      27.813  34.338  34.515  1.00  0.00     0.082 C 
HETATM   12  S1  UNL     1      26.800  35.797  34.020  1.00  0.00    -0.161 SA
ENDROOT
BRANCH   1  13
HETATM   13  C8  UNL     1      25.745  32.430  28.017  1.00  0.00     0.071 C 
HETATM   14  C2  UNL     1      25.759  31.058  27.376  1.00  0.00     0.131 C 
HETATM   15  C3  UNL     1      24.731  30.904  26.293  1.00  0.00     0.033 C 
HETATM   16  C4  UNL     1      24.752  32.033  25.291  1.00  0.00     0.006 C 
HETATM   17  C5  UNL     1      24.607  33.325  26.064  1.00  0.00     0.038 C 
HETATM   18  C6  UNL     1      25.891  33.440  26.896  1.00  0.00     0.063 C 
HETATM   19  C7  UNL     1      25.987  34.849  27.358  1.00  0.00     0.046 C 
BRANCH  14  20
HETATM   20  O1  UNL     1      25.544  30.054  28.309  1.00  0.00    -0.390 OA
HETATM   21  C1  UNL     1      24.772  29.062  27.720  1.00  0.00     0.202 C 
ENDBRANCH  14  20
BRANCH  18  22
HETATM   22  O2  UNL     1      26.969  33.057  26.120  1.00  0.00    -0.389 OA
ATOM     23  H2  UNL     1      26.734  32.282  25.623  1.00  0.00     0.210 HD
ENDBRANCH  18  22
ENDBRANCH   1  13
BRANCH   5  24
HETATM   24  O3  UNL     1      25.283  33.752  34.367  1.00  0.00    -0.388 OA
ATOM     25  H3  UNL     1      25.922  33.820  35.067  1.00  0.00     0.210 HD
ENDBRANCH   5  24
TORSDOF 4
ENDMDL
MODEL 3
REMARK VINA RESULT: -6.506083435      1.700      3.122
REMARK  4 active torsions:
REMARK  status: ('A' for Active; 'I' for Inactive)
REMARK    1  A    between atoms: O1_2  and  C2_3 
REMARK    2  A    between atoms: C6_7  and  O2_9 
REMARK    3  A    between atoms: C8_11  and  C9_12 
REMARK    4  A    between atoms: C13_16  and  O3_17 
ROOT
HETATM    1  C9  UNL     1      27.589  34.251  27.845  1.00  0.00    -0.014 C 
HETATM    2  C10 UNL     1      26.812  33.793  26.898  1.00  0.00    -0.083 C 
HETATM    3  C11 UNL     1      25.344  33.867  27.137  1.00  0.00     0.037 C 
HETATM    4  C12 UNL     1      24.533  33.542  25.926  1.00  0.00     0.043 C 
HETATM    5  C13 UNL     1      24.613  32.199  25.381  1.00  0.00     0.075 C 
HETATM    6  C14 UNL     1      24.945  31.077  26.312  1.00  0.00     0.082 C 
HETATM    7  C15 UNL     1      26.418  31.170  26.533  1.00  0.00     0.023 C 
HETATM    8  C16 UNL     1      26.926  31.871  25.305  1.00  0.00    -0.002 C 
HETATM    9  C17 UNL     1      27.438  33.237  25.661  1.00  0.00     0.039 C 
HETATM   10  C18 UNL     1      25.736  32.000  24.350  1.00  0.00     0.035 C 
HETATM   11  C19 UNL     1      25.433  30.682  23.663  1.00  0.00     0.082 C 
HETATM   12  S1  UNL     1      24.755  29.714  25.078  1.00  0.00    -0.161 SA
ENDROOT
BRANCH   1  13
HETATM   13  C8  UNL     1      27.180  34.835  29.126  1.00  0.00     0.071 C 
HETATM   14  C2  UNL     1      28.178  35.919  29.476  1.00  0.00     0.131 C 
HETATM   15  C3  UNL     1      27.914  36.554  30.810  1.00  0.00     0.033 C 
HETATM   16  C4  UNL     1      27.713  35.546  31.916  1.00  0.00     0.006 C 
HETATM   17  C5  UNL     1      26.609  34.609  31.479  1.00  0.00     0.038 C 
HETATM   18  C6  UNL     1      27.184  33.848  30.277  1.00  0.00     0.063 C 
HETATM   19  C7  UNL     1      26.318  32.659  30.060  1.00  0.00     0.046 C 
BRANCH  14  20
HETATM   20  O1  UNL     1      28.193  36.928  28.524  1.00  0.00    -0.390 OA
HETATM   21  C1  UNL     1      29.389  37.623  28.636  1.00  0.00     0.202 C 
ENDBRANCH  14  20
BRANCH  18  22
HETATM   22  O2  UNL     1      28.498  33.511  30.541  1.00  0.00    -0.389 OA
ATOM     23  H2  UNL     1      28.528  32.965  31.319  1.00  0.00     0.210 HD
ENDBRANCH  18  22
ENDBRANCH   1  13
BRANCH   5  24
HETATM   24  O3  UNL     1      23.391  31.867  24.755  1.00  0.00    -0.388 OA
ATOM     25  H3  UNL     1      23.183  30.956  24.923  1.00  0.00     0.210 HD
ENDBRANCH   5  24
TORSDOF 4
ENDMDL
MODEL 4
REMARK VINA RESULT: -6.189787920      2.960      6.682
REMARK  4 active torsions:
REMARK  status: ('A' for Active; 'I' for Inactive)
REMARK    1  A    between atoms: O1_2  and  C2_3 
REMARK    2  A    between atoms: C6_7  and  O2_9 
REMARK    3  A    between atoms: C8_11  and  C9_12 
REMARK    4  A    between atoms: C13_16  and  O3_17 
ROOT
HETATM    1  C9  UNL     1      25.664  32.616  28.931  1.00  0.00    -0.014 C 
HETATM    2  C10 UNL     1      26.162  32.691  30.138  1.00  0.00    -0.083 C 
HETATM    3  C11 UNL     1      27.592  32.310  30.301  1.00  0.00     0.037 C 
HETATM    4  C12 UNL     1      28.141  32.641  31.649  1.00  0.00     0.043 C 
HETATM    5  C13 UNL     1      27.585  31.963  32.806  1.00  0.00     0.075 C 
HETATM    6  C14 UNL     1      27.000  30.600  32.614  1.00  0.00     0.082 C 
HETATM    7  C15 UNL     1      25.661  30.829  31.996  1.00  0.00     0.023 C 
HETATM    8  C16 UNL     1      25.292  32.218  32.432  1.00  0.00    -0.002 C 
HETATM    9  C17 UNL     1      25.279  33.147  31.253  1.00  0.00     0.039 C 
HETATM   10  C18 UNL     1      26.367  32.665  33.428  1.00  0.00     0.035 C 
HETATM   11  C19 UNL     1      26.168  32.017  34.785  1.00  0.00     0.082 C 
HETATM   12  S1  UNL     1      26.629  30.275  34.395  1.00  0.00    -0.161 SA
ENDROOT
BRANCH   1  13
HETATM   13  C8  UNL     1      26.354  32.197  27.708  1.00  0.00     0.071 C 
HETATM   14  C2  UNL     1      26.543  33.426  26.843  1.00  0.00     0.131 C 
HETATM   15  C3  UNL     1      27.180  33.121  25.519  1.00  0.00     0.033 C 
HETATM   16  C4  UNL     1      26.518  31.975  24.793  1.00  0.00     0.006 C 
HETATM   17  C5  UNL     1      26.512  30.789  25.732  1.00  0.00     0.038 C 
HETATM   18  C6  UNL     1      25.577  31.193  26.880  1.00  0.00     0.063 C 
HETATM   19  C7  UNL     1      25.222  29.949  27.611  1.00  0.00     0.046 C 
BRANCH  14  20
HETATM   20  O1  UNL     1      27.322  34.384  27.477  1.00  0.00    -0.390 OA
HETATM   21  C1  UNL     1      26.682  35.611  27.374  1.00  0.00     0.202 C 
ENDBRANCH  14  20
BRANCH  18  22
HETATM   22  O2  UNL     1      24.473  31.839  26.357  1.00  0.00    -0.389 OA
ATOM     23  H2  UNL     1      23.812  31.921  27.035  1.00  0.00     0.210 HD
ENDBRANCH  18  22
ENDBRANCH   1  13
BRANCH   5  24
HETATM   24  O3  UNL     1      28.574  31.850  33.810  1.00  0.00    -0.388 OA
ATOM     25  H3  UNL     1      28.264  31.275  34.500  1.00  0.00     0.210 HD
ENDBRANCH   5  24
TORSDOF 4
ENDMDL
MODEL 5
REMARK VINA RESULT: -6.128660422      3.073      6.804
REMARK  4 active torsions:
REMARK  status: ('A' for Active; 'I' for Inactive)
REMARK    1  A    between atoms: O1_2  and  C2_3 
REMARK    2  A    between atoms: C6_7  and  O2_9 
REMARK    3  A    between atoms: C8_11  and  C9_12 
REMARK    4  A    between atoms: C13_16  and  O3_17 
ROOT
HETATM    1  C9  UNL     1      27.393  33.638  28.698  1.00  0.00    -0.014 C 
HETATM    2  C10 UNL     1      27.549  34.086  29.917  1.00  0.00    -0.083 C 
HETATM    3  C11 UNL     1      26.324  34.200  30.754  1.00  0.00     0.037 C 
HETATM    4  C12 UNL     1      26.615  34.494  32.189  1.00  0.00     0.043 C 
HETATM    5  C13 UNL     1      27.243  35.761  32.520  1.00  0.00     0.075 C 
HETATM    6  C14 UNL     1      27.014  36.924  31.609  1.00  0.00     0.082 C 
HETATM    7  C15 UNL     1      27.906  36.688  30.435  1.00  0.00     0.023 C 
HETATM    8  C16 UNL     1      29.002  35.818  30.982  1.00  0.00    -0.002 C 
HETATM    9  C17 UNL     1      28.923  34.444  30.380  1.00  0.00     0.039 C 
HETATM   10  C18 UNL     1      28.781  35.730  32.495  1.00  0.00     0.035 C 
HETATM   11  C19 UNL     1      29.227  37.001  33.193  1.00  0.00     0.082 C 
HETATM   12  S1  UNL     1      27.921  38.172  32.627  1.00  0.00    -0.161 SA
ENDROOT
BRANCH   1  13
HETATM   13  C8  UNL     1      26.140  33.232  28.053  1.00  0.00     0.071 C 
HETATM   14  C2  UNL     1      26.194  31.732  27.851  1.00  0.00     0.131 C 
HETATM   15  C3  UNL     1      24.993  31.193  27.130  1.00  0.00     0.033 C 
HETATM   16  C4  UNL     1      24.667  31.955  25.868  1.00  0.00     0.006 C 
HETATM   17  C5  UNL     1      24.524  33.413  26.246  1.00  0.00     0.038 C 
HETATM   18  C6  UNL     1      25.928  33.851  26.686  1.00  0.00     0.063 C 
HETATM   19  C7  UNL     1      25.940  35.338  26.685  1.00  0.00     0.046 C 
BRANCH  14  20
HETATM   20  O1  UNL     1      26.301  31.056  29.058  1.00  0.00    -0.390 OA
HETATM   21  C1  UNL     1      25.514  29.915  28.996  1.00  0.00     0.202 C 
ENDBRANCH  14  20
BRANCH  18  22
HETATM   22  O2  UNL     1      26.862  33.309  25.825  1.00  0.00    -0.389 OA
ATOM     23  H2  UNL     1      27.025  33.922  25.118  1.00  0.00     0.210 HD
ENDBRANCH  18  22
ENDBRANCH   1  13
BRANCH   5  24
HETATM   24  O3  UNL     1      26.843  36.164  33.814  1.00  0.00    -0.388 OA
ATOM     25  H3  UNL     1      27.590  36.518  34.283  1.00  0.00     0.210 HD
ENDBRANCH   5  24
TORSDOF 4
ENDMDL
