MODEL 1
REMARK VINA RESULT: -5.940428219      0.000      0.000
REMARK  6 active torsions:
REMARK  status: ('A' for Active; 'I' for Inactive)
REMARK    1  A    between atoms: C3_3  and  C4_4 
REMARK    2  A    between atoms: C4_4  and  N1_5 
REMARK    3  A    between atoms: C7_8  and  O1_9 
REMARK    4  A    between atoms: C7_8  and  C8_11 
REMARK    5  A    between atoms: C8_11  and  O2_13 
REMARK    6  A    between atoms: C8_11  and  C10_15 
ROOT
HETATM    1  C1  UNL     1      -1.636   8.886  14.714  1.00  0.00     0.112 C 
HETATM    2  C2  UNL     1      -2.191   7.787  13.913  1.00  0.00    -0.109 C 
HETATM    3  C3  UNL     1      -2.631   6.869  13.262  1.00  0.00    -0.077 C 
ENDROOT
BRANCH   3   4
HETATM    4  C4  UNL     1      -3.142   5.746  12.483  1.00  0.00     0.365 C 
BRANCH   4   5
HETATM    5  N1  UNL     1      -2.937   4.550  13.265  1.00  0.00     0.099 N 
HETATM    6  C5  UNL     1      -3.201   4.731  14.663  1.00  0.00     0.276 C 
HETATM    7  C6  UNL     1      -4.630   4.407  15.047  1.00  0.00     0.071 C 
HETATM    8  C7  UNL     1      -5.039   3.020  14.738  1.00  0.00     0.092 C 
HETATM    9  C14 UNL     1      -3.966   2.464  13.774  1.00  0.00     0.071 C 
HETATM   10  C15 UNL     1      -3.787   3.530  12.693  1.00  0.00     0.276 C 
BRANCH   8  11
HETATM   11  O1  UNL     1      -6.197   3.013  13.926  1.00  0.00    -0.387 OA
ATOM     12  H1  UNL     1      -6.980   2.991  14.464  1.00  0.00     0.210 HD
ENDBRANCH   8  11
BRANCH   8  13
HETATM   13  C8  UNL     1      -5.129   2.049  15.853  1.00  0.00     0.091 C 
HETATM   14  C9  UNL     1      -5.094   0.650  15.205  1.00  0.00     0.050 C 
BRANCH  13  15
HETATM   15  O2  UNL     1      -3.926   2.121  16.575  1.00  0.00    -0.386 OA
ATOM     16  H2  UNL     1      -3.701   1.238  16.844  1.00  0.00     0.210 HD
ENDBRANCH  13  15
BRANCH  13  17
HETATM   17  C10 UNL     1      -6.273   2.129  16.779  1.00  0.00    -0.018 C 
HETATM   18  C11 UNL     1      -6.949   3.473  16.883  1.00  0.00     0.018 C 
HETATM   19  C12 UNL     1      -5.751   1.828  18.190  1.00  0.00     0.018 C 
HETATM   20  C13 UNL     1      -7.362   1.114  16.529  1.00  0.00     0.018 C 
ENDBRANCH  13  17
ENDBRANCH   8  13
ENDBRANCH   4   5
ENDBRANCH   3   4
TORSDOF 6
ENDMDL
MODEL 2
REMARK VINA RESULT: -5.837488943      2.626      6.233
REMARK  6 active torsions:
REMARK  status: ('A' for Active; 'I' for Inactive)
REMARK    1  A    between atoms: C3_3  and  C4_4 
REMARK    2  A    between atoms: C4_4  and  N1_5 
REMARK    3  A    between atoms: C7_8  and  O1_9 
REMARK    4  A    between atoms: C7_8  and  C8_11 
REMARK    5  A    between atoms: C8_11  and  O2_13 
REMARK    6  A    between atoms: C8_11  and  C10_15 
ROOT
HETATM    1  C1  UNL     1      -7.281   1.045  16.963  1.00  0.00     0.112 C 
HETATM    2  C2  UNL     1      -6.747   2.254  16.321  1.00  0.00    -0.109 C 
HETATM    3  C3  UNL     1      -6.312   3.238  15.773  1.00  0.00    -0.077 C 
ENDROOT
BRANCH   3   4
HETATM    4  C4  UNL     1      -5.788   4.414  15.087  1.00  0.00     0.365 C 
BRANCH   4   5
HETATM    5  N1  UNL     1      -4.360   4.239  14.959  1.00  0.00     0.099 N 
HETATM    6  C5  UNL     1      -3.995   3.192  14.050  1.00  0.00     0.276 C 
HETATM    7  C6  UNL     1      -3.785   3.680  12.632  1.00  0.00     0.071 C 
HETATM    8  C7  UNL     1      -2.735   4.713  12.497  1.00  0.00     0.092 C 
HETATM    9  C14 UNL     1      -2.452   5.223  13.929  1.00  0.00     0.071 C 
HETATM   10  C15 UNL     1      -3.822   5.515  14.543  1.00  0.00     0.276 C 
BRANCH   8  11
HETATM   11  O1  UNL     1      -3.254   5.870  11.870  1.00  0.00    -0.387 OA
ATOM     12  H1  UNL     1      -2.552   6.387  11.492  1.00  0.00     0.210 HD
ENDBRANCH   8  11
BRANCH   8  13
HETATM   13  C8  UNL     1      -1.423   4.313  11.939  1.00  0.00     0.091 C 
HETATM   14  C9  UNL     1      -0.643   5.622  11.702  1.00  0.00     0.050 C 
BRANCH  13  15
HETATM   15  O2  UNL     1      -0.707   3.669  12.962  1.00  0.00    -0.386 OA
ATOM     16  H2  UNL     1      -0.077   3.091  12.549  1.00  0.00     0.210 HD
ENDBRANCH  13  15
BRANCH  13  17
HETATM   17  C10 UNL     1      -1.387   3.495  10.714  1.00  0.00    -0.018 C 
HETATM   18  C11 UNL     1      -1.784   2.048  10.870  1.00  0.00     0.018 C 
HETATM   19  C12 UNL     1       0.064   3.465  10.215  1.00  0.00     0.018 C 
HETATM   20  C13 UNL     1      -2.195   4.044   9.563  1.00  0.00     0.018 C 
ENDBRANCH  13  17
ENDBRANCH   8  13
ENDBRANCH   4   5
ENDBRANCH   3   4
TORSDOF 6
ENDMDL
MODEL 3
REMARK VINA RESULT: -5.824460404      2.310      5.917
REMARK  6 active torsions:
REMARK  status: ('A' for Active; 'I' for Inactive)
REMARK    1  A    between atoms: C3_3  and  C4_4 
REMARK    2  A    between atoms: C4_4  and  N1_5 
REMARK    3  A    between atoms: C7_8  and  O1_9 
REMARK    4  A    between atoms: C7_8  and  C8_11 
REMARK    5  A    between atoms: C8_11  and  O2_13 
REMARK    6  A    between atoms: C8_11  and  C10_15 
ROOT
HETATM    1  C1  UNL     1      -6.330   2.169  18.664  1.00  0.00     0.112 C 
HETATM    2  C2  UNL     1      -5.625   1.617  17.499  1.00  0.00    -0.109 C 
HETATM    3  C3  UNL     1      -5.029   1.180  16.544  1.00  0.00    -0.077 C 
ENDROOT
BRANCH   3   4
HETATM    4  C4  UNL     1      -4.293   0.673  15.390  1.00  0.00     0.365 C 
BRANCH   4   5
HETATM    5  N1  UNL     1      -4.836   1.314  14.216  1.00  0.00     0.099 N 
HETATM    6  C5  UNL     1      -4.805   2.746  14.282  1.00  0.00     0.276 C 
HETATM    7  C6  UNL     1      -3.546   3.343  13.689  1.00  0.00     0.071 C 
HETATM    8  C7  UNL     1      -3.328   3.003  12.267  1.00  0.00     0.092 C 
HETATM    9  C14 UNL     1      -4.284   1.829  11.957  1.00  0.00     0.071 C 
HETATM   10  C15 UNL     1      -4.080   0.819  13.087  1.00  0.00     0.276 C 
BRANCH   8  11
HETATM   11  O1  UNL     1      -2.059   2.404  12.088  1.00  0.00    -0.387 OA
ATOM     12  H1  UNL     1      -1.368   3.017  12.308  1.00  0.00     0.210 HD
ENDBRANCH   8  11
BRANCH   8  13
HETATM   13  C8  UNL     1      -3.608   4.038  11.245  1.00  0.00     0.091 C 
HETATM   14  C9  UNL     1      -2.564   3.832  10.130  1.00  0.00     0.050 C 
BRANCH  13  15
HETATM   15  O2  UNL     1      -4.830   3.709  10.634  1.00  0.00    -0.386 OA
ATOM     16  H2  UNL     1      -4.637   3.145   9.895  1.00  0.00     0.210 HD
ENDBRANCH  13  15
BRANCH  13  17
HETATM   17  C10 UNL     1      -3.618   5.455  11.649  1.00  0.00    -0.018 C 
HETATM   18  C11 UNL     1      -4.830   5.919  12.417  1.00  0.00     0.018 C 
HETATM   19  C12 UNL     1      -3.601   6.304  10.370  1.00  0.00     0.018 C 
HETATM   20  C13 UNL     1      -2.409   5.897  12.438  1.00  0.00     0.018 C 
ENDBRANCH  13  17
ENDBRANCH   8  13
ENDBRANCH   4   5
ENDBRANCH   3   4
TORSDOF 6
ENDMDL
MODEL 4
REMARK VINA RESULT: -5.816275831      1.634      1.694
REMARK  6 active torsions:
REMARK  status: ('A' for Active; 'I' for Inactive)
REMARK    1  A    between atoms: C3_3  and  C4_4 
REMARK    2  A    between atoms: C4_4  and  N1_5 
REMARK    3  A    between atoms: C7_8  and  O1_9 
REMARK    4  A    between atoms: C7_8  and  C8_11 
REMARK    5  A    between atoms: C8_11  and  O2_13 
REMARK    6  A    between atoms: C8_11  and  C10_15 
ROOT
HETATM    1  C1  UNL     1       1.003   5.971  11.708  1.00  0.00     0.112 C 
HETATM    2  C2  UNL     1      -0.368   5.450  11.796  1.00  0.00    -0.109 C 
HETATM    3  C3  UNL     1      -1.502   5.038  11.853  1.00  0.00    -0.077 C 
ENDROOT
BRANCH   3   4
HETATM    4  C4  UNL     1      -2.880   4.562  11.908  1.00  0.00     0.365 C 
BRANCH   4   5
HETATM    5  N1  UNL     1      -2.902   3.405  12.770  1.00  0.00     0.099 N 
HETATM    6  C5  UNL     1      -2.777   3.728  14.162  1.00  0.00     0.276 C 
HETATM    7  C6  UNL     1      -4.112   3.926  14.850  1.00  0.00     0.071 C 
HETATM    8  C7  UNL     1      -5.002   2.747  14.792  1.00  0.00     0.092 C 
HETATM    9  C14 UNL     1      -4.408   1.817  13.710  1.00  0.00     0.071 C 
HETATM   10  C15 UNL     1      -4.140   2.709  12.497  1.00  0.00     0.276 C 
BRANCH   8  11
HETATM   11  O1  UNL     1      -6.251   3.096  14.226  1.00  0.00    -0.387 OA
ATOM     12  H1  UNL     1      -6.228   2.997  13.282  1.00  0.00     0.210 HD
ENDBRANCH   8  11
BRANCH   8  13
HETATM   13  C8  UNL     1      -5.151   1.917  16.009  1.00  0.00     0.091 C 
HETATM   14  C9  UNL     1      -5.116   0.451  15.532  1.00  0.00     0.050 C 
BRANCH  13  15
HETATM   15  O2  UNL     1      -3.974   2.058  16.763  1.00  0.00    -0.386 OA
ATOM     16  H2  UNL     1      -4.222   2.072  17.680  1.00  0.00     0.210 HD
ENDBRANCH  13  15
BRANCH  13  17
HETATM   17  C10 UNL     1      -6.326   2.121  16.874  1.00  0.00    -0.018 C 
HETATM   18  C11 UNL     1      -6.930   3.503  16.857  1.00  0.00     0.018 C 
HETATM   19  C12 UNL     1      -5.882   1.891  18.325  1.00  0.00     0.018 C 
HETATM   20  C13 UNL     1      -7.459   1.151  16.642  1.00  0.00     0.018 C 
ENDBRANCH  13  17
ENDBRANCH   8  13
ENDBRANCH   4   5
ENDBRANCH   3   4
TORSDOF 6
ENDMDL
MODEL 5
REMARK VINA RESULT: -5.809584214      2.553      6.068
REMARK  6 active torsions:
REMARK  status: ('A' for Active; 'I' for Inactive)
REMARK    1  A    between atoms: C3_3  and  C4_4 
REMARK    2  A    between atoms: C4_4  and  N1_5 
REMARK    3  A    between atoms: C7_8  and  O1_9 
REMARK    4  A    between atoms: C7_8  and  C8_11 
REMARK    5  A    between atoms: C8_11  and  O2_13 
REMARK    6  A    between atoms: C8_11  and  C10_15 
ROOT
HETATM    1  C1  UNL     1      -6.314   1.827  18.428  1.00  0.00     0.112 C 
HETATM    2  C2  UNL     1      -6.349   2.541  17.144  1.00  0.00    -0.109 C 
HETATM    3  C3  UNL     1      -6.354   3.125  16.087  1.00  0.00    -0.077 C 
ENDROOT
BRANCH   3   4
HETATM    4  C4  UNL     1      -6.334   3.829  14.809  1.00  0.00     0.365 C 
BRANCH   4   5
HETATM    5  N1  UNL     1      -5.020   4.406  14.655  1.00  0.00     0.099 N 
HETATM    6  C5  UNL     1      -3.967   3.433  14.646  1.00  0.00     0.276 C 
HETATM    7  C6  UNL     1      -3.616   2.947  13.256  1.00  0.00     0.071 C 
HETATM    8  C7  UNL     1      -3.179   4.017  12.334  1.00  0.00     0.092 C 
HETATM    9  C14 UNL     1      -3.587   5.350  13.004  1.00  0.00     0.071 C 
HETATM   10  C15 UNL     1      -5.045   5.171  13.429  1.00  0.00     0.276 C 
BRANCH   8  11
HETATM   11  O1  UNL     1      -3.975   4.021  11.164  1.00  0.00    -0.387 OA
ATOM     12  H1  UNL     1      -3.454   3.782  10.407  1.00  0.00     0.210 HD
ENDBRANCH   8  11
BRANCH   8  13
HETATM   13  C8  UNL     1      -1.735   4.138  12.030  1.00  0.00     0.091 C 
HETATM   14  C9  UNL     1      -1.479   5.634  11.760  1.00  0.00     0.050 C 
BRANCH  13  15
HETATM   15  O2  UNL     1      -1.030   3.880  13.218  1.00  0.00    -0.386 OA
ATOM     16  H2  UNL     1      -0.659   3.008  13.146  1.00  0.00     0.210 HD
ENDBRANCH  13  15
BRANCH  13  17
HETATM   17  C10 UNL     1      -1.168   3.339  10.929  1.00  0.00    -0.018 C 
HETATM   18  C11 UNL     1      -1.438   1.856  10.978  1.00  0.00     0.018 C 
HETATM   19  C12 UNL     1       0.360   3.475  10.994  1.00  0.00     0.018 C 
HETATM   20  C13 UNL     1      -1.553   3.805   9.546  1.00  0.00     0.018 C 
ENDBRANCH  13  17
ENDBRANCH   8  13
ENDBRANCH   4   5
ENDBRANCH   3   4
TORSDOF 6
ENDMDL
