MODEL 1
REMARK VINA RESULT: -7.867112594      0.000      0.000
REMARK  5 active torsions:
REMARK  status: ('A' for Active; 'I' for Inactive)
REMARK    1  A    between atoms: C3_3  and  C4_4 
REMARK    2  A    between atoms: N1_9  and  O1_10 
REMARK    3  A    between atoms: O1_10  and  C9_11 
REMARK    4  A    between atoms: C10_12  and  O2_13 
REMARK    5  A    between atoms: C14_18  and  O3_19 
ROOT
HETATM    1  C9  UNL     1      -3.678   1.445  12.348  1.00  0.00     0.181 C 
HETATM    2  C10 UNL     1      -5.015   1.198  11.618  1.00  0.00     0.156 C 
HETATM    3  C11 UNL     1      -4.628   0.042  10.771  1.00  0.00     0.047 C 
HETATM    4  C12 UNL     1      -3.249   0.478  10.254  1.00  0.00     0.019 C 
HETATM    5  C13 UNL     1      -2.868   0.343  11.721  1.00  0.00     0.049 C 
HETATM    6  C14 UNL     1      -3.834  -0.824  11.741  1.00  0.00     0.131 C 
ENDROOT
BRANCH   1   7
HETATM    7  O1  UNL     1      -3.777   1.297  13.688  1.00  0.00    -0.295 OA
BRANCH   7   8
HETATM    8  N1  UNL     1      -4.932   1.535  14.280  1.00  0.00    -0.192 NA
HETATM    9  C2  UNL     1      -5.114   2.797  14.969  1.00  0.00     0.088 A 
HETATM   10  C1  UNL     1      -6.253   3.600  14.453  1.00  0.00     0.029 C 
HETATM   11  C3  UNL     1      -5.169   2.195  16.300  1.00  0.00     0.028 A 
HETATM   12  C8  UNL     1      -4.928   0.897  15.609  1.00  0.00     0.128 A 
BRANCH  11  13
HETATM   13  C4  UNL     1      -6.392   2.196  17.130  1.00  0.00    -0.045 C 
HETATM   14  C5  UNL     1      -7.013   3.601  17.179  1.00  0.00     0.015 C 
HETATM   15  C6  UNL     1      -5.946   1.909  18.573  1.00  0.00     0.015 C 
HETATM   16  C7  UNL     1      -7.471   1.247  16.784  1.00  0.00     0.015 C 
ENDBRANCH  11  13
ENDBRANCH   7   8
ENDBRANCH   1   7
BRANCH   2  17
HETATM   17  O2  UNL     1      -5.252   2.293  10.796  1.00  0.00    -0.392 OA
ATOM     18  H2  UNL     1      -4.667   2.990  11.069  1.00  0.00     0.210 HD
ENDBRANCH   2  17
BRANCH   6  19
HETATM   19  O3  UNL     1      -4.498  -1.026  12.939  1.00  0.00    -0.395 OA
ATOM     20  H3  UNL     1      -4.840  -0.219  13.306  1.00  0.00     0.210 HD
ENDBRANCH   6  19
TORSDOF 5
ENDMDL
MODEL 2
REMARK VINA RESULT: -7.005710606      1.202      1.918
REMARK  5 active torsions:
REMARK  status: ('A' for Active; 'I' for Inactive)
REMARK    1  A    between atoms: C3_3  and  C4_4 
REMARK    2  A    between atoms: N1_9  and  O1_10 
REMARK    3  A    between atoms: O1_10  and  C9_11 
REMARK    4  A    between atoms: C10_12  and  O2_13 
REMARK    5  A    between atoms: C14_18  and  O3_19 
ROOT
HETATM    1  C9  UNL     1      -3.513   1.423  12.838  1.00  0.00     0.181 C 
HETATM    2  C10 UNL     1      -2.717   1.757  11.559  1.00  0.00     0.156 C 
HETATM    3  C11 UNL     1      -3.486   0.961  10.570  1.00  0.00     0.047 C 
HETATM    4  C12 UNL     1      -3.698  -0.360  11.325  1.00  0.00     0.019 C 
HETATM    5  C13 UNL     1      -4.549   0.516  12.232  1.00  0.00     0.049 C 
HETATM    6  C14 UNL     1      -4.929   1.255  10.965  1.00  0.00     0.131 C 
ENDROOT
BRANCH   1   7
HETATM    7  O1  UNL     1      -4.070   2.515  13.408  1.00  0.00    -0.295 OA
BRANCH   7   8
HETATM    8  N1  UNL     1      -5.123   2.369  14.190  1.00  0.00    -0.192 NA
HETATM    9  C2  UNL     1      -5.200   3.152  15.406  1.00  0.00     0.088 A 
HETATM   10  C1  UNL     1      -6.404   4.019  15.482  1.00  0.00     0.029 C 
HETATM   11  C3  UNL     1      -5.053   2.002  16.295  1.00  0.00     0.028 A 
HETATM   12  C8  UNL     1      -4.917   1.191  15.053  1.00  0.00     0.128 A 
BRANCH  11  13
HETATM   13  C4  UNL     1      -6.136   1.531  17.183  1.00  0.00    -0.045 C 
HETATM   14  C5  UNL     1      -6.142   2.326  18.499  1.00  0.00     0.015 C 
HETATM   15  C6  UNL     1      -5.778   0.093  17.591  1.00  0.00     0.015 C 
HETATM   16  C7  UNL     1      -7.518   1.533  16.660  1.00  0.00     0.015 C 
ENDBRANCH  11  13
ENDBRANCH   7   8
ENDBRANCH   1   7
BRANCH   2  17
HETATM   17  O2  UNL     1      -1.452   1.195  11.694  1.00  0.00    -0.392 OA
ATOM     18  H2  UNL     1      -0.899   1.835  12.127  1.00  0.00     0.210 HD
ENDBRANCH   2  17
BRANCH   6  19
HETATM   19  O3  UNL     1      -5.173   2.608  11.116  1.00  0.00    -0.395 OA
ATOM     20  H3  UNL     1      -4.945   2.925  11.982  1.00  0.00     0.210 HD
ENDBRANCH   6  19
TORSDOF 5
ENDMDL
MODEL 3
REMARK VINA RESULT: -6.838260926      1.218      2.285
REMARK  5 active torsions:
REMARK  status: ('A' for Active; 'I' for Inactive)
REMARK    1  A    between atoms: C3_3  and  C4_4 
REMARK    2  A    between atoms: N1_9  and  O1_10 
REMARK    3  A    between atoms: O1_10  and  C9_11 
REMARK    4  A    between atoms: C10_12  and  O2_13 
REMARK    5  A    between atoms: C14_18  and  O3_19 
ROOT
HETATM    1  C9  UNL     1      -3.546   1.221  12.489  1.00  0.00     0.181 C 
HETATM    2  C10 UNL     1      -2.690   1.292  11.207  1.00  0.00     0.156 C 
HETATM    3  C11 UNL     1      -3.296   0.176  10.439  1.00  0.00     0.047 C 
HETATM    4  C12 UNL     1      -3.432  -0.910  11.516  1.00  0.00     0.019 C 
HETATM    5  C13 UNL     1      -4.435   0.069  12.107  1.00  0.00     0.049 C 
HETATM    6  C14 UNL     1      -4.787   0.392  10.669  1.00  0.00     0.131 C 
ENDROOT
BRANCH   1   7
HETATM    7  O1  UNL     1      -4.253   2.351  12.710  1.00  0.00    -0.295 OA
BRANCH   7   8
HETATM    8  N1  UNL     1      -4.522   2.712  13.951  1.00  0.00    -0.192 NA
HETATM    9  C2  UNL     1      -4.339   1.743  15.012  1.00  0.00     0.088 A 
HETATM   10  C1  UNL     1      -3.381   2.182  16.061  1.00  0.00     0.029 C 
HETATM   11  C3  UNL     1      -5.765   1.624  15.309  1.00  0.00     0.028 A 
HETATM   12  C8  UNL     1      -5.972   2.577  14.183  1.00  0.00     0.128 A 
BRANCH  11  13
HETATM   13  C4  UNL     1      -6.361   2.083  16.580  1.00  0.00    -0.045 C 
HETATM   14  C5  UNL     1      -5.470   1.690  17.770  1.00  0.00     0.015 C 
HETATM   15  C6  UNL     1      -7.658   1.282  16.774  1.00  0.00     0.015 C 
HETATM   16  C7  UNL     1      -6.680   3.519  16.722  1.00  0.00     0.015 C 
ENDBRANCH  11  13
ENDBRANCH   7   8
ENDBRANCH   1   7
BRANCH   2  17
HETATM   17  O2  UNL     1      -1.390   0.941  11.551  1.00  0.00    -0.392 OA
ATOM     18  H2  UNL     1      -0.975   0.583  10.775  1.00  0.00     0.210 HD
ENDBRANCH   2  17
BRANCH   6  19
HETATM   19  O3  UNL     1      -5.177   1.698  10.431  1.00  0.00    -0.395 OA
ATOM     20  H3  UNL     1      -5.801   2.014  11.073  1.00  0.00     0.210 HD
ENDBRANCH   6  19
TORSDOF 5
ENDMDL
MODEL 4
REMARK VINA RESULT: -6.684736478      1.470      1.713
REMARK  5 active torsions:
REMARK  status: ('A' for Active; 'I' for Inactive)
REMARK    1  A    between atoms: C3_3  and  C4_4 
REMARK    2  A    between atoms: N1_9  and  O1_10 
REMARK    3  A    between atoms: O1_10  and  C9_11 
REMARK    4  A    between atoms: C10_12  and  O2_13 
REMARK    5  A    between atoms: C14_18  and  O3_19 
ROOT
HETATM    1  C9  UNL     1      -3.279   2.951  12.827  1.00  0.00     0.181 C 
HETATM    2  C10 UNL     1      -4.552   3.037  11.960  1.00  0.00     0.156 C 
HETATM    3  C11 UNL     1      -4.022   2.504  10.681  1.00  0.00     0.047 C 
HETATM    4  C12 UNL     1      -2.667   3.221  10.578  1.00  0.00     0.019 C 
HETATM    5  C13 UNL     1      -2.342   2.375  11.800  1.00  0.00     0.049 C 
HETATM    6  C14 UNL     1      -3.194   1.309  11.142  1.00  0.00     0.131 C 
ENDROOT
BRANCH   1   7
HETATM    7  O1  UNL     1      -3.424   2.133  13.892  1.00  0.00    -0.295 OA
BRANCH   7   8
HETATM    8  N1  UNL     1      -4.597   2.056  14.493  1.00  0.00    -0.192 NA
HETATM    9  C2  UNL     1      -4.870   2.947  15.602  1.00  0.00     0.088 A 
HETATM   10  C1  UNL     1      -6.059   3.813  15.391  1.00  0.00     0.029 C 
HETATM   11  C3  UNL     1      -4.892   1.883  16.603  1.00  0.00     0.028 A 
HETATM   12  C8  UNL     1      -4.557   0.962  15.481  1.00  0.00     0.128 A 
BRANCH  11  13
HETATM   13  C4  UNL     1      -6.117   1.492  17.331  1.00  0.00    -0.045 C 
HETATM   14  C5  UNL     1      -6.194   2.210  18.688  1.00  0.00     0.015 C 
HETATM   15  C6  UNL     1      -5.968   0.002  17.679  1.00  0.00     0.015 C 
HETATM   16  C7  UNL     1      -7.419   1.680  16.658  1.00  0.00     0.015 C 
ENDBRANCH  11  13
ENDBRANCH   7   8
ENDBRANCH   1   7
BRANCH   2  17
HETATM   17  O2  UNL     1      -4.854   4.383  11.790  1.00  0.00    -0.392 OA
ATOM     18  H2  UNL     1      -4.946   4.769  12.653  1.00  0.00     0.210 HD
ENDBRANCH   2  17
BRANCH   6  19
HETATM   19  O3  UNL     1      -3.890   0.485  12.009  1.00  0.00    -0.395 OA
ATOM     20  H3  UNL     1      -3.379   0.245  12.773  1.00  0.00     0.210 HD
ENDBRANCH   6  19
TORSDOF 5
ENDMDL
MODEL 5
REMARK VINA RESULT: -6.663087238      0.994      1.877
REMARK  5 active torsions:
REMARK  status: ('A' for Active; 'I' for Inactive)
REMARK    1  A    between atoms: C3_3  and  C4_4 
REMARK    2  A    between atoms: N1_9  and  O1_10 
REMARK    3  A    between atoms: O1_10  and  C9_11 
REMARK    4  A    between atoms: C10_12  and  O2_13 
REMARK    5  A    between atoms: C14_18  and  O3_19 
ROOT
HETATM    1  C9  UNL     1      -4.174  -0.067  12.538  1.00  0.00     0.181 C 
HETATM    2  C10 UNL     1      -2.814  -0.400  11.890  1.00  0.00     0.156 C 
HETATM    3  C11 UNL     1      -2.906   0.438  10.669  1.00  0.00     0.047 C 
HETATM    4  C12 UNL     1      -4.348   0.171  10.211  1.00  0.00     0.019 C 
HETATM    5  C13 UNL     1      -4.690   0.895  11.504  1.00  0.00     0.049 C 
HETATM    6  C14 UNL     1      -3.471   1.746  11.211  1.00  0.00     0.131 C 
ENDROOT
BRANCH   1   7
HETATM    7  O1  UNL     1      -4.048   0.516  13.751  1.00  0.00    -0.295 OA
BRANCH   7   8
HETATM    8  N1  UNL     1      -5.119   1.003  14.348  1.00  0.00    -0.192 NA
HETATM    9  C2  UNL     1      -5.042   2.317  14.953  1.00  0.00     0.088 A 
HETATM   10  C1  UNL     1      -6.028   3.285  14.406  1.00  0.00     0.029 C 
HETATM   11  C3  UNL     1      -5.165   1.822  16.323  1.00  0.00     0.028 A 
HETATM   12  C8  UNL     1      -5.190   0.461  15.717  1.00  0.00     0.128 A 
BRANCH  11  13
HETATM   13  C4  UNL     1      -6.338   2.104  17.174  1.00  0.00    -0.045 C 
HETATM   14  C5  UNL     1      -6.757   3.577  17.051  1.00  0.00     0.015 C 
HETATM   15  C6  UNL     1      -5.875   1.945  18.631  1.00  0.00     0.015 C 
HETATM   16  C7  UNL     1      -7.552   1.282  16.985  1.00  0.00     0.015 C 
ENDBRANCH  11  13
ENDBRANCH   7   8
ENDBRANCH   1   7
BRANCH   2  17
HETATM   17  O2  UNL     1      -2.845  -1.738  11.514  1.00  0.00    -0.392 OA
ATOM     18  H2  UNL     1      -2.504  -1.796  10.629  1.00  0.00     0.210 HD
ENDBRANCH   2  17
BRANCH   6  19
HETATM   19  O3  UNL     1      -2.783   2.201  12.322  1.00  0.00    -0.395 OA
ATOM     20  H3  UNL     1      -1.841   2.173  12.204  1.00  0.00     0.210 HD
ENDBRANCH   6  19
TORSDOF 5
ENDMDL
