MODEL 1
REMARK VINA RESULT: -6.593496234      0.000      0.000
REMARK  3 active torsions:
REMARK  status: ('A' for Active; 'I' for Inactive)
REMARK    1  A    between atoms: C2_2  and  N1_3 
REMARK    2  A    between atoms: C5_6  and  N2_7 
REMARK       I    between atoms: N2_7  and  C6_9 
REMARK    3  A    between atoms: C6_9  and  C7_11 
ROOT
HETATM    1  N2  UNL     1      -3.394   5.236  14.394  1.00  0.00    -0.356 N 
ATOM      2  H2  UNL     1      -2.732   4.696  14.951  1.00  0.00     0.162 HD
HETATM    3  C6  UNL     1      -4.682   4.689  14.145  1.00  0.00     0.226 C 
HETATM    4  O1  UNL     1      -5.481   5.372  13.456  1.00  0.00    -0.273 OA
ENDROOT
BRANCH   3   5
HETATM    5  C7  UNL     1      -5.089   3.354  14.676  1.00  0.00     0.041 C 
HETATM    6  C8  UNL     1      -5.194   2.376  13.529  1.00  0.00     0.019 C 
HETATM    7  C9  UNL     1      -4.237   1.213  13.669  1.00  0.00     0.002 C 
HETATM    8  C10 UNL     1      -4.481   0.510  14.966  1.00  0.00     0.005 C 
HETATM    9  C11 UNL     1      -4.393   1.502  16.106  1.00  0.00    -0.013 C 
HETATM   10  C12 UNL     1      -5.695   1.540  16.830  1.00  0.00     0.005 C 
HETATM   11  C15 UNL     1      -4.027   2.864  15.615  1.00  0.00     0.023 C 
HETATM   12  C13 UNL     1      -6.412   2.865  16.747  1.00  0.00     0.002 C 
HETATM   13  C14 UNL     1      -6.445   3.424  15.348  1.00  0.00     0.019 C 
ENDBRANCH   3   5
BRANCH   1  14
HETATM   14  C5  UNL     1      -2.989   6.512  13.894  1.00  0.00     0.087 C 
HETATM   15  C4  UNL     1      -1.650   6.432  13.153  1.00  0.00     0.055 C 
HETATM   16  C3  UNL     1      -1.302   7.859  12.752  1.00  0.00     0.274 C 
HETATM   17  N1  UNL     1      -0.975   8.638  13.906  1.00  0.00     0.088 N 
HETATM   18  C17 UNL     1      -1.427   8.039  15.141  1.00  0.00     0.274 C 
HETATM   19  C16 UNL     1      -2.844   7.560  14.954  1.00  0.00     0.055 C 
BRANCH  17  20
HETATM   20  C2  UNL     1      -1.394  10.014  13.774  1.00  0.00     0.268 C 
HETATM   21  C1  UNL     1      -1.847  10.363  12.396  1.00  0.00     0.037 C 
ENDBRANCH  17  20
ENDBRANCH   1  14
TORSDOF 3
ENDMDL
MODEL 2
REMARK VINA RESULT: -6.323932016      1.725      2.567
REMARK  3 active torsions:
REMARK  status: ('A' for Active; 'I' for Inactive)
REMARK    1  A    between atoms: C2_2  and  N1_3 
REMARK    2  A    between atoms: C5_6  and  N2_7 
REMARK       I    between atoms: N2_7  and  C6_9 
REMARK    3  A    between atoms: C6_9  and  C7_11 
ROOT
HETATM    1  N2  UNL     1      -2.720   6.905  14.120  1.00  0.00    -0.356 N 
ATOM      2  H2  UNL     1      -3.646   7.324  14.041  1.00  0.00     0.162 HD
HETATM    3  C6  UNL     1      -2.610   5.488  14.113  1.00  0.00     0.226 C 
HETATM    4  O1  UNL     1      -1.459   4.993  14.210  1.00  0.00    -0.273 OA
ENDROOT
BRANCH   3   5
HETATM    5  C7  UNL     1      -3.807   4.603  13.994  1.00  0.00     0.041 C 
HETATM    6  C8  UNL     1      -3.814   3.961  12.626  1.00  0.00     0.019 C 
HETATM    7  C9  UNL     1      -3.740   2.452  12.693  1.00  0.00     0.002 C 
HETATM    8  C10 UNL     1      -4.874   1.925  13.513  1.00  0.00     0.005 C 
HETATM    9  C11 UNL     1      -4.870   2.589  14.874  1.00  0.00    -0.013 C 
HETATM   10  C12 UNL     1      -6.152   3.322  15.070  1.00  0.00     0.005 C 
HETATM   11  C15 UNL     1      -3.708   3.515  15.022  1.00  0.00     0.023 C 
HETATM   12  C13 UNL     1      -5.999   4.819  15.191  1.00  0.00     0.002 C 
HETATM   13  C14 UNL     1      -5.088   5.398  14.137  1.00  0.00     0.019 C 
ENDBRANCH   3   5
BRANCH   1  14
HETATM   14  C5  UNL     1      -1.585   7.765  14.232  1.00  0.00     0.087 C 
HETATM   15  C4  UNL     1      -1.717   8.729  15.416  1.00  0.00     0.055 C 
HETATM   16  C3  UNL     1      -0.493   9.631  15.367  1.00  0.00     0.274 C 
HETATM   17  N1  UNL     1      -0.563  10.509  14.241  1.00  0.00     0.088 N 
HETATM   18  C17 UNL     1      -1.515  10.077  13.243  1.00  0.00     0.274 C 
HETATM   19  C16 UNL     1      -1.333   8.598  13.013  1.00  0.00     0.055 C 
BRANCH  17  20
HETATM   20  C2  UNL     1       0.740  10.785  13.680  1.00  0.00     0.268 C 
HETATM   21  C1  UNL     1       1.863  10.275  14.518  1.00  0.00     0.037 C 
ENDBRANCH  17  20
ENDBRANCH   1  14
TORSDOF 3
ENDMDL
MODEL 3
REMARK VINA RESULT: -6.243892926      2.122      2.548
REMARK  3 active torsions:
REMARK  status: ('A' for Active; 'I' for Inactive)
REMARK    1  A    between atoms: C2_2  and  N1_3 
REMARK    2  A    between atoms: C5_6  and  N2_7 
REMARK       I    between atoms: N2_7  and  C6_9 
REMARK    3  A    between atoms: C6_9  and  C7_11 
ROOT
HETATM    1  N2  UNL     1      -4.783   5.056  12.837  1.00  0.00    -0.356 N 
ATOM      2  H2  UNL     1      -5.156   4.367  12.185  1.00  0.00     0.162 HD
HETATM    3  C6  UNL     1      -4.668   4.705  14.210  1.00  0.00     0.226 C 
HETATM    4  O1  UNL     1      -4.203   5.569  14.995  1.00  0.00    -0.273 OA
ENDROOT
BRANCH   3   5
HETATM    5  C7  UNL     1      -5.077   3.361  14.718  1.00  0.00     0.041 C 
HETATM    6  C8  UNL     1      -5.189   2.405  13.554  1.00  0.00     0.019 C 
HETATM    7  C9  UNL     1      -4.236   1.236  13.669  1.00  0.00     0.002 C 
HETATM    8  C10 UNL     1      -4.477   0.511  14.954  1.00  0.00     0.005 C 
HETATM    9  C11 UNL     1      -4.382   1.481  16.112  1.00  0.00    -0.013 C 
HETATM   10  C12 UNL     1      -5.681   1.510  16.841  1.00  0.00     0.005 C 
HETATM   11  C15 UNL     1      -4.013   2.851  15.644  1.00  0.00     0.023 C 
HETATM   12  C13 UNL     1      -6.394   2.839  16.785  1.00  0.00     0.002 C 
HETATM   13  C14 UNL     1      -6.430   3.424  15.396  1.00  0.00     0.019 C 
ENDBRANCH   3   5
BRANCH   1  14
HETATM   14  C5  UNL     1      -4.395   6.336  12.335  1.00  0.00     0.087 C 
HETATM   15  C4  UNL     1      -5.378   6.853  11.279  1.00  0.00     0.055 C 
HETATM   16  C3  UNL     1      -4.805   8.170  10.775  1.00  0.00     0.274 C 
HETATM   17  N1  UNL     1      -3.619   7.939  10.011  1.00  0.00     0.088 N 
HETATM   18  C17 UNL     1      -3.047   6.630  10.232  1.00  0.00     0.274 C 
HETATM   19  C16 UNL     1      -3.032   6.355  11.714  1.00  0.00     0.055 C 
BRANCH  17  20
HETATM   20  C2  UNL     1      -2.650   9.000  10.170  1.00  0.00     0.268 C 
HETATM   21  C1  UNL     1      -3.194  10.192  10.882  1.00  0.00     0.037 C 
ENDBRANCH  17  20
ENDBRANCH   1  14
TORSDOF 3
ENDMDL
MODEL 4
REMARK VINA RESULT: -6.221654857      1.340      1.902
REMARK  3 active torsions:
REMARK  status: ('A' for Active; 'I' for Inactive)
REMARK    1  A    between atoms: C2_2  and  N1_3 
REMARK    2  A    between atoms: C5_6  and  N2_7 
REMARK       I    between atoms: N2_7  and  C6_9 
REMARK    3  A    between atoms: C6_9  and  C7_11 
ROOT
HETATM    1  N2  UNL     1      -3.370   5.155  14.398  1.00  0.00    -0.356 N 
ATOM      2  H2  UNL     1      -3.970   5.584  15.102  1.00  0.00     0.162 HD
HETATM    3  C6  UNL     1      -3.556   3.780  14.088  1.00  0.00     0.226 C 
HETATM    4  O1  UNL     1      -2.806   3.274  13.216  1.00  0.00    -0.273 OA
ENDROOT
BRANCH   3   5
HETATM    5  C7  UNL     1      -4.601   2.953  14.762  1.00  0.00     0.041 C 
HETATM    6  C8  UNL     1      -4.713   1.623  14.053  1.00  0.00     0.019 C 
HETATM    7  C9  UNL     1      -4.390   0.455  14.957  1.00  0.00     0.002 C 
HETATM    8  C10 UNL     1      -5.287   0.476  16.152  1.00  0.00     0.005 C 
HETATM    9  C11 UNL     1      -5.182   1.819  16.844  1.00  0.00    -0.013 C 
HETATM   10  C12 UNL     1      -6.520   2.475  16.856  1.00  0.00     0.005 C 
HETATM   11  C15 UNL     1      -4.175   2.696  16.177  1.00  0.00     0.023 C 
HETATM   12  C13 UNL     1      -6.591   3.753  16.057  1.00  0.00     0.002 C 
HETATM   13  C14 UNL     1      -5.956   3.627  14.696  1.00  0.00     0.019 C 
ENDBRANCH   3   5
BRANCH   1  14
HETATM   14  C5  UNL     1      -2.376   5.960  13.761  1.00  0.00     0.087 C 
HETATM   15  C4  UNL     1      -2.174   7.293  14.490  1.00  0.00     0.055 C 
HETATM   16  C3  UNL     1      -1.161   8.076  13.667  1.00  0.00     0.274 C 
HETATM   17  N1  UNL     1      -1.736   8.485  12.423  1.00  0.00     0.088 N 
HETATM   18  C17 UNL     1      -2.931   7.749  12.082  1.00  0.00     0.274 C 
HETATM   19  C16 UNL     1      -2.682   6.283  12.331  1.00  0.00     0.055 C 
BRANCH  17  20
HETATM   20  C2  UNL     1      -0.768   8.496  11.351  1.00  0.00     0.268 C 
HETATM   21  C1  UNL     1       0.593   8.061  11.780  1.00  0.00     0.037 C 
ENDBRANCH  17  20
ENDBRANCH   1  14
TORSDOF 3
ENDMDL
MODEL 5
REMARK VINA RESULT: -6.193116336      2.927      3.281
REMARK  3 active torsions:
REMARK  status: ('A' for Active; 'I' for Inactive)
REMARK    1  A    between atoms: C2_2  and  N1_3 
REMARK    2  A    between atoms: C5_6  and  N2_7 
REMARK       I    between atoms: N2_7  and  C6_9 
REMARK    3  A    between atoms: C6_9  and  C7_11 
ROOT
HETATM    1  N2  UNL     1      -3.176   3.555  12.810  1.00  0.00    -0.356 N 
ATOM      2  H2  UNL     1      -3.317   2.611  12.451  1.00  0.00     0.162 HD
HETATM    3  C6  UNL     1      -3.848   3.940  14.002  1.00  0.00     0.226 C 
HETATM    4  O1  UNL     1      -3.657   5.107  14.426  1.00  0.00    -0.273 OA
ENDROOT
BRANCH   3   5
HETATM    5  C7  UNL     1      -4.748   3.003  14.738  1.00  0.00     0.041 C 
HETATM    6  C8  UNL     1      -4.834   1.699  13.978  1.00  0.00     0.019 C 
HETATM    7  C9  UNL     1      -4.327   0.524  14.784  1.00  0.00     0.002 C 
HETATM    8  C10 UNL     1      -5.090   0.422  16.065  1.00  0.00     0.005 C 
HETATM    9  C11 UNL     1      -5.015   1.738  16.809  1.00  0.00    -0.013 C 
HETATM   10  C12 UNL     1      -6.389   2.282  16.992  1.00  0.00     0.005 C 
HETATM   11  C15 UNL     1      -4.154   2.722  16.087  1.00  0.00     0.023 C 
HETATM   12  C13 UNL     1      -6.643   3.584  16.271  1.00  0.00     0.002 C 
HETATM   13  C14 UNL     1      -6.149   3.566  14.847  1.00  0.00     0.019 C 
ENDBRANCH   3   5
BRANCH   1  14
HETATM   14  C5  UNL     1      -2.310   4.438  12.094  1.00  0.00     0.087 C 
HETATM   15  C4  UNL     1      -2.373   4.193  10.582  1.00  0.00     0.055 C 
HETATM   16  C3  UNL     1      -1.352   5.134   9.959  1.00  0.00     0.274 C 
HETATM   17  N1  UNL     1      -0.023   4.720  10.288  1.00  0.00     0.088 N 
HETATM   18  C17 UNL     1       0.026   3.808  11.407  1.00  0.00     0.274 C 
HETATM   19  C16 UNL     1      -0.871   4.336  12.498  1.00  0.00     0.055 C 
BRANCH  17  20
HETATM   20  C2  UNL     1       0.875   5.841  10.447  1.00  0.00     0.268 C 
HETATM   21  C1  UNL     1       2.273   5.434  10.773  1.00  0.00     0.037 C 
ENDBRANCH  17  20
ENDBRANCH   1  14
TORSDOF 3
ENDMDL
