MODEL 1
REMARK VINA RESULT: -6.358076279      0.000      0.000
REMARK  3 active torsions:
REMARK  status: ('A' for Active; 'I' for Inactive)
REMARK    1  A    between atoms: O1_2  and  C2_3 
REMARK    2  A    between atoms: C4_8  and  C5_9 
REMARK    3  A    between atoms: C13_17  and  O3_18 
ROOT
HETATM    1  C5  UNL     1     -29.496  -9.238   0.074  1.00  0.00     0.052 C 
HETATM    2  C6  UNL     1     -29.654  -9.469  -1.463  1.00  0.00     0.012 C 
HETATM    3  C7  UNL     1     -30.408 -10.733  -1.708  1.00  0.00     0.010 C 
HETATM    4  C8  UNL     1     -31.840 -10.672  -1.324  1.00  0.00     0.023 C 
HETATM    5  C9  UNL     1     -32.082 -10.390   0.105  1.00  0.00    -0.078 C 
HETATM    6  C10 UNL     1     -32.523 -11.311   0.959  1.00  0.00    -0.023 C 
HETATM    7  C11 UNL     1     -32.829 -12.722   0.616  1.00  0.00     0.035 C 
HETATM    8  C12 UNL     1     -32.167 -13.044  -0.677  1.00  0.00     0.027 C 
HETATM    9  C13 UNL     1     -32.662 -14.288  -1.350  1.00  0.00     0.123 C 
HETATM   10  C14 UNL     1     -32.745 -13.969  -2.838  1.00  0.00     0.033 C 
HETATM   11  C15 UNL     1     -32.072 -12.590  -2.953  1.00  0.00     0.013 C 
HETATM   12  C16 UNL     1     -32.525 -11.961  -1.671  1.00  0.00    -0.030 C 
HETATM   13  C17 UNL     1     -34.002 -11.662  -1.722  1.00  0.00     0.016 C 
HETATM   14  C18 UNL     1     -31.928  -9.129   0.848  1.00  0.00     0.039 C 
HETATM   15  C19 UNL     1     -30.718  -8.384   0.451  1.00  0.00    -0.004 C 
HETATM   16  C20 UNL     1     -30.394  -7.388   1.528  1.00  0.00     0.011 C 
ENDROOT
BRANCH   1  17
HETATM   17  C4  UNL     1     -28.331  -8.322   0.132  1.00  0.00     0.115 A 
HETATM   18  C2  UNL     1     -27.099  -8.542   0.735  1.00  0.00     0.117 A 
HETATM   19  C3  UNL     1     -26.353  -7.398   0.545  1.00  0.00     0.153 A 
HETATM   20  N1  UNL     1     -27.143  -6.553  -0.151  1.00  0.00    -0.269 N 
HETATM   21  O2  UNL     1     -28.277  -7.135  -0.363  1.00  0.00    -0.239 OA
ATOM     22  H1  UNL     1     -26.888  -5.614  -0.457  1.00  0.00     0.194 HD
BRANCH  18  23
HETATM   23  O1  UNL     1     -26.730  -9.702   1.373  1.00  0.00    -0.352 OA
HETATM   24  C1  UNL     1     -25.968 -10.679   0.696  1.00  0.00     0.210 C 
ENDBRANCH  18  23
ENDBRANCH   1  17
BRANCH   9  25
HETATM   25  O3  UNL     1     -33.838 -14.771  -0.845  1.00  0.00    -0.395 OA
ATOM     26  H3  UNL     1     -34.355 -15.271  -1.466  1.00  0.00     0.210 HD
ENDBRANCH   9  25
TORSDOF 3
ENDMDL
MODEL 2
REMARK VINA RESULT: -6.161367154      3.105      4.562
REMARK  3 active torsions:
REMARK  status: ('A' for Active; 'I' for Inactive)
REMARK    1  A    between atoms: O1_2  and  C2_3 
REMARK    2  A    between atoms: C4_8  and  C5_9 
REMARK    3  A    between atoms: C13_17  and  O3_18 
ROOT
HETATM    1  C5  UNL     1     -29.305  -6.074   2.429  1.00  0.00     0.052 C 
HETATM    2  C6  UNL     1     -28.172  -6.729   1.576  1.00  0.00     0.012 C 
HETATM    3  C7  UNL     1     -28.698  -7.943   0.886  1.00  0.00     0.010 C 
HETATM    4  C8  UNL     1     -29.677  -7.653  -0.192  1.00  0.00     0.023 C 
HETATM    5  C9  UNL     1     -30.895  -6.948   0.255  1.00  0.00    -0.078 C 
HETATM    6  C10 UNL     1     -32.084  -7.540   0.338  1.00  0.00    -0.023 C 
HETATM    7  C11 UNL     1     -32.360  -8.959   0.004  1.00  0.00     0.035 C 
HETATM    8  C12 UNL     1     -31.069  -9.699  -0.008  1.00  0.00     0.027 C 
HETATM    9  C13 UNL     1     -31.112 -11.039  -0.676  1.00  0.00     0.123 C 
HETATM   10  C14 UNL     1     -29.821 -11.161  -1.479  1.00  0.00     0.033 C 
HETATM   11  C15 UNL     1     -29.001  -9.936  -1.038  1.00  0.00     0.013 C 
HETATM   12  C16 UNL     1     -30.093  -8.926  -0.869  1.00  0.00    -0.030 C 
HETATM   13  C17 UNL     1     -30.662  -8.533  -2.210  1.00  0.00     0.016 C 
HETATM   14  C18 UNL     1     -31.066  -5.542   0.657  1.00  0.00     0.039 C 
HETATM   15  C19 UNL     1     -29.944  -5.049   1.478  1.00  0.00    -0.004 C 
HETATM   16  C20 UNL     1     -30.391  -3.813   2.206  1.00  0.00     0.011 C 
ENDROOT
BRANCH   1  17
HETATM   17  C4  UNL     1     -28.532  -5.282   3.416  1.00  0.00     0.115 A 
HETATM   18  C2  UNL     1     -28.784  -5.123   4.773  1.00  0.00     0.117 A 
HETATM   19  C3  UNL     1     -27.809  -4.282   5.263  1.00  0.00     0.153 A 
HETATM   20  N1  UNL     1     -27.023  -3.973   4.210  1.00  0.00    -0.269 N 
HETATM   21  O2  UNL     1     -27.485  -4.575   3.165  1.00  0.00    -0.239 OA
ATOM     22  H1  UNL     1     -26.203  -3.367   4.235  1.00  0.00     0.194 HD
BRANCH  18  23
HETATM   23  O1  UNL     1     -29.812  -5.726   5.458  1.00  0.00    -0.352 OA
HETATM   24  C1  UNL     1     -29.544  -6.746   6.397  1.00  0.00     0.210 C 
ENDBRANCH  18  23
ENDBRANCH   1  17
BRANCH   9  25
HETATM   25  O3  UNL     1     -32.230 -11.254  -1.435  1.00  0.00    -0.395 OA
ATOM     26  H3  UNL     1     -32.099 -11.848  -2.165  1.00  0.00     0.210 HD
ENDBRANCH   9  25
TORSDOF 3
ENDMDL
MODEL 3
REMARK VINA RESULT: -6.123921439      2.583      6.669
REMARK  3 active torsions:
REMARK  status: ('A' for Active; 'I' for Inactive)
REMARK    1  A    between atoms: O1_2  and  C2_3 
REMARK    2  A    between atoms: C4_8  and  C5_9 
REMARK    3  A    between atoms: C13_17  and  O3_18 
ROOT
HETATM    1  C5  UNL     1     -30.385  -9.481  -2.039  1.00  0.00     0.052 C 
HETATM    2  C6  UNL     1     -29.948 -10.757  -1.251  1.00  0.00     0.012 C 
HETATM    3  C7  UNL     1     -28.554 -10.585  -0.746  1.00  0.00     0.010 C 
HETATM    4  C8  UNL     1     -28.418  -9.575   0.332  1.00  0.00     0.023 C 
HETATM    5  C9  UNL     1     -28.825  -8.208  -0.049  1.00  0.00    -0.078 C 
HETATM    6  C10 UNL     1     -27.953  -7.221  -0.245  1.00  0.00    -0.023 C 
HETATM    7  C11 UNL     1     -26.480  -7.342  -0.114  1.00  0.00     0.035 C 
HETATM    8  C12 UNL     1     -26.120  -8.785  -0.166  1.00  0.00     0.027 C 
HETATM    9  C13 UNL     1     -24.739  -9.112   0.313  1.00  0.00     0.123 C 
HETATM   10  C14 UNL     1     -24.858 -10.395   1.128  1.00  0.00     0.033 C 
HETATM   11  C15 UNL     1     -26.307 -10.850   0.880  1.00  0.00     0.013 C 
HETATM   12  C16 UNL     1     -27.000  -9.524   0.819  1.00  0.00    -0.030 C 
HETATM   13  C17 UNL     1     -27.036  -8.883   2.184  1.00  0.00     0.016 C 
HETATM   14  C18 UNL     1     -30.175  -7.659  -0.261  1.00  0.00     0.039 C 
HETATM   15  C19 UNL     1     -31.060  -8.598  -0.976  1.00  0.00    -0.004 C 
HETATM   16  C20 UNL     1     -32.218  -7.828  -1.542  1.00  0.00     0.011 C 
ENDROOT
BRANCH   1  17
HETATM   17  C4  UNL     1     -31.485 -10.002  -2.887  1.00  0.00     0.115 A 
HETATM   18  C2  UNL     1     -32.537 -10.829  -2.513  1.00  0.00     0.117 A 
HETATM   19  C3  UNL     1     -33.285 -11.059  -3.647  1.00  0.00     0.153 A 
HETATM   20  N1  UNL     1     -32.674 -10.376  -4.639  1.00  0.00    -0.269 N 
HETATM   21  O2  UNL     1     -31.637  -9.783  -4.147  1.00  0.00    -0.239 OA
ATOM     22  H1  UNL     1     -32.980 -10.335  -5.611  1.00  0.00     0.194 HD
BRANCH  18  23
HETATM   23  O1  UNL     1     -32.759 -11.292  -1.238  1.00  0.00    -0.352 OA
HETATM   24  C1  UNL     1     -33.203 -12.615  -1.025  1.00  0.00     0.210 C 
ENDBRANCH  18  23
ENDBRANCH   1  17
BRANCH   9  25
HETATM   25  O3  UNL     1     -24.128  -8.101   1.004  1.00  0.00    -0.395 OA
ATOM     26  H3  UNL     1     -24.518  -7.913   1.849  1.00  0.00     0.210 HD
ENDBRANCH   9  25
TORSDOF 3
ENDMDL
MODEL 4
REMARK VINA RESULT: -6.047801280      1.737      2.050
REMARK  3 active torsions:
REMARK  status: ('A' for Active; 'I' for Inactive)
REMARK    1  A    between atoms: O1_2  and  C2_3 
REMARK    2  A    between atoms: C4_8  and  C5_9 
REMARK    3  A    between atoms: C13_17  and  O3_18 
ROOT
HETATM    1  C5  UNL     1     -30.247  -7.973   0.919  1.00  0.00     0.052 C 
HETATM    2  C6  UNL     1     -30.470  -7.869  -0.623  1.00  0.00     0.012 C 
HETATM    3  C7  UNL     1     -30.562  -9.237  -1.213  1.00  0.00     0.010 C 
HETATM    4  C8  UNL     1     -31.791  -9.979  -0.839  1.00  0.00     0.023 C 
HETATM    5  C9  UNL     1     -31.955 -10.210   0.610  1.00  0.00    -0.078 C 
HETATM    6  C10 UNL     1     -31.797 -11.405   1.175  1.00  0.00    -0.023 C 
HETATM    7  C11 UNL     1     -31.441 -12.652   0.454  1.00  0.00     0.035 C 
HETATM    8  C12 UNL     1     -30.875 -12.284  -0.872  1.00  0.00     0.027 C 
HETATM    9  C13 UNL     1     -30.805 -13.404  -1.864  1.00  0.00     0.123 C 
HETATM   10  C14 UNL     1     -31.217 -12.814  -3.208  1.00  0.00     0.033 C 
HETATM   11  C15 UNL     1     -31.295 -11.303  -2.934  1.00  0.00     0.013 C 
HETATM   12  C16 UNL     1     -31.824 -11.309  -1.533  1.00  0.00    -0.030 C 
HETATM   13  C17 UNL     1     -33.261 -11.769  -1.513  1.00  0.00     0.016 C 
HETATM   14  C18 UNL     1     -32.322  -9.259   1.672  1.00  0.00     0.039 C 
HETATM   15  C19 UNL     1     -31.668  -7.947   1.506  1.00  0.00    -0.004 C 
HETATM   16  C20 UNL     1     -31.719  -7.216   2.817  1.00  0.00     0.011 C 
ENDROOT
BRANCH   1  17
HETATM   17  C4  UNL     1     -29.655  -6.651   1.237  1.00  0.00     0.115 A 
HETATM   18  C2  UNL     1     -28.371  -6.374   1.689  1.00  0.00     0.117 A 
HETATM   19  C3  UNL     1     -28.296  -5.009   1.864  1.00  0.00     0.153 A 
HETATM   20  N1  UNL     1     -29.507  -4.525   1.516  1.00  0.00    -0.269 N 
HETATM   21  O2  UNL     1     -30.257  -5.515   1.163  1.00  0.00    -0.239 OA
ATOM     22  H1  UNL     1     -29.784  -3.543   1.530  1.00  0.00     0.194 HD
BRANCH  18  23
HETATM   23  O1  UNL     1     -27.388  -7.314   1.892  1.00  0.00    -0.352 OA
HETATM   24  C1  UNL     1     -26.516  -7.675   0.842  1.00  0.00     0.210 C 
ENDBRANCH  18  23
ENDBRANCH   1  17
BRANCH   9  25
HETATM   25  O3  UNL     1     -31.539 -14.507  -1.522  1.00  0.00    -0.395 OA
ATOM     26  H3  UNL     1     -31.485 -15.222  -2.145  1.00  0.00     0.210 HD
ENDBRANCH   9  25
TORSDOF 3
ENDMDL
MODEL 5
REMARK VINA RESULT: -5.957366800      3.164      7.218
REMARK  3 active torsions:
REMARK  status: ('A' for Active; 'I' for Inactive)
REMARK    1  A    between atoms: O1_2  and  C2_3 
REMARK    2  A    between atoms: C4_8  and  C5_9 
REMARK    3  A    between atoms: C13_17  and  O3_18 
ROOT
HETATM    1  C5  UNL     1     -29.553  -8.753   0.526  1.00  0.00     0.052 C 
HETATM    2  C6  UNL     1     -30.228  -7.697  -0.408  1.00  0.00     0.012 C 
HETATM    3  C7  UNL     1     -30.642  -6.507   0.393  1.00  0.00     0.010 C 
HETATM    4  C8  UNL     1     -29.509  -5.693   0.900  1.00  0.00     0.023 C 
HETATM    5  C9  UNL     1     -28.584  -6.416   1.796  1.00  0.00    -0.078 C 
HETATM    6  C10 UNL     1     -28.531  -6.198   3.108  1.00  0.00    -0.023 C 
HETATM    7  C11 UNL     1     -29.370  -5.224   3.850  1.00  0.00     0.035 C 
HETATM    8  C12 UNL     1     -30.539  -4.868   3.001  1.00  0.00     0.027 C 
HETATM    9  C13 UNL     1     -31.283  -3.640   3.428  1.00  0.00     0.123 C 
HETATM   10  C14 UNL     1     -31.637  -2.885   2.152  1.00  0.00     0.033 C 
HETATM   11  C15 UNL     1     -31.247  -3.863   1.030  1.00  0.00     0.013 C 
HETATM   12  C16 UNL     1     -30.024  -4.488   1.629  1.00  0.00    -0.030 C 
HETATM   13  C17 UNL     1     -28.890  -3.494   1.673  1.00  0.00     0.016 C 
HETATM   14  C18 UNL     1     -27.578  -7.439   1.472  1.00  0.00     0.039 C 
HETATM   15  C19 UNL     1     -28.057  -8.404   0.464  1.00  0.00    -0.004 C 
HETATM   16  C20 UNL     1     -27.193  -9.631   0.526  1.00  0.00     0.011 C 
ENDROOT
BRANCH   1  17
HETATM   17  C4  UNL     1     -29.708 -10.003  -0.256  1.00  0.00     0.115 A 
HETATM   18  C2  UNL     1     -30.324 -11.186   0.133  1.00  0.00     0.117 A 
HETATM   19  C3  UNL     1     -30.197 -12.066  -0.920  1.00  0.00     0.153 A 
HETATM   20  N1  UNL     1     -29.529 -11.397  -1.884  1.00  0.00    -0.269 N 
HETATM   21  O2  UNL     1     -29.268 -10.209  -1.449  1.00  0.00    -0.239 OA
ATOM     22  H1  UNL     1     -29.273 -11.767  -2.799  1.00  0.00     0.194 HD
BRANCH  18  23
HETATM   23  O1  UNL     1     -30.945 -11.389   1.342  1.00  0.00    -0.352 OA
HETATM   24  C1  UNL     1     -32.312 -11.078   1.505  1.00  0.00     0.210 C 
ENDBRANCH  18  23
ENDBRANCH   1  17
BRANCH   9  25
HETATM   25  O3  UNL     1     -30.614  -2.864   4.335  1.00  0.00    -0.395 OA
ATOM     26  H3  UNL     1     -31.009  -2.014   4.488  1.00  0.00     0.210 HD
ENDBRANCH   9  25
TORSDOF 3
ENDMDL
