MODEL 1
REMARK VINA RESULT: -6.899898512      0.000      0.000
REMARK  2 active torsions:
REMARK  status: ('A' for Active; 'I' for Inactive)
REMARK    1  A    between atoms: C2_2  and  C3_3 
REMARK    2  A    between atoms: C3_3  and  C4_4 
ROOT
HETATM    1  C4  UNL     1     -31.260  -9.481  -2.228  1.00  0.00     0.109 C 
HETATM    2  C5  UNL     1     -31.217 -10.187  -3.511  1.00  0.00     0.099 C 
HETATM    3  N1  UNL     1     -31.570 -11.399  -3.670  1.00  0.00    -0.366 N 
ATOM      4  H1  UNL     1     -31.500 -11.808  -4.601  1.00  0.00     0.165 HD
HETATM    5  C6  UNL     1     -32.055 -12.206  -2.611  1.00  0.00     0.046 A 
HETATM    6  C7  UNL     1     -32.323 -13.544  -2.841  1.00  0.00     0.053 A 
HETATM    7  C8  UNL     1     -32.706 -14.359  -1.791  1.00  0.00     0.046 A 
HETATM    8  C9  UNL     1     -32.982 -15.745  -2.036  1.00  0.00     0.099 C 
HETATM    9  N2  UNL     1     -33.221 -16.863  -2.230  1.00  0.00    -0.191 NA
HETATM   10  C10 UNL     1     -32.821 -13.843  -0.523  1.00  0.00     0.024 A 
HETATM   11  C11 UNL     1     -32.545 -12.481  -0.316  1.00  0.00     0.018 A 
HETATM   12  C12 UNL     1     -32.169 -11.674  -1.348  1.00  0.00     0.023 A 
HETATM   13  C13 UNL     1     -31.978 -10.235  -1.138  1.00  0.00     0.092 C 
HETATM   14  O1  UNL     1     -31.685  -9.879   0.119  1.00  0.00    -0.349 OA
HETATM   15  C14 UNL     1     -30.617  -9.148   0.445  1.00  0.00     0.206 C 
HETATM   16  C15 UNL     1     -29.489  -9.126  -0.546  1.00  0.00     0.049 C 
HETATM   17  C16 UNL     1     -28.861  -7.746  -0.449  1.00  0.00     0.033 C 
HETATM   18  C17 UNL     1     -28.356  -7.608   0.977  1.00  0.00     0.002 C 
HETATM   19  C18 UNL     1     -27.120  -8.480   1.005  1.00  0.00     0.000 C 
HETATM   20  C19 UNL     1     -27.420  -9.919   0.723  1.00  0.00     0.002 C 
HETATM   21  C20 UNL     1     -28.511 -10.221  -0.193  1.00  0.00     0.033 C 
HETATM   22  N3  UNL     1     -29.858  -9.293  -1.890  1.00  0.00    -0.392 N 
ATOM     23  H3  UNL     1     -29.149  -9.281  -2.623  1.00  0.00     0.155 HD
ENDROOT
BRANCH   1  24
HETATM   24  C3  UNL     1     -31.980  -8.169  -2.298  1.00  0.00     0.043 C 
BRANCH  24  25
HETATM   25  C2  UNL     1     -33.233  -7.997  -3.014  1.00  0.00    -0.001 C 
HETATM   26  C1  UNL     1     -33.923  -6.671  -2.992  1.00  0.00     0.005 C 
ENDBRANCH  24  25
ENDBRANCH   1  24
TORSDOF 2
ENDMDL
MODEL 2
REMARK VINA RESULT: -6.543708937      1.994      6.263
REMARK  2 active torsions:
REMARK  status: ('A' for Active; 'I' for Inactive)
REMARK    1  A    between atoms: C2_2  and  C3_3 
REMARK    2  A    between atoms: C3_3  and  C4_4 
ROOT
HETATM    1  C4  UNL     1     -32.053 -11.307  -3.021  1.00  0.00     0.109 C 
HETATM    2  C5  UNL     1     -32.476  -9.905  -3.072  1.00  0.00     0.099 C 
HETATM    3  N1  UNL     1     -31.848  -8.950  -2.513  1.00  0.00    -0.366 N 
ATOM      4  H1  UNL     1     -32.223  -8.005  -2.600  1.00  0.00     0.165 HD
HETATM    5  C6  UNL     1     -30.653  -9.139  -1.775  1.00  0.00     0.046 A 
HETATM    6  C7  UNL     1     -30.085  -8.068  -1.111  1.00  0.00     0.053 A 
HETATM    7  C8  UNL     1     -28.973  -8.264  -0.312  1.00  0.00     0.046 A 
HETATM    8  C9  UNL     1     -28.388  -7.149   0.374  1.00  0.00     0.099 C 
HETATM    9  N2  UNL     1     -27.902  -6.248   0.919  1.00  0.00    -0.191 NA
HETATM   10  C10 UNL     1     -28.433  -9.521  -0.178  1.00  0.00     0.024 A 
HETATM   11  C11 UNL     1     -29.028 -10.593  -0.864  1.00  0.00     0.018 A 
HETATM   12  C12 UNL     1     -30.124 -10.403  -1.654  1.00  0.00     0.023 A 
HETATM   13  C13 UNL     1     -30.677 -11.510  -2.440  1.00  0.00     0.092 C 
HETATM   14  O1  UNL     1     -30.410 -12.733  -1.965  1.00  0.00    -0.349 OA
HETATM   15  C14 UNL     1     -31.353 -13.642  -1.706  1.00  0.00     0.206 C 
HETATM   16  C15 UNL     1     -32.747 -13.124  -1.502  1.00  0.00     0.049 C 
HETATM   17  C16 UNL     1     -33.683 -14.191  -2.045  1.00  0.00     0.033 C 
HETATM   18  C17 UNL     1     -33.424 -15.442  -1.223  1.00  0.00     0.002 C 
HETATM   19  C18 UNL     1     -34.085 -15.141   0.104  1.00  0.00     0.000 C 
HETATM   20  C19 UNL     1     -33.481 -13.959   0.797  1.00  0.00     0.002 C 
HETATM   21  C20 UNL     1     -32.963 -12.876  -0.029  1.00  0.00     0.033 C 
HETATM   22  N3  UNL     1     -33.064 -11.942  -2.191  1.00  0.00    -0.392 N 
ATOM     23  H3  UNL     1     -33.994 -11.533  -2.109  1.00  0.00     0.155 HD
ENDROOT
BRANCH   1  24
HETATM   24  C3  UNL     1     -31.978 -11.953  -4.370  1.00  0.00     0.043 C 
BRANCH  24  25
HETATM   25  C2  UNL     1     -33.154 -12.212  -5.185  1.00  0.00    -0.001 C 
HETATM   26  C1  UNL     1     -32.992 -12.571  -6.627  1.00  0.00     0.005 C 
ENDBRANCH  24  25
ENDBRANCH   1  24
TORSDOF 2
ENDMDL
MODEL 3
REMARK VINA RESULT: -6.456815948      2.601      6.317
REMARK  2 active torsions:
REMARK  status: ('A' for Active; 'I' for Inactive)
REMARK    1  A    between atoms: C2_2  and  C3_3 
REMARK    2  A    between atoms: C3_3  and  C4_4 
ROOT
HETATM    1  C4  UNL     1     -31.632 -10.436   0.476  1.00  0.00     0.109 C 
HETATM    2  C5  UNL     1     -30.756 -11.494   0.986  1.00  0.00     0.099 C 
HETATM    3  N1  UNL     1     -29.495 -11.378   1.108  1.00  0.00    -0.366 N 
ATOM      4  H1  UNL     1     -28.966 -12.173   1.468  1.00  0.00     0.165 HD
HETATM    5  C6  UNL     1     -28.791 -10.196   0.766  1.00  0.00     0.046 A 
HETATM    6  C7  UNL     1     -27.410 -10.181   0.831  1.00  0.00     0.053 A 
HETATM    7  C8  UNL     1     -26.713  -9.064   0.409  1.00  0.00     0.046 A 
HETATM    8  C9  UNL     1     -25.281  -9.055   0.479  1.00  0.00     0.099 C 
HETATM    9  N2  UNL     1     -24.123  -9.036   0.546  1.00  0.00    -0.191 NA
HETATM   10  C10 UNL     1     -27.390  -7.970  -0.073  1.00  0.00     0.024 A 
HETATM   11  C11 UNL     1     -28.794  -8.009  -0.127  1.00  0.00     0.018 A 
HETATM   12  C12 UNL     1     -29.484  -9.108   0.289  1.00  0.00     0.023 A 
HETATM   13  C13 UNL     1     -30.950  -9.100   0.319  1.00  0.00     0.092 C 
HETATM   14  O1  UNL     1     -31.531  -8.236  -0.523  1.00  0.00    -0.349 OA
HETATM   15  C14 UNL     1     -32.454  -8.592  -1.420  1.00  0.00     0.206 C 
HETATM   16  C15 UNL     1     -32.495 -10.043  -1.802  1.00  0.00     0.049 C 
HETATM   17  C16 UNL     1     -33.952 -10.371  -2.080  1.00  0.00     0.033 C 
HETATM   18  C17 UNL     1     -34.377  -9.476  -3.232  1.00  0.00     0.002 C 
HETATM   19  C18 UNL     1     -33.714 -10.106  -4.437  1.00  0.00     0.000 C 
HETATM   20  C19 UNL     1     -32.220 -10.112  -4.340  1.00  0.00     0.002 C 
HETATM   21  C20 UNL     1     -31.624 -10.250  -3.018  1.00  0.00     0.033 C 
HETATM   22  N3  UNL     1     -32.076 -10.945  -0.811  1.00  0.00    -0.392 N 
ATOM     23  H3  UNL     1     -32.083 -11.948  -0.993  1.00  0.00     0.155 HD
ENDROOT
BRANCH   1  24
HETATM   24  C3  UNL     1     -32.796 -10.147   1.374  1.00  0.00     0.043 C 
BRANCH  24  25
HETATM   25  C2  UNL     1     -32.663  -9.414   2.622  1.00  0.00    -0.001 C 
HETATM   26  C1  UNL     1     -33.406  -9.875   3.835  1.00  0.00     0.005 C 
ENDBRANCH  24  25
ENDBRANCH   1  24
TORSDOF 2
ENDMDL
MODEL 4
REMARK VINA RESULT: -6.419665476      2.472      6.581
REMARK  2 active torsions:
REMARK  status: ('A' for Active; 'I' for Inactive)
REMARK    1  A    between atoms: C2_2  and  C3_3 
REMARK    2  A    between atoms: C3_3  and  C4_4 
ROOT
HETATM    1  C4  UNL     1     -31.783  -8.117  -1.273  1.00  0.00     0.109 C 
HETATM    2  C5  UNL     1     -32.422  -7.041  -0.511  1.00  0.00     0.099 C 
HETATM    3  N1  UNL     1     -31.803  -6.268   0.288  1.00  0.00    -0.366 N 
ATOM      4  H1  UNL     1     -32.334  -5.549   0.779  1.00  0.00     0.165 HD
HETATM    5  C6  UNL     1     -30.409  -6.360   0.526  1.00  0.00     0.046 A 
HETATM    6  C7  UNL     1     -29.825  -5.552   1.484  1.00  0.00     0.053 A 
HETATM    7  C8  UNL     1     -28.484  -5.702   1.788  1.00  0.00     0.046 A 
HETATM    8  C9  UNL     1     -27.885  -4.861   2.783  1.00  0.00     0.099 C 
HETATM    9  N2  UNL     1     -27.392  -4.173   3.576  1.00  0.00    -0.191 NA
HETATM   10  C10 UNL     1     -27.733  -6.653   1.141  1.00  0.00     0.024 A 
HETATM   11  C11 UNL     1     -28.349  -7.460   0.170  1.00  0.00     0.018 A 
HETATM   12  C12 UNL     1     -29.670  -7.314  -0.134  1.00  0.00     0.023 A 
HETATM   13  C13 UNL     1     -30.277  -8.096  -1.215  1.00  0.00     0.092 C 
HETATM   14  O1  UNL     1     -29.658  -9.249  -1.499  1.00  0.00    -0.349 OA
HETATM   15  C14 UNL     1     -30.281 -10.430  -1.520  1.00  0.00     0.206 C 
HETATM   16  C15 UNL     1     -31.574 -10.522  -0.763  1.00  0.00     0.049 C 
HETATM   17  C16 UNL     1     -32.452 -11.495  -1.532  1.00  0.00     0.033 C 
HETATM   18  C17 UNL     1     -31.712 -12.822  -1.539  1.00  0.00     0.002 C 
HETATM   19  C18 UNL     1     -31.891 -13.339  -0.129  1.00  0.00     0.000 C 
HETATM   20  C19 UNL     1     -31.283 -12.437   0.901  1.00  0.00     0.002 C 
HETATM   21  C20 UNL     1     -31.284 -11.005   0.638  1.00  0.00     0.033 C 
HETATM   22  N3  UNL     1     -32.308  -9.329  -0.666  1.00  0.00    -0.392 N 
ATOM     23  H3  UNL     1     -33.201  -9.313  -0.173  1.00  0.00     0.155 HD
ENDROOT
BRANCH   1  24
HETATM   24  C3  UNL     1     -32.092  -8.069  -2.738  1.00  0.00     0.043 C 
BRANCH  24  25
HETATM   25  C2  UNL     1     -33.399  -8.410  -3.278  1.00  0.00    -0.001 C 
HETATM   26  C1  UNL     1     -34.373  -7.323  -3.599  1.00  0.00     0.005 C 
ENDBRANCH  24  25
ENDBRANCH   1  24
TORSDOF 2
ENDMDL
MODEL 5
REMARK VINA RESULT: -6.403350384      2.111      6.122
REMARK  2 active torsions:
REMARK  status: ('A' for Active; 'I' for Inactive)
REMARK    1  A    between atoms: C2_2  and  C3_3 
REMARK    2  A    between atoms: C3_3  and  C4_4 
ROOT
HETATM    1  C4  UNL     1     -31.733 -10.681  -2.191  1.00  0.00     0.109 C 
HETATM    2  C5  UNL     1     -31.645  -9.233  -2.397  1.00  0.00     0.099 C 
HETATM    3  N1  UNL     1     -30.723  -8.500  -1.915  1.00  0.00    -0.366 N 
ATOM      4  H1  UNL     1     -30.747  -7.499  -2.108  1.00  0.00     0.165 HD
HETATM    5  C6  UNL     1     -29.664  -9.011  -1.124  1.00  0.00     0.046 A 
HETATM    6  C7  UNL     1     -28.757  -8.138  -0.552  1.00  0.00     0.053 A 
HETATM    7  C8  UNL     1     -27.778  -8.621   0.298  1.00  0.00     0.046 A 
HETATM    8  C9  UNL     1     -26.840  -7.711   0.888  1.00  0.00     0.099 C 
HETATM    9  N2  UNL     1     -26.070  -6.981   1.356  1.00  0.00    -0.191 NA
HETATM   10  C10 UNL     1     -27.707  -9.966   0.575  1.00  0.00     0.024 A 
HETATM   11  C11 UNL     1     -28.639 -10.832  -0.020  1.00  0.00     0.018 A 
HETATM   12  C12 UNL     1     -29.604 -10.360  -0.860  1.00  0.00     0.023 A 
HETATM   13  C13 UNL     1     -30.510 -11.284  -1.549  1.00  0.00     0.092 C 
HETATM   14  O1  UNL     1     -30.681 -12.467  -0.945  1.00  0.00    -0.349 OA
HETATM   15  C14 UNL     1     -31.880 -12.962  -0.628  1.00  0.00     0.206 C 
HETATM   16  C15 UNL     1     -33.008 -11.977  -0.522  1.00  0.00     0.049 C 
HETATM   17  C16 UNL     1     -34.257 -12.707  -0.986  1.00  0.00     0.033 C 
HETATM   18  C17 UNL     1     -34.445 -13.876  -0.035  1.00  0.00     0.002 C 
HETATM   19  C18 UNL     1     -34.954 -13.228   1.233  1.00  0.00     0.000 C 
HETATM   20  C19 UNL     1     -33.975 -12.261   1.824  1.00  0.00     0.002 C 
HETATM   21  C20 UNL     1     -33.118 -11.517   0.911  1.00  0.00     0.033 C 
HETATM   22  N3  UNL     1     -32.898 -10.838  -1.335  1.00  0.00    -0.392 N 
ATOM     23  H3  UNL     1     -33.629 -10.127  -1.325  1.00  0.00     0.155 HD
ENDROOT
BRANCH   1  24
HETATM   24  C3  UNL     1     -31.892 -11.452  -3.466  1.00  0.00     0.043 C 
BRANCH  24  25
HETATM   25  C2  UNL     1     -33.088 -11.371  -4.290  1.00  0.00    -0.001 C 
HETATM   26  C1  UNL     1     -33.780 -12.626  -4.715  1.00  0.00     0.005 C 
ENDBRANCH  24  25
ENDBRANCH   1  24
TORSDOF 2
ENDMDL
