MODEL 1
REMARK VINA RESULT: -7.507221602      0.000      0.000
REMARK  13 active torsions:
REMARK  status: ('A' for Active; 'I' for Inactive)
REMARK    1  A    between atoms: C2_2  and  O1_3 
REMARK    2  A    between atoms: O1_3  and  C3_4 
REMARK    3  A    between atoms: C3_4  and  C4_6 
REMARK    4  A    between atoms: C4_6  and  N1_7 
REMARK    5  A    between atoms: C4_6  and  C23_48 
REMARK    6  A    between atoms: N1_7  and  N2_9 
REMARK    7  A    between atoms: N2_9  and  C5_11 
REMARK    8  A    between atoms: N7_26  and  C10_27 
REMARK    9  A    between atoms: C10_27  and  C11_28 
REMARK   10  A    between atoms: C11_28  and  C12_29 
REMARK   11  A    between atoms: C12_29  and  N8_30 
REMARK   12  A    between atoms: N8_30  and  C13_32 
REMARK   13  A    between atoms: C23_48  and  O5_50 
ROOT
HETATM    1  C5  UNL     1      10.241  -6.099  -1.083  1.00  0.00     0.166 A 
HETATM    2  N3  UNL     1      10.170  -7.240  -0.359  1.00  0.00    -0.173 N 
ATOM      3  H3  UNL     1       9.281  -7.486   0.076  1.00  0.00     0.186 HD
HETATM    4  C6  UNL     1      11.222  -8.064  -0.187  1.00  0.00     0.679 A 
HETATM    5  N4  UNL     1      11.087  -9.120   0.509  1.00  0.00    -0.234 N 
ATOM      6  H41 UNL     1      11.883  -9.743   0.639  1.00  0.00     0.174 HD
ATOM      7  H42 UNL     1      10.214  -9.396   0.958  1.00  0.00     0.174 HD
HETATM    8  N5  UNL     1      12.383  -7.697  -0.784  1.00  0.00    -0.174 N 
ATOM      9  H5  UNL     1      13.195  -8.304  -0.671  1.00  0.00     0.186 HD
HETATM   10  C7  UNL     1      12.522  -6.585  -1.514  1.00  0.00     0.156 A 
HETATM   11  C8  UNL     1      11.431  -5.738  -1.686  1.00  0.00     0.126 A 
HETATM   12  N6  UNL     1      11.859  -4.745  -2.455  1.00  0.00    -0.326 N 
ATOM     13  H6  UNL     1      11.297  -3.953  -2.765  1.00  0.00     0.168 HD
HETATM   14  C9  UNL     1      13.169  -4.953  -2.765  1.00  0.00     0.183 A 
HETATM   15 CL1  UNL     1      14.112  -3.891  -3.783  1.00  0.00    -0.044 Cl
HETATM   16  N7  UNL     1      13.601  -6.073  -2.199  1.00  0.00    -0.307 N 
ENDROOT
BRANCH  16  17
HETATM   17  C10 UNL     1      14.862  -6.758  -2.234  1.00  0.00     0.135 C 
BRANCH  17  18
HETATM   18  C11 UNL     1      15.127  -7.582  -3.429  1.00  0.00     0.039 C 
BRANCH  18  19
HETATM   19  C12 UNL     1      16.226  -8.595  -3.230  1.00  0.00     0.116 C 
BRANCH  19  20
HETATM   20  N8  UNL     1      15.628  -9.756  -2.592  1.00  0.00    -0.406 N 
ATOM     21  H8  UNL     1      14.833 -10.252  -2.995  1.00  0.00     0.154 HD
BRANCH  20  22
HETATM   22  C13 UNL     1      16.230 -10.154  -1.365  1.00  0.00     0.209 C 
HETATM   23  C14 UNL     1      17.059 -11.418  -1.532  1.00  0.00     0.247 C 
HETATM   24  O3  UNL     1      16.879 -12.395  -2.287  1.00  0.00    -0.271 OA
HETATM   25  N9  UNL     1      17.922 -10.950  -0.575  1.00  0.00    -0.324 N 
HETATM   26  C15 UNL     1      18.889 -11.386   0.438  1.00  0.00     0.167 C 
HETATM   27  C22 UNL     1      17.514  -9.571  -0.915  1.00  0.00     0.222 C 
HETATM   28  C16 UNL     1      18.145 -11.715   1.700  1.00  0.00    -0.020 A 
HETATM   29  C17 UNL     1      18.602 -12.821   2.342  1.00  0.00     0.036 A 
HETATM   30  C21 UNL     1      17.076 -10.937   2.144  1.00  0.00     0.027 A 
HETATM   31  C18 UNL     1      17.973 -13.196   3.503  1.00  0.00     0.058 A 
HETATM   32 CL2  UNL     1      18.470 -14.618   4.432  1.00  0.00    -0.082 Cl
HETATM   33  C19 UNL     1      16.895 -12.459   4.006  1.00  0.00     0.069 A 
HETATM   34  N10 UNL     1      16.261 -12.878   5.209  1.00  0.00    -0.101 NA
HETATM   35  C20 UNL     1      16.469 -11.336   3.306  1.00  0.00     0.048 A 
HETATM   36  S1  UNL     1      16.348  -9.486   1.445  1.00  0.00    -0.023 SA
HETATM   37  N11 UNL     1      17.493  -8.786   0.312  1.00  0.00    -0.146 NA
ENDBRANCH  20  22
ENDBRANCH  19  20
ENDBRANCH  18  19
ENDBRANCH  17  18
ENDBRANCH  16  17
BRANCH   1  38
HETATM   38  N2  UNL     1       9.206  -5.407  -1.224  1.00  0.00    -0.282 N 
ATOM     39  H2  UNL     1       8.558  -5.791  -1.912  1.00  0.00     0.188 HD
BRANCH  38  40
HETATM   40  N1  UNL     1       8.762  -4.260  -0.660  1.00  0.00    -0.288 N 
ATOM     41  H1  UNL     1       9.069  -4.002   0.278  1.00  0.00     0.187 HD
BRANCH  40  42
HETATM   42  C4  UNL     1       7.959  -3.498  -1.302  1.00  0.00     0.199 C 
BRANCH  42  43
HETATM   43  C3  UNL     1       8.507  -2.514  -2.221  1.00  0.00     0.317 C 
HETATM   44  O2  UNL     1       9.489  -2.787  -2.982  1.00  0.00    -0.257 OA
BRANCH  43  45
HETATM   45  O1  UNL     1       7.969  -1.229  -2.298  1.00  0.00    -0.317 OA
BRANCH  45  46
HETATM   46  C2  UNL     1       7.116  -0.941  -3.388  1.00  0.00     0.175 C 
HETATM   47  C1  UNL     1       6.520   0.427  -3.169  1.00  0.00     0.034 C 
ENDBRANCH  45  46
ENDBRANCH  43  45
ENDBRANCH  42  43
BRANCH  42  48
HETATM   48  C23 UNL     1       6.530  -3.621  -1.129  1.00  0.00     0.317 C 
HETATM   49  O4  UNL     1       5.991  -3.490  -0.013  1.00  0.00    -0.257 OA
BRANCH  48  50
HETATM   50  O5  UNL     1       5.674  -3.896  -2.201  1.00  0.00    -0.321 OA
HETATM   51  C24 UNL     1       5.871  -5.075  -2.981  1.00  0.00     0.213 C 
ENDBRANCH  48  50
ENDBRANCH  42  48
ENDBRANCH  40  42
ENDBRANCH  38  40
ENDBRANCH   1  38
TORSDOF 13
ENDMDL
MODEL 2
REMARK VINA RESULT: -7.460867922      0.635      1.545
REMARK  13 active torsions:
REMARK  status: ('A' for Active; 'I' for Inactive)
REMARK    1  A    between atoms: C2_2  and  O1_3 
REMARK    2  A    between atoms: O1_3  and  C3_4 
REMARK    3  A    between atoms: C3_4  and  C4_6 
REMARK    4  A    between atoms: C4_6  and  N1_7 
REMARK    5  A    between atoms: C4_6  and  C23_48 
REMARK    6  A    between atoms: N1_7  and  N2_9 
REMARK    7  A    between atoms: N2_9  and  C5_11 
REMARK    8  A    between atoms: N7_26  and  C10_27 
REMARK    9  A    between atoms: C10_27  and  C11_28 
REMARK   10  A    between atoms: C11_28  and  C12_29 
REMARK   11  A    between atoms: C12_29  and  N8_30 
REMARK   12  A    between atoms: N8_30  and  C13_32 
REMARK   13  A    between atoms: C23_48  and  O5_50 
ROOT
HETATM    1  C5  UNL     1      10.304  -6.109  -1.070  1.00  0.00     0.166 A 
HETATM    2  N3  UNL     1      10.260  -7.252  -0.348  1.00  0.00    -0.173 N 
ATOM      3  H3  UNL     1       9.382  -7.511   0.102  1.00  0.00     0.186 HD
HETATM    4  C6  UNL     1      11.325  -8.066  -0.200  1.00  0.00     0.679 A 
HETATM    5  N4  UNL     1      11.214  -9.125   0.495  1.00  0.00    -0.234 N 
ATOM      6  H41 UNL     1      12.020  -9.740   0.607  1.00  0.00     0.174 HD
ATOM      7  H42 UNL     1      10.354  -9.413   0.960  1.00  0.00     0.174 HD
HETATM    8  N5  UNL     1      12.469  -7.683  -0.818  1.00  0.00    -0.174 N 
ATOM      9  H5  UNL     1      13.290  -8.281  -0.722  1.00  0.00     0.186 HD
HETATM   10  C7  UNL     1      12.582  -6.567  -1.546  1.00  0.00     0.156 A 
HETATM   11  C8  UNL     1      11.478  -5.732  -1.694  1.00  0.00     0.126 A 
HETATM   12  N6  UNL     1      11.880  -4.732  -2.468  1.00  0.00    -0.326 N 
ATOM     13  H6  UNL     1      11.303  -3.945  -2.764  1.00  0.00     0.168 HD
HETATM   14  C9  UNL     1      13.187  -4.924  -2.803  1.00  0.00     0.183 A 
HETATM   15 CL1  UNL     1      14.098  -3.848  -3.835  1.00  0.00    -0.044 Cl
HETATM   16  N7  UNL     1      13.641  -6.041  -2.250  1.00  0.00    -0.307 N 
ENDROOT
BRANCH  16  17
HETATM   17  C10 UNL     1      14.910  -6.711  -2.312  1.00  0.00     0.135 C 
BRANCH  17  18
HETATM   18  C11 UNL     1      15.111  -7.630  -3.449  1.00  0.00     0.039 C 
BRANCH  18  19
HETATM   19  C12 UNL     1      16.214  -8.631  -3.226  1.00  0.00     0.116 C 
BRANCH  19  20
HETATM   20  N8  UNL     1      15.618  -9.790  -2.580  1.00  0.00    -0.406 N 
ATOM     21  H8  UNL     1      14.824 -10.289  -2.980  1.00  0.00     0.154 HD
BRANCH  20  22
HETATM   22  C13 UNL     1      16.221 -10.179  -1.351  1.00  0.00     0.209 C 
HETATM   23  C14 UNL     1      17.073 -11.428  -1.516  1.00  0.00     0.247 C 
HETATM   24  O3  UNL     1      16.913 -12.406  -2.274  1.00  0.00    -0.271 OA
HETATM   25  N9  UNL     1      17.923 -10.947  -0.554  1.00  0.00    -0.324 N 
HETATM   26  C15 UNL     1      18.891 -11.368   0.463  1.00  0.00     0.167 C 
HETATM   27  C22 UNL     1      17.492  -9.575  -0.894  1.00  0.00     0.222 C 
HETATM   28  C16 UNL     1      18.147 -11.712   1.721  1.00  0.00    -0.020 A 
HETATM   29  C17 UNL     1      18.620 -12.811   2.363  1.00  0.00     0.036 A 
HETATM   30  C21 UNL     1      17.063 -10.954   2.161  1.00  0.00     0.027 A 
HETATM   31  C18 UNL     1      17.991 -13.199   3.521  1.00  0.00     0.058 A 
HETATM   32 CL2  UNL     1      18.508 -14.614   4.449  1.00  0.00    -0.082 Cl
HETATM   33  C19 UNL     1      16.898 -12.483   4.019  1.00  0.00     0.069 A 
HETATM   34  N10 UNL     1      16.266 -12.915   5.218  1.00  0.00    -0.101 NA
HETATM   35  C20 UNL     1      16.457 -11.366   3.319  1.00  0.00     0.048 A 
HETATM   36  S1  UNL     1      16.313  -9.514   1.460  1.00  0.00    -0.023 SA
HETATM   37  N11 UNL     1      17.451  -8.793   0.334  1.00  0.00    -0.146 NA
ENDBRANCH  20  22
ENDBRANCH  19  20
ENDBRANCH  18  19
ENDBRANCH  17  18
ENDBRANCH  16  17
BRANCH   1  38
HETATM   38  N2  UNL     1       9.259  -5.428  -1.189  1.00  0.00    -0.282 N 
ATOM     39  H2  UNL     1       8.589  -5.833  -1.843  1.00  0.00     0.188 HD
BRANCH  38  40
HETATM   40  N1  UNL     1       8.827  -4.271  -0.636  1.00  0.00    -0.288 N 
ATOM     41  H1  UNL     1       9.086  -4.037   0.323  1.00  0.00     0.187 HD
BRANCH  40  42
HETATM   42  C4  UNL     1       8.094  -3.470  -1.313  1.00  0.00     0.199 C 
BRANCH  42  43
HETATM   43  C3  UNL     1       6.656  -3.484  -1.100  1.00  0.00     0.317 C 
HETATM   44  O2  UNL     1       6.155  -3.662   0.057  1.00  0.00    -0.257 OA
BRANCH  43  45
HETATM   45  O1  UNL     1       5.772  -3.302  -2.163  1.00  0.00    -0.317 OA
BRANCH  45  46
HETATM   46  C2  UNL     1       4.783  -2.301  -2.029  1.00  0.00     0.175 C 
HETATM   47  C1  UNL     1       5.092  -1.199  -3.011  1.00  0.00     0.034 C 
ENDBRANCH  45  46
ENDBRANCH  43  45
ENDBRANCH  42  43
BRANCH  42  48
HETATM   48  C23 UNL     1       8.683  -2.557  -2.264  1.00  0.00     0.317 C 
HETATM   49  O4  UNL     1       8.483  -1.328  -2.203  1.00  0.00    -0.257 OA
BRANCH  48  50
HETATM   50  O5  UNL     1       9.509  -2.998  -3.303  1.00  0.00    -0.321 OA
HETATM   51  C24 UNL     1       8.943  -3.706  -4.405  1.00  0.00     0.213 C 
ENDBRANCH  48  50
ENDBRANCH  42  48
ENDBRANCH  40  42
ENDBRANCH  38  40
ENDBRANCH   1  38
TORSDOF 13
ENDMDL
MODEL 3
REMARK VINA RESULT: -7.307824217      1.512      2.782
REMARK  13 active torsions:
REMARK  status: ('A' for Active; 'I' for Inactive)
REMARK    1  A    between atoms: C2_2  and  O1_3 
REMARK    2  A    between atoms: O1_3  and  C3_4 
REMARK    3  A    between atoms: C3_4  and  C4_6 
REMARK    4  A    between atoms: C4_6  and  N1_7 
REMARK    5  A    between atoms: C4_6  and  C23_48 
REMARK    6  A    between atoms: N1_7  and  N2_9 
REMARK    7  A    between atoms: N2_9  and  C5_11 
REMARK    8  A    between atoms: N7_26  and  C10_27 
REMARK    9  A    between atoms: C10_27  and  C11_28 
REMARK   10  A    between atoms: C11_28  and  C12_29 
REMARK   11  A    between atoms: C12_29  and  N8_30 
REMARK   12  A    between atoms: N8_30  and  C13_32 
REMARK   13  A    between atoms: C23_48  and  O5_50 
ROOT
HETATM    1  C5  UNL     1      10.417  -5.693  -1.606  1.00  0.00     0.166 A 
HETATM    2  N3  UNL     1      10.753  -5.229  -2.832  1.00  0.00    -0.173 N 
ATOM      3  H3  UNL     1      10.097  -4.617  -3.318  1.00  0.00     0.186 HD
HETATM    4  C6  UNL     1      11.916  -5.539  -3.438  1.00  0.00     0.679 A 
HETATM    5  N4  UNL     1      12.167  -5.070  -4.593  1.00  0.00    -0.234 N 
ATOM      6  H41 UNL     1      13.048  -5.306  -5.051  1.00  0.00     0.174 HD
ATOM      7  H42 UNL     1      11.535  -4.458  -5.108  1.00  0.00     0.174 HD
HETATM    8  N5  UNL     1      12.757  -6.354  -2.754  1.00  0.00    -0.174 N 
ATOM      9  H5  UNL     1      13.644  -6.604  -3.190  1.00  0.00     0.186 HD
HETATM   10  C7  UNL     1      12.488  -6.847  -1.540  1.00  0.00     0.156 A 
HETATM   11  C8  UNL     1      11.284  -6.523  -0.921  1.00  0.00     0.126 A 
HETATM   12  N6  UNL     1      11.305  -7.133   0.257  1.00  0.00    -0.326 N 
ATOM     13  H6  UNL     1      10.563  -7.096   0.955  1.00  0.00     0.168 HD
HETATM   14  C9  UNL     1      12.477  -7.815   0.386  1.00  0.00     0.183 A 
HETATM   15 CL1  UNL     1      12.920  -8.736   1.803  1.00  0.00    -0.044 Cl
HETATM   16  N7  UNL     1      13.220  -7.658  -0.703  1.00  0.00    -0.307 N 
ENDROOT
BRANCH  16  17
HETATM   17  C10 UNL     1      14.530  -8.122  -1.063  1.00  0.00     0.135 C 
BRANCH  17  18
HETATM   18  C11 UNL     1      14.601  -9.447  -1.709  1.00  0.00     0.039 C 
BRANCH  18  19
HETATM   19  C12 UNL     1      15.650  -9.534  -2.788  1.00  0.00     0.116 C 
BRANCH  19  20
HETATM   20  N8  UNL     1      16.351 -10.794  -2.602  1.00  0.00    -0.406 N 
ATOM     21  H8  UNL     1      16.485 -11.461  -3.362  1.00  0.00     0.154 HD
BRANCH  20  22
HETATM   22  C13 UNL     1      16.840 -11.031  -1.287  1.00  0.00     0.209 C 
HETATM   23  C14 UNL     1      17.733 -12.261  -1.234  1.00  0.00     0.247 C 
HETATM   24  O3  UNL     1      17.673 -13.318  -1.893  1.00  0.00    -0.271 OA
HETATM   25  N9  UNL     1      18.472 -11.652  -0.253  1.00  0.00    -0.324 N 
HETATM   26  C15 UNL     1      19.346 -11.930   0.892  1.00  0.00     0.167 C 
HETATM   27  C22 UNL     1      18.044 -10.339  -0.778  1.00  0.00     0.222 C 
HETATM   28  C16 UNL     1      18.489 -12.166   2.102  1.00  0.00    -0.020 A 
HETATM   29  C17 UNL     1      18.923 -13.174   2.903  1.00  0.00     0.036 A 
HETATM   30  C21 UNL     1      17.349 -11.403   2.353  1.00  0.00     0.027 A 
HETATM   31  C18 UNL     1      18.193 -13.459   4.030  1.00  0.00     0.058 A 
HETATM   32 CL2  UNL     1      18.650 -14.750   5.151  1.00  0.00    -0.082 Cl
HETATM   33  C19 UNL     1      17.039 -12.732   4.341  1.00  0.00     0.069 A 
HETATM   34  N10 UNL     1      16.302 -13.057   5.514  1.00  0.00    -0.101 NA
HETATM   35  C20 UNL     1      16.642 -11.711   3.486  1.00  0.00     0.048 A 
HETATM   36  S1  UNL     1      16.638 -10.071   1.433  1.00  0.00    -0.023 SA
HETATM   37  N11 UNL     1      17.864  -9.434   0.349  1.00  0.00    -0.146 NA
ENDBRANCH  20  22
ENDBRANCH  19  20
ENDBRANCH  18  19
ENDBRANCH  17  18
ENDBRANCH  16  17
BRANCH   1  38
HETATM   38  N2  UNL     1       9.332  -5.327  -1.098  1.00  0.00    -0.282 N 
ATOM     39  H2  UNL     1       8.666  -6.091  -0.982  1.00  0.00     0.188 HD
BRANCH  38  40
HETATM   40  N1  UNL     1       8.852  -4.136  -0.669  1.00  0.00    -0.288 N 
ATOM     41  H1  UNL     1       9.171  -3.750   0.220  1.00  0.00     0.187 HD
BRANCH  40  42
HETATM   42  C4  UNL     1       8.000  -3.495  -1.376  1.00  0.00     0.199 C 
BRANCH  42  43
HETATM   43  C3  UNL     1       6.586  -3.783  -1.204  1.00  0.00     0.317 C 
HETATM   44  O2  UNL     1       5.948  -3.397  -0.173  1.00  0.00    -0.257 OA
BRANCH  43  45
HETATM   45  O1  UNL     1       5.878  -4.496  -2.170  1.00  0.00    -0.317 OA
BRANCH  45  46
HETATM   46  C2  UNL     1       4.951  -3.783  -2.964  1.00  0.00     0.175 C 
HETATM   47  C1  UNL     1       5.429  -3.820  -4.394  1.00  0.00     0.034 C 
ENDBRANCH  45  46
ENDBRANCH  43  45
ENDBRANCH  42  43
BRANCH  42  48
HETATM   48  C23 UNL     1       8.433  -2.491  -2.320  1.00  0.00     0.317 C 
HETATM   49  O4  UNL     1       9.205  -2.763  -3.260  1.00  0.00    -0.257 OA
BRANCH  48  50
HETATM   50  O5  UNL     1       8.013  -1.159  -2.231  1.00  0.00    -0.321 OA
HETATM   51  C24 UNL     1       7.011  -0.672  -3.122  1.00  0.00     0.213 C 
ENDBRANCH  48  50
ENDBRANCH  42  48
ENDBRANCH  40  42
ENDBRANCH  38  40
ENDBRANCH   1  38
TORSDOF 13
ENDMDL
MODEL 4
REMARK VINA RESULT: -7.149038702      5.439      7.637
REMARK  13 active torsions:
REMARK  status: ('A' for Active; 'I' for Inactive)
REMARK    1  A    between atoms: C2_2  and  O1_3 
REMARK    2  A    between atoms: O1_3  and  C3_4 
REMARK    3  A    between atoms: C3_4  and  C4_6 
REMARK    4  A    between atoms: C4_6  and  N1_7 
REMARK    5  A    between atoms: C4_6  and  C23_48 
REMARK    6  A    between atoms: N1_7  and  N2_9 
REMARK    7  A    between atoms: N2_9  and  C5_11 
REMARK    8  A    between atoms: N7_26  and  C10_27 
REMARK    9  A    between atoms: C10_27  and  C11_28 
REMARK   10  A    between atoms: C11_28  and  C12_29 
REMARK   11  A    between atoms: C12_29  and  N8_30 
REMARK   12  A    between atoms: N8_30  and  C13_32 
REMARK   13  A    between atoms: C23_48  and  O5_50 
ROOT
HETATM    1  C5  UNL     1      18.532  -7.444  -0.974  1.00  0.00     0.166 A 
HETATM    2  N3  UNL     1      19.253  -6.528  -0.286  1.00  0.00    -0.173 N 
ATOM      3  H3  UNL     1      18.788  -5.992   0.446  1.00  0.00     0.186 HD
HETATM    4  C6  UNL     1      20.558  -6.295  -0.527  1.00  0.00     0.679 A 
HETATM    5  N4  UNL     1      21.176  -5.417   0.155  1.00  0.00    -0.234 N 
ATOM      6  H41 UNL     1      22.163  -5.240  -0.028  1.00  0.00     0.174 HD
ATOM      7  H42 UNL     1      20.742  -4.862   0.893  1.00  0.00     0.174 HD
HETATM    8  N5  UNL     1      21.135  -7.032  -1.508  1.00  0.00    -0.174 N 
ATOM      9  H5  UNL     1      22.122  -6.875  -1.710  1.00  0.00     0.186 HD
HETATM   10  C7  UNL     1      20.482  -7.953  -2.225  1.00  0.00     0.156 A 
HETATM   11  C8  UNL     1      19.133  -8.188  -1.970  1.00  0.00     0.126 A 
HETATM   12  N6  UNL     1      18.768  -9.149  -2.809  1.00  0.00    -0.326 N 
ATOM     13  H6  UNL     1      17.832  -9.550  -2.878  1.00  0.00     0.168 HD
HETATM   14  C9  UNL     1      19.841  -9.515  -3.565  1.00  0.00     0.183 A 
HETATM   15 CL1  UNL     1      19.797 -10.770  -4.779  1.00  0.00    -0.044 Cl
HETATM   16  N7  UNL     1      20.904  -8.796  -3.227  1.00  0.00    -0.307 N 
ENDROOT
BRANCH  16  17
HETATM   17  C10 UNL     1      22.267  -8.805  -3.677  1.00  0.00     0.135 C 
BRANCH  17  18
HETATM   18  C11 UNL     1      23.235  -9.515  -2.818  1.00  0.00     0.039 C 
BRANCH  18  19
HETATM   19  C12 UNL     1      23.003 -11.003  -2.753  1.00  0.00     0.116 C 
BRANCH  19  20
HETATM   20  N8  UNL     1      23.182 -11.405  -1.368  1.00  0.00    -0.406 N 
ATOM     21  H8  UNL     1      24.092 -11.387  -0.907  1.00  0.00     0.154 HD
BRANCH  20  22
HETATM   22  C13 UNL     1      21.999 -11.824  -0.698  1.00  0.00     0.209 C 
HETATM   23  C14 UNL     1      21.262 -10.649  -0.073  1.00  0.00     0.247 C 
HETATM   24  O3  UNL     1      21.716  -9.598   0.422  1.00  0.00    -0.271 OA
HETATM   25  N9  UNL     1      20.077 -11.291  -0.320  1.00  0.00    -0.324 N 
HETATM   26  C15 UNL     1      18.690 -11.401   0.144  1.00  0.00     0.167 C 
HETATM   27  C22 UNL     1      20.728 -12.016  -1.432  1.00  0.00     0.222 C 
HETATM   28  C16 UNL     1      18.640 -12.385   1.277  1.00  0.00    -0.020 A 
HETATM   29  C17 UNL     1      17.816 -12.021   2.293  1.00  0.00     0.036 A 
HETATM   30  C21 UNL     1      19.392 -13.559   1.260  1.00  0.00     0.027 A 
HETATM   31  C18 UNL     1      17.717 -12.864   3.373  1.00  0.00     0.058 A 
HETATM   32 CL2  UNL     1      16.682 -12.502   4.762  1.00  0.00    -0.082 Cl
HETATM   33  C19 UNL     1      18.442 -14.058   3.420  1.00  0.00     0.069 A 
HETATM   34  N10 UNL     1      18.320 -14.907   4.556  1.00  0.00    -0.101 NA
HETATM   35  C20 UNL     1      19.270 -14.380   2.351  1.00  0.00     0.048 A 
HETATM   36  S1  UNL     1      20.507 -14.187   0.041  1.00  0.00    -0.023 SA
HETATM   37  N11 UNL     1      20.184 -13.366  -1.477  1.00  0.00    -0.146 NA
ENDBRANCH  20  22
ENDBRANCH  19  20
ENDBRANCH  18  19
ENDBRANCH  17  18
ENDBRANCH  16  17
BRANCH   1  38
HETATM   38  N2  UNL     1      17.332  -7.626  -0.662  1.00  0.00    -0.282 N 
ATOM     39  H2  UNL     1      16.683  -7.382  -1.410  1.00  0.00     0.188 HD
BRANCH  38  40
HETATM   40  N1  UNL     1      16.711  -8.077   0.452  1.00  0.00    -0.288 N 
ATOM     41  H1  UNL     1      17.169  -7.991   1.360  1.00  0.00     0.187 HD
BRANCH  40  42
HETATM   42  C4  UNL     1      15.551  -8.609   0.370  1.00  0.00     0.199 C 
BRANCH  42  43
HETATM   43  C3  UNL     1      14.798  -8.845   1.592  1.00  0.00     0.317 C 
HETATM   44  O2  UNL     1      15.091  -9.798   2.382  1.00  0.00    -0.257 OA
BRANCH  43  45
HETATM   45  O1  UNL     1      13.723  -8.027   1.939  1.00  0.00    -0.317 OA
BRANCH  45  46
HETATM   46  C2  UNL     1      12.484  -8.652   2.206  1.00  0.00     0.175 C 
HETATM   47  C1  UNL     1      11.717  -8.750   0.911  1.00  0.00     0.034 C 
ENDBRANCH  45  46
ENDBRANCH  43  45
ENDBRANCH  42  43
BRANCH  42  48
HETATM   48  C23 UNL     1      14.989  -8.958  -0.914  1.00  0.00     0.317 C 
HETATM   49  O4  UNL     1      14.751 -10.141  -1.225  1.00  0.00    -0.257 OA
BRANCH  48  50
HETATM   50  O5  UNL     1      14.684  -7.991  -1.878  1.00  0.00    -0.321 OA
HETATM   51  C24 UNL     1      13.849  -6.886  -1.533  1.00  0.00     0.213 C 
ENDBRANCH  48  50
ENDBRANCH  42  48
ENDBRANCH  40  42
ENDBRANCH  38  40
ENDBRANCH   1  38
TORSDOF 13
ENDMDL
MODEL 5
REMARK VINA RESULT: -7.117330101      4.674      8.424
REMARK  13 active torsions:
REMARK  status: ('A' for Active; 'I' for Inactive)
REMARK    1  A    between atoms: C2_2  and  O1_3 
REMARK    2  A    between atoms: O1_3  and  C3_4 
REMARK    3  A    between atoms: C3_4  and  C4_6 
REMARK    4  A    between atoms: C4_6  and  N1_7 
REMARK    5  A    between atoms: C4_6  and  C23_48 
REMARK    6  A    between atoms: N1_7  and  N2_9 
REMARK    7  A    between atoms: N2_9  and  C5_11 
REMARK    8  A    between atoms: N7_26  and  C10_27 
REMARK    9  A    between atoms: C10_27  and  C11_28 
REMARK   10  A    between atoms: C11_28  and  C12_29 
REMARK   11  A    between atoms: C12_29  and  N8_30 
REMARK   12  A    between atoms: N8_30  and  C13_32 
REMARK   13  A    between atoms: C23_48  and  O5_50 
ROOT
HETATM    1  C5  UNL     1      13.304  -7.994   1.113  1.00  0.00     0.166 A 
HETATM    2  N3  UNL     1      12.436  -8.717   1.859  1.00  0.00    -0.173 N 
ATOM      3  H3  UNL     1      12.805  -9.290   2.618  1.00  0.00     0.186 HD
HETATM    4  C6  UNL     1      11.106  -8.711   1.643  1.00  0.00     0.679 A 
HETATM    5  N4  UNL     1      10.347  -9.416   2.380  1.00  0.00    -0.234 N 
ATOM      6  H41 UNL     1       9.340  -9.412   2.217  1.00  0.00     0.174 HD
ATOM      7  H42 UNL     1      10.681 -10.001   3.146  1.00  0.00     0.174 HD
HETATM    8  N5  UNL     1      10.661  -7.934   0.625  1.00  0.00    -0.174 N 
ATOM      9  H5  UNL     1       9.658  -7.911   0.441  1.00  0.00     0.186 HD
HETATM   10  C7  UNL     1      11.462  -7.195  -0.150  1.00  0.00     0.156 A 
HETATM   11  C8  UNL     1      12.836  -7.207   0.080  1.00  0.00     0.126 A 
HETATM   12  N6  UNL     1      13.360  -6.382  -0.817  1.00  0.00    -0.326 N 
ATOM     13  H6  UNL     1      14.353  -6.170  -0.917  1.00  0.00     0.168 HD
HETATM   14  C9  UNL     1      12.362  -5.862  -1.585  1.00  0.00     0.183 A 
HETATM   15 CL1  UNL     1      12.619  -4.708  -2.870  1.00  0.00    -0.044 Cl
HETATM   16  N7  UNL     1      11.188  -6.345  -1.196  1.00  0.00    -0.307 N 
ENDROOT
BRANCH  16  17
HETATM   17  C10 UNL     1       9.843  -6.103  -1.634  1.00  0.00     0.135 C 
BRANCH  17  18
HETATM   18  C11 UNL     1       9.408  -6.824  -2.846  1.00  0.00     0.039 C 
BRANCH  18  19
HETATM   19  C12 UNL     1       8.516  -8.003  -2.557  1.00  0.00     0.116 C 
BRANCH  19  20
HETATM   20  N8  UNL     1       9.378  -9.163  -2.395  1.00  0.00    -0.406 N 
ATOM     21  H8  UNL     1       9.170  -9.909  -1.730  1.00  0.00     0.154 HD
BRANCH  20  22
HETATM   22  C13 UNL     1      10.530  -9.186  -3.230  1.00  0.00     0.209 C 
HETATM   23  C14 UNL     1      11.633 -10.049  -2.637  1.00  0.00     0.247 C 
HETATM   24  O3  UNL     1      11.933 -10.249  -1.443  1.00  0.00    -0.271 OA
HETATM   25  N9  UNL     1      12.014 -10.394  -3.908  1.00  0.00    -0.324 N 
HETATM   26  C15 UNL     1      13.164 -10.838  -4.702  1.00  0.00     0.167 C 
HETATM   27  C22 UNL     1      10.635 -10.125  -4.369  1.00  0.00     0.222 C 
HETATM   28  C16 UNL     1      13.957  -9.632  -5.115  1.00  0.00    -0.020 A 
HETATM   29  C17 UNL     1      15.303  -9.803  -5.053  1.00  0.00     0.036 A 
HETATM   30  C21 UNL     1      13.335  -8.450  -5.517  1.00  0.00     0.027 A 
HETATM   31  C18 UNL     1      16.102  -8.745  -5.409  1.00  0.00     0.058 A 
HETATM   32 CL2  UNL     1      17.869  -8.839  -5.367  1.00  0.00    -0.082 Cl
HETATM   33  C19 UNL     1      15.544  -7.531  -5.822  1.00  0.00     0.069 A 
HETATM   34  N10 UNL     1      16.401  -6.452  -6.179  1.00  0.00    -0.101 NA
HETATM   35  C20 UNL     1      14.160  -7.412  -5.867  1.00  0.00     0.048 A 
HETATM   36  S1  UNL     1      11.619  -8.048  -5.653  1.00  0.00    -0.023 SA
HETATM   37  N11 UNL     1      10.704  -9.546  -5.703  1.00  0.00    -0.146 NA
ENDBRANCH  20  22
ENDBRANCH  19  20
ENDBRANCH  18  19
ENDBRANCH  17  18
ENDBRANCH  16  17
BRANCH   1  38
HETATM   38  N2  UNL     1      14.523  -8.027   1.404  1.00  0.00    -0.282 N 
ATOM     39  H2  UNL     1      14.847  -7.177   1.866  1.00  0.00     0.188 HD
BRANCH  38  40
HETATM   40  N1  UNL     1      15.501  -8.946   1.237  1.00  0.00    -0.288 N 
ATOM     41  H1  UNL     1      15.704  -9.614   1.981  1.00  0.00     0.187 HD
BRANCH  40  42
HETATM   42  C4  UNL     1      16.173  -8.979   0.148  1.00  0.00     0.199 C 
BRANCH  42  43
HETATM   43  C3  UNL     1      17.589  -8.652   0.186  1.00  0.00     0.317 C 
HETATM   44  O2  UNL     1      18.483  -9.555   0.121  1.00  0.00    -0.257 OA
BRANCH  43  45
HETATM   45  O1  UNL     1      18.016  -7.329   0.297  1.00  0.00    -0.317 OA
BRANCH  45  46
HETATM   46  C2  UNL     1      18.831  -6.815  -0.737  1.00  0.00     0.175 C 
HETATM   47  C1  UNL     1      19.813  -5.848  -0.126  1.00  0.00     0.034 C 
ENDBRANCH  45  46
ENDBRANCH  43  45
ENDBRANCH  42  43
BRANCH  42  48
HETATM   48  C23 UNL     1      15.540  -9.348  -1.097  1.00  0.00     0.317 C 
HETATM   49  O4  UNL     1      15.187  -8.492  -1.931  1.00  0.00    -0.257 OA
BRANCH  48  50
HETATM   50  O5  UNL     1      15.288 -10.682  -1.434  1.00  0.00    -0.321 OA
HETATM   51  C24 UNL     1      16.352 -11.505  -1.909  1.00  0.00     0.213 C 
ENDBRANCH  48  50
ENDBRANCH  42  48
ENDBRANCH  40  42
ENDBRANCH  38  40
ENDBRANCH   1  38
TORSDOF 13
ENDMDL
