MODEL 1
REMARK VINA RESULT: -7.626033224      0.000      0.000
REMARK  12 active torsions:
REMARK  status: ('A' for Active; 'I' for Inactive)
REMARK    1  A    between atoms: N1_1  and  C1_4 
REMARK    2  A    between atoms: C2_7  and  N3_8 
REMARK    3  A    between atoms: N3_8  and  C3_10 
REMARK    4  A    between atoms: C6_13  and  C7_14 
REMARK    5  A    between atoms: C7_14  and  C8_16 
REMARK    6  A    between atoms: C8_16  and  N4_17 
REMARK    7  A    between atoms: C11_25  and  N5_26 
REMARK    8  A    between atoms: N5_26  and  C12_28 
REMARK    9  A    between atoms: C12_28  and  O3_29 
REMARK   10  A    between atoms: C12_28  and  C13_31 
REMARK   11  A    between atoms: C14_34  and  C15_35 
REMARK   12  A    between atoms: C15_35  and  N7_36 
ROOT
HETATM    1  C1  UNL     1      28.034  32.166  30.889  1.00  0.00     0.679 A 
HETATM    2  N2  UNL     1      27.153  32.225  29.873  1.00  0.00    -0.176 N 
ATOM      3  H2  UNL     1      26.500  33.000  29.762  1.00  0.00     0.186 HD
HETATM    4  C2  UNL     1      27.193  31.192  29.014  1.00  0.00     0.138 A 
HETATM    5  C10 UNL     1      28.105  30.138  29.196  1.00  0.00     0.097 A 
HETATM    6  S1  UNL     1      28.476  28.688  28.372  1.00  0.00    -0.047 SA
HETATM    7  C11 UNL     1      29.725  28.132  29.398  1.00  0.00     0.149 A 
HETATM    8  N9  UNL     1      29.796  29.087  30.323  1.00  0.00    -0.321 N 
ATOM      9  H9  UNL     1      30.472  29.022  31.084  1.00  0.00     0.169 HD
HETATM   10  C16 UNL     1      28.986  30.110  30.239  1.00  0.00     0.144 A 
HETATM   11  N10 UNL     1      28.907  31.187  31.088  1.00  0.00    -0.175 N 
ATOM     12  H10 UNL     1      29.534  31.236  31.890  1.00  0.00     0.186 HD
ENDROOT
BRANCH   7  13
HETATM   13  N5  UNL     1      30.445  27.035  29.309  1.00  0.00    -0.338 N 
ATOM     14  H5  UNL     1      30.421  26.349  30.062  1.00  0.00     0.164 HD
BRANCH  13  15
HETATM   15  C12 UNL     1      31.259  26.804  28.165  1.00  0.00     0.298 C 
BRANCH  15  16
HETATM   16  O3  UNL     1      31.038  25.464  27.765  1.00  0.00    -0.369 OA
ATOM     17  H3  UNL     1      31.734  24.942  28.148  1.00  0.00     0.212 HD
ENDBRANCH  15  16
BRANCH  15  18
HETATM   18  C13 UNL     1      32.704  27.009  28.426  1.00  0.00     0.197 A 
HETATM   19  N6  UNL     1      33.267  27.332  29.603  1.00  0.00    -0.322 N 
HETATM   20  C14 UNL     1      34.595  27.420  29.409  1.00  0.00     0.129 A 
ATOM     21  H6  UNL     1      32.776  27.482  30.483  1.00  0.00     0.169 HD
HETATM   22  N8  UNL     1      34.817  27.152  28.126  1.00  0.00    -0.245 N 
HETATM   23  O4  UNL     1      33.661  26.909  27.566  1.00  0.00    -0.218 OA
ATOM     24  H8  UNL     1      35.726  27.138  27.663  1.00  0.00     0.196 HD
BRANCH  20  25
HETATM   25  C15 UNL     1      35.661  27.750  30.387  1.00  0.00     0.307 C 
BRANCH  25  26
HETATM   26  N7  UNL     1      35.428  27.130  31.675  1.00  0.00    -0.073 N 
ATOM     27  H73 UNL     1      34.556  27.457  32.090  1.00  0.00     0.274 HD
ATOM     28  H72 UNL     1      35.199  26.142  31.574  1.00  0.00     0.274 HD
ATOM     29  H71 UNL     1      36.214  27.264  32.312  1.00  0.00     0.274 HD
ENDBRANCH  25  26
ENDBRANCH  20  25
ENDBRANCH  15  18
ENDBRANCH  13  15
ENDBRANCH   7  13
BRANCH   4  30
HETATM   30  N3  UNL     1      26.430  31.088  27.997  1.00  0.00    -0.367 N 
ATOM     31  H3  UNL     1      26.819  31.300  27.078  1.00  0.00     0.161 HD
BRANCH  30  32
HETATM   32  C3  UNL     1      25.041  30.685  28.075  1.00  0.00     0.115 C 
HETATM   33  C4  UNL     1      24.848  29.233  27.758  1.00  0.00     0.031 C 
HETATM   34  C5  UNL     1      24.730  29.211  26.227  1.00  0.00     0.051 C 
HETATM   35  C6  UNL     1      23.911  30.464  26.007  1.00  0.00     0.151 A 
HETATM   36  O2  UNL     1      24.653  31.604  25.788  1.00  0.00    -0.359 OA
HETATM   37  C9  UNL     1      24.176  31.391  27.081  1.00  0.00     0.188 A 
BRANCH  35  38
HETATM   38  C7  UNL     1      22.631  30.381  25.283  1.00  0.00     0.189 C 
HETATM   39  O1  UNL     1      21.978  29.374  25.272  1.00  0.00    -0.293 OA
BRANCH  38  40
HETATM   40  C8  UNL     1      22.090  31.564  24.525  1.00  0.00     0.311 C 
BRANCH  40  41
HETATM   41  N4  UNL     1      21.259  31.157  23.432  1.00  0.00    -0.073 N 
ATOM     42  H43 UNL     1      21.813  30.941  22.604  1.00  0.00     0.274 HD
ATOM     43  H42 UNL     1      20.852  30.237  23.596  1.00  0.00     0.274 HD
ATOM     44  H41 UNL     1      20.539  31.850  23.226  1.00  0.00     0.274 HD
ENDBRANCH  40  41
ENDBRANCH  38  40
ENDBRANCH  35  38
ENDBRANCH  30  32
ENDBRANCH   4  30
BRANCH   1  45
HETATM   45  N1  UNL     1      28.036  33.152  31.756  1.00  0.00    -0.234 N 
ATOM     46  H12 UNL     1      28.011  34.100  31.381  1.00  0.00     0.174 HD
ATOM     47  H11 UNL     1      28.061  32.913  32.748  1.00  0.00     0.174 HD
ENDBRANCH   1  45
TORSDOF 12
ENDMDL
MODEL 2
REMARK VINA RESULT: -7.464617915      3.440      6.495
REMARK  12 active torsions:
REMARK  status: ('A' for Active; 'I' for Inactive)
REMARK    1  A    between atoms: N1_1  and  C1_4 
REMARK    2  A    between atoms: C2_7  and  N3_8 
REMARK    3  A    between atoms: N3_8  and  C3_10 
REMARK    4  A    between atoms: C6_13  and  C7_14 
REMARK    5  A    between atoms: C7_14  and  C8_16 
REMARK    6  A    between atoms: C8_16  and  N4_17 
REMARK    7  A    between atoms: C11_25  and  N5_26 
REMARK    8  A    between atoms: N5_26  and  C12_28 
REMARK    9  A    between atoms: C12_28  and  O3_29 
REMARK   10  A    between atoms: C12_28  and  C13_31 
REMARK   11  A    between atoms: C14_34  and  C15_35 
REMARK   12  A    between atoms: C15_35  and  N7_36 
ROOT
HETATM    1  C1  UNL     1      21.817  29.005  24.373  1.00  0.00     0.679 A 
HETATM    2  N2  UNL     1      21.345  30.266  24.373  1.00  0.00    -0.176 N 
ATOM      3  H2  UNL     1      20.516  30.537  23.846  1.00  0.00     0.186 HD
HETATM    4  C2  UNL     1      22.041  31.143  25.116  1.00  0.00     0.138 A 
HETATM    5  C10 UNL     1      23.181  30.737  25.832  1.00  0.00     0.097 A 
HETATM    6  S1  UNL     1      24.314  31.498  26.860  1.00  0.00    -0.047 SA
HETATM    7  C11 UNL     1      25.292  30.139  27.200  1.00  0.00     0.149 A 
HETATM    8  N9  UNL     1      24.702  29.167  26.509  1.00  0.00    -0.321 N 
ATOM      9  H9  UNL     1      25.076  28.218  26.523  1.00  0.00     0.169 HD
HETATM   10  C16 UNL     1      23.633  29.448  25.810  1.00  0.00     0.144 A 
HETATM   11  N10 UNL     1      22.887  28.591  25.037  1.00  0.00    -0.175 N 
ATOM     12  H10 UNL     1      23.164  27.611  24.972  1.00  0.00     0.186 HD
ENDROOT
BRANCH   7  13
HETATM   13  N5  UNL     1      26.366  30.057  27.956  1.00  0.00    -0.338 N 
ATOM     14  H5  UNL     1      26.278  30.107  28.971  1.00  0.00     0.164 HD
BRANCH  13  15
HETATM   15  C12 UNL     1      27.649  29.900  27.362  1.00  0.00     0.298 C 
BRANCH  15  16
HETATM   16  O3  UNL     1      27.441  29.709  25.975  1.00  0.00    -0.369 OA
ATOM     17  H3  UNL     1      26.513  29.548  25.853  1.00  0.00     0.212 HD
ENDBRANCH  15  16
BRANCH  15  18
HETATM   18  C13 UNL     1      28.407  28.749  27.910  1.00  0.00     0.197 A 
HETATM   19  N6  UNL     1      29.737  28.566  27.854  1.00  0.00    -0.322 N 
HETATM   20  C14 UNL     1      30.015  27.402  28.467  1.00  0.00     0.129 A 
ATOM     21  H6  UNL     1      30.413  29.196  27.424  1.00  0.00     0.169 HD
HETATM   22  N8  UNL     1      28.858  26.898  28.884  1.00  0.00    -0.245 N 
HETATM   23  O4  UNL     1      27.913  27.733  28.534  1.00  0.00    -0.218 OA
ATOM     24  H8  UNL     1      28.729  26.020  29.387  1.00  0.00     0.196 HD
BRANCH  20  25
HETATM   25  C15 UNL     1      31.329  26.747  28.674  1.00  0.00     0.307 C 
BRANCH  25  26
HETATM   26  N7  UNL     1      31.526  25.626  27.777  1.00  0.00    -0.073 N 
ATOM     27  H73 UNL     1      30.810  24.913  27.916  1.00  0.00     0.274 HD
ATOM     28  H72 UNL     1      31.314  25.882  26.813  1.00  0.00     0.274 HD
ATOM     29  H71 UNL     1      32.463  25.231  27.858  1.00  0.00     0.274 HD
ENDBRANCH  25  26
ENDBRANCH  20  25
ENDBRANCH  15  18
ENDBRANCH  13  15
ENDBRANCH   7  13
BRANCH   4  30
HETATM   30  N3  UNL     1      21.734  32.376  25.229  1.00  0.00    -0.367 N 
ATOM     31  H3  UNL     1      22.255  33.056  24.674  1.00  0.00     0.161 HD
BRANCH  30  32
HETATM   32  C3  UNL     1      20.686  32.864  26.100  1.00  0.00     0.115 C 
HETATM   33  C4  UNL     1      19.804  33.872  25.426  1.00  0.00     0.031 C 
HETATM   34  C5  UNL     1      20.546  35.199  25.636  1.00  0.00     0.051 C 
HETATM   35  C6  UNL     1      21.045  35.002  27.052  1.00  0.00     0.151 A 
HETATM   36  O2  UNL     1      22.303  34.451  27.146  1.00  0.00    -0.359 OA
HETATM   37  C9  UNL     1      21.216  33.590  27.295  1.00  0.00     0.188 A 
BRANCH  35  38
HETATM   38  C7  UNL     1      20.693  35.984  28.092  1.00  0.00     0.189 C 
HETATM   39  O1  UNL     1      19.616  35.980  28.622  1.00  0.00    -0.293 OA
BRANCH  38  40
HETATM   40  C8  UNL     1      21.676  37.035  28.531  1.00  0.00     0.311 C 
BRANCH  40  41
HETATM   41  N4  UNL     1      22.868  36.454  29.072  1.00  0.00    -0.073 N 
ATOM     42  H43 UNL     1      23.194  36.968  29.890  1.00  0.00     0.274 HD
ATOM     43  H42 UNL     1      22.675  35.556  29.516  1.00  0.00     0.274 HD
ATOM     44  H41 UNL     1      23.601  36.370  28.368  1.00  0.00     0.274 HD
ENDBRANCH  40  41
ENDBRANCH  38  40
ENDBRANCH  35  38
ENDBRANCH  30  32
ENDBRANCH   4  30
BRANCH   1  45
HETATM   45  N1  UNL     1      21.172  28.110  23.662  1.00  0.00    -0.234 N 
ATOM     46  H12 UNL     1      20.993  27.208  24.103  1.00  0.00     0.174 HD
ATOM     47  H11 UNL     1      20.888  28.368  22.717  1.00  0.00     0.174 HD
ENDBRANCH   1  45
TORSDOF 12
ENDMDL
MODEL 3
REMARK VINA RESULT: -7.439731706      1.985      9.252
REMARK  12 active torsions:
REMARK  status: ('A' for Active; 'I' for Inactive)
REMARK    1  A    between atoms: N1_1  and  C1_4 
REMARK    2  A    between atoms: C2_7  and  N3_8 
REMARK    3  A    between atoms: N3_8  and  C3_10 
REMARK    4  A    between atoms: C6_13  and  C7_14 
REMARK    5  A    between atoms: C7_14  and  C8_16 
REMARK    6  A    between atoms: C8_16  and  N4_17 
REMARK    7  A    between atoms: C11_25  and  N5_26 
REMARK    8  A    between atoms: N5_26  and  C12_28 
REMARK    9  A    between atoms: C12_28  and  O3_29 
REMARK   10  A    between atoms: C12_28  and  C13_31 
REMARK   11  A    between atoms: C14_34  and  C15_35 
REMARK   12  A    between atoms: C15_35  and  N7_36 
ROOT
HETATM    1  C1  UNL     1      27.179  28.874  31.837  1.00  0.00     0.679 A 
HETATM    2  N2  UNL     1      28.319  28.366  31.331  1.00  0.00    -0.176 N 
ATOM      3  H2  UNL     1      28.900  27.708  31.850  1.00  0.00     0.186 HD
HETATM    4  C2  UNL     1      28.638  28.786  30.096  1.00  0.00     0.138 A 
HETATM    5  C10 UNL     1      27.815  29.695  29.407  1.00  0.00     0.097 A 
HETATM    6  S1  UNL     1      27.848  30.458  27.879  1.00  0.00    -0.047 SA
HETATM    7  C11 UNL     1      26.403  31.359  28.019  1.00  0.00     0.149 A 
HETATM    8  N9  UNL     1      25.965  31.030  29.233  1.00  0.00    -0.321 N 
ATOM      9  H9  UNL     1      25.098  31.426  29.597  1.00  0.00     0.169 HD
HETATM   10  C16 UNL     1      26.665  30.191  29.951  1.00  0.00     0.144 A 
HETATM   11  N10 UNL     1      26.382  29.731  31.215  1.00  0.00    -0.175 N 
ATOM     12  H10 UNL     1      25.538  30.056  31.685  1.00  0.00     0.186 HD
ENDROOT
BRANCH   7  13
HETATM   13  N5  UNL     1      25.848  32.178  27.153  1.00  0.00    -0.338 N 
ATOM     14  H5  UNL     1      26.406  32.914  26.720  1.00  0.00     0.164 HD
BRANCH  13  15
HETATM   15  C12 UNL     1      24.472  32.041  26.818  1.00  0.00     0.298 C 
BRANCH  15  16
HETATM   16  O3  UNL     1      23.732  32.321  27.992  1.00  0.00    -0.369 OA
ATOM     17  H3  UNL     1      24.247  32.009  28.726  1.00  0.00     0.212 HD
ENDBRANCH  15  16
BRANCH  15  18
HETATM   18  C13 UNL     1      24.125  30.686  26.328  1.00  0.00     0.197 A 
HETATM   19  N6  UNL     1      23.181  30.378  25.422  1.00  0.00    -0.322 N 
HETATM   20  C14 UNL     1      23.190  29.043  25.260  1.00  0.00     0.129 A 
ATOM     21  H6  UNL     1      22.569  31.038  24.944  1.00  0.00     0.169 HD
HETATM   22  N8  UNL     1      24.133  28.562  26.064  1.00  0.00    -0.245 N 
HETATM   23  O4  UNL     1      24.675  29.575  26.690  1.00  0.00    -0.218 OA
ATOM     24  H8  UNL     1      24.388  27.581  26.174  1.00  0.00     0.196 HD
BRANCH  20  25
HETATM   25  C15 UNL     1      22.343  28.205  24.377  1.00  0.00     0.307 C 
BRANCH  25  26
HETATM   26  N7  UNL     1      21.070  28.832  24.089  1.00  0.00    -0.073 N 
ATOM     27  H73 UNL     1      21.081  29.821  24.335  1.00  0.00     0.274 HD
ATOM     28  H72 UNL     1      20.919  28.918  23.084  1.00  0.00     0.274 HD
ATOM     29  H71 UNL     1      20.293  28.347  24.538  1.00  0.00     0.274 HD
ENDBRANCH  25  26
ENDBRANCH  20  25
ENDBRANCH  15  18
ENDBRANCH  13  15
ENDBRANCH   7  13
BRANCH   4  30
HETATM   30  N3  UNL     1      29.682  28.407  29.467  1.00  0.00    -0.367 N 
ATOM     31  H3  UNL     1      29.671  28.445  28.447  1.00  0.00     0.161 HD
BRANCH  30  32
HETATM   32  C3  UNL     1      30.880  27.924  30.120  1.00  0.00     0.115 C 
HETATM   33  C4  UNL     1      31.803  29.036  30.518  1.00  0.00     0.031 C 
HETATM   34  C5  UNL     1      32.637  29.283  29.253  1.00  0.00     0.051 C 
HETATM   35  C6  UNL     1      32.832  27.857  28.783  1.00  0.00     0.151 A 
HETATM   36  O2  UNL     1      31.880  27.410  27.893  1.00  0.00    -0.359 OA
HETATM   37  C9  UNL     1      31.717  27.059  29.233  1.00  0.00     0.188 A 
BRANCH  35  38
HETATM   38  C7  UNL     1      34.195  27.335  28.584  1.00  0.00     0.189 C 
HETATM   39  O1  UNL     1      34.485  26.682  27.619  1.00  0.00    -0.293 OA
BRANCH  38  40
HETATM   40  C8  UNL     1      35.282  27.603  29.590  1.00  0.00     0.311 C 
BRANCH  40  41
HETATM   41  N4  UNL     1      34.961  27.058  30.875  1.00  0.00    -0.073 N 
ATOM     42  H43 UNL     1      35.598  27.401  31.594  1.00  0.00     0.274 HD
ATOM     43  H42 UNL     1      34.089  27.447  31.236  1.00  0.00     0.274 HD
ATOM     44  H41 UNL     1      34.934  26.039  30.857  1.00  0.00     0.274 HD
ENDBRANCH  40  41
ENDBRANCH  38  40
ENDBRANCH  35  38
ENDBRANCH  30  32
ENDBRANCH   4  30
BRANCH   1  45
HETATM   45  N1  UNL     1      26.823  28.494  33.043  1.00  0.00    -0.234 N 
ATOM     46  H12 UNL     1      26.497  27.533  33.149  1.00  0.00     0.174 HD
ATOM     47  H11 UNL     1      26.892  29.178  33.796  1.00  0.00     0.174 HD
ENDBRANCH   1  45
TORSDOF 12
ENDMDL
MODEL 4
REMARK VINA RESULT: -7.422107754      3.573      6.504
REMARK  12 active torsions:
REMARK  status: ('A' for Active; 'I' for Inactive)
REMARK    1  A    between atoms: N1_1  and  C1_4 
REMARK    2  A    between atoms: C2_7  and  N3_8 
REMARK    3  A    between atoms: N3_8  and  C3_10 
REMARK    4  A    between atoms: C6_13  and  C7_14 
REMARK    5  A    between atoms: C7_14  and  C8_16 
REMARK    6  A    between atoms: C8_16  and  N4_17 
REMARK    7  A    between atoms: C11_25  and  N5_26 
REMARK    8  A    between atoms: N5_26  and  C12_28 
REMARK    9  A    between atoms: C12_28  and  O3_29 
REMARK   10  A    between atoms: C12_28  and  C13_31 
REMARK   11  A    between atoms: C14_34  and  C15_35 
REMARK   12  A    between atoms: C15_35  and  N7_36 
ROOT
HETATM    1  C1  UNL     1      21.770  29.248  24.469  1.00  0.00     0.679 A 
HETATM    2  N2  UNL     1      21.362  30.530  24.419  1.00  0.00    -0.176 N 
ATOM      3  H2  UNL     1      20.542  30.821  23.888  1.00  0.00     0.186 HD
HETATM    4  C2  UNL     1      22.110  31.401  25.117  1.00  0.00     0.138 A 
HETATM    5  C10 UNL     1      23.237  30.968  25.839  1.00  0.00     0.097 A 
HETATM    6  S1  UNL     1      24.418  31.713  26.823  1.00  0.00    -0.047 SA
HETATM    7  C11 UNL     1      25.331  30.322  27.212  1.00  0.00     0.149 A 
HETATM    8  N9  UNL     1      24.684  29.353  26.568  1.00  0.00    -0.321 N 
ATOM      9  H9  UNL     1      25.011  28.388  26.620  1.00  0.00     0.169 HD
HETATM   10  C16 UNL     1      23.623  29.659  25.867  1.00  0.00     0.144 A 
HETATM   11  N10 UNL     1      22.826  28.808  25.139  1.00  0.00    -0.175 N 
ATOM     12  H10 UNL     1      23.052  27.814  25.114  1.00  0.00     0.186 HD
ENDROOT
BRANCH   7  13
HETATM   13  N5  UNL     1      26.407  30.218  27.960  1.00  0.00    -0.338 N 
ATOM     14  H5  UNL     1      26.335  30.325  28.972  1.00  0.00     0.164 HD
BRANCH  13  15
HETATM   15  C12 UNL     1      27.672  29.957  27.363  1.00  0.00     0.298 C 
BRANCH  15  16
HETATM   16  O3  UNL     1      27.429  29.641  26.004  1.00  0.00    -0.369 OA
ATOM     17  H3  UNL     1      27.979  30.214  25.484  1.00  0.00     0.212 HD
ENDBRANCH  15  16
BRANCH  15  18
HETATM   18  C13 UNL     1      28.400  28.837  28.007  1.00  0.00     0.197 A 
HETATM   19  N6  UNL     1      29.701  28.536  27.858  1.00  0.00    -0.322 N 
HETATM   20  C14 UNL     1      29.958  27.453  28.613  1.00  0.00     0.129 A 
ATOM     21  H6  UNL     1      30.371  29.037  27.276  1.00  0.00     0.169 HD
HETATM   22  N8  UNL     1      28.818  27.115  29.206  1.00  0.00    -0.245 N 
HETATM   23  O4  UNL     1      27.903  27.967  28.821  1.00  0.00    -0.218 OA
ATOM     24  H8  UNL     1      28.681  26.333  29.846  1.00  0.00     0.196 HD
BRANCH  20  25
HETATM   25  C15 UNL     1      31.238  26.725  28.795  1.00  0.00     0.307 C 
BRANCH  25  26
HETATM   26  N7  UNL     1      31.448  25.728  27.766  1.00  0.00    -0.073 N 
ATOM     27  H73 UNL     1      31.746  26.158  26.890  1.00  0.00     0.274 HD
ATOM     28  H72 UNL     1      32.277  25.166  27.959  1.00  0.00     0.274 HD
ATOM     29  H71 UNL     1      30.626  25.140  27.628  1.00  0.00     0.274 HD
ENDBRANCH  25  26
ENDBRANCH  20  25
ENDBRANCH  15  18
ENDBRANCH  13  15
ENDBRANCH   7  13
BRANCH   4  30
HETATM   30  N3  UNL     1      21.867  32.652  25.179  1.00  0.00    -0.367 N 
ATOM     31  H3  UNL     1      22.634  33.302  25.005  1.00  0.00     0.161 HD
BRANCH  30  32
HETATM   32  C3  UNL     1      20.562  33.200  25.484  1.00  0.00     0.115 C 
HETATM   33  C4  UNL     1      20.470  34.664  25.177  1.00  0.00     0.031 C 
HETATM   34  C5  UNL     1      21.007  35.334  26.449  1.00  0.00     0.051 C 
HETATM   35  C6  UNL     1      20.402  34.430  27.501  1.00  0.00     0.151 A 
HETATM   36  O2  UNL     1      21.206  33.380  27.888  1.00  0.00    -0.359 OA
HETATM   37  C9  UNL     1      20.222  33.113  26.938  1.00  0.00     0.188 A 
BRANCH  35  38
HETATM   38  C7  UNL     1      19.544  35.005  28.551  1.00  0.00     0.189 C 
HETATM   39  O1  UNL     1      18.484  35.504  28.294  1.00  0.00    -0.293 OA
BRANCH  38  40
HETATM   40  C8  UNL     1      19.969  34.987  29.995  1.00  0.00     0.311 C 
BRANCH  40  41
HETATM   41  N4  UNL     1      19.836  33.683  30.572  1.00  0.00    -0.073 N 
ATOM     42  H43 UNL     1      20.252  32.969  29.976  1.00  0.00     0.274 HD
ATOM     43  H42 UNL     1      20.434  33.576  31.391  1.00  0.00     0.274 HD
ATOM     44  H41 UNL     1      18.864  33.465  30.790  1.00  0.00     0.274 HD
ENDBRANCH  40  41
ENDBRANCH  38  40
ENDBRANCH  35  38
ENDBRANCH  30  32
ENDBRANCH   4  30
BRANCH   1  45
HETATM   45  N1  UNL     1      21.072  28.358  23.803  1.00  0.00    -0.234 N 
ATOM     46  H12 UNL     1      20.188  28.059  24.214  1.00  0.00     0.174 HD
ATOM     47  H11 UNL     1      21.453  28.019  22.919  1.00  0.00     0.174 HD
ENDBRANCH   1  45
TORSDOF 12
ENDMDL
MODEL 5
REMARK VINA RESULT: -7.314198232      4.672      7.257
REMARK  12 active torsions:
REMARK  status: ('A' for Active; 'I' for Inactive)
REMARK    1  A    between atoms: N1_1  and  C1_4 
REMARK    2  A    between atoms: C2_7  and  N3_8 
REMARK    3  A    between atoms: N3_8  and  C3_10 
REMARK    4  A    between atoms: C6_13  and  C7_14 
REMARK    5  A    between atoms: C7_14  and  C8_16 
REMARK    6  A    between atoms: C8_16  and  N4_17 
REMARK    7  A    between atoms: C11_25  and  N5_26 
REMARK    8  A    between atoms: N5_26  and  C12_28 
REMARK    9  A    between atoms: C12_28  and  O3_29 
REMARK   10  A    between atoms: C12_28  and  C13_31 
REMARK   11  A    between atoms: C14_34  and  C15_35 
REMARK   12  A    between atoms: C15_35  and  N7_36 
ROOT
HETATM    1  C1  UNL     1      21.802  28.977  24.353  1.00  0.00     0.679 A 
HETATM    2  N2  UNL     1      21.365  30.248  24.420  1.00  0.00    -0.176 N 
ATOM      3  H2  UNL     1      20.499  30.551  23.975  1.00  0.00     0.186 HD
HETATM    4  C2  UNL     1      22.149  31.091  25.113  1.00  0.00     0.138 A 
HETATM    5  C10 UNL     1      23.337  30.642  25.715  1.00  0.00     0.097 A 
HETATM    6  S1  UNL     1      24.578  31.352  26.651  1.00  0.00    -0.047 SA
HETATM    7  C11 UNL     1      25.547  29.963  26.875  1.00  0.00     0.149 A 
HETATM    8  N9  UNL     1      24.871  29.021  26.221  1.00  0.00    -0.321 N 
ATOM      9  H9  UNL     1      25.220  28.063  26.183  1.00  0.00     0.169 HD
HETATM   10  C16 UNL     1      23.751  29.344  25.627  1.00  0.00     0.144 A 
HETATM   11  N10 UNL     1      22.917  28.522  24.908  1.00  0.00    -0.175 N 
ATOM     12  H10 UNL     1      23.160  27.537  24.800  1.00  0.00     0.186 HD
ENDROOT
BRANCH   7  13
HETATM   13  N5  UNL     1      26.681  29.839  27.529  1.00  0.00    -0.338 N 
ATOM     14  H5  UNL     1      27.558  30.102  27.080  1.00  0.00     0.164 HD
BRANCH  13  15
HETATM   15  C12 UNL     1      26.688  29.338  28.861  1.00  0.00     0.298 C 
BRANCH  15  16
HETATM   16  O3  UNL     1      25.382  28.862  29.131  1.00  0.00    -0.369 OA
ATOM     17  H3  UNL     1      25.351  27.959  28.840  1.00  0.00     0.212 HD
ENDBRANCH  15  16
BRANCH  15  18
HETATM   18  C13 UNL     1      27.057  30.364  29.866  1.00  0.00     0.197 A 
HETATM   19  N6  UNL     1      27.677  31.532  29.629  1.00  0.00    -0.322 N 
HETATM   20  C14 UNL     1      27.821  32.165  30.807  1.00  0.00     0.129 A 
ATOM     21  H6  UNL     1      27.984  31.877  28.720  1.00  0.00     0.169 HD
HETATM   22  N8  UNL     1      27.290  31.377  31.737  1.00  0.00    -0.245 N 
HETATM   23  O4  UNL     1      26.839  30.305  31.137  1.00  0.00    -0.218 OA
ATOM     24  H8  UNL     1      27.242  31.573  32.736  1.00  0.00     0.196 HD
BRANCH  20  25
HETATM   25  C15 UNL     1      28.442  33.482  31.089  1.00  0.00     0.307 C 
BRANCH  25  26
HETATM   26  N7  UNL     1      27.816  34.150  32.211  1.00  0.00    -0.073 N 
ATOM     27  H73 UNL     1      28.179  35.096  32.327  1.00  0.00     0.274 HD
ATOM     28  H72 UNL     1      26.842  34.376  32.010  1.00  0.00     0.274 HD
ATOM     29  H71 UNL     1      27.900  33.613  33.073  1.00  0.00     0.274 HD
ENDBRANCH  25  26
ENDBRANCH  20  25
ENDBRANCH  15  18
ENDBRANCH  13  15
ENDBRANCH   7  13
BRANCH   4  30
HETATM   30  N3  UNL     1      21.885  32.329  25.277  1.00  0.00    -0.367 N 
ATOM     31  H3  UNL     1      22.383  33.009  24.701  1.00  0.00     0.161 HD
BRANCH  30  32
HETATM   32  C3  UNL     1      20.920  32.823  26.237  1.00  0.00     0.115 C 
HETATM   33  C4  UNL     1      19.970  33.814  25.635  1.00  0.00     0.031 C 
HETATM   34  C5  UNL     1      20.717  35.149  25.755  1.00  0.00     0.051 C 
HETATM   35  C6  UNL     1      21.349  34.977  27.120  1.00  0.00     0.151 A 
HETATM   36  O2  UNL     1      22.616  34.436  27.103  1.00  0.00    -0.359 OA
HETATM   37  C9  UNL     1      21.555  33.570  27.366  1.00  0.00     0.188 A 
BRANCH  35  38
HETATM   38  C7  UNL     1      21.088  35.972  28.175  1.00  0.00     0.189 C 
HETATM   39  O1  UNL     1      20.047  35.999  28.771  1.00  0.00    -0.293 OA
BRANCH  38  40
HETATM   40  C8  UNL     1      22.125  36.998  28.546  1.00  0.00     0.311 C 
BRANCH  40  41
HETATM   41  N4  UNL     1      23.278  36.395  29.143  1.00  0.00    -0.073 N 
ATOM     42  H43 UNL     1      23.117  36.179  30.127  1.00  0.00     0.274 HD
ATOM     43  H42 UNL     1      23.425  35.448  28.794  1.00  0.00     0.274 HD
ATOM     44  H41 UNL     1      24.111  36.970  29.020  1.00  0.00     0.274 HD
ENDBRANCH  40  41
ENDBRANCH  38  40
ENDBRANCH  35  38
ENDBRANCH  30  32
ENDBRANCH   4  30
BRANCH   1  45
HETATM   45  N1  UNL     1      21.072  28.113  23.686  1.00  0.00    -0.234 N 
ATOM     46  H12 UNL     1      20.059  28.215  23.750  1.00  0.00     0.174 HD
ATOM     47  H11 UNL     1      21.558  27.396  23.146  1.00  0.00     0.174 HD
ENDBRANCH   1  45
TORSDOF 12
ENDMDL
