MODEL 1
REMARK VINA RESULT: -4.172917635      0.000      0.000
REMARK  3 active torsions:
REMARK  status: ('A' for Active; 'I' for Inactive)
REMARK    1  A    between atoms: C2_2  and  C3_3 
REMARK    2  A    between atoms: C4_5  and  O2_6 
REMARK    3  A    between atoms: O2_6  and  C5_7 
REMARK       I    between atoms: C5_7  and  N1_9 
REMARK       I    between atoms: N1_9  and  C6_11 
ROOT
HETATM    1  C5  UNL     1      25.325   3.328  36.387  1.00  0.00     0.371 C 
HETATM    2  O3  UNL     1      25.427   3.269  35.135  1.00  0.00    -0.238 OA
HETATM    3  N1  UNL     1      26.393   2.912  37.222  1.00  0.00    -0.277 N 
ATOM      4  H1  UNL     1      26.304   2.962  38.236  1.00  0.00     0.173 HD
HETATM    5  C6  UNL     1      27.590   2.424  36.632  1.00  0.00     0.190 C 
HETATM    6  N2  UNL     1      28.590   2.034  37.360  1.00  0.00    -0.373 N 
ATOM      7  H21 UNL     1      29.449   1.684  36.936  1.00  0.00     0.158 HD
ATOM      8  H22 UNL     1      28.488   2.089  38.373  1.00  0.00     0.158 HD
HETATM    9  N3  UNL     1      27.732   2.347  35.220  1.00  0.00    -0.064 NA
ENDROOT
BRANCH   1  10
HETATM   10  O2  UNL     1      24.125   3.814  36.880  1.00  0.00    -0.273 OA
BRANCH  10  11
HETATM   11  C4  UNL     1      23.210   3.030  37.577  1.00  0.00     0.157 C 
HETATM   12  C2  UNL     1      21.991   3.390  37.846  1.00  0.00    -0.002 C 
HETATM   13  C1  UNL     1      21.470   4.716  37.412  1.00  0.00     0.053 C 
BRANCH  12  14
HETATM   14  C3  UNL     1      21.105   2.509  38.578  1.00  0.00     0.267 C 
HETATM   15  O1  UNL     1      21.186   2.453  39.825  1.00  0.00    -0.302 OA
ENDBRANCH  12  14
ENDBRANCH  10  11
ENDBRANCH   1  10
TORSDOF 3
ENDMDL
MODEL 2
REMARK VINA RESULT: -3.921169285      1.276      1.294
REMARK  3 active torsions:
REMARK  status: ('A' for Active; 'I' for Inactive)
REMARK    1  A    between atoms: C2_2  and  C3_3 
REMARK    2  A    between atoms: C4_5  and  O2_6 
REMARK    3  A    between atoms: O2_6  and  C5_7 
REMARK       I    between atoms: C5_7  and  N1_9 
REMARK       I    between atoms: N1_9  and  C6_11 
ROOT
HETATM    1  C5  UNL     1      25.406   2.979  36.514  1.00  0.00     0.371 C 
HETATM    2  O3  UNL     1      25.145   2.065  35.690  1.00  0.00    -0.238 OA
HETATM    3  N1  UNL     1      26.644   2.999  37.206  1.00  0.00    -0.277 N 
ATOM      4  H1  UNL     1      26.848   3.742  37.873  1.00  0.00     0.173 HD
HETATM    5  C6  UNL     1      27.596   1.975  36.961  1.00  0.00     0.190 C 
HETATM    6  N2  UNL     1      28.739   1.957  37.572  1.00  0.00    -0.373 N 
ATOM      7  H21 UNL     1      29.424   1.221  37.396  1.00  0.00     0.158 HD
ATOM      8  H22 UNL     1      28.932   2.706  38.238  1.00  0.00     0.158 HD
HETATM    9  N3  UNL     1      27.327   0.931  36.034  1.00  0.00    -0.064 NA
ENDROOT
BRANCH   1  10
HETATM   10  O2  UNL     1      24.422   3.938  36.695  1.00  0.00    -0.273 OA
BRANCH  10  11
HETATM   11  C4  UNL     1      23.212   3.681  37.332  1.00  0.00     0.157 C 
HETATM   12  C2  UNL     1      22.062   3.627  36.728  1.00  0.00    -0.002 C 
HETATM   13  C1  UNL     1      21.957   3.846  35.259  1.00  0.00     0.053 C 
BRANCH  12  14
HETATM   14  C3  UNL     1      20.849   3.354  37.471  1.00  0.00     0.267 C 
HETATM   15  O1  UNL     1      20.513   4.119  38.402  1.00  0.00    -0.302 OA
ENDBRANCH  12  14
ENDBRANCH  10  11
ENDBRANCH   1  10
TORSDOF 3
ENDMDL
MODEL 3
REMARK VINA RESULT: -3.917880142      6.742      8.638
REMARK  3 active torsions:
REMARK  status: ('A' for Active; 'I' for Inactive)
REMARK    1  A    between atoms: C2_2  and  C3_3 
REMARK    2  A    between atoms: C4_5  and  O2_6 
REMARK    3  A    between atoms: O2_6  and  C5_7 
REMARK       I    between atoms: C5_7  and  N1_9 
REMARK       I    between atoms: N1_9  and  C6_11 
ROOT
HETATM    1  C5  UNL     1      24.707   6.544  31.714  1.00  0.00     0.371 C 
HETATM    2  O3  UNL     1      24.045   5.716  31.036  1.00  0.00    -0.238 OA
HETATM    3  N1  UNL     1      25.215   6.193  32.991  1.00  0.00    -0.277 N 
ATOM      4  H1  UNL     1      25.750   6.869  33.536  1.00  0.00     0.173 HD
HETATM    5  C6  UNL     1      24.972   4.892  33.505  1.00  0.00     0.190 C 
HETATM    6  N2  UNL     1      25.419   4.532  34.668  1.00  0.00    -0.373 N 
ATOM      7  H21 UNL     1      25.244   3.597  35.037  1.00  0.00     0.158 HD
ATOM      8  H22 UNL     1      25.953   5.217  35.203  1.00  0.00     0.158 HD
HETATM    9  N3  UNL     1      24.227   3.937  32.760  1.00  0.00    -0.064 NA
ENDROOT
BRANCH   1  10
HETATM   10  O2  UNL     1      24.898   7.790  31.140  1.00  0.00    -0.273 OA
BRANCH  10  11
HETATM   11  C4  UNL     1      25.706   8.004  30.028  1.00  0.00     0.157 C 
HETATM   12  C2  UNL     1      26.627   8.919  29.955  1.00  0.00    -0.002 C 
HETATM   13  C1  UNL     1      26.888   9.836  31.099  1.00  0.00     0.053 C 
BRANCH  12  14
HETATM   14  C3  UNL     1      27.424   9.071  28.755  1.00  0.00     0.267 C 
HETATM   15  O1  UNL     1      28.505   8.451  28.652  1.00  0.00    -0.302 OA
ENDBRANCH  12  14
ENDBRANCH  10  11
ENDBRANCH   1  10
TORSDOF 3
ENDMDL
MODEL 4
REMARK VINA RESULT: -3.871005488      5.681      7.398
REMARK  3 active torsions:
REMARK  status: ('A' for Active; 'I' for Inactive)
REMARK    1  A    between atoms: C2_2  and  C3_3 
REMARK    2  A    between atoms: C4_5  and  O2_6 
REMARK    3  A    between atoms: O2_6  and  C5_7 
REMARK       I    between atoms: C5_7  and  N1_9 
REMARK       I    between atoms: N1_9  and  C6_11 
ROOT
HETATM    1  C5  UNL     1      24.913   5.490  32.685  1.00  0.00     0.371 C 
HETATM    2  O3  UNL     1      24.871   4.703  31.704  1.00  0.00    -0.238 OA
HETATM    3  N1  UNL     1      25.316   5.031  33.964  1.00  0.00    -0.277 N 
ATOM      4  H1  UNL     1      25.348   5.674  34.755  1.00  0.00     0.173 HD
HETATM    5  C6  UNL     1      25.675   3.667  34.136  1.00  0.00     0.190 C 
HETATM    6  N2  UNL     1      26.049   3.208  35.289  1.00  0.00    -0.373 N 
ATOM      7  H21 UNL     1      26.307   2.229  35.412  1.00  0.00     0.158 HD
ATOM      8  H22 UNL     1      26.077   3.862  36.072  1.00  0.00     0.158 HD
HETATM    9  N3  UNL     1      25.636   2.757  33.045  1.00  0.00    -0.064 NA
ENDROOT
BRANCH   1  10
HETATM   10  O2  UNL     1      24.547   6.801  32.432  1.00  0.00    -0.273 OA
BRANCH  10  11
HETATM   11  C4  UNL     1      25.459   7.802  32.110  1.00  0.00     0.157 C 
HETATM   12  C2  UNL     1      25.489   8.429  30.972  1.00  0.00    -0.002 C 
HETATM   13  C1  UNL     1      24.513   8.107  29.894  1.00  0.00     0.053 C 
BRANCH  12  14
HETATM   14  C3  UNL     1      26.475   9.459  30.722  1.00  0.00     0.267 C 
HETATM   15  O1  UNL     1      27.141   9.429  29.663  1.00  0.00    -0.302 OA
ENDBRANCH  12  14
ENDBRANCH  10  11
ENDBRANCH   1  10
TORSDOF 3
ENDMDL
MODEL 5
REMARK VINA RESULT: -3.855574603      4.658      6.422
REMARK  3 active torsions:
REMARK  status: ('A' for Active; 'I' for Inactive)
REMARK    1  A    between atoms: C2_2  and  C3_3 
REMARK    2  A    between atoms: C4_5  and  O2_6 
REMARK    3  A    between atoms: O2_6  and  C5_7 
REMARK       I    between atoms: C5_7  and  N1_9 
REMARK       I    between atoms: N1_9  and  C6_11 
ROOT
HETATM    1  C5  UNL     1      25.536   4.512  33.623  1.00  0.00     0.371 C 
HETATM    2  O3  UNL     1      26.029   3.589  32.926  1.00  0.00    -0.238 OA
HETATM    3  N1  UNL     1      25.638   4.485  35.038  1.00  0.00    -0.277 N 
ATOM      4  H1  UNL     1      25.235   5.236  35.597  1.00  0.00     0.173 HD
HETATM    5  C6  UNL     1      26.305   3.402  35.669  1.00  0.00     0.190 C 
HETATM    6  N2  UNL     1      26.420   3.340  36.958  1.00  0.00    -0.373 N 
ATOM      7  H21 UNL     1      26.900   2.562  37.411  1.00  0.00     0.158 HD
ATOM      8  H22 UNL     1      26.013   4.098  37.507  1.00  0.00     0.158 HD
HETATM    9  N3  UNL     1      26.872   2.346  34.904  1.00  0.00    -0.064 NA
ENDROOT
BRANCH   1  10
HETATM   10  O2  UNL     1      24.901   5.529  32.930  1.00  0.00    -0.273 OA
BRANCH  10  11
HETATM   11  C4  UNL     1      25.456   6.793  32.748  1.00  0.00     0.157 C 
HETATM   12  C2  UNL     1      25.306   7.513  31.676  1.00  0.00    -0.002 C 
HETATM   13  C1  UNL     1      24.502   7.016  30.526  1.00  0.00     0.053 C 
BRANCH  12  14
HETATM   14  C3  UNL     1      25.921   8.820  31.572  1.00  0.00     0.267 C 
HETATM   15  O1  UNL     1      26.348   9.212  30.464  1.00  0.00    -0.302 OA
ENDBRANCH  12  14
ENDBRANCH  10  11
ENDBRANCH   1  10
TORSDOF 3
ENDMDL
