MODEL 1
REMARK VINA RESULT: -4.263982850      0.000      0.000
REMARK  3 active torsions:
REMARK  status: ('A' for Active; 'I' for Inactive)
REMARK       I    between atoms: C1_4  and  N3_6 
REMARK    1  A    between atoms: N3_6  and  O1_8 
REMARK    2  A    between atoms: O1_8  and  C2_9 
REMARK    3  A    between atoms: C2_9  and  C3_11 
ROOT
HETATM    1  O1  UNL     1      27.881   9.305  27.171  1.00  0.00    -0.192 OA
ENDROOT
BRANCH   1   2
HETATM    2  N3  UNL     1      28.942  10.052  26.681  1.00  0.00    -0.229 N 
HETATM    3  C1  UNL     1      28.767  11.306  26.063  1.00  0.00     0.206 C 
HETATM    4  N1  UNL     1      28.686  11.375  24.788  1.00  0.00    -0.372 N 
HETATM    5  N2  UNL     1      28.682  12.480  26.851  1.00  0.00    -0.062 NA
ATOM      6  H12 UNL     1      28.560  12.283  24.340  1.00  0.00     0.158 HD
ATOM      7  H11 UNL     1      28.748  10.529  24.220  1.00  0.00     0.158 HD
ATOM      8  H3  UNL     1      29.887   9.677  26.771  1.00  0.00     0.197 HD
ENDBRANCH   1   2
BRANCH   1   9
HETATM    9  C2  UNL     1      27.958   8.761  28.423  1.00  0.00     0.317 C 
HETATM   10  O2  UNL     1      29.026   8.214  28.800  1.00  0.00    -0.257 OA
BRANCH   9  11
HETATM   11  C3  UNL     1      26.834   8.786  29.362  1.00  0.00     0.065 A 
HETATM   12  C4  UNL     1      26.776   9.411  30.589  1.00  0.00     0.044 A 
HETATM   13  C5  UNL     1      25.529   9.162  31.110  1.00  0.00     0.142 A 
HETATM   14  O3  UNL     1      24.877   8.436  30.256  1.00  0.00    -0.334 OA
HETATM   15  C6  UNL     1      25.605   8.179  29.195  1.00  0.00     0.159 A 
ENDBRANCH   9  11
ENDBRANCH   1   9
TORSDOF 3
ENDMDL
MODEL 2
REMARK VINA RESULT: -4.201216298      9.182     10.793
REMARK  3 active torsions:
REMARK  status: ('A' for Active; 'I' for Inactive)
REMARK       I    between atoms: C1_4  and  N3_6 
REMARK    1  A    between atoms: N3_6  and  O1_8 
REMARK    2  A    between atoms: O1_8  and  C2_9 
REMARK    3  A    between atoms: C2_9  and  C3_11 
ROOT
HETATM    1  O1  UNL     1      26.696   3.923  36.733  1.00  0.00    -0.192 OA
ENDROOT
BRANCH   1   2
HETATM    2  N3  UNL     1      27.749   3.093  36.379  1.00  0.00    -0.229 N 
HETATM    3  C1  UNL     1      27.989   1.857  37.012  1.00  0.00     0.206 C 
HETATM    4  N1  UNL     1      28.827   1.796  37.977  1.00  0.00    -0.372 N 
HETATM    5  N2  UNL     1      27.307   0.694  36.580  1.00  0.00    -0.062 NA
ATOM      6  H12 UNL     1      29.001   0.901  38.436  1.00  0.00     0.158 HD
ATOM      7  H11 UNL     1      29.319   2.635  38.288  1.00  0.00     0.158 HD
ATOM      8  H3  UNL     1      28.375   3.389  35.629  1.00  0.00     0.197 HD
ENDBRANCH   1   2
BRANCH   1   9
HETATM    9  C2  UNL     1      25.474   3.756  36.142  1.00  0.00     0.317 C 
HETATM   10  O2  UNL     1      24.432   3.799  36.845  1.00  0.00    -0.257 OA
BRANCH   9  11
HETATM   11  C3  UNL     1      25.320   3.528  34.704  1.00  0.00     0.065 A 
HETATM   12  C4  UNL     1      25.477   4.441  33.684  1.00  0.00     0.044 A 
HETATM   13  C5  UNL     1      25.232   3.778  32.506  1.00  0.00     0.142 A 
HETATM   14  O3  UNL     1      24.947   2.546  32.793  1.00  0.00    -0.334 OA
HETATM   15  C6  UNL     1      24.983   2.338  34.089  1.00  0.00     0.159 A 
ENDBRANCH   9  11
ENDBRANCH   1   9
TORSDOF 3
ENDMDL
MODEL 3
REMARK VINA RESULT: -4.160400269     10.307     11.686
REMARK  3 active torsions:
REMARK  status: ('A' for Active; 'I' for Inactive)
REMARK       I    between atoms: C1_4  and  N3_6 
REMARK    1  A    between atoms: N3_6  and  O1_8 
REMARK    2  A    between atoms: O1_8  and  C2_9 
REMARK    3  A    between atoms: C2_9  and  C3_11 
ROOT
HETATM    1  O1  UNL     1      26.539   3.868  36.762  1.00  0.00    -0.192 OA
ENDROOT
BRANCH   1   2
HETATM    2  N3  UNL     1      27.663   3.148  36.387  1.00  0.00    -0.229 N 
HETATM    3  C1  UNL     1      27.970   1.883  36.927  1.00  0.00     0.206 C 
HETATM    4  N1  UNL     1      28.773   1.801  37.920  1.00  0.00    -0.372 N 
HETATM    5  N2  UNL     1      27.393   0.715  36.372  1.00  0.00    -0.062 NA
ATOM      6  H12 UNL     1      28.996   0.885  38.310  1.00  0.00     0.158 HD
ATOM      7  H11 UNL     1      29.189   2.642  38.319  1.00  0.00     0.158 HD
ATOM      8  H3  UNL     1      28.293   3.551  35.692  1.00  0.00     0.197 HD
ENDBRANCH   1   2
BRANCH   1   9
HETATM    9  C2  UNL     1      25.335   3.601  36.170  1.00  0.00     0.317 C 
HETATM   10  O2  UNL     1      25.193   3.790  34.935  1.00  0.00    -0.257 OA
BRANCH   9  11
HETATM   11  C3  UNL     1      24.184   3.095  36.921  1.00  0.00     0.065 A 
HETATM   12  C4  UNL     1      23.002   3.750  37.192  1.00  0.00     0.044 A 
HETATM   13  C5  UNL     1      22.221   2.888  37.923  1.00  0.00     0.142 A 
HETATM   14  O3  UNL     1      22.885   1.785  38.084  1.00  0.00    -0.334 OA
HETATM   15  C6  UNL     1      24.063   1.851  37.508  1.00  0.00     0.159 A 
ENDBRANCH   9  11
ENDBRANCH   1   9
TORSDOF 3
ENDMDL
MODEL 4
REMARK VINA RESULT: -4.022012834      1.501      2.099
REMARK  3 active torsions:
REMARK  status: ('A' for Active; 'I' for Inactive)
REMARK       I    between atoms: C1_4  and  N3_6 
REMARK    1  A    between atoms: N3_6  and  O1_8 
REMARK    2  A    between atoms: O1_8  and  C2_9 
REMARK    3  A    between atoms: C2_9  and  C3_11 
ROOT
HETATM    1  O1  UNL     1      27.886   9.348  27.273  1.00  0.00    -0.192 OA
ENDROOT
BRANCH   1   2
HETATM    2  N3  UNL     1      29.033   9.418  26.499  1.00  0.00    -0.229 N 
HETATM    3  C1  UNL     1      29.439   8.374  25.644  1.00  0.00     0.206 C 
HETATM    4  N1  UNL     1      30.288   7.511  26.062  1.00  0.00    -0.372 N 
HETATM    5  N2  UNL     1      28.910   8.282  24.334  1.00  0.00    -0.062 NA
ATOM      6  H12 UNL     1      30.582   6.755  25.443  1.00  0.00     0.158 HD
ATOM      7  H11 UNL     1      30.669   7.578  27.006  1.00  0.00     0.158 HD
ATOM      8  H3  UNL     1      29.608  10.260  26.550  1.00  0.00     0.197 HD
ENDBRANCH   1   2
BRANCH   1   9
HETATM    9  C2  UNL     1      27.940   8.775  28.514  1.00  0.00     0.317 C 
HETATM   10  O2  UNL     1      29.002   8.225  28.900  1.00  0.00    -0.257 OA
BRANCH   9  11
HETATM   11  C3  UNL     1      26.798   8.774  29.430  1.00  0.00     0.065 A 
HETATM   12  C4  UNL     1      26.715   9.362  30.674  1.00  0.00     0.044 A 
HETATM   13  C5  UNL     1      25.458   9.100  31.162  1.00  0.00     0.142 A 
HETATM   14  O3  UNL     1      24.822   8.401  30.274  1.00  0.00    -0.334 OA
HETATM   15  C6  UNL     1      25.571   8.175  29.220  1.00  0.00     0.159 A 
ENDBRANCH   9  11
ENDBRANCH   1   9
TORSDOF 3
ENDMDL
MODEL 5
REMARK VINA RESULT: -4.017168827      5.315      7.071
REMARK  3 active torsions:
REMARK  status: ('A' for Active; 'I' for Inactive)
REMARK       I    between atoms: C1_4  and  N3_6 
REMARK    1  A    between atoms: N3_6  and  O1_8 
REMARK    2  A    between atoms: O1_8  and  C2_9 
REMARK    3  A    between atoms: C2_9  and  C3_11 
ROOT
HETATM    1  O1  UNL     1      24.428   6.438  32.605  1.00  0.00    -0.192 OA
ENDROOT
BRANCH   1   2
HETATM    2  N3  UNL     1      25.497   5.842  33.259  1.00  0.00    -0.229 N 
HETATM    3  C1  UNL     1      25.457   4.513  33.726  1.00  0.00     0.206 C 
HETATM    4  N1  UNL     1      25.137   4.283  34.943  1.00  0.00    -0.372 N 
HETATM    5  N2  UNL     1      25.770   3.444  32.852  1.00  0.00    -0.062 NA
ATOM      6  H12 UNL     1      25.108   3.321  35.282  1.00  0.00     0.158 HD
ATOM      7  H11 UNL     1      24.911   5.054  35.573  1.00  0.00     0.158 HD
ATOM      8  H3  UNL     1      26.346   6.389  33.407  1.00  0.00     0.197 HD
ENDBRANCH   1   2
BRANCH   1   9
HETATM    9  C2  UNL     1      24.568   6.840  31.306  1.00  0.00     0.317 C 
HETATM   10  O2  UNL     1      23.920   6.256  30.400  1.00  0.00    -0.257 OA
BRANCH   9  11
HETATM   11  C3  UNL     1      25.453   7.939  30.913  1.00  0.00     0.065 A 
HETATM   12  C4  UNL     1      26.028   8.889  31.728  1.00  0.00     0.044 A 
HETATM   13  C5  UNL     1      26.775   9.714  30.922  1.00  0.00     0.142 A 
HETATM   14  O3  UNL     1      26.660   9.291  29.702  1.00  0.00    -0.334 OA
HETATM   15  C6  UNL     1      25.883   8.236  29.635  1.00  0.00     0.159 A 
ENDBRANCH   9  11
ENDBRANCH   1   9
TORSDOF 3
ENDMDL
