MODEL 1
REMARK VINA RESULT: -8.102417264      0.000      0.000
REMARK  2 active torsions:
REMARK  status: ('A' for Active; 'I' for Inactive)
REMARK    1  A    between atoms: N1_2  and  C2_4 
REMARK    2  A    between atoms: C2_4  and  C3_5 
ROOT
HETATM    1  C3  UNL     1       1.707   5.643  18.705  1.00  0.00     0.001 A 
HETATM    2  C4  UNL     1       2.134   5.919  17.406  1.00  0.00     0.013 A 
HETATM    3  C5  UNL     1       3.414   6.425  17.176  1.00  0.00     0.016 A 
HETATM    4  C6  UNL     1       4.192   6.614  18.279  1.00  0.00     0.011 A 
HETATM    5  C7  UNL     1       3.735   6.327  19.574  1.00  0.00     0.120 A 
HETATM    6  C8  UNL     1       2.473   5.837  19.813  1.00  0.00     0.158 A 
HETATM    7  F1  UNL     1       2.101   5.576  21.073  1.00  0.00    -0.203 F 
HETATM    8  O1  UNL     1       4.677   6.594  20.552  1.00  0.00    -0.332 OA
HETATM    9  C9  UNL     1       5.489   7.748  20.456  1.00  0.00     0.086 C 
HETATM   10  C10 UNL     1       6.368   7.615  21.726  1.00  0.00     0.051 C 
HETATM   11  C11 UNL     1       4.589   8.925  20.534  1.00  0.00     0.051 C 
HETATM   12  C12 UNL     1       6.358   7.588  19.244  1.00  0.00    -0.027 C 
HETATM   13  C13 UNL     1       5.599   7.016  18.140  1.00  0.00    -0.021 C 
HETATM   14  C14 UNL     1       6.192   6.853  16.964  1.00  0.00    -0.014 C 
HETATM   15  C15 UNL     1       7.641   7.269  16.878  1.00  0.00     0.029 C 
HETATM   16  C16 UNL     1       7.745   8.603  17.490  1.00  0.00     0.017 C 
HETATM   17  C17 UNL     1       7.314   8.655  18.945  1.00  0.00    -0.020 C 
HETATM   18  C18 UNL     1       8.623   8.497  19.754  1.00  0.00     0.019 C 
HETATM   19  C19 UNL     1       6.915  10.090  19.143  1.00  0.00     0.019 C 
ENDROOT
BRANCH   1  20
HETATM   20  C2  UNL     1       0.295   5.118  18.808  1.00  0.00     0.155 C 
BRANCH  20  21
HETATM   21  N1  UNL     1      -0.456   6.291  18.276  1.00  0.00    -0.421 N 
HETATM   22  C1  UNL     1      -0.416   7.475  19.076  1.00  0.00     0.140 C 
ATOM     23  H1  UNL     1      -0.968   6.251  17.394  1.00  0.00     0.153 HD
ENDBRANCH  20  21
ENDBRANCH   1  20
TORSDOF 2
ENDMDL
MODEL 2
REMARK VINA RESULT: -8.097637614      1.701      3.161
REMARK  2 active torsions:
REMARK  status: ('A' for Active; 'I' for Inactive)
REMARK    1  A    between atoms: N1_2  and  C2_4 
REMARK    2  A    between atoms: C2_4  and  C3_5 
ROOT
HETATM    1  C3  UNL     1       1.690   6.505  18.649  1.00  0.00     0.001 A 
HETATM    2  C4  UNL     1       1.962   5.822  19.835  1.00  0.00     0.013 A 
HETATM    3  C5  UNL     1       3.068   6.169  20.612  1.00  0.00     0.016 A 
HETATM    4  C6  UNL     1       3.830   7.197  20.145  1.00  0.00     0.011 A 
HETATM    5  C7  UNL     1       3.532   7.866  18.948  1.00  0.00     0.120 A 
HETATM    6  C8  UNL     1       2.451   7.527  18.170  1.00  0.00     0.158 A 
HETATM    7  F1  UNL     1       2.217   8.211  17.043  1.00  0.00    -0.203 F 
HETATM    8  O1  UNL     1       4.433   8.874  18.652  1.00  0.00    -0.332 OA
HETATM    9  C9  UNL     1       5.814   8.681  18.892  1.00  0.00     0.086 C 
HETATM   10  C10 UNL     1       6.401  10.041  18.436  1.00  0.00     0.051 C 
HETATM   11  C11 UNL     1       6.260   7.571  18.014  1.00  0.00     0.051 C 
HETATM   12  C12 UNL     1       6.000   8.543  20.373  1.00  0.00    -0.027 C 
HETATM   13  C13 UNL     1       4.939   7.729  20.951  1.00  0.00    -0.021 C 
HETATM   14  C14 UNL     1       4.970   7.452  22.248  1.00  0.00    -0.014 C 
HETATM   15  C15 UNL     1       6.121   8.034  23.033  1.00  0.00     0.029 C 
HETATM   16  C16 UNL     1       7.349   7.757  22.269  1.00  0.00     0.017 C 
HETATM   17  C17 UNL     1       7.362   8.358  20.875  1.00  0.00    -0.020 C 
HETATM   18  C18 UNL     1       8.105   9.706  21.030  1.00  0.00     0.019 C 
HETATM   19  C19 UNL     1       8.321   7.480  20.122  1.00  0.00     0.019 C 
ENDROOT
BRANCH   1  20
HETATM   20  C2  UNL     1       0.474   6.013  17.900  1.00  0.00     0.155 C 
BRANCH  20  21
HETATM   21  N1  UNL     1      -0.584   6.833  18.558  1.00  0.00    -0.421 N 
HETATM   22  C1  UNL     1      -0.550   8.235  18.281  1.00  0.00     0.140 C 
ATOM     23  H1  UNL     1      -1.288   6.418  19.168  1.00  0.00     0.153 HD
ENDBRANCH  20  21
ENDBRANCH   1  20
TORSDOF 2
ENDMDL
MODEL 3
REMARK VINA RESULT: -7.977662984      2.946      4.851
REMARK  2 active torsions:
REMARK  status: ('A' for Active; 'I' for Inactive)
REMARK    1  A    between atoms: N1_2  and  C2_4 
REMARK    2  A    between atoms: C2_4  and  C3_5 
ROOT
HETATM    1  C3  UNL     1       4.149   8.223  15.632  1.00  0.00     0.001 A 
HETATM    2  C4  UNL     1       3.766   6.911  15.913  1.00  0.00     0.013 A 
HETATM    3  C5  UNL     1       3.612   6.487  17.233  1.00  0.00     0.016 A 
HETATM    4  C6  UNL     1       3.846   7.423  18.195  1.00  0.00     0.011 A 
HETATM    5  C7  UNL     1       4.231   8.736  17.883  1.00  0.00     0.120 A 
HETATM    6  C8  UNL     1       4.394   9.162  16.586  1.00  0.00     0.158 A 
HETATM    7  F1  UNL     1       4.754  10.431  16.356  1.00  0.00    -0.203 F 
HETATM    8  O1  UNL     1       4.423   9.525  19.004  1.00  0.00    -0.332 OA
HETATM    9  C9  UNL     1       5.052   8.984  20.149  1.00  0.00     0.086 C 
HETATM   10  C10 UNL     1       5.030  10.196  21.116  1.00  0.00     0.051 C 
HETATM   11  C11 UNL     1       6.436   8.620  19.760  1.00  0.00     0.051 C 
HETATM   12  C12 UNL     1       4.154   7.912  20.693  1.00  0.00    -0.027 C 
HETATM   13  C13 UNL     1       3.585   7.121  19.610  1.00  0.00    -0.021 C 
HETATM   14  C14 UNL     1       2.806   6.088  19.904  1.00  0.00    -0.014 C 
HETATM   15  C15 UNL     1       2.557   5.829  21.371  1.00  0.00     0.029 C 
HETATM   16  C16 UNL     1       3.863   5.884  22.047  1.00  0.00     0.017 C 
HETATM   17  C17 UNL     1       4.580   7.216  21.906  1.00  0.00    -0.020 C 
HETATM   18  C18 UNL     1       4.209   8.004  23.184  1.00  0.00     0.019 C 
HETATM   19  C19 UNL     1       6.028   6.856  22.090  1.00  0.00     0.019 C 
ENDROOT
BRANCH   1  20
HETATM   20  C2  UNL     1       4.296   8.538  14.163  1.00  0.00     0.155 C 
BRANCH  20  21
HETATM   21  N1  UNL     1       5.237   7.455  13.759  1.00  0.00    -0.421 N 
HETATM   22  C1  UNL     1       6.627   7.790  13.791  1.00  0.00     0.140 C 
ATOM     23  H1  UNL     1       4.910   6.531  13.476  1.00  0.00     0.153 HD
ENDBRANCH  20  21
ENDBRANCH   1  20
TORSDOF 2
ENDMDL
MODEL 4
REMARK VINA RESULT: -7.813501236      2.928      4.914
REMARK  2 active torsions:
REMARK  status: ('A' for Active; 'I' for Inactive)
REMARK    1  A    between atoms: N1_2  and  C2_4 
REMARK    2  A    between atoms: C2_4  and  C3_5 
ROOT
HETATM    1  C3  UNL     1       5.819   7.813  16.114  1.00  0.00     0.001 A 
HETATM    2  C4  UNL     1       5.370   6.506  16.310  1.00  0.00     0.013 A 
HETATM    3  C5  UNL     1       4.843   6.119  17.543  1.00  0.00     0.016 A 
HETATM    4  C6  UNL     1       4.794   7.083  18.505  1.00  0.00     0.011 A 
HETATM    5  C7  UNL     1       5.254   8.389  18.278  1.00  0.00     0.120 A 
HETATM    6  C8  UNL     1       5.783   8.780  17.071  1.00  0.00     0.158 A 
HETATM    7  F1  UNL     1       6.196  10.044  16.917  1.00  0.00    -0.203 F 
HETATM    8  O1  UNL     1       5.119   9.210  19.384  1.00  0.00    -0.332 OA
HETATM    9  C9  UNL     1       5.392   8.705  20.677  1.00  0.00     0.086 C 
HETATM   10  C10 UNL     1       5.097   9.943  21.562  1.00  0.00     0.051 C 
HETATM   11  C11 UNL     1       6.830   8.339  20.710  1.00  0.00     0.051 C 
HETATM   12  C12 UNL     1       4.375   7.643  20.971  1.00  0.00    -0.027 C 
HETATM   13  C13 UNL     1       4.138   6.818  19.793  1.00  0.00    -0.021 C 
HETATM   14  C14 UNL     1       3.305   5.789  19.882  1.00  0.00    -0.014 C 
HETATM   15  C15 UNL     1       2.647   5.570  21.223  1.00  0.00     0.029 C 
HETATM   16  C16 UNL     1       3.705   5.652  22.243  1.00  0.00     0.017 C 
HETATM   17  C17 UNL     1       4.434   6.983  22.275  1.00  0.00    -0.020 C 
HETATM   18  C18 UNL     1       3.714   7.805  23.369  1.00  0.00     0.019 C 
HETATM   19  C19 UNL     1       5.769   6.639  22.875  1.00  0.00     0.019 C 
ENDROOT
BRANCH   1  20
HETATM   20  C2  UNL     1       6.381   8.088  14.739  1.00  0.00     0.155 C 
BRANCH  20  21
HETATM   21  N1  UNL     1       5.192   7.755  13.903  1.00  0.00    -0.421 N 
HETATM   22  C1  UNL     1       4.175   8.757  13.835  1.00  0.00     0.140 C 
ATOM     23  H1  UNL     1       5.110   6.866  13.410  1.00  0.00     0.153 HD
ENDBRANCH  20  21
ENDBRANCH   1  20
TORSDOF 2
ENDMDL
MODEL 5
REMARK VINA RESULT: -7.740853631      3.075      5.058
REMARK  2 active torsions:
REMARK  status: ('A' for Active; 'I' for Inactive)
REMARK    1  A    between atoms: N1_2  and  C2_4 
REMARK    2  A    between atoms: C2_4  and  C3_5 
ROOT
HETATM    1  C3  UNL     1       6.612   8.325  21.511  1.00  0.00     0.001 A 
HETATM    2  C4  UNL     1       7.416   7.435  20.798  1.00  0.00     0.013 A 
HETATM    3  C5  UNL     1       7.358   7.391  19.404  1.00  0.00     0.016 A 
HETATM    4  C6  UNL     1       6.493   8.262  18.812  1.00  0.00     0.011 A 
HETATM    5  C7  UNL     1       5.696   9.146  19.556  1.00  0.00     0.120 A 
HETATM    6  C8  UNL     1       5.738   9.191  20.929  1.00  0.00     0.158 A 
HETATM    7  F1  UNL     1       4.958  10.064  21.578  1.00  0.00    -0.203 F 
HETATM    8  O1  UNL     1       4.884   9.939  18.764  1.00  0.00    -0.332 OA
HETATM    9  C9  UNL     1       4.249   9.387  17.627  1.00  0.00     0.086 C 
HETATM   10  C10 UNL     1       3.487  10.618  17.070  1.00  0.00     0.051 C 
HETATM   11  C11 UNL     1       3.317   8.339  18.109  1.00  0.00     0.051 C 
HETATM   12  C12 UNL     1       5.323   9.000  16.654  1.00  0.00    -0.027 C 
HETATM   13  C13 UNL     1       6.450   8.391  17.349  1.00  0.00    -0.021 C 
HETATM   14  C14 UNL     1       7.475   7.933  16.641  1.00  0.00    -0.014 C 
HETATM   15  C15 UNL     1       7.388   8.104  15.143  1.00  0.00     0.029 C 
HETATM   16  C16 UNL     1       6.049   7.652  14.734  1.00  0.00     0.017 C 
HETATM   17  C17 UNL     1       4.909   8.424  15.374  1.00  0.00    -0.020 C 
HETATM   18  C18 UNL     1       4.540   9.517  14.344  1.00  0.00     0.019 C 
HETATM   19  C19 UNL     1       3.760   7.457  15.330  1.00  0.00     0.019 C 
ENDROOT
BRANCH   1  20
HETATM   20  C2  UNL     1       6.764   8.251  23.011  1.00  0.00     0.155 C 
BRANCH  20  21
HETATM   21  N1  UNL     1       6.085   6.950  23.276  1.00  0.00    -0.421 N 
HETATM   22  C1  UNL     1       4.770   7.033  23.832  1.00  0.00     0.140 C 
ATOM     23  H1  UNL     1       6.531   6.055  23.074  1.00  0.00     0.153 HD
ENDBRANCH  20  21
ENDBRANCH   1  20
TORSDOF 2
ENDMDL
