MODEL 1
REMARK VINA RESULT: -9.116380914      0.000      0.000
REMARK  4 active torsions:
REMARK  status: ('A' for Active; 'I' for Inactive)
REMARK    1  A    between atoms: C2_2  and  C3_3 
REMARK    2  A    between atoms: C6_6  and  C7_7 
REMARK    3  A    between atoms: C7_7  and  C8_8 
REMARK    4  A    between atoms: C20_23  and  O3_25 
ROOT
HETATM    1  C3  UNL     1       6.527   7.136  17.253  1.00  0.00     0.059 C 
HETATM    2  C4  UNL     1       7.042   7.920  16.025  1.00  0.00     0.046 C 
HETATM    3  C5  UNL     1       7.039   7.827  18.468  1.00  0.00     0.049 C 
HETATM    4  C6  UNL     1       5.794   7.561  19.450  1.00  0.00     0.052 C 
HETATM    5  C11 UNL     1       4.708   7.660  18.537  1.00  0.00     0.137 A 
HETATM    6  O1  UNL     1       5.205   7.092  17.304  1.00  0.00    -0.362 OA
HETATM    7  C12 UNL     1       3.928   8.813  18.181  1.00  0.00     0.090 A 
HETATM    8  C13 UNL     1       4.024   9.307  16.723  1.00  0.00     0.049 C 
HETATM    9  C14 UNL     1       3.787  10.046  19.013  1.00  0.00     0.049 C 
HETATM   10  O2  UNL     1       2.746   8.116  18.310  1.00  0.00    -0.356 OA
HETATM   11  C15 UNL     1       3.369   6.925  18.718  1.00  0.00     0.148 A 
HETATM   12  C16 UNL     1       3.077   6.536  20.097  1.00  0.00     0.018 C 
HETATM   13  C17 UNL     1       2.666   5.342  20.478  1.00  0.00    -0.001 C 
HETATM   14  C18 UNL     1       2.430   4.270  19.547  1.00  0.00    -0.001 C 
HETATM   15  C19 UNL     1       2.601   4.525  18.288  1.00  0.00     0.014 C 
HETATM   16  C20 UNL     1       2.999   5.853  17.788  1.00  0.00     0.110 C 
HETATM   17  C21 UNL     1       1.600   6.363  17.202  1.00  0.00     0.054 C 
ENDROOT
BRANCH   4  18
HETATM   18  C7  UNL     1       6.208   8.422  20.552  1.00  0.00    -0.017 C 
BRANCH  18  19
HETATM   19  C8  UNL     1       7.063   8.001  21.647  1.00  0.00     0.015 C 
HETATM   20  C9  UNL     1       6.639   7.552  22.829  1.00  0.00     0.007 C 
HETATM   21  C10 UNL     1       7.584   7.143  23.893  1.00  0.00     0.062 C 
HETATM   22 CL1  UNL     1       4.902   7.472  23.054  1.00  0.00    -0.089 Cl
ENDBRANCH  18  19
ENDBRANCH   4  18
BRANCH   1  23
HETATM   23  C2  UNL     1       7.293   5.831  17.184  1.00  0.00     0.033 C 
HETATM   24  C1  UNL     1       7.807   5.458  15.843  1.00  0.00     0.008 C 
ENDBRANCH   1  23
BRANCH  16  25
HETATM   25  O3  UNL     1       3.711   5.736  16.592  1.00  0.00    -0.383 OA
ATOM     26  H3  UNL     1       3.794   4.875  16.199  1.00  0.00     0.211 HD
ENDBRANCH  16  25
TORSDOF 4
ENDMDL
MODEL 2
REMARK VINA RESULT: -8.719070008      1.160      1.220
REMARK  4 active torsions:
REMARK  status: ('A' for Active; 'I' for Inactive)
REMARK    1  A    between atoms: C2_2  and  C3_3 
REMARK    2  A    between atoms: C6_6  and  C7_7 
REMARK    3  A    between atoms: C7_7  and  C8_8 
REMARK    4  A    between atoms: C20_23  and  O3_25 
ROOT
HETATM    1  C3  UNL     1       5.663   7.175  16.276  1.00  0.00     0.059 C 
HETATM    2  C4  UNL     1       5.943   8.140  15.103  1.00  0.00     0.046 C 
HETATM    3  C5  UNL     1       6.614   7.514  17.368  1.00  0.00     0.049 C 
HETATM    4  C6  UNL     1       5.672   7.193  18.631  1.00  0.00     0.052 C 
HETATM    5  C11 UNL     1       4.409   7.621  18.136  1.00  0.00     0.137 A 
HETATM    6  O1  UNL     1       4.424   7.282  16.731  1.00  0.00    -0.362 OA
HETATM    7  C12 UNL     1       3.784   8.910  18.247  1.00  0.00     0.090 A 
HETATM    8  C13 UNL     1       3.552   9.697  16.941  1.00  0.00     0.049 C 
HETATM    9  C14 UNL     1       4.112   9.939  19.281  1.00  0.00     0.049 C 
HETATM   10  O2  UNL     1       2.581   8.351  18.619  1.00  0.00    -0.356 OA
HETATM   11  C15 UNL     1       3.065   7.034  18.599  1.00  0.00     0.148 A 
HETATM   12  C16 UNL     1       3.109   6.390  19.912  1.00  0.00     0.018 C 
HETATM   13  C17 UNL     1       2.612   5.200  20.191  1.00  0.00    -0.001 C 
HETATM   14  C18 UNL     1       1.931   4.396  19.212  1.00  0.00    -0.001 C 
HETATM   15  C19 UNL     1       1.782   4.898  18.026  1.00  0.00     0.014 C 
HETATM   16  C20 UNL     1       2.258   6.245  17.663  1.00  0.00     0.110 C 
HETATM   17  C21 UNL     1       0.868   7.037  17.643  1.00  0.00     0.054 C 
ENDROOT
BRANCH   4  18
HETATM   18  C7  UNL     1       6.531   7.734  19.678  1.00  0.00    -0.017 C 
BRANCH  18  19
HETATM   19  C8  UNL     1       6.428   7.392  21.084  1.00  0.00     0.015 C 
HETATM   20  C9  UNL     1       7.109   7.974  22.072  1.00  0.00     0.007 C 
HETATM   21  C10 UNL     1       6.942   7.561  23.485  1.00  0.00     0.062 C 
HETATM   22 CL1  UNL     1       8.212   9.256  21.609  1.00  0.00    -0.089 Cl
ENDBRANCH  18  19
ENDBRANCH   4  18
BRANCH   1  23
HETATM   23  C2  UNL     1       6.126   5.833  15.746  1.00  0.00     0.033 C 
HETATM   24  C1  UNL     1       7.589   5.591  15.803  1.00  0.00     0.008 C 
ENDBRANCH   1  23
BRANCH  16  25
HETATM   25  O3  UNL     1       2.568   6.307  16.303  1.00  0.00    -0.383 OA
ATOM     26  H3  UNL     1       1.988   5.874  15.687  1.00  0.00     0.211 HD
ENDBRANCH  16  25
TORSDOF 4
ENDMDL
MODEL 3
REMARK VINA RESULT: -8.645710399      1.949      4.735
REMARK  4 active torsions:
REMARK  status: ('A' for Active; 'I' for Inactive)
REMARK    1  A    between atoms: C2_2  and  C3_3 
REMARK    2  A    between atoms: C6_6  and  C7_7 
REMARK    3  A    between atoms: C7_7  and  C8_8 
REMARK    4  A    between atoms: C20_23  and  O3_25 
ROOT
HETATM    1  C3  UNL     1       1.915   7.186  17.663  1.00  0.00     0.059 C 
HETATM    2  C4  UNL     1       1.582   6.213  16.511  1.00  0.00     0.046 C 
HETATM    3  C5  UNL     1       2.331   6.366  18.833  1.00  0.00     0.049 C 
HETATM    4  C6  UNL     1       3.429   7.360  19.460  1.00  0.00     0.052 C 
HETATM    5  C11 UNL     1       3.997   7.908  18.277  1.00  0.00     0.137 A 
HETATM    6  O1  UNL     1       2.894   8.021  17.350  1.00  0.00    -0.362 OA
HETATM    7  C12 UNL     1       5.131   7.450  17.522  1.00  0.00     0.090 A 
HETATM    8  C13 UNL     1       4.867   6.952  16.086  1.00  0.00     0.049 C 
HETATM    9  C14 UNL     1       6.223   6.579  18.054  1.00  0.00     0.049 C 
HETATM   10  O2  UNL     1       5.652   8.722  17.435  1.00  0.00    -0.356 OA
HETATM   11  C15 UNL     1       4.631   9.307  18.202  1.00  0.00     0.148 A 
HETATM   12  C16 UNL     1       5.076   9.837  19.491  1.00  0.00     0.018 C 
HETATM   13  C17 UNL     1       4.816  11.048  19.944  1.00  0.00    -0.001 C 
HETATM   14  C18 UNL     1       4.068  12.015  19.185  1.00  0.00    -0.001 C 
HETATM   15  C19 UNL     1       3.675  11.670  18.000  1.00  0.00     0.014 C 
HETATM   16  C20 UNL     1       3.982  10.356  17.407  1.00  0.00     0.110 C 
HETATM   17  C21 UNL     1       5.130  10.776  16.375  1.00  0.00     0.054 C 
ENDROOT
BRANCH   4  18
HETATM   18  C7  UNL     1       3.978   6.459  20.466  1.00  0.00    -0.017 C 
BRANCH  18  19
HETATM   19  C8  UNL     1       3.363   6.189  21.752  1.00  0.00     0.015 C 
HETATM   20  C9  UNL     1       3.792   6.653  22.926  1.00  0.00     0.007 C 
HETATM   21  C10 UNL     1       3.100   6.327  24.195  1.00  0.00     0.062 C 
HETATM   22 CL1  UNL     1       5.219   7.672  22.887  1.00  0.00    -0.089 Cl
ENDBRANCH  18  19
ENDBRANCH   4  18
BRANCH   1  23
HETATM   23  C2  UNL     1       0.565   7.761  18.040  1.00  0.00     0.033 C 
HETATM   24  C1  UNL     1      -0.335   6.850  18.787  1.00  0.00     0.008 C 
ENDBRANCH   1  23
BRANCH  16  25
HETATM   25  O3  UNL     1       2.992   9.982  16.497  1.00  0.00    -0.383 OA
ATOM     26  H3  UNL     1       2.085  10.009  16.781  1.00  0.00     0.211 HD
ENDBRANCH  16  25
TORSDOF 4
ENDMDL
MODEL 4
REMARK VINA RESULT: -8.584159989      2.227      5.256
REMARK  4 active torsions:
REMARK  status: ('A' for Active; 'I' for Inactive)
REMARK    1  A    between atoms: C2_2  and  C3_3 
REMARK    2  A    between atoms: C6_6  and  C7_7 
REMARK    3  A    between atoms: C7_7  and  C8_8 
REMARK    4  A    between atoms: C20_23  and  O3_25 
ROOT
HETATM    1  C3  UNL     1       3.978  10.292  18.262  1.00  0.00     0.059 C 
HETATM    2  C4  UNL     1       4.832  11.192  17.342  1.00  0.00     0.046 C 
HETATM    3  C5  UNL     1       3.071   9.498  17.390  1.00  0.00     0.049 C 
HETATM    4  C6  UNL     1       3.021   8.140  18.250  1.00  0.00     0.052 C 
HETATM    5  C11 UNL     1       4.354   8.088  18.742  1.00  0.00     0.137 A 
HETATM    6  O1  UNL     1       4.717   9.466  18.986  1.00  0.00    -0.362 OA
HETATM    7  C12 UNL     1       5.506   7.449  18.167  1.00  0.00     0.090 A 
HETATM    8  C13 UNL     1       6.666   8.360  17.714  1.00  0.00     0.049 C 
HETATM    9  C14 UNL     1       5.464   6.332  17.175  1.00  0.00     0.049 C 
HETATM   10  O2  UNL     1       5.861   6.888  19.374  1.00  0.00    -0.356 OA
HETATM   11  C15 UNL     1       4.753   7.407  20.063  1.00  0.00     0.148 A 
HETATM   12  C16 UNL     1       3.806   6.395  20.528  1.00  0.00     0.018 C 
HETATM   13  C17 UNL     1       3.335   6.304  21.757  1.00  0.00    -0.001 C 
HETATM   14  C18 UNL     1       3.733   7.203  22.808  1.00  0.00    -0.001 C 
HETATM   15  C19 UNL     1       4.617   8.105  22.519  1.00  0.00     0.014 C 
HETATM   16  C20 UNL     1       5.231   8.224  21.184  1.00  0.00     0.110 C 
HETATM   17  C21 UNL     1       6.674   7.602  21.482  1.00  0.00     0.054 C 
ENDROOT
BRANCH   4  18
HETATM   18  C7  UNL     1       2.316   7.305  17.285  1.00  0.00    -0.017 C 
BRANCH  18  19
HETATM   19  C8  UNL     1       1.828   5.966  17.558  1.00  0.00     0.015 C 
HETATM   20  C9  UNL     1       0.697   5.674  18.203  1.00  0.00     0.007 C 
HETATM   21  C10 UNL     1       0.273   4.274  18.439  1.00  0.00     0.062 C 
HETATM   22 CL1  UNL     1      -0.260   7.035  18.755  1.00  0.00    -0.089 Cl
ENDBRANCH  18  19
ENDBRANCH   4  18
BRANCH   1  23
HETATM   23  C2  UNL     1       3.078  11.277  18.980  1.00  0.00     0.033 C 
HETATM   24  C1  UNL     1       3.038  12.645  18.409  1.00  0.00     0.008 C 
ENDBRANCH   1  23
BRANCH  16  25
HETATM   25  O3  UNL     1       5.607   9.544  20.930  1.00  0.00    -0.383 OA
ATOM     26  H3  UNL     1       4.934  10.164  20.673  1.00  0.00     0.211 HD
ENDBRANCH  16  25
TORSDOF 4
ENDMDL
MODEL 5
REMARK VINA RESULT: -8.511568763      2.106      4.368
REMARK  4 active torsions:
REMARK  status: ('A' for Active; 'I' for Inactive)
REMARK    1  A    between atoms: C2_2  and  C3_3 
REMARK    2  A    between atoms: C6_6  and  C7_7 
REMARK    3  A    between atoms: C7_7  and  C8_8 
REMARK    4  A    between atoms: C20_23  and  O3_25 
ROOT
HETATM    1  C3  UNL     1       5.373   7.094  16.972  1.00  0.00     0.059 C 
HETATM    2  C4  UNL     1       6.384   6.225  16.192  1.00  0.00     0.046 C 
HETATM    3  C5  UNL     1       5.250   6.516  18.337  1.00  0.00     0.049 C 
HETATM    4  C6  UNL     1       5.025   7.875  19.167  1.00  0.00     0.052 C 
HETATM    5  C11 UNL     1       5.871   8.767  18.451  1.00  0.00     0.137 A 
HETATM    6  O1  UNL     1       5.763   8.356  17.069  1.00  0.00    -0.362 OA
HETATM    7  C12 UNL     1       7.253   9.085  18.684  1.00  0.00     0.090 A 
HETATM    8  C13 UNL     1       8.264   8.679  17.592  1.00  0.00     0.049 C 
HETATM    9  C14 UNL     1       7.970   8.902  19.982  1.00  0.00     0.049 C 
HETATM   10  O2  UNL     1       7.016  10.436  18.555  1.00  0.00    -0.356 OA
HETATM   11  C15 UNL     1       5.634  10.284  18.360  1.00  0.00     0.148 A 
HETATM   12  C16 UNL     1       4.810  10.831  19.438  1.00  0.00     0.018 C 
HETATM   13  C17 UNL     1       3.788  11.647  19.273  1.00  0.00    -0.001 C 
HETATM   14  C18 UNL     1       3.376  12.121  17.978  1.00  0.00    -0.001 C 
HETATM   15  C19 UNL     1       4.076  11.745  16.954  1.00  0.00     0.014 C 
HETATM   16  C20 UNL     1       5.266  10.884  17.073  1.00  0.00     0.110 C 
HETATM   17  C21 UNL     1       6.420  11.969  16.849  1.00  0.00     0.054 C 
ENDROOT
BRANCH   4  18
HETATM   18  C7  UNL     1       5.126   7.321  20.511  1.00  0.00    -0.017 C 
BRANCH  18  19
HETATM   19  C8  UNL     1       3.995   7.077  21.387  1.00  0.00     0.015 C 
HETATM   20  C9  UNL     1       4.060   6.941  22.712  1.00  0.00     0.007 C 
HETATM   21  C10 UNL     1       2.852   6.694  23.533  1.00  0.00     0.062 C 
HETATM   22 CL1  UNL     1       5.654   7.071  23.432  1.00  0.00    -0.089 Cl
ENDBRANCH  18  19
ENDBRANCH   4  18
BRANCH   1  23
HETATM   23  C2  UNL     1       4.053   6.794  16.292  1.00  0.00     0.033 C 
HETATM   24  C1  UNL     1       3.239   5.722  16.914  1.00  0.00     0.008 C 
ENDBRANCH   1  23
BRANCH  16  25
HETATM   25  O3  UNL     1       5.445  10.128  15.912  1.00  0.00    -0.383 OA
ATOM     26  H3  UNL     1       6.259  10.224  15.432  1.00  0.00     0.211 HD
ENDBRANCH  16  25
TORSDOF 4
ENDMDL
