MODEL 1
REMARK VINA RESULT: -7.738304247      0.000      0.000
REMARK  12 active torsions:
REMARK  status: ('A' for Active; 'I' for Inactive)
REMARK       I    between atoms: N1_2  and  C2_4 
REMARK    1  A    between atoms: C2_4  and  C3_6 
REMARK    2  A    between atoms: C4_12  and  C5_13 
REMARK    3  A    between atoms: C5_13  and  N4_14 
REMARK    4  A    between atoms: C5_13  and  C6_18 
REMARK    5  A    between atoms: C6_18  and  N5_19 
REMARK    6  A    between atoms: N5_19  and  C7_20 
REMARK    7  A    between atoms: N5_19  and  C10_35 
REMARK    8  A    between atoms: C8_23  and  N7_24 
REMARK    9  A    between atoms: C9_29  and  N9_30 
REMARK   10  A    between atoms: C11_38  and  C12_39 
REMARK   11  A    between atoms: C13_47  and  N16_48 
REMARK   12  A    between atoms: C14_53  and  O3_54 
ROOT
HETATM    1  N5  UNL     1      13.939  -7.461  -2.808  1.00  0.00    -0.160 N 
ENDROOT
BRANCH   1   2
HETATM    2  C6  UNL     1      13.842  -8.858  -2.501  1.00  0.00     0.189 C 
BRANCH   2   3
HETATM    3  C5  UNL     1      14.906  -9.398  -1.591  1.00  0.00     0.256 C 
BRANCH   3   4
HETATM    4  C4  UNL     1      14.310 -10.099  -0.422  1.00  0.00     0.100 A 
HETATM    5  C3  UNL     1      13.460  -9.692   0.544  1.00  0.00     0.150 A 
HETATM    6  N2  UNL     1      13.291 -10.777   1.357  1.00  0.00    -0.234 N 
HETATM    7  O2  UNL     1      13.984 -11.785   0.929  1.00  0.00    -0.156 OA
ATOM      8  H2  UNL     1      12.700 -10.791   2.188  1.00  0.00     0.197 HD
HETATM    9  N3  UNL     1      14.605 -11.396  -0.142  1.00  0.00    -0.241 N 
ATOM     10  H3  UNL     1      15.228 -11.983  -0.698  1.00  0.00     0.196 HD
BRANCH   5  11
HETATM   11  C2  UNL     1      12.859  -8.391   0.681  1.00  0.00     0.271 C 
HETATM   12  N1  UNL     1      11.576  -8.168   0.153  1.00  0.00    -0.360 N 
HETATM   13  C1  UNL     1      10.976  -6.860   0.297  1.00  0.00     0.149 C 
ATOM     14  H1  UNL     1      11.074  -8.917  -0.323  1.00  0.00     0.162 HD
HETATM   15  O1  UNL     1      13.446  -7.471   1.252  1.00  0.00    -0.266 OA
ENDBRANCH   5  11
ENDBRANCH   3   4
BRANCH   3  16
HETATM   16  N4  UNL     1      15.717 -10.298  -2.389  1.00  0.00    -0.068 N 
ATOM     17  H43 UNL     1      15.465 -11.272  -2.227  1.00  0.00     0.275 HD
ATOM     18  H42 UNL     1      15.481 -10.236  -3.379  1.00  0.00     0.275 HD
ATOM     19  H41 UNL     1      16.713 -10.139  -2.232  1.00  0.00     0.275 HD
ENDBRANCH   3  16
ENDBRANCH   2   3
ENDBRANCH   1   2
BRANCH   1  20
HETATM   20  C7  UNL     1      13.032  -6.793  -3.675  1.00  0.00     0.715 A 
HETATM   21  N6  UNL     1      12.107  -5.911  -3.228  1.00  0.00    -0.021 N 
HETATM   22  C8  UNL     1      11.249  -5.274  -4.038  1.00  0.00     0.705 A 
ATOM     23  H6  UNL     1      12.062  -5.722  -2.227  1.00  0.00     0.203 HD
HETATM   24  N8  UNL     1      11.301  -5.515  -5.356  1.00  0.00    -0.022 N 
HETATM   25  C9  UNL     1      12.205  -6.383  -5.847  1.00  0.00     0.705 A 
ATOM     26  H8  UNL     1      10.655  -5.040  -5.987  1.00  0.00     0.203 HD
HETATM   27  N10 UNL     1      13.054  -7.009  -5.011  1.00  0.00    -0.021 N 
ATOM     28  H10 UNL     1      13.734  -7.665  -5.395  1.00  0.00     0.203 HD
BRANCH  22  29
HETATM   29  N7  UNL     1      10.366  -4.434  -3.586  1.00  0.00    -0.234 N 
ATOM     30  H72 UNL     1      10.028  -4.540  -2.630  1.00  0.00     0.174 HD
ATOM     31  H71 UNL     1      10.003  -3.670  -4.156  1.00  0.00     0.174 HD
ENDBRANCH  22  29
BRANCH  25  32
HETATM   32  N9  UNL     1      12.279  -6.639  -7.118  1.00  0.00    -0.234 N 
ATOM     33  H92 UNL     1      11.458  -6.472  -7.700  1.00  0.00     0.174 HD
ATOM     34  H91 UNL     1      13.135  -6.998  -7.540  1.00  0.00     0.174 HD
ENDBRANCH  25  32
ENDBRANCH   1  20
BRANCH   1  35
HETATM   35  C10 UNL     1      14.987  -6.643  -2.239  1.00  0.00     0.175 A 
HETATM   36  N11 UNL     1      14.856  -6.098  -1.014  1.00  0.00    -0.332 N 
HETATM   37  C11 UNL     1      15.834  -5.342  -0.485  1.00  0.00     0.125 A 
ATOM     38  H11 UNL     1      14.002  -6.260  -0.480  1.00  0.00     0.168 HD
HETATM   39  C13 UNL     1      16.971  -5.149  -1.245  1.00  0.00     0.132 A 
HETATM   40  N17 UNL     1      17.100  -5.698  -2.473  1.00  0.00    -0.319 N 
HETATM   41  C14 UNL     1      16.116  -6.456  -3.000  1.00  0.00     0.187 A 
ATOM     42  H17 UNL     1      17.952  -5.538  -3.008  1.00  0.00     0.169 HD
BRANCH  37  43
HETATM   43  C12 UNL     1      15.721  -4.739   0.841  1.00  0.00     0.165 A 
HETATM   44  N12 UNL     1      15.838  -5.402   2.006  1.00  0.00    -0.265 N 
HETATM   45  N13 UNL     1      15.684  -4.540   3.009  1.00  0.00    -0.005 NA
ATOM     46  H12 UNL     1      16.017  -6.401   2.105  1.00  0.00     0.186 HD
HETATM   47  N14 UNL     1      15.469  -3.329   2.486  1.00  0.00    -0.225 N 
HETATM   48  N15 UNL     1      15.495  -3.469   1.177  1.00  0.00    -0.270 N 
ATOM     49  H14 UNL     1      15.314  -2.463   3.002  1.00  0.00     0.205 HD
ATOM     50  H15 UNL     1      15.361  -2.709   0.510  1.00  0.00     0.190 HD
ENDBRANCH  37  43
BRANCH  39  51
HETATM   51  N16 UNL     1      17.912  -4.429  -0.750  1.00  0.00    -0.383 N 
ATOM     52 2H16 UNL     1      17.693  -3.606  -0.188  1.00  0.00     0.157 HD
ATOM     53 1H16 UNL     1      18.875  -4.704  -0.938  1.00  0.00     0.157 HD
ENDBRANCH  39  51
BRANCH  41  54
HETATM   54  O3  UNL     1      16.231  -7.025  -4.256  1.00  0.00    -0.343 OA
ATOM     55  H3  UNL     1      16.603  -7.892  -4.368  1.00  0.00     0.219 HD
ENDBRANCH  41  54
ENDBRANCH   1  35
TORSDOF 12
ENDMDL
MODEL 2
REMARK VINA RESULT: -7.725284099      0.045      1.366
REMARK  12 active torsions:
REMARK  status: ('A' for Active; 'I' for Inactive)
REMARK       I    between atoms: N1_2  and  C2_4 
REMARK    1  A    between atoms: C2_4  and  C3_6 
REMARK    2  A    between atoms: C4_12  and  C5_13 
REMARK    3  A    between atoms: C5_13  and  N4_14 
REMARK    4  A    between atoms: C5_13  and  C6_18 
REMARK    5  A    between atoms: C6_18  and  N5_19 
REMARK    6  A    between atoms: N5_19  and  C7_20 
REMARK    7  A    between atoms: N5_19  and  C10_35 
REMARK    8  A    between atoms: C8_23  and  N7_24 
REMARK    9  A    between atoms: C9_29  and  N9_30 
REMARK   10  A    between atoms: C11_38  and  C12_39 
REMARK   11  A    between atoms: C13_47  and  N16_48 
REMARK   12  A    between atoms: C14_53  and  O3_54 
ROOT
HETATM    1  N5  UNL     1      13.925  -7.469  -2.810  1.00  0.00    -0.160 N 
ENDROOT
BRANCH   1   2
HETATM    2  C6  UNL     1      13.813  -8.859  -2.479  1.00  0.00     0.189 C 
BRANCH   2   3
HETATM    3  C5  UNL     1      14.886  -9.402  -1.582  1.00  0.00     0.256 C 
BRANCH   3   4
HETATM    4  C4  UNL     1      14.303 -10.118  -0.417  1.00  0.00     0.100 A 
HETATM    5  C3  UNL     1      13.457  -9.726   0.559  1.00  0.00     0.150 A 
HETATM    6  N2  UNL     1      13.301 -10.819   1.363  1.00  0.00    -0.234 N 
HETATM    7  O2  UNL     1      13.998 -11.819   0.921  1.00  0.00    -0.156 OA
ATOM      8  H2  UNL     1      12.716 -10.845   2.199  1.00  0.00     0.197 HD
HETATM    9  N3  UNL     1      14.608 -11.416  -0.151  1.00  0.00    -0.241 N 
ATOM     10  H3  UNL     1      15.231 -11.993  -0.716  1.00  0.00     0.196 HD
BRANCH   5  11
HETATM   11  C2  UNL     1      12.848  -8.430   0.713  1.00  0.00     0.271 C 
HETATM   12  N1  UNL     1      11.543  -8.223   0.236  1.00  0.00    -0.360 N 
HETATM   13  C1  UNL     1      10.936  -6.920   0.395  1.00  0.00     0.149 C 
ATOM     14  H1  UNL     1      11.031  -8.980  -0.217  1.00  0.00     0.162 HD
HETATM   15  O1  UNL     1      13.449  -7.501   1.255  1.00  0.00    -0.266 OA
ENDBRANCH   5  11
ENDBRANCH   3   4
BRANCH   3  16
HETATM   16  N4  UNL     1      15.696 -10.289  -2.396  1.00  0.00    -0.068 N 
ATOM     17  H43 UNL     1      16.546 -10.571  -1.909  1.00  0.00     0.275 HD
ATOM     18  H42 UNL     1      15.260 -11.206  -2.497  1.00  0.00     0.275 HD
ATOM     19  H41 UNL     1      15.906  -9.873  -3.304  1.00  0.00     0.275 HD
ENDBRANCH   3  16
ENDBRANCH   2   3
ENDBRANCH   1   2
BRANCH   1  20
HETATM   20  C7  UNL     1      13.039  -6.810  -3.704  1.00  0.00     0.715 A 
HETATM   21  N6  UNL     1      13.048  -7.033  -5.040  1.00  0.00    -0.021 N 
HETATM   22  C8  UNL     1      12.214  -6.419  -5.892  1.00  0.00     0.705 A 
ATOM     23  H6  UNL     1      13.721  -7.701  -5.415  1.00  0.00     0.203 HD
HETATM   24  N8  UNL     1      11.325  -5.539  -5.408  1.00  0.00    -0.022 N 
HETATM   25  C9  UNL     1      11.278  -5.286  -4.087  1.00  0.00     0.705 A 
ATOM     26  H8  UNL     1      10.683  -5.062  -6.042  1.00  0.00     0.203 HD
HETATM   27  N10 UNL     1      12.127  -5.917  -3.254  1.00  0.00    -0.021 N 
ATOM     28  H10 UNL     1      12.082  -5.717  -2.256  1.00  0.00     0.203 HD
BRANCH  22  29
HETATM   29  N7  UNL     1      12.243  -6.645  -7.172  1.00  0.00    -0.234 N 
ATOM     30  H72 UNL     1      12.710  -7.484  -7.514  1.00  0.00     0.174 HD
ATOM     31  H71 UNL     1      11.810  -6.012  -7.844  1.00  0.00     0.174 HD
ENDBRANCH  22  29
BRANCH  25  32
HETATM   32  N9  UNL     1      10.430  -4.439  -3.588  1.00  0.00    -0.234 N 
ATOM     33  H92 UNL     1       9.457  -4.483  -3.892  1.00  0.00     0.174 HD
ATOM     34  H91 UNL     1      10.715  -3.740  -2.902  1.00  0.00     0.174 HD
ENDBRANCH  25  32
ENDBRANCH   1  20
BRANCH   1  35
HETATM   35  C10 UNL     1      14.971  -6.648  -2.239  1.00  0.00     0.175 A 
HETATM   36  N11 UNL     1      14.836  -6.101  -1.016  1.00  0.00    -0.332 N 
HETATM   37  C11 UNL     1      15.812  -5.343  -0.485  1.00  0.00     0.125 A 
ATOM     38  H11 UNL     1      13.980  -6.263  -0.485  1.00  0.00     0.168 HD
HETATM   39  C13 UNL     1      16.951  -5.150  -1.242  1.00  0.00     0.132 A 
HETATM   40  N17 UNL     1      17.084  -5.702  -2.469  1.00  0.00    -0.319 N 
HETATM   41  C14 UNL     1      16.102  -6.461  -2.997  1.00  0.00     0.187 A 
ATOM     42  H17 UNL     1      17.938  -5.542  -3.002  1.00  0.00     0.169 HD
BRANCH  37  43
HETATM   43  C12 UNL     1      15.694  -4.738   0.839  1.00  0.00     0.165 A 
HETATM   44  N12 UNL     1      15.809  -5.398   2.005  1.00  0.00    -0.265 N 
HETATM   45  N13 UNL     1      15.651  -4.535   3.006  1.00  0.00    -0.005 NA
ATOM     46  H12 UNL     1      15.988  -6.398   2.107  1.00  0.00     0.186 HD
HETATM   47  N14 UNL     1      15.436  -3.325   2.481  1.00  0.00    -0.225 N 
HETATM   48  N15 UNL     1      15.466  -3.468   1.172  1.00  0.00    -0.270 N 
ATOM     49  H14 UNL     1      15.278  -2.458   2.994  1.00  0.00     0.205 HD
ATOM     50  H15 UNL     1      15.333  -2.709   0.503  1.00  0.00     0.190 HD
ENDBRANCH  37  43
BRANCH  39  51
HETATM   51  N16 UNL     1      17.889  -4.429  -0.746  1.00  0.00    -0.383 N 
ATOM     52 2H16 UNL     1      17.699  -3.791   0.027  1.00  0.00     0.157 HD
ATOM     53 1H16 UNL     1      18.822  -4.513  -1.148  1.00  0.00     0.157 HD
ENDBRANCH  39  51
BRANCH  41  54
HETATM   54  O3  UNL     1      16.222  -7.033  -4.252  1.00  0.00    -0.343 OA
ATOM     55  H3  UNL     1      16.751  -7.810  -4.387  1.00  0.00     0.219 HD
ENDBRANCH  41  54
ENDBRANCH   1  35
TORSDOF 12
ENDMDL
MODEL 3
REMARK VINA RESULT: -7.670162450      2.175      7.008
REMARK  12 active torsions:
REMARK  status: ('A' for Active; 'I' for Inactive)
REMARK       I    between atoms: N1_2  and  C2_4 
REMARK    1  A    between atoms: C2_4  and  C3_6 
REMARK    2  A    between atoms: C4_12  and  C5_13 
REMARK    3  A    between atoms: C5_13  and  N4_14 
REMARK    4  A    between atoms: C5_13  and  C6_18 
REMARK    5  A    between atoms: C6_18  and  N5_19 
REMARK    6  A    between atoms: N5_19  and  C7_20 
REMARK    7  A    between atoms: N5_19  and  C10_35 
REMARK    8  A    between atoms: C8_23  and  N7_24 
REMARK    9  A    between atoms: C9_29  and  N9_30 
REMARK   10  A    between atoms: C11_38  and  C12_39 
REMARK   11  A    between atoms: C13_47  and  N16_48 
REMARK   12  A    between atoms: C14_53  and  O3_54 
ROOT
HETATM    1  N5  UNL     1      14.556  -6.968  -1.769  1.00  0.00    -0.160 N 
ENDROOT
BRANCH   1   2
HETATM    2  C6  UNL     1      15.536  -5.974  -1.441  1.00  0.00     0.189 C 
BRANCH   2   3
HETATM    3  C5  UNL     1      16.161  -6.102  -0.083  1.00  0.00     0.256 C 
BRANCH   3   4
HETATM    4  C4  UNL     1      17.371  -5.245   0.035  1.00  0.00     0.100 A 
HETATM    5  C3  UNL     1      18.244  -5.040   1.043  1.00  0.00     0.150 A 
HETATM    6  N2  UNL     1      19.138  -4.124   0.568  1.00  0.00    -0.234 N 
HETATM    7  O2  UNL     1      18.844  -3.783  -0.648  1.00  0.00    -0.156 OA
ATOM      8  H2  UNL     1      19.929  -3.756   1.097  1.00  0.00     0.197 HD
HETATM    9  N3  UNL     1      17.783  -4.448  -0.987  1.00  0.00    -0.241 N 
ATOM     10  H3  UNL     1      17.321  -4.382  -1.894  1.00  0.00     0.196 HD
BRANCH   5  11
HETATM   11  C2  UNL     1      18.232  -5.661   2.343  1.00  0.00     0.271 C 
HETATM   12  N1  UNL     1      19.426  -6.190   2.861  1.00  0.00    -0.360 N 
HETATM   13  C1  UNL     1      19.409  -6.811   4.167  1.00  0.00     0.149 C 
ATOM     14  H1  UNL     1      20.292  -6.137   2.325  1.00  0.00     0.162 HD
HETATM   15  O1  UNL     1      17.198  -5.738   3.006  1.00  0.00    -0.266 OA
ENDBRANCH   5  11
ENDBRANCH   3   4
BRANCH   3  16
HETATM   16  N4  UNL     1      15.146  -5.719   0.879  1.00  0.00    -0.068 N 
ATOM     17  H43 UNL     1      14.241  -5.574   0.430  1.00  0.00     0.275 HD
ATOM     18  H42 UNL     1      14.897  -6.497   1.489  1.00  0.00     0.275 HD
ATOM     19  H41 UNL     1      15.432  -4.900   1.416  1.00  0.00     0.275 HD
ENDBRANCH   3  16
ENDBRANCH   2   3
ENDBRANCH   1   2
BRANCH   1  20
HETATM   20  C7  UNL     1      14.760  -8.358  -1.555  1.00  0.00     0.715 A 
HETATM   21  N6  UNL     1      14.329  -8.998  -0.442  1.00  0.00    -0.021 N 
HETATM   22  C8  UNL     1      14.514 -10.310  -0.231  1.00  0.00     0.705 A 
ATOM     23  H6  UNL     1      13.840  -8.456   0.270  1.00  0.00     0.203 HD
HETATM   24  N8  UNL     1      15.155 -11.031  -1.161  1.00  0.00    -0.022 N 
HETATM   25  C9  UNL     1      15.600 -10.439  -2.285  1.00  0.00     0.705 A 
ATOM     26  H8  UNL     1      15.306 -12.030  -1.017  1.00  0.00     0.203 HD
HETATM   27  N10 UNL     1      15.401  -9.120  -2.471  1.00  0.00    -0.021 N 
ATOM     28  H10 UNL     1      15.744  -8.683  -3.326  1.00  0.00     0.203 HD
BRANCH  22  29
HETATM   29  N7  UNL     1      14.096 -10.902   0.848  1.00  0.00    -0.234 N 
ATOM     30  H72 UNL     1      13.448 -10.409   1.462  1.00  0.00     0.174 HD
ATOM     31  H71 UNL     1      14.391 -11.846   1.097  1.00  0.00     0.174 HD
ENDBRANCH  22  29
BRANCH  25  32
HETATM   32  N9  UNL     1      16.227 -11.110  -3.204  1.00  0.00    -0.234 N 
ATOM     33  H92 UNL     1      17.230 -11.261  -3.101  1.00  0.00     0.174 HD
ATOM     34  H91 UNL     1      15.738 -11.487  -4.016  1.00  0.00     0.174 HD
ENDBRANCH  25  32
ENDBRANCH   1  20
BRANCH   1  35
HETATM   35  C10 UNL     1      13.284  -6.599  -2.349  1.00  0.00     0.175 A 
HETATM   36  N11 UNL     1      13.100  -6.604  -3.684  1.00  0.00    -0.332 N 
HETATM   37  C11 UNL     1      11.915  -6.265  -4.220  1.00  0.00     0.125 A 
ATOM     38  H11 UNL     1      13.872  -6.868  -4.296  1.00  0.00     0.168 HD
HETATM   39  C13 UNL     1      10.899  -5.913  -3.352  1.00  0.00     0.132 A 
HETATM   40  N17 UNL     1      11.087  -5.910  -2.013  1.00  0.00    -0.319 N 
HETATM   41  C14 UNL     1      12.278  -6.251  -1.480  1.00  0.00     0.187 A 
ATOM     42  H17 UNL     1      10.317  -5.647  -1.398  1.00  0.00     0.169 HD
BRANCH  37  43
HETATM   43  C12 UNL     1      11.685  -6.263  -5.663  1.00  0.00     0.165 A 
HETATM   44  N12 UNL     1      11.296  -5.197  -6.384  1.00  0.00    -0.265 N 
HETATM   45  N13 UNL     1      11.191  -5.556  -7.662  1.00  0.00    -0.005 NA
ATOM     46  H12 UNL     1      11.112  -4.264  -6.013  1.00  0.00     0.186 HD
HETATM   47  N14 UNL     1      11.513  -6.850  -7.757  1.00  0.00    -0.225 N 
HETATM   48  N15 UNL     1      11.808  -7.259  -6.540  1.00  0.00    -0.270 N 
ATOM     49  H14 UNL     1      11.526  -7.413  -8.608  1.00  0.00     0.205 HD
ATOM     50  H15 UNL     1      12.093  -8.209  -6.302  1.00  0.00     0.190 HD
ENDBRANCH  37  43
BRANCH  39  51
HETATM   51  N16 UNL     1       9.764  -5.587  -3.852  1.00  0.00    -0.383 N 
ATOM     52 2H16 UNL     1       9.018  -5.227  -3.255  1.00  0.00     0.157 HD
ATOM     53 1H16 UNL     1       9.633  -5.700  -4.857  1.00  0.00     0.157 HD
ENDBRANCH  39  51
BRANCH  41  54
HETATM   54  O3  UNL     1      12.487  -6.252  -0.111  1.00  0.00    -0.343 OA
ATOM     55  H3  UNL     1      12.281  -5.489   0.416  1.00  0.00     0.219 HD
ENDBRANCH  41  54
ENDBRANCH   1  35
TORSDOF 12
ENDMDL
MODEL 4
REMARK VINA RESULT: -7.636070304      2.180      7.124
REMARK  12 active torsions:
REMARK  status: ('A' for Active; 'I' for Inactive)
REMARK       I    between atoms: N1_2  and  C2_4 
REMARK    1  A    between atoms: C2_4  and  C3_6 
REMARK    2  A    between atoms: C4_12  and  C5_13 
REMARK    3  A    between atoms: C5_13  and  N4_14 
REMARK    4  A    between atoms: C5_13  and  C6_18 
REMARK    5  A    between atoms: C6_18  and  N5_19 
REMARK    6  A    between atoms: N5_19  and  C7_20 
REMARK    7  A    between atoms: N5_19  and  C10_35 
REMARK    8  A    between atoms: C8_23  and  N7_24 
REMARK    9  A    between atoms: C9_29  and  N9_30 
REMARK   10  A    between atoms: C11_38  and  C12_39 
REMARK   11  A    between atoms: C13_47  and  N16_48 
REMARK   12  A    between atoms: C14_53  and  O3_54 
ROOT
HETATM    1  N5  UNL     1      14.549  -6.941  -1.766  1.00  0.00    -0.160 N 
ENDROOT
BRANCH   1   2
HETATM    2  C6  UNL     1      15.514  -5.940  -1.419  1.00  0.00     0.189 C 
BRANCH   2   3
HETATM    3  C5  UNL     1      16.162  -6.100  -0.075  1.00  0.00     0.256 C 
BRANCH   3   4
HETATM    4  C4  UNL     1      17.378  -5.252   0.041  1.00  0.00     0.100 A 
HETATM    5  C3  UNL     1      18.253  -5.051   1.049  1.00  0.00     0.150 A 
HETATM    6  N2  UNL     1      19.153  -4.142   0.571  1.00  0.00    -0.234 N 
HETATM    7  O2  UNL     1      18.862  -3.801  -0.645  1.00  0.00    -0.156 OA
ATOM      8  H2  UNL     1      19.947  -3.780   1.100  1.00  0.00     0.197 HD
HETATM    9  N3  UNL     1      17.795  -4.459  -0.982  1.00  0.00    -0.241 N 
ATOM     10  H3  UNL     1      17.333  -4.392  -1.889  1.00  0.00     0.196 HD
BRANCH   5  11
HETATM   11  C2  UNL     1      18.238  -5.671   2.349  1.00  0.00     0.271 C 
HETATM   12  N1  UNL     1      19.430  -6.199   2.872  1.00  0.00    -0.360 N 
HETATM   13  C1  UNL     1      19.409  -6.817   4.179  1.00  0.00     0.149 C 
ATOM     14  H1  UNL     1      20.297  -6.147   2.339  1.00  0.00     0.162 HD
HETATM   15  O1  UNL     1      17.201  -5.746   3.010  1.00  0.00    -0.266 OA
ENDBRANCH   5  11
ENDBRANCH   3   4
BRANCH   3  16
HETATM   16  N4  UNL     1      15.165  -5.734   0.913  1.00  0.00    -0.068 N 
ATOM     17  H43 UNL     1      15.489  -4.970   1.506  1.00  0.00     0.275 HD
ATOM     18  H42 UNL     1      14.365  -5.271   0.482  1.00  0.00     0.275 HD
ATOM     19  H41 UNL     1      14.877  -6.540   1.467  1.00  0.00     0.275 HD
ENDBRANCH   3  16
ENDBRANCH   2   3
ENDBRANCH   1   2
BRANCH   1  20
HETATM   20  C7  UNL     1      14.771  -8.332  -1.576  1.00  0.00     0.715 A 
HETATM   21  N6  UNL     1      15.422  -9.099  -2.482  1.00  0.00    -0.021 N 
HETATM   22  C8  UNL     1      15.639 -10.412  -2.311  1.00  0.00     0.705 A 
ATOM     23  H6  UNL     1      15.765  -8.658  -3.335  1.00  0.00     0.203 HD
HETATM   24  N8  UNL     1      15.194 -11.002  -1.192  1.00  0.00    -0.022 N 
HETATM   25  C9  UNL     1      14.543 -10.279  -0.262  1.00  0.00     0.705 A 
ATOM     26  H8  UNL     1      15.349 -11.999  -1.045  1.00  0.00     0.203 HD
HETATM   27  N10 UNL     1      14.338  -8.963  -0.460  1.00  0.00    -0.021 N 
ATOM     28  H10 UNL     1      13.843  -8.426   0.252  1.00  0.00     0.203 HD
BRANCH  22  29
HETATM   29  N7  UNL     1      16.263 -11.131  -3.195  1.00  0.00    -0.234 N 
ATOM     30  H72 UNL     1      16.836 -10.662  -3.897  1.00  0.00     0.174 HD
ATOM     31  H71 UNL     1      16.202 -12.149  -3.209  1.00  0.00     0.174 HD
ENDBRANCH  22  29
BRANCH  25  32
HETATM   32  N9  UNL     1      14.098 -10.821   0.831  1.00  0.00    -0.234 N 
ATOM     33  H92 UNL     1      13.094 -10.975   0.927  1.00  0.00     0.174 HD
ATOM     34  H91 UNL     1      14.727 -11.094   1.585  1.00  0.00     0.174 HD
ENDBRANCH  25  32
ENDBRANCH   1  20
BRANCH   1  35
HETATM   35  C10 UNL     1      13.273  -6.579  -2.343  1.00  0.00     0.175 A 
HETATM   36  N11 UNL     1      13.088  -6.579  -3.677  1.00  0.00    -0.332 N 
HETATM   37  C11 UNL     1      11.899  -6.247  -4.211  1.00  0.00     0.125 A 
ATOM     38  H11 UNL     1      13.861  -6.835  -4.292  1.00  0.00     0.168 HD
HETATM   39  C13 UNL     1      10.882  -5.908  -3.340  1.00  0.00     0.132 A 
HETATM   40  N17 UNL     1      11.072  -5.909  -2.002  1.00  0.00    -0.319 N 
HETATM   41  C14 UNL     1      12.266  -6.243  -1.471  1.00  0.00     0.187 A 
ATOM     42  H17 UNL     1      10.301  -5.655  -1.384  1.00  0.00     0.169 HD
BRANCH  37  43
HETATM   43  C12 UNL     1      11.668  -6.241  -5.653  1.00  0.00     0.165 A 
HETATM   44  N12 UNL     1      11.291  -5.169  -6.373  1.00  0.00    -0.265 N 
HETATM   45  N13 UNL     1      11.180  -5.526  -7.651  1.00  0.00    -0.005 NA
ATOM     46  H12 UNL     1      11.117  -4.235  -6.000  1.00  0.00     0.186 HD
HETATM   47  N14 UNL     1      11.486  -6.823  -7.748  1.00  0.00    -0.225 N 
HETATM   48  N15 UNL     1      11.779  -7.237  -6.532  1.00  0.00    -0.270 N 
ATOM     49  H14 UNL     1      11.492  -7.385  -8.599  1.00  0.00     0.205 HD
ATOM     50  H15 UNL     1      12.052  -8.191  -6.295  1.00  0.00     0.190 HD
ENDBRANCH  37  43
BRANCH  39  51
HETATM   51  N16 UNL     1       9.743  -5.589  -3.837  1.00  0.00    -0.383 N 
ATOM     52 2H16 UNL     1       8.928  -6.183  -3.689  1.00  0.00     0.157 HD
ATOM     53 1H16 UNL     1       9.682  -4.728  -4.381  1.00  0.00     0.157 HD
ENDBRANCH  39  51
BRANCH  41  54
HETATM   54  O3  UNL     1      12.476  -6.249  -0.103  1.00  0.00    -0.343 OA
ATOM     55  H3  UNL     1      13.207  -6.722   0.278  1.00  0.00     0.219 HD
ENDBRANCH  41  54
ENDBRANCH   1  35
TORSDOF 12
ENDMDL
MODEL 5
REMARK VINA RESULT: -7.608332169      2.213      6.964
REMARK  12 active torsions:
REMARK  status: ('A' for Active; 'I' for Inactive)
REMARK       I    between atoms: N1_2  and  C2_4 
REMARK    1  A    between atoms: C2_4  and  C3_6 
REMARK    2  A    between atoms: C4_12  and  C5_13 
REMARK    3  A    between atoms: C5_13  and  N4_14 
REMARK    4  A    between atoms: C5_13  and  C6_18 
REMARK    5  A    between atoms: C6_18  and  N5_19 
REMARK    6  A    between atoms: N5_19  and  C7_20 
REMARK    7  A    between atoms: N5_19  and  C10_35 
REMARK    8  A    between atoms: C8_23  and  N7_24 
REMARK    9  A    between atoms: C9_29  and  N9_30 
REMARK   10  A    between atoms: C11_38  and  C12_39 
REMARK   11  A    between atoms: C13_47  and  N16_48 
REMARK   12  A    between atoms: C14_53  and  O3_54 
ROOT
HETATM    1  N5  UNL     1      14.545  -6.920  -1.851  1.00  0.00    -0.160 N 
ENDROOT
BRANCH   1   2
HETATM    2  C6  UNL     1      15.536  -5.924  -1.564  1.00  0.00     0.189 C 
BRANCH   2   3
HETATM    3  C5  UNL     1      16.054  -5.909  -0.156  1.00  0.00     0.256 C 
BRANCH   3   4
HETATM    4  C4  UNL     1      17.401  -5.284  -0.084  1.00  0.00     0.100 A 
HETATM    5  C3  UNL     1      18.642  -5.806   0.007  1.00  0.00     0.150 A 
HETATM    6  N2  UNL     1      19.484  -4.733   0.060  1.00  0.00    -0.234 N 
HETATM    7  O2  UNL     1      18.817  -3.622   0.006  1.00  0.00    -0.156 OA
ATOM      8  H2  UNL     1      20.500  -4.795   0.132  1.00  0.00     0.197 HD
HETATM    9  N3  UNL     1      17.561  -3.933  -0.081  1.00  0.00    -0.241 N 
ATOM     10  H3  UNL     1      16.797  -3.258  -0.138  1.00  0.00     0.196 HD
BRANCH   5  11
HETATM   11  C2  UNL     1      18.997  -7.202   0.036  1.00  0.00     0.271 C 
HETATM   12  N1  UNL     1      18.036  -8.163  -0.322  1.00  0.00    -0.360 N 
HETATM   13  C1  UNL     1      18.399  -9.562  -0.293  1.00  0.00     0.149 C 
ATOM     14  H1  UNL     1      17.097  -7.878  -0.600  1.00  0.00     0.162 HD
HETATM   15  O1  UNL     1      20.124  -7.568   0.369  1.00  0.00    -0.266 OA
ENDBRANCH   5  11
ENDBRANCH   3   4
BRANCH   3  16
HETATM   16  N4  UNL     1      15.086  -5.172   0.634  1.00  0.00    -0.068 N 
ATOM     17  H43 UNL     1      14.863  -5.659   1.503  1.00  0.00     0.275 HD
ATOM     18  H42 UNL     1      15.493  -4.325   1.028  1.00  0.00     0.275 HD
ATOM     19  H41 UNL     1      14.244  -4.968   0.095  1.00  0.00     0.275 HD
ENDBRANCH   3  16
ENDBRANCH   2   3
ENDBRANCH   1   2
BRANCH   1  20
HETATM   20  C7  UNL     1      14.745  -8.306  -1.608  1.00  0.00     0.715 A 
HETATM   21  N6  UNL     1      14.320  -8.919  -0.478  1.00  0.00    -0.021 N 
HETATM   22  C8  UNL     1      14.502 -10.227  -0.240  1.00  0.00     0.705 A 
ATOM     23  H6  UNL     1      13.838  -8.360   0.225  1.00  0.00     0.203 HD
HETATM   24  N8  UNL     1      15.134 -10.971  -1.159  1.00  0.00    -0.022 N 
HETATM   25  C9  UNL     1      15.573 -10.405  -2.298  1.00  0.00     0.705 A 
ATOM     26  H8  UNL     1      15.282 -11.967  -0.995  1.00  0.00     0.203 HD
HETATM   27  N10 UNL     1      15.378  -9.090  -2.511  1.00  0.00    -0.021 N 
ATOM     28  H10 UNL     1      15.716  -8.673  -3.378  1.00  0.00     0.203 HD
BRANCH  22  29
HETATM   29  N7  UNL     1      14.088 -10.795   0.853  1.00  0.00    -0.234 N 
ATOM     30  H72 UNL     1      14.624 -10.663   1.711  1.00  0.00     0.174 HD
ATOM     31  H71 UNL     1      13.244 -11.365   0.882  1.00  0.00     0.174 HD
ENDBRANCH  22  29
BRANCH  25  32
HETATM   32  N9  UNL     1      16.191 -11.098  -3.207  1.00  0.00    -0.234 N 
ATOM     33  H92 UNL     1      16.203 -12.115  -3.123  1.00  0.00     0.174 HD
ATOM     34  H91 UNL     1      16.656 -10.649  -3.996  1.00  0.00     0.174 HD
ENDBRANCH  25  32
ENDBRANCH   1  20
BRANCH   1  35
HETATM   35  C10 UNL     1      13.264  -6.556  -2.415  1.00  0.00     0.175 A 
HETATM   36  N11 UNL     1      13.065  -6.559  -3.747  1.00  0.00    -0.332 N 
HETATM   37  C11 UNL     1      11.872  -6.226  -4.269  1.00  0.00     0.125 A 
ATOM     38  H11 UNL     1      13.832  -6.817  -4.369  1.00  0.00     0.168 HD
HETATM   39  C13 UNL     1      10.865  -5.883  -3.389  1.00  0.00     0.132 A 
HETATM   40  N17 UNL     1      11.067  -5.882  -2.052  1.00  0.00    -0.319 N 
HETATM   41  C14 UNL     1      12.267  -6.217  -1.533  1.00  0.00     0.187 A 
ATOM     42  H17 UNL     1      10.303  -5.625  -1.428  1.00  0.00     0.169 HD
BRANCH  37  43
HETATM   43  C12 UNL     1      11.626  -6.221  -5.710  1.00  0.00     0.165 A 
HETATM   44  N12 UNL     1      11.267  -5.145  -6.431  1.00  0.00    -0.265 N 
HETATM   45  N13 UNL     1      11.135  -5.506  -7.706  1.00  0.00    -0.005 NA
ATOM     46  H12 UNL     1      11.120  -4.205  -6.062  1.00  0.00     0.186 HD
HETATM   47  N14 UNL     1      11.409  -6.810  -7.799  1.00  0.00    -0.225 N 
HETATM   48  N15 UNL     1      11.704  -7.225  -6.584  1.00  0.00    -0.270 N 
ATOM     49  H14 UNL     1      11.393  -7.376  -8.647  1.00  0.00     0.205 HD
ATOM     50  H15 UNL     1      11.957  -8.183  -6.345  1.00  0.00     0.190 HD
ENDBRANCH  37  43
BRANCH  39  51
HETATM   51  N16 UNL     1       9.721  -5.562  -3.875  1.00  0.00    -0.383 N 
ATOM     52 2H16 UNL     1       9.499  -5.759  -4.851  1.00  0.00     0.157 HD
ATOM     53 1H16 UNL     1       9.049  -5.107  -3.259  1.00  0.00     0.157 HD
ENDBRANCH  39  51
BRANCH  41  54
HETATM   54  O3  UNL     1      12.491  -6.221  -0.167  1.00  0.00    -0.343 OA
ATOM     55  H3  UNL     1      12.417  -7.021   0.338  1.00  0.00     0.219 HD
ENDBRANCH  41  54
ENDBRANCH   1  35
TORSDOF 12
ENDMDL
