MODEL 1
REMARK VINA RESULT: -8.088493751      0.000      0.000
REMARK  13 active torsions:
REMARK  status: ('A' for Active; 'I' for Inactive)
REMARK    1  A    between atoms: O1_1  and  C1_3 
REMARK    2  A    between atoms: C1_3  and  S1_4 
REMARK    3  A    between atoms: C1_3  and  N3_39 
REMARK    4  A    between atoms: S1_4  and  C2_5 
REMARK    5  A    between atoms: C2_5  and  C3_6 
REMARK    6  A    between atoms: C5_8  and  N1_9 
REMARK    7  A    between atoms: N1_9  and  C6_11 
REMARK    8  A    between atoms: C6_11  and  C7_12 
REMARK    9  A    between atoms: C7_12  and  C8_13 
REMARK   10  A    between atoms: C8_13  and  N2_14 
REMARK   11  A    between atoms: N2_14  and  C9_15 
REMARK   12  A    between atoms: N2_14  and  C14_20 
REMARK   13  A    between atoms: C28_36  and  O2_37 
ROOT
HETATM    1  C7  UNL     1     -28.202   4.410 -36.270  1.00  0.00     0.064 C 
ENDROOT
BRANCH   1   2
HETATM    2  C6  UNL     1     -27.899   5.871 -36.422  1.00  0.00     0.058 C 
BRANCH   2   3
HETATM    3  N1  UNL     1     -27.220   6.514 -35.382  1.00  0.00    -0.394 N 
ATOM      4  H1  UNL     1     -26.611   7.305 -35.587  1.00  0.00     0.159 HD
BRANCH   3   5
HETATM    5  C5  UNL     1     -27.375   6.073 -34.050  1.00  0.00     0.106 C 
HETATM    6  C4  UNL     1     -28.530   6.666 -33.301  1.00  0.00     0.041 C 
HETATM    7  C3  UNL     1     -28.012   6.578 -31.847  1.00  0.00     0.054 C 
HETATM    8  C28 UNL     1     -26.621   6.916 -32.010  1.00  0.00     0.046 C 
HETATM    9  C27 UNL     1     -26.214   6.640 -33.265  1.00  0.00     0.030 C 
BRANCH   7  10
HETATM   10  C2  UNL     1     -28.882   7.407 -30.953  1.00  0.00     0.094 C 
BRANCH  10  11
HETATM   11  S1  UNL     1     -30.577   6.994 -30.885  1.00  0.00    -0.086 SA
BRANCH  11  12
HETATM   12  C1  UNL     1     -31.276   6.161 -29.534  1.00  0.00     0.177 C 
BRANCH  12  13
HETATM   13  O1  UNL     1     -31.618   4.928 -29.765  1.00  0.00    -0.341 OA
ATOM     14  H1  UNL     1     -31.098   4.484 -30.425  1.00  0.00     0.220 HD
ENDBRANCH  12  13
BRANCH  12  15
HETATM   15  N3  UNL     1     -31.546   6.593 -28.223  1.00  0.00    -0.356 N 
HETATM   16  C29 UNL     1     -31.621   5.499 -27.244  1.00  0.00     0.125 C 
HETATM   17  C30 UNL     1     -31.291   5.948 -25.861  1.00  0.00     0.020 C 
HETATM   18  C31 UNL     1     -32.371   6.758 -25.224  1.00  0.00     0.002 C 
HETATM   19  C32 UNL     1     -33.367   7.280 -26.231  1.00  0.00     0.002 C 
HETATM   20  C33 UNL     1     -32.820   8.390 -27.058  1.00  0.00     0.020 C 
HETATM   21  C34 UNL     1     -31.656   7.970 -27.870  1.00  0.00     0.125 C 
ENDBRANCH  12  15
ENDBRANCH  11  12
ENDBRANCH  10  11
ENDBRANCH   7  10
BRANCH   8  22
HETATM   22  O2  UNL     1     -25.694   7.452 -31.100  1.00  0.00    -0.365 OA
ATOM     23  H2  UNL     1     -25.656   8.303 -30.681  1.00  0.00     0.217 HD
ENDBRANCH   8  22
ENDBRANCH   3   5
ENDBRANCH   2   3
ENDBRANCH   1   2
BRANCH   1  24
HETATM   24  C8  UNL     1     -29.706   4.273 -36.540  1.00  0.00     0.128 C 
BRANCH  24  25
HETATM   25  N2  UNL     1     -30.013   3.230 -37.482  1.00  0.00    -0.379 N 
BRANCH  25  26
HETATM   26  C9  UNL     1     -29.675   3.396 -38.846  1.00  0.00     0.003 C 
HETATM   27  C10 UNL     1     -30.241   4.098 -39.801  1.00  0.00    -0.002 C 
HETATM   28  C11 UNL     1     -29.507   3.950 -41.084  1.00  0.00     0.029 C 
HETATM   29  C12 UNL     1     -28.796   2.622 -40.899  1.00  0.00     0.010 C 
HETATM   30  C13 UNL     1     -28.468   2.691 -39.418  1.00  0.00     0.057 C 
ENDBRANCH  25  26
BRANCH  25  31
HETATM   31  C14 UNL     1     -30.636   2.044 -36.996  1.00  0.00     0.085 C 
HETATM   32  C15 UNL     1     -31.372   1.294 -38.119  1.00  0.00     0.030 C 
HETATM   33  C16 UNL     1     -30.899  -0.115 -38.079  1.00  0.00    -0.004 C 
HETATM   34  C17 UNL     1     -31.939  -1.152 -38.308  1.00  0.00     0.010 C 
HETATM   35  C25 UNL     1     -30.455  -0.233 -36.612  1.00  0.00     0.025 C 
HETATM   36  C18 UNL     1     -31.749  -2.407 -37.494  1.00  0.00     0.039 C 
HETATM   37  C19 UNL     1     -30.337  -2.606 -37.041  1.00  0.00    -0.048 A 
HETATM   38  C20 UNL     1     -29.730  -3.839 -37.076  1.00  0.00     0.053 A 
HETATM   39  C24 UNL     1     -29.666  -1.487 -36.579  1.00  0.00    -0.044 A 
HETATM   40  C21 UNL     1     -28.430  -3.937 -36.637  1.00  0.00     0.155 A 
HETATM   41  F1  UNL     1     -27.820  -5.150 -36.666  1.00  0.00    -0.203 F 
HETATM   42  C22 UNL     1     -27.736  -2.842 -36.171  1.00  0.00     0.155 A 
HETATM   43  F2  UNL     1     -26.458  -2.917 -35.734  1.00  0.00    -0.203 F 
HETATM   44  C23 UNL     1     -28.380  -1.612 -36.148  1.00  0.00     0.053 A 
HETATM   45  C26 UNL     1     -29.608   1.014 -36.503  1.00  0.00     0.035 C 
ENDBRANCH  25  31
ENDBRANCH  24  25
ENDBRANCH   1  24
TORSDOF 13
ENDMDL
MODEL 2
REMARK VINA RESULT: -8.066881043      1.520      1.929
REMARK  13 active torsions:
REMARK  status: ('A' for Active; 'I' for Inactive)
REMARK    1  A    between atoms: O1_1  and  C1_3 
REMARK    2  A    between atoms: C1_3  and  S1_4 
REMARK    3  A    between atoms: C1_3  and  N3_39 
REMARK    4  A    between atoms: S1_4  and  C2_5 
REMARK    5  A    between atoms: C2_5  and  C3_6 
REMARK    6  A    between atoms: C5_8  and  N1_9 
REMARK    7  A    between atoms: N1_9  and  C6_11 
REMARK    8  A    between atoms: C6_11  and  C7_12 
REMARK    9  A    between atoms: C7_12  and  C8_13 
REMARK   10  A    between atoms: C8_13  and  N2_14 
REMARK   11  A    between atoms: N2_14  and  C9_15 
REMARK   12  A    between atoms: N2_14  and  C14_20 
REMARK   13  A    between atoms: C28_36  and  O2_37 
ROOT
HETATM    1  C7  UNL     1     -28.167   4.402 -36.380  1.00  0.00     0.064 C 
ENDROOT
BRANCH   1   2
HETATM    2  C6  UNL     1     -27.932   5.883 -36.418  1.00  0.00     0.058 C 
BRANCH   2   3
HETATM    3  N1  UNL     1     -27.210   6.461 -35.368  1.00  0.00    -0.394 N 
ATOM      4  H1  UNL     1     -26.577   7.238 -35.556  1.00  0.00     0.159 HD
BRANCH   3   5
HETATM    5  C5  UNL     1     -27.354   5.976 -34.052  1.00  0.00     0.106 C 
HETATM    6  C4  UNL     1     -28.682   6.235 -33.406  1.00  0.00     0.041 C 
HETATM    7  C3  UNL     1     -28.281   6.264 -31.913  1.00  0.00     0.054 C 
HETATM    8  C28 UNL     1     -27.018   6.954 -31.961  1.00  0.00     0.046 C 
HETATM    9  C27 UNL     1     -26.451   6.814 -33.175  1.00  0.00     0.030 C 
BRANCH   7  10
HETATM   10  C2  UNL     1     -29.408   6.823 -31.101  1.00  0.00     0.094 C 
BRANCH  10  11
HETATM   11  S1  UNL     1     -30.831   7.348 -31.967  1.00  0.00    -0.086 SA
BRANCH  11  12
HETATM   12  C1  UNL     1     -31.680   8.804 -31.557  1.00  0.00     0.177 C 
BRANCH  12  13
HETATM   13  O1  UNL     1     -31.905   9.609 -32.554  1.00  0.00    -0.341 OA
ATOM     14  H1  UNL     1     -32.717  10.099 -32.499  1.00  0.00     0.220 HD
ENDBRANCH  12  13
BRANCH  12  15
HETATM   15  N3  UNL     1     -32.166   9.274 -30.323  1.00  0.00    -0.356 N 
HETATM   16  C29 UNL     1     -31.286  10.260 -29.679  1.00  0.00     0.125 C 
HETATM   17  C30 UNL     1     -32.029  11.174 -28.765  1.00  0.00     0.020 C 
HETATM   18  C31 UNL     1     -32.447  10.528 -27.487  1.00  0.00     0.002 C 
HETATM   19  C32 UNL     1     -32.390   9.021 -27.559  1.00  0.00     0.002 C 
HETATM   20  C33 UNL     1     -33.488   8.443 -28.382  1.00  0.00     0.020 C 
HETATM   21  C34 UNL     1     -33.431   8.886 -29.793  1.00  0.00     0.125 C 
ENDBRANCH  12  15
ENDBRANCH  11  12
ENDBRANCH  10  11
ENDBRANCH   7  10
BRANCH   8  22
HETATM   22  O2  UNL     1     -26.342   7.700 -30.981  1.00  0.00    -0.365 OA
ATOM     23  H2  UNL     1     -25.965   7.435 -30.149  1.00  0.00     0.217 HD
ENDBRANCH   8  22
ENDBRANCH   3   5
ENDBRANCH   2   3
ENDBRANCH   1   2
BRANCH   1  24
HETATM   24  C8  UNL     1     -29.677   4.222 -36.573  1.00  0.00     0.128 C 
BRANCH  24  25
HETATM   25  N2  UNL     1     -30.001   3.198 -37.530  1.00  0.00    -0.379 N 
BRANCH  25  26
HETATM   26  C9  UNL     1     -29.680   3.387 -38.894  1.00  0.00     0.003 C 
HETATM   27  C10 UNL     1     -30.276   4.078 -39.839  1.00  0.00    -0.002 C 
HETATM   28  C11 UNL     1     -29.548   3.965 -41.129  1.00  0.00     0.029 C 
HETATM   29  C12 UNL     1     -28.792   2.659 -40.961  1.00  0.00     0.010 C 
HETATM   30  C13 UNL     1     -28.455   2.726 -39.482  1.00  0.00     0.057 C 
ENDBRANCH  25  26
BRANCH  25  31
HETATM   31  C14 UNL     1     -30.625   2.006 -37.057  1.00  0.00     0.085 C 
HETATM   32  C15 UNL     1     -31.314   1.241 -38.199  1.00  0.00     0.030 C 
HETATM   33  C16 UNL     1     -30.824  -0.162 -38.135  1.00  0.00    -0.004 C 
HETATM   34  C17 UNL     1     -31.842  -1.214 -38.392  1.00  0.00     0.010 C 
HETATM   35  C25 UNL     1     -30.426  -0.266 -36.654  1.00  0.00     0.025 C 
HETATM   36  C18 UNL     1     -31.662  -2.462 -37.564  1.00  0.00     0.039 C 
HETATM   37  C19 UNL     1     -30.263  -2.639 -37.065  1.00  0.00    -0.048 A 
HETATM   38  C20 UNL     1     -29.639  -3.865 -37.074  1.00  0.00     0.053 A 
HETATM   39  C24 UNL     1     -29.622  -1.509 -36.588  1.00  0.00    -0.044 A 
HETATM   40  C21 UNL     1     -28.352  -3.943 -36.592  1.00  0.00     0.155 A 
HETATM   41  F1  UNL     1     -27.726  -5.147 -36.594  1.00  0.00    -0.203 F 
HETATM   42  C22 UNL     1     -27.689  -2.836 -36.110  1.00  0.00     0.155 A 
HETATM   43  F2  UNL     1     -26.424  -2.891 -35.632  1.00  0.00    -0.203 F 
HETATM   44  C23 UNL     1     -28.348  -1.615 -36.116  1.00  0.00     0.053 A 
HETATM   45  C26 UNL     1     -29.600   0.993 -36.525  1.00  0.00     0.035 C 
ENDBRANCH  25  31
ENDBRANCH  24  25
ENDBRANCH   1  24
TORSDOF 13
ENDMDL
MODEL 3
REMARK VINA RESULT: -8.041432378      5.111     10.434
REMARK  13 active torsions:
REMARK  status: ('A' for Active; 'I' for Inactive)
REMARK    1  A    between atoms: O1_1  and  C1_3 
REMARK    2  A    between atoms: C1_3  and  S1_4 
REMARK    3  A    between atoms: C1_3  and  N3_39 
REMARK    4  A    between atoms: S1_4  and  C2_5 
REMARK    5  A    between atoms: C2_5  and  C3_6 
REMARK    6  A    between atoms: C5_8  and  N1_9 
REMARK    7  A    between atoms: N1_9  and  C6_11 
REMARK    8  A    between atoms: C6_11  and  C7_12 
REMARK    9  A    between atoms: C7_12  and  C8_13 
REMARK   10  A    between atoms: C8_13  and  N2_14 
REMARK   11  A    between atoms: N2_14  and  C9_15 
REMARK   12  A    between atoms: N2_14  and  C14_20 
REMARK   13  A    between atoms: C28_36  and  O2_37 
ROOT
HETATM    1  C7  UNL     1     -30.123   1.171 -37.787  1.00  0.00     0.064 C 
ENDROOT
BRANCH   1   2
HETATM    2  C6  UNL     1     -30.132   0.525 -36.433  1.00  0.00     0.058 C 
BRANCH   2   3
HETATM    3  N1  UNL     1     -30.790  -0.701 -36.293  1.00  0.00    -0.394 N 
ATOM      4  H1  UNL     1     -31.795  -0.759 -36.454  1.00  0.00     0.159 HD
BRANCH   3   5
HETATM    5  C5  UNL     1     -30.070  -1.859 -35.930  1.00  0.00     0.106 C 
HETATM    6  C4  UNL     1     -29.676  -1.951 -34.486  1.00  0.00     0.041 C 
HETATM    7  C3  UNL     1     -28.408  -2.829 -34.584  1.00  0.00     0.054 C 
HETATM    8  C28 UNL     1     -27.788  -2.318 -35.779  1.00  0.00     0.046 C 
HETATM    9  C27 UNL     1     -28.710  -1.750 -36.581  1.00  0.00     0.030 C 
BRANCH   7  10
HETATM   10  C2  UNL     1     -27.668  -2.790 -33.282  1.00  0.00     0.094 C 
BRANCH  10  11
HETATM   11  S1  UNL     1     -27.161  -4.318 -32.607  1.00  0.00    -0.086 SA
BRANCH  11  12
HETATM   12  C1  UNL     1     -27.562  -5.836 -33.343  1.00  0.00     0.177 C 
BRANCH  12  13
HETATM   13  O1  UNL     1     -28.364  -6.589 -32.649  1.00  0.00    -0.341 OA
ATOM     14  H1  UNL     1     -29.240  -6.240 -32.530  1.00  0.00     0.220 HD
ENDBRANCH  12  13
BRANCH  12  15
HETATM   15  N3  UNL     1     -27.162  -6.404 -34.566  1.00  0.00    -0.356 N 
HETATM   16  C29 UNL     1     -26.080  -7.390 -34.434  1.00  0.00     0.125 C 
HETATM   17  C30 UNL     1     -26.085  -8.392 -35.539  1.00  0.00     0.020 C 
HETATM   18  C31 UNL     1     -25.597  -7.846 -36.839  1.00  0.00     0.002 C 
HETATM   19  C32 UNL     1     -25.588  -6.337 -36.863  1.00  0.00     0.002 C 
HETATM   20  C33 UNL     1     -26.954  -5.755 -36.963  1.00  0.00     0.020 C 
HETATM   21  C34 UNL     1     -27.805  -6.105 -35.803  1.00  0.00     0.125 C 
ENDBRANCH  12  15
ENDBRANCH  11  12
ENDBRANCH  10  11
ENDBRANCH   7  10
BRANCH   8  22
HETATM   22  O2  UNL     1     -26.446  -2.332 -36.195  1.00  0.00    -0.365 OA
ATOM     23  H2  UNL     1     -25.868  -1.623 -36.453  1.00  0.00     0.217 HD
ENDBRANCH   8  22
ENDBRANCH   3   5
ENDBRANCH   2   3
ENDBRANCH   1   2
BRANCH   1  24
HETATM   24  C8  UNL     1     -29.012   2.225 -37.730  1.00  0.00     0.128 C 
BRANCH  24  25
HETATM   25  N2  UNL     1     -29.294   3.380 -38.541  1.00  0.00    -0.379 N 
BRANCH  25  26
HETATM   26  C9  UNL     1     -29.243   3.276 -39.951  1.00  0.00     0.003 C 
HETATM   27  C10 UNL     1     -28.463   2.576 -40.742  1.00  0.00    -0.002 C 
HETATM   28  C11 UNL     1     -28.802   2.804 -42.170  1.00  0.00     0.029 C 
HETATM   29  C12 UNL     1     -29.479   4.162 -42.130  1.00  0.00     0.010 C 
HETATM   30  C13 UNL     1     -30.211   4.064 -40.803  1.00  0.00     0.057 C 
ENDBRANCH  25  26
BRANCH  25  31
HETATM   31  C14 UNL     1     -29.638   4.598 -37.884  1.00  0.00     0.085 C 
HETATM   32  C15 UNL     1     -30.917   4.442 -37.045  1.00  0.00     0.030 C 
HETATM   33  C16 UNL     1     -30.602   4.942 -35.681  1.00  0.00    -0.004 C 
HETATM   34  C17 UNL     1     -31.672   5.734 -35.020  1.00  0.00     0.010 C 
HETATM   35  C25 UNL     1     -29.444   5.906 -35.983  1.00  0.00     0.025 C 
HETATM   36  C18 UNL     1     -31.163   6.870 -34.168  1.00  0.00     0.039 C 
HETATM   37  C19 UNL     1     -29.750   6.677 -33.716  1.00  0.00    -0.048 A 
HETATM   38  C20 UNL     1     -29.351   6.977 -32.435  1.00  0.00     0.053 A 
HETATM   39  C24 UNL     1     -28.857   6.186 -34.651  1.00  0.00    -0.044 A 
HETATM   40  C21 UNL     1     -28.031   6.775 -32.101  1.00  0.00     0.155 A 
HETATM   41  F1  UNL     1     -27.624   7.068 -30.839  1.00  0.00    -0.203 F 
HETATM   42  C22 UNL     1     -27.118   6.288 -33.010  1.00  0.00     0.155 A 
HETATM   43  F2  UNL     1     -25.817   6.084 -32.703  1.00  0.00    -0.203 F 
HETATM   44  C23 UNL     1     -27.555   5.997 -34.295  1.00  0.00     0.053 A 
HETATM   45  C26 UNL     1     -28.585   5.008 -36.844  1.00  0.00     0.035 C 
ENDBRANCH  25  31
ENDBRANCH  24  25
ENDBRANCH   1  24
TORSDOF 13
ENDMDL
MODEL 4
REMARK VINA RESULT: -7.942004192      2.207      3.078
REMARK  13 active torsions:
REMARK  status: ('A' for Active; 'I' for Inactive)
REMARK    1  A    between atoms: O1_1  and  C1_3 
REMARK    2  A    between atoms: C1_3  and  S1_4 
REMARK    3  A    between atoms: C1_3  and  N3_39 
REMARK    4  A    between atoms: S1_4  and  C2_5 
REMARK    5  A    between atoms: C2_5  and  C3_6 
REMARK    6  A    between atoms: C5_8  and  N1_9 
REMARK    7  A    between atoms: N1_9  and  C6_11 
REMARK    8  A    between atoms: C6_11  and  C7_12 
REMARK    9  A    between atoms: C7_12  and  C8_13 
REMARK   10  A    between atoms: C8_13  and  N2_14 
REMARK   11  A    between atoms: N2_14  and  C9_15 
REMARK   12  A    between atoms: N2_14  and  C14_20 
REMARK   13  A    between atoms: C28_36  and  O2_37 
ROOT
HETATM    1  C7  UNL     1     -28.259   4.420 -36.268  1.00  0.00     0.064 C 
ENDROOT
BRANCH   1   2
HETATM    2  C6  UNL     1     -27.918   5.877 -36.375  1.00  0.00     0.058 C 
BRANCH   2   3
HETATM    3  N1  UNL     1     -27.166   6.454 -35.347  1.00  0.00    -0.394 N 
ATOM      4  H1  UNL     1     -26.487   7.184 -35.563  1.00  0.00     0.159 HD
BRANCH   3   5
HETATM    5  C5  UNL     1     -27.340   6.030 -34.012  1.00  0.00     0.106 C 
HETATM    6  C4  UNL     1     -28.519   6.617 -33.295  1.00  0.00     0.041 C 
HETATM    7  C3  UNL     1     -28.028   6.558 -31.830  1.00  0.00     0.054 C 
HETATM    8  C28 UNL     1     -26.639   6.914 -31.970  1.00  0.00     0.046 C 
HETATM    9  C27 UNL     1     -26.204   6.626 -33.212  1.00  0.00     0.030 C 
BRANCH   7  10
HETATM   10  C2  UNL     1     -28.928   7.386 -30.965  1.00  0.00     0.094 C 
BRANCH  10  11
HETATM   11  S1  UNL     1     -30.510   6.738 -30.610  1.00  0.00    -0.086 SA
BRANCH  11  12
HETATM   12  C1  UNL     1     -31.837   6.873 -31.717  1.00  0.00     0.177 C 
BRANCH  12  13
HETATM   13  O1  UNL     1     -32.652   5.859 -31.725  1.00  0.00    -0.341 OA
ATOM     14  H1  UNL     1     -32.256   5.024 -31.506  1.00  0.00     0.220 HD
ENDBRANCH  12  13
BRANCH  12  15
HETATM   15  N3  UNL     1     -32.185   7.892 -32.622  1.00  0.00    -0.356 N 
HETATM   16  C29 UNL     1     -32.649   9.126 -31.972  1.00  0.00     0.125 C 
HETATM   17  C30 UNL     1     -32.425  10.334 -32.817  1.00  0.00     0.020 C 
HETATM   18  C31 UNL     1     -33.368  10.439 -33.968  1.00  0.00     0.002 C 
HETATM   19  C32 UNL     1     -34.064   9.132 -34.263  1.00  0.00     0.002 C 
HETATM   20  C33 UNL     1     -33.163   8.133 -34.901  1.00  0.00     0.020 C 
HETATM   21  C34 UNL     1     -32.024   7.761 -34.032  1.00  0.00     0.125 C 
ENDBRANCH  12  15
ENDBRANCH  11  12
ENDBRANCH  10  11
ENDBRANCH   7  10
BRANCH   8  22
HETATM   22  O2  UNL     1     -25.738   7.476 -31.051  1.00  0.00    -0.365 OA
ATOM     23  H2  UNL     1     -25.588   8.381 -30.803  1.00  0.00     0.217 HD
ENDBRANCH   8  22
ENDBRANCH   3   5
ENDBRANCH   2   3
ENDBRANCH   1   2
BRANCH   1  24
HETATM   24  C8  UNL     1     -29.750   4.323 -36.614  1.00  0.00     0.128 C 
BRANCH  24  25
HETATM   25  N2  UNL     1     -30.043   3.255 -37.531  1.00  0.00    -0.379 N 
BRANCH  25  26
HETATM   26  C9  UNL     1     -29.696   3.388 -38.896  1.00  0.00     0.003 C 
HETATM   27  C10 UNL     1     -30.309   3.980 -39.895  1.00  0.00    -0.002 C 
HETATM   28  C11 UNL     1     -29.537   3.846 -41.156  1.00  0.00     0.029 C 
HETATM   29  C12 UNL     1     -28.698   2.609 -40.893  1.00  0.00     0.010 C 
HETATM   30  C13 UNL     1     -28.410   2.783 -39.412  1.00  0.00     0.057 C 
ENDBRANCH  25  26
BRANCH  25  31
HETATM   31  C14 UNL     1     -30.664   2.077 -37.020  1.00  0.00     0.085 C 
HETATM   32  C15 UNL     1     -31.415   1.313 -38.123  1.00  0.00     0.030 C 
HETATM   33  C16 UNL     1     -30.946  -0.097 -38.068  1.00  0.00    -0.004 C 
HETATM   34  C17 UNL     1     -31.991  -1.134 -38.269  1.00  0.00     0.010 C 
HETATM   35  C25 UNL     1     -30.483  -0.194 -36.605  1.00  0.00     0.025 C 
HETATM   36  C18 UNL     1     -31.794  -2.378 -37.439  1.00  0.00     0.039 C 
HETATM   37  C19 UNL     1     -30.377  -2.573 -37.000  1.00  0.00    -0.048 A 
HETATM   38  C20 UNL     1     -29.774  -3.809 -37.025  1.00  0.00     0.053 A 
HETATM   39  C24 UNL     1     -29.698  -1.450 -36.563  1.00  0.00    -0.044 A 
HETATM   40  C21 UNL     1     -28.468  -3.904 -36.600  1.00  0.00     0.155 A 
HETATM   41  F1  UNL     1     -27.862  -5.118 -36.619  1.00  0.00    -0.203 F 
HETATM   42  C22 UNL     1     -27.766  -2.804 -36.159  1.00  0.00     0.155 A 
HETATM   43  F2  UNL     1     -26.483  -2.876 -35.737  1.00  0.00    -0.203 F 
HETATM   44  C23 UNL     1     -28.406  -1.572 -36.147  1.00  0.00     0.053 A 
HETATM   45  C26 UNL     1     -29.632   1.052 -36.525  1.00  0.00     0.035 C 
ENDBRANCH  25  31
ENDBRANCH  24  25
ENDBRANCH   1  24
TORSDOF 13
ENDMDL
MODEL 5
REMARK VINA RESULT: -7.935613209      2.733      3.384
REMARK  13 active torsions:
REMARK  status: ('A' for Active; 'I' for Inactive)
REMARK    1  A    between atoms: O1_1  and  C1_3 
REMARK    2  A    between atoms: C1_3  and  S1_4 
REMARK    3  A    between atoms: C1_3  and  N3_39 
REMARK    4  A    between atoms: S1_4  and  C2_5 
REMARK    5  A    between atoms: C2_5  and  C3_6 
REMARK    6  A    between atoms: C5_8  and  N1_9 
REMARK    7  A    between atoms: N1_9  and  C6_11 
REMARK    8  A    between atoms: C6_11  and  C7_12 
REMARK    9  A    between atoms: C7_12  and  C8_13 
REMARK   10  A    between atoms: C8_13  and  N2_14 
REMARK   11  A    between atoms: N2_14  and  C9_15 
REMARK   12  A    between atoms: N2_14  and  C14_20 
REMARK   13  A    between atoms: C28_36  and  O2_37 
ROOT
HETATM    1  C7  UNL     1     -28.153   4.409 -36.660  1.00  0.00     0.064 C 
ENDROOT
BRANCH   1   2
HETATM    2  C6  UNL     1     -28.100   5.870 -36.328  1.00  0.00     0.058 C 
BRANCH   2   3
HETATM    3  N1  UNL     1     -27.187   6.292 -35.356  1.00  0.00    -0.394 N 
ATOM      4  H1  UNL     1     -26.425   6.917 -35.614  1.00  0.00     0.159 HD
BRANCH   3   5
HETATM    5  C5  UNL     1     -27.316   5.856 -34.020  1.00  0.00     0.106 C 
HETATM    6  C4  UNL     1     -28.652   6.100 -33.384  1.00  0.00     0.041 C 
HETATM    7  C3  UNL     1     -28.252   6.201 -31.894  1.00  0.00     0.054 C 
HETATM    8  C28 UNL     1     -27.012   6.929 -31.971  1.00  0.00     0.046 C 
HETATM    9  C27 UNL     1     -26.440   6.757 -33.179  1.00  0.00     0.030 C 
BRANCH   7  10
HETATM   10  C2  UNL     1     -29.397   6.758 -31.104  1.00  0.00     0.094 C 
BRANCH  10  11
HETATM   11  S1  UNL     1     -30.788   7.314 -32.000  1.00  0.00    -0.086 SA
BRANCH  11  12
HETATM   12  C1  UNL     1     -31.636   8.769 -31.586  1.00  0.00     0.177 C 
BRANCH  12  13
HETATM   13  O1  UNL     1     -31.846   9.584 -32.578  1.00  0.00    -0.341 OA
ATOM     14  H1  UNL     1     -31.079  10.059 -32.877  1.00  0.00     0.220 HD
ENDBRANCH  12  13
BRANCH  12  15
HETATM   15  N3  UNL     1     -32.132   9.230 -30.353  1.00  0.00    -0.356 N 
HETATM   16  C29 UNL     1     -31.278  10.240 -29.713  1.00  0.00     0.125 C 
HETATM   17  C30 UNL     1     -32.043  11.138 -28.801  1.00  0.00     0.020 C 
HETATM   18  C31 UNL     1     -32.444  10.485 -27.520  1.00  0.00     0.002 C 
HETATM   19  C32 UNL     1     -32.349   8.980 -27.588  1.00  0.00     0.002 C 
HETATM   20  C33 UNL     1     -33.432   8.371 -28.409  1.00  0.00     0.020 C 
HETATM   21  C34 UNL     1     -33.387   8.811 -29.821  1.00  0.00     0.125 C 
ENDBRANCH  12  15
ENDBRANCH  11  12
ENDBRANCH  10  11
ENDBRANCH   7  10
BRANCH   8  22
HETATM   22  O2  UNL     1     -26.359   7.734 -31.023  1.00  0.00    -0.365 OA
ATOM     23  H2  UNL     1     -25.594   7.564 -30.486  1.00  0.00     0.217 HD
ENDBRANCH   8  22
ENDBRANCH   3   5
ENDBRANCH   2   3
ENDBRANCH   1   2
BRANCH   1  24
HETATM   24  C8  UNL     1     -29.619   3.999 -36.476  1.00  0.00     0.128 C 
BRANCH  24  25
HETATM   25  N2  UNL     1     -30.167   3.346 -37.635  1.00  0.00    -0.379 N 
BRANCH  25  26
HETATM   26  C9  UNL     1     -30.274   4.055 -38.854  1.00  0.00     0.003 C 
HETATM   27  C10 UNL     1     -30.929   5.149 -39.168  1.00  0.00    -0.002 C 
HETATM   28  C11 UNL     1     -30.729   5.505 -40.596  1.00  0.00     0.029 C 
HETATM   29  C12 UNL     1     -30.359   4.170 -41.214  1.00  0.00     0.010 C 
HETATM   30  C13 UNL     1     -29.548   3.560 -40.084  1.00  0.00     0.057 C 
ENDBRANCH  25  26
BRANCH  25  31
HETATM   31  C14 UNL     1     -30.568   1.983 -37.514  1.00  0.00     0.085 C 
HETATM   32  C15 UNL     1     -29.358   1.056 -37.311  1.00  0.00     0.030 C 
HETATM   33  C16 UNL     1     -29.649   0.223 -36.115  1.00  0.00    -0.004 C 
HETATM   34  C17 UNL     1     -29.239  -1.203 -36.205  1.00  0.00     0.010 C 
HETATM   35  C25 UNL     1     -31.186   0.253 -36.104  1.00  0.00     0.025 C 
HETATM   36  C18 UNL     1     -30.181  -2.161 -35.521  1.00  0.00     0.039 C 
HETATM   37  C19 UNL     1     -31.016  -1.511 -34.464  1.00  0.00    -0.048 A 
HETATM   38  C20 UNL     1     -31.256  -2.117 -33.253  1.00  0.00     0.053 A 
HETATM   39  C24 UNL     1     -31.543  -0.266 -34.762  1.00  0.00    -0.044 A 
HETATM   40  C21 UNL     1     -32.039  -1.452 -32.337  1.00  0.00     0.155 A 
HETATM   41  F1  UNL     1     -32.283  -2.041 -31.138  1.00  0.00    -0.203 F 
HETATM   42  C22 UNL     1     -32.577  -0.213 -32.605  1.00  0.00     0.155 A 
HETATM   43  F2  UNL     1     -33.349   0.456 -31.718  1.00  0.00    -0.203 F 
HETATM   44  C23 UNL     1     -32.315   0.369 -33.837  1.00  0.00     0.053 A 
HETATM   45  C26 UNL     1     -31.410   1.740 -36.253  1.00  0.00     0.035 C 
ENDBRANCH  25  31
ENDBRANCH  24  25
ENDBRANCH   1  24
TORSDOF 13
ENDMDL
