MODEL 1
REMARK VINA RESULT: -6.192453303      0.000      0.000
REMARK  10 active torsions:
REMARK  status: ('A' for Active; 'I' for Inactive)
REMARK    1  A    between atoms: N1_2  and  C2_5 
REMARK    2  A    between atoms: C2_5  and  C3_6 
REMARK    3  A    between atoms: C3_6  and  C4_7 
REMARK    4  A    between atoms: C4_7  and  C5_8 
REMARK    5  A    between atoms: C4_7  and  C11_18 
REMARK    6  A    between atoms: C5_8  and  O1_9 
REMARK    7  A    between atoms: C5_8  and  C6_11 
REMARK    8  A    between atoms: C6_11  and  C7_12 
REMARK    9  A    between atoms: C7_12  and  O2_13 
REMARK   10  A    between atoms: C7_12  and  C8_15 
ROOT
HETATM    1  C4  UNL     1       5.120  -0.773  -0.481  1.00  0.00     0.020 C 
ENDROOT
BRANCH   1   2
HETATM    2  C3  UNL     1       5.398  -0.364  -1.881  1.00  0.00     0.035 C 
BRANCH   2   3
HETATM    3  C2  UNL     1       4.405   0.451  -2.619  1.00  0.00     0.232 C 
BRANCH   3   4
HETATM    4  N1  UNL     1       4.715   1.872  -2.615  1.00  0.00    -0.079 N 
HETATM    5  C1  UNL     1       3.748   2.553  -3.428  1.00  0.00     0.266 C 
ATOM      6  H12 UNL     1       5.674   2.063  -2.904  1.00  0.00     0.276 HD
ATOM      7  H11 UNL     1       4.774   2.256  -1.672  1.00  0.00     0.276 HD
ENDBRANCH   3   4
ENDBRANCH   2   3
ENDBRANCH   1   2
BRANCH   1   8
HETATM    8  C5  UNL     1       5.462   0.199   0.580  1.00  0.00     0.125 C 
BRANCH   8   9
HETATM    9  O1  UNL     1       6.220   1.264   0.062  1.00  0.00    -0.395 OA
ATOM     10  H1  UNL     1       5.822   2.100   0.275  1.00  0.00     0.210 HD
ENDBRANCH   8   9
BRANCH   8  11
HETATM   11  C6  UNL     1       4.403   0.665   1.505  1.00  0.00     0.064 C 
BRANCH  11  12
HETATM   12  C7  UNL     1       3.117  -0.110   1.125  1.00  0.00     0.124 C 
BRANCH  12  13
HETATM   13  O2  UNL     1       2.747  -1.007   2.093  1.00  0.00    -0.395 OA
ATOM     14  H2  UNL     1       2.014  -1.547   1.821  1.00  0.00     0.210 HD
ENDBRANCH  12  13
BRANCH  12  15
HETATM   15  C8  UNL     1       1.987   0.845   0.864  1.00  0.00     0.014 A 
HETATM   16  C9  UNL     1       1.469   0.845  -0.549  1.00  0.00     0.007 A 
HETATM   17  C10 UNL     1       2.198   2.027  -0.012  1.00  0.00     0.007 A 
ENDBRANCH  12  15
ENDBRANCH  11  12
ENDBRANCH   8  11
ENDBRANCH   1   8
BRANCH   1  18
HETATM   18  C11 UNL     1       5.830  -2.125  -0.229  1.00  0.00    -0.008 C 
HETATM   19  C12 UNL     1       4.902  -3.227   0.053  1.00  0.00     0.005 C 
HETATM   20  C13 UNL     1       5.822  -4.442   0.373  1.00  0.00     0.000 C 
HETATM   21  C14 UNL     1       6.344  -4.908  -0.941  1.00  0.00     0.000 C 
HETATM   22  C15 UNL     1       6.892  -3.834  -1.810  1.00  0.00     0.000 C 
HETATM   23  C16 UNL     1       6.708  -2.447  -1.408  1.00  0.00     0.005 C 
ENDBRANCH   1  18
TORSDOF 10
ENDMDL
MODEL 2
REMARK VINA RESULT: -5.902906445      1.387      1.561
REMARK  10 active torsions:
REMARK  status: ('A' for Active; 'I' for Inactive)
REMARK    1  A    between atoms: N1_2  and  C2_5 
REMARK    2  A    between atoms: C2_5  and  C3_6 
REMARK    3  A    between atoms: C3_6  and  C4_7 
REMARK    4  A    between atoms: C4_7  and  C5_8 
REMARK    5  A    between atoms: C4_7  and  C11_18 
REMARK    6  A    between atoms: C5_8  and  O1_9 
REMARK    7  A    between atoms: C5_8  and  C6_11 
REMARK    8  A    between atoms: C6_11  and  C7_12 
REMARK    9  A    between atoms: C7_12  and  O2_13 
REMARK   10  A    between atoms: C7_12  and  C8_15 
ROOT
HETATM    1  C4  UNL     1       5.173  -1.121  -0.963  1.00  0.00     0.020 C 
ENDROOT
BRANCH   1   2
HETATM    2  C3  UNL     1       6.170  -0.319  -1.716  1.00  0.00     0.035 C 
BRANCH   2   3
HETATM    3  C2  UNL     1       5.764   0.379  -2.958  1.00  0.00     0.232 C 
BRANCH   3   4
HETATM    4  N1  UNL     1       6.417  -0.145  -4.147  1.00  0.00    -0.079 N 
HETATM    5  C1  UNL     1       5.697   0.311  -5.303  1.00  0.00     0.266 C 
ATOM      6  H12 UNL     1       6.515  -1.160  -4.124  1.00  0.00     0.276 HD
ATOM      7  H11 UNL     1       7.408   0.091  -4.186  1.00  0.00     0.276 HD
ENDBRANCH   3   4
ENDBRANCH   2   3
ENDBRANCH   1   2
BRANCH   1   8
HETATM    8  C5  UNL     1       4.482  -0.448   0.159  1.00  0.00     0.125 C 
BRANCH   8   9
HETATM    9  O1  UNL     1       5.393   0.276   0.949  1.00  0.00    -0.395 OA
ATOM     10  H1  UNL     1       4.937   0.872   1.532  1.00  0.00     0.210 HD
ENDBRANCH   8   9
BRANCH   8  11
HETATM   11  C6  UNL     1       3.242   0.317  -0.108  1.00  0.00     0.064 C 
BRANCH  11  12
HETATM   12  C7  UNL     1       2.379   0.213   1.172  1.00  0.00     0.124 C 
BRANCH  12  13
HETATM   13  O2  UNL     1       2.773  -0.821   1.981  1.00  0.00    -0.395 OA
ATOM     14  H2  UNL     1       2.052  -1.178   2.486  1.00  0.00     0.210 HD
ENDBRANCH  12  13
BRANCH  12  15
HETATM   15  C8  UNL     1       2.425   1.501   1.943  1.00  0.00     0.014 A 
HETATM   16  C9  UNL     1       1.212   2.379   1.786  1.00  0.00     0.007 A 
HETATM   17  C10 UNL     1       2.526   2.797   1.221  1.00  0.00     0.007 A 
ENDBRANCH  12  15
ENDBRANCH  11  12
ENDBRANCH   8  11
ENDBRANCH   1   8
BRANCH   1  18
HETATM   18  C11 UNL     1       5.871  -2.413  -0.475  1.00  0.00    -0.008 C 
HETATM   19  C12 UNL     1       4.934  -3.438   0.001  1.00  0.00     0.005 C 
HETATM   20  C13 UNL     1       5.844  -4.585   0.531  1.00  0.00     0.000 C 
HETATM   21  C14 UNL     1       6.357  -5.283  -0.680  1.00  0.00     0.000 C 
HETATM   22  C15 UNL     1       6.912  -4.387  -1.728  1.00  0.00     0.000 C 
HETATM   23  C16 UNL     1       6.742  -2.948  -1.579  1.00  0.00     0.005 C 
ENDBRANCH   1  18
TORSDOF 10
ENDMDL
MODEL 3
REMARK VINA RESULT: -5.866619751      1.179      1.683
REMARK  10 active torsions:
REMARK  status: ('A' for Active; 'I' for Inactive)
REMARK    1  A    between atoms: N1_2  and  C2_5 
REMARK    2  A    between atoms: C2_5  and  C3_6 
REMARK    3  A    between atoms: C3_6  and  C4_7 
REMARK    4  A    between atoms: C4_7  and  C5_8 
REMARK    5  A    between atoms: C4_7  and  C11_18 
REMARK    6  A    between atoms: C5_8  and  O1_9 
REMARK    7  A    between atoms: C5_8  and  C6_11 
REMARK    8  A    between atoms: C6_11  and  C7_12 
REMARK    9  A    between atoms: C7_12  and  O2_13 
REMARK   10  A    between atoms: C7_12  and  C8_15 
ROOT
HETATM    1  C4  UNL     1       5.261  -0.589  -0.883  1.00  0.00     0.020 C 
ENDROOT
BRANCH   1   2
HETATM    2  C3  UNL     1       6.053   0.214  -1.848  1.00  0.00     0.035 C 
BRANCH   2   3
HETATM    3  C2  UNL     1       5.509   0.486  -3.199  1.00  0.00     0.232 C 
BRANCH   3   4
HETATM    4  N1  UNL     1       6.386   0.035  -4.269  1.00  0.00    -0.079 N 
HETATM    5  C1  UNL     1       5.745   0.298  -5.527  1.00  0.00     0.266 C 
ATOM      6  H12 UNL     1       6.658  -0.942  -4.166  1.00  0.00     0.276 HD
ATOM      7  H11 UNL     1       7.317   0.447  -4.211  1.00  0.00     0.276 HD
ENDBRANCH   3   4
ENDBRANCH   2   3
ENDBRANCH   1   2
BRANCH   1   8
HETATM    8  C5  UNL     1       5.517  -0.351   0.554  1.00  0.00     0.125 C 
BRANCH   8   9
HETATM    9  O1  UNL     1       6.846   0.057   0.767  1.00  0.00    -0.395 OA
ATOM     10  H1  UNL     1       6.879   0.831   1.319  1.00  0.00     0.210 HD
ENDBRANCH   8   9
BRANCH   8  11
HETATM   11  C6  UNL     1       4.552   0.452   1.340  1.00  0.00     0.064 C 
BRANCH  11  12
HETATM   12  C7  UNL     1       3.156  -0.164   1.081  1.00  0.00     0.124 C 
BRANCH  12  13
HETATM   13  O2  UNL     1       2.712  -0.906   2.144  1.00  0.00    -0.395 OA
ATOM     14  H2  UNL     1       2.032  -1.521   1.895  1.00  0.00     0.210 HD
ENDBRANCH  12  13
BRANCH  12  15
HETATM   15  C8  UNL     1       2.157   0.913   0.766  1.00  0.00     0.014 A 
HETATM   16  C9  UNL     1       1.503   0.797  -0.584  1.00  0.00     0.007 A 
HETATM   17  C10 UNL     1       2.449   1.911  -0.296  1.00  0.00     0.007 A 
ENDBRANCH  12  15
ENDBRANCH  11  12
ENDBRANCH   8  11
ENDBRANCH   1   8
BRANCH   1  18
HETATM   18  C11 UNL     1       5.458  -2.084  -1.230  1.00  0.00    -0.008 C 
HETATM   19  C12 UNL     1       6.860  -2.447  -1.470  1.00  0.00     0.005 C 
HETATM   20  C13 UNL     1       6.809  -3.944  -1.899  1.00  0.00     0.000 C 
HETATM   21  C14 UNL     1       6.581  -4.713  -0.644  1.00  0.00     0.000 C 
HETATM   22  C15 UNL     1       5.479  -4.199   0.211  1.00  0.00     0.000 C 
HETATM   23  C16 UNL     1       4.862  -2.926  -0.134  1.00  0.00     0.005 C 
ENDBRANCH   1  18
TORSDOF 10
ENDMDL
MODEL 4
REMARK VINA RESULT: -5.856122801      1.247      1.313
REMARK  10 active torsions:
REMARK  status: ('A' for Active; 'I' for Inactive)
REMARK    1  A    between atoms: N1_2  and  C2_5 
REMARK    2  A    between atoms: C2_5  and  C3_6 
REMARK    3  A    between atoms: C3_6  and  C4_7 
REMARK    4  A    between atoms: C4_7  and  C5_8 
REMARK    5  A    between atoms: C4_7  and  C11_18 
REMARK    6  A    between atoms: C5_8  and  O1_9 
REMARK    7  A    between atoms: C5_8  and  C6_11 
REMARK    8  A    between atoms: C6_11  and  C7_12 
REMARK    9  A    between atoms: C7_12  and  O2_13 
REMARK   10  A    between atoms: C7_12  and  C8_15 
ROOT
HETATM    1  C4  UNL     1       5.490  -0.973  -0.774  1.00  0.00     0.020 C 
ENDROOT
BRANCH   1   2
HETATM    2  C3  UNL     1       6.223  -0.529  -1.986  1.00  0.00     0.035 C 
BRANCH   2   3
HETATM    3  C2  UNL     1       5.479   0.082  -3.112  1.00  0.00     0.232 C 
BRANCH   3   4
HETATM    4  N1  UNL     1       6.217   0.057  -4.365  1.00  0.00    -0.079 N 
HETATM    5  C1  UNL     1       5.323   0.413  -5.430  1.00  0.00     0.266 C 
ATOM      6  H12 UNL     1       6.683  -0.836  -4.527  1.00  0.00     0.276 HD
ATOM      7  H11 UNL     1       7.050   0.646  -4.340  1.00  0.00     0.276 HD
ENDBRANCH   3   4
ENDBRANCH   2   3
ENDBRANCH   1   2
BRANCH   1   8
HETATM    8  C5  UNL     1       5.480  -0.046   0.379  1.00  0.00     0.125 C 
BRANCH   8   9
HETATM    9  O1  UNL     1       6.216   1.118   0.095  1.00  0.00    -0.395 OA
ATOM     10  H1  UNL     1       5.738   1.686  -0.498  1.00  0.00     0.210 HD
ENDBRANCH   8   9
BRANCH   8  11
HETATM   11  C6  UNL     1       4.198   0.253   1.058  1.00  0.00     0.064 C 
BRANCH  11  12
HETATM   12  C7  UNL     1       3.075  -0.160   0.076  1.00  0.00     0.124 C 
BRANCH  12  13
HETATM   13  O2  UNL     1       2.229  -1.092   0.618  1.00  0.00    -0.395 OA
ATOM     14  H2  UNL     1       1.571  -1.383  -0.002  1.00  0.00     0.210 HD
ENDBRANCH  12  13
BRANCH  12  15
HETATM   15  C8  UNL     1       2.287   1.044  -0.357  1.00  0.00     0.014 A 
HETATM   16  C9  UNL     1       2.233   1.265  -1.845  1.00  0.00     0.007 A 
HETATM   17  C10 UNL     1       2.982   2.208  -0.968  1.00  0.00     0.007 A 
ENDBRANCH  12  15
ENDBRANCH  11  12
ENDBRANCH   8  11
ENDBRANCH   1   8
BRANCH   1  18
HETATM   18  C11 UNL     1       6.049  -2.354  -0.357  1.00  0.00    -0.008 C 
HETATM   19  C12 UNL     1       5.008  -3.306   0.051  1.00  0.00     0.005 C 
HETATM   20  C13 UNL     1       5.792  -4.567   0.520  1.00  0.00     0.000 C 
HETATM   21  C14 UNL     1       6.249  -5.242  -0.726  1.00  0.00     0.000 C 
HETATM   22  C15 UNL     1       6.905  -4.347  -1.715  1.00  0.00     0.000 C 
HETATM   23  C16 UNL     1       6.877  -2.910  -1.484  1.00  0.00     0.005 C 
ENDBRANCH   1  18
TORSDOF 10
ENDMDL
MODEL 5
REMARK VINA RESULT: -5.809297205      1.409      1.535
REMARK  10 active torsions:
REMARK  status: ('A' for Active; 'I' for Inactive)
REMARK    1  A    between atoms: N1_2  and  C2_5 
REMARK    2  A    between atoms: C2_5  and  C3_6 
REMARK    3  A    between atoms: C3_6  and  C4_7 
REMARK    4  A    between atoms: C4_7  and  C5_8 
REMARK    5  A    between atoms: C4_7  and  C11_18 
REMARK    6  A    between atoms: C5_8  and  O1_9 
REMARK    7  A    between atoms: C5_8  and  C6_11 
REMARK    8  A    between atoms: C6_11  and  C7_12 
REMARK    9  A    between atoms: C7_12  and  O2_13 
REMARK   10  A    between atoms: C7_12  and  C8_15 
ROOT
HETATM    1  C4  UNL     1       5.667  -0.869  -0.970  1.00  0.00     0.020 C 
ENDROOT
BRANCH   1   2
HETATM    2  C3  UNL     1       6.286  -0.654  -2.302  1.00  0.00     0.035 C 
BRANCH   2   3
HETATM    3  C2  UNL     1       5.597   0.190  -3.306  1.00  0.00     0.232 C 
BRANCH   3   4
HETATM    4  N1  UNL     1       6.185   0.096  -4.633  1.00  0.00    -0.079 N 
HETATM    5  C1  UNL     1       5.206   0.508  -5.598  1.00  0.00     0.266 C 
ATOM      6  H12 UNL     1       6.562  -0.831  -4.829  1.00  0.00     0.276 HD
ATOM      7  H11 UNL     1       7.057   0.620  -4.712  1.00  0.00     0.276 HD
ENDBRANCH   3   4
ENDBRANCH   2   3
ENDBRANCH   1   2
BRANCH   1   8
HETATM    8  C5  UNL     1       5.902   0.174   0.052  1.00  0.00     0.125 C 
BRANCH   8   9
HETATM    9  O1  UNL     1       7.173   0.756  -0.104  1.00  0.00    -0.395 OA
ATOM     10  H1  UNL     1       7.163   1.413  -0.791  1.00  0.00     0.210 HD
ENDBRANCH   8   9
BRANCH   8  11
HETATM   11  C6  UNL     1       4.852   1.186   0.311  1.00  0.00     0.064 C 
BRANCH  11  12
HETATM   12  C7  UNL     1       4.000   0.644   1.485  1.00  0.00     0.124 C 
BRANCH  12  13
HETATM   13  O2  UNL     1       4.131   1.408   2.615  1.00  0.00    -0.395 OA
ATOM     14  H2  UNL     1       3.663   1.038   3.355  1.00  0.00     0.210 HD
ENDBRANCH  12  13
BRANCH  12  15
HETATM   15  C8  UNL     1       2.552   0.568   1.092  1.00  0.00     0.014 A 
HETATM   16  C9  UNL     1       2.138  -0.723   0.441  1.00  0.00     0.007 A 
HETATM   17  C10 UNL     1       2.171   0.542  -0.344  1.00  0.00     0.007 A 
ENDBRANCH  12  15
ENDBRANCH  11  12
ENDBRANCH   8  11
ENDBRANCH   1   8
BRANCH   1  18
HETATM   18  C11 UNL     1       6.122  -2.253  -0.450  1.00  0.00    -0.008 C 
HETATM   19  C12 UNL     1       5.011  -3.100   0.004  1.00  0.00     0.005 C 
HETATM   20  C13 UNL     1       5.698  -4.377   0.572  1.00  0.00     0.000 C 
HETATM   21  C14 UNL     1       6.123  -5.167  -0.616  1.00  0.00     0.000 C 
HETATM   22  C15 UNL     1       6.853  -4.390  -1.653  1.00  0.00     0.000 C 
HETATM   23  C16 UNL     1       6.923  -2.942  -1.521  1.00  0.00     0.005 C 
ENDBRANCH   1  18
TORSDOF 10
ENDMDL
