MODEL 1
REMARK VINA RESULT: -5.671808634      0.000      0.000
REMARK  5 active torsions:
REMARK  status: ('A' for Active; 'I' for Inactive)
REMARK    1  A    between atoms: C2_2  and  C3_3 
REMARK    2  A    between atoms: C3_3  and  N1_4 
REMARK    3  A    between atoms: C5_6  and  N2_7 
REMARK    4  A    between atoms: C14_19  and  C15_20 
REMARK    5  A    between atoms: C15_20  and  N4_21 
REMARK       I    between atoms: N4_21  and  C16_23 
ROOT
HETATM    1  N1  UNL     1      -7.767  14.597  28.216  1.00  0.00    -0.385 N 
HETATM    2  C4  UNL     1      -7.879  13.450  29.065  1.00  0.00     0.147 C 
HETATM    3  C5  UNL     1      -8.576  12.289  28.433  1.00  0.00     0.099 C 
HETATM    4  C12 UNL     1      -8.286  12.124  26.947  1.00  0.00     0.029 C 
HETATM    5  C13 UNL     1      -8.237  13.439  26.217  1.00  0.00     0.029 C 
HETATM    6  C14 UNL     1      -7.211  14.296  26.953  1.00  0.00     0.101 C 
ENDROOT
BRANCH   3   7
HETATM    7  N2  UNL     1      -9.935  12.099  28.649  1.00  0.00    -0.389 N 
HETATM    8  C6  UNL     1     -10.632  12.196  29.805  1.00  0.00    -0.006 C 
HETATM    9  C7  UNL     1     -10.742  13.480  30.582  1.00  0.00     0.054 C 
HETATM   10  C11 UNL     1     -10.436  10.964  30.777  1.00  0.00     0.156 C 
HETATM   11  C8  UNL     1     -11.883  13.683  31.487  1.00  0.00     0.026 C 
HETATM   12  C9  UNL     1     -11.849  13.268  32.925  1.00  0.00     0.129 C 
HETATM   13  N3  UNL     1     -11.609  11.802  33.110  1.00  0.00    -0.360 N 
HETATM   14  C10 UNL     1     -11.023  11.332  31.988  1.00  0.00    -0.070 C 
ATOM     15  H3  UNL     1     -11.845  11.255  33.938  1.00  0.00     0.168 HD
ATOM     16  H2  UNL     1     -10.482  11.854  27.824  1.00  0.00     0.159 HD
ENDBRANCH   3   7
BRANCH   1  17
HETATM   17  C3  UNL     1      -8.726  15.591  28.370  1.00  0.00     0.058 C 
BRANCH  17  18
HETATM   18  C2  UNL     1      -8.235  16.622  29.370  1.00  0.00     0.040 C 
HETATM   19  C1  UNL     1      -9.321  16.978  30.369  1.00  0.00     0.010 C 
ENDBRANCH  17  18
ENDBRANCH   1  17
BRANCH   6  20
HETATM   20  C15 UNL     1      -6.733  15.432  26.139  1.00  0.00     0.147 C 
BRANCH  20  21
HETATM   21  N4  UNL     1      -7.513  15.537  24.929  1.00  0.00    -0.359 N 
HETATM   22  C16 UNL     1      -8.298  16.644  24.547  1.00  0.00     0.213 C 
HETATM   23  C17 UNL     1      -9.073  16.688  23.282  1.00  0.00     0.117 C 
HETATM   24  O1  UNL     1      -8.363  17.646  25.290  1.00  0.00    -0.274 OA
ATOM     25  H4  UNL     1      -7.496  14.738  24.294  1.00  0.00     0.162 HD
ENDBRANCH  20  21
ENDBRANCH   6  20
TORSDOF 5
ENDMDL
MODEL 2
REMARK VINA RESULT: -5.630733278      3.159      7.112
REMARK  5 active torsions:
REMARK  status: ('A' for Active; 'I' for Inactive)
REMARK    1  A    between atoms: C2_2  and  C3_3 
REMARK    2  A    between atoms: C3_3  and  N1_4 
REMARK    3  A    between atoms: C5_6  and  N2_7 
REMARK    4  A    between atoms: C14_19  and  C15_20 
REMARK    5  A    between atoms: C15_20  and  N4_21 
REMARK       I    between atoms: N4_21  and  C16_23 
ROOT
HETATM    1  N1  UNL     1     -10.736  12.382  30.263  1.00  0.00    -0.385 N 
HETATM    2  C4  UNL     1     -10.530  12.448  28.848  1.00  0.00     0.147 C 
HETATM    3  C5  UNL     1      -9.286  11.765  28.380  1.00  0.00     0.099 C 
HETATM    4  C12 UNL     1      -8.946  10.497  29.152  1.00  0.00     0.029 C 
HETATM    5  C13 UNL     1      -9.200  10.631  30.629  1.00  0.00     0.029 C 
HETATM    6  C14 UNL     1     -10.656  11.067  30.771  1.00  0.00     0.101 C 
ENDROOT
BRANCH   3   7
HETATM    7  N2  UNL     1      -8.123  12.501  28.192  1.00  0.00    -0.389 N 
HETATM    8  C6  UNL     1      -7.959  13.678  27.545  1.00  0.00    -0.006 C 
HETATM    9  C7  UNL     1      -8.629  14.950  27.991  1.00  0.00     0.054 C 
HETATM   10  C11 UNL     1      -7.981  13.552  25.969  1.00  0.00     0.156 C 
HETATM   11  C8  UNL     1      -8.041  16.246  27.622  1.00  0.00     0.026 C 
HETATM   12  C9  UNL     1      -8.401  16.958  26.354  1.00  0.00     0.129 C 
HETATM   13  N3  UNL     1      -8.101  16.159  25.124  1.00  0.00    -0.360 N 
HETATM   14  C10 UNL     1      -8.036  14.857  25.480  1.00  0.00    -0.070 C 
ATOM     15  H3  UNL     1      -7.969  16.531  24.184  1.00  0.00     0.168 HD
ATOM     16  H2  UNL     1      -7.278  12.100  28.598  1.00  0.00     0.159 HD
ENDBRANCH   3   7
BRANCH   1  17
HETATM   17  C3  UNL     1     -10.322  13.478  31.011  1.00  0.00     0.058 C 
BRANCH  17  18
HETATM   18  C2  UNL     1     -11.311  14.615  30.840  1.00  0.00     0.040 C 
HETATM   19  C1  UNL     1     -10.629  15.963  30.989  1.00  0.00     0.010 C 
ENDBRANCH  17  18
ENDBRANCH   1  17
BRANCH   6  20
HETATM   20  C15 UNL     1     -11.186  10.837  32.131  1.00  0.00     0.147 C 
BRANCH  20  21
HETATM   21  N4  UNL     1     -12.570  10.433  32.060  1.00  0.00    -0.359 N 
HETATM   22  C16 UNL     1     -13.065   9.139  32.324  1.00  0.00     0.213 C 
HETATM   23  C17 UNL     1     -14.505   8.792  32.238  1.00  0.00     0.117 C 
HETATM   24  O1  UNL     1     -12.277   8.224  32.643  1.00  0.00    -0.274 OA
ATOM     25  H4  UNL     1     -13.250  11.146  31.795  1.00  0.00     0.162 HD
ENDBRANCH  20  21
ENDBRANCH   6  20
TORSDOF 5
ENDMDL
MODEL 3
REMARK VINA RESULT: -5.558425761      3.997      7.694
REMARK  5 active torsions:
REMARK  status: ('A' for Active; 'I' for Inactive)
REMARK    1  A    between atoms: C2_2  and  C3_3 
REMARK    2  A    between atoms: C3_3  and  N1_4 
REMARK    3  A    between atoms: C5_6  and  N2_7 
REMARK    4  A    between atoms: C14_19  and  C15_20 
REMARK    5  A    between atoms: C15_20  and  N4_21 
REMARK       I    between atoms: N4_21  and  C16_23 
ROOT
HETATM    1  N1  UNL     1      -7.544  15.559  26.646  1.00  0.00    -0.385 N 
HETATM    2  C4  UNL     1      -6.220  16.102  26.614  1.00  0.00     0.147 C 
HETATM    3  C5  UNL     1      -5.690  16.499  27.954  1.00  0.00     0.099 C 
HETATM    4  C12 UNL     1      -6.121  15.579  29.089  1.00  0.00     0.029 C 
HETATM    5  C13 UNL     1      -7.553  15.138  28.965  1.00  0.00     0.029 C 
HETATM    6  C14 UNL     1      -7.687  14.511  27.580  1.00  0.00     0.101 C 
ENDROOT
BRANCH   3   7
HETATM    7  N2  UNL     1      -5.802  17.817  28.377  1.00  0.00    -0.389 N 
HETATM    8  C6  UNL     1      -4.839  18.763  28.473  1.00  0.00    -0.006 C 
HETATM    9  C7  UNL     1      -4.075  19.267  27.279  1.00  0.00     0.054 C 
HETATM   10  C11 UNL     1      -3.881  18.579  29.718  1.00  0.00     0.156 C 
HETATM   11  C8  UNL     1      -3.457  20.600  27.325  1.00  0.00     0.026 C 
HETATM   12  C9  UNL     1      -2.061  20.820  27.824  1.00  0.00     0.129 C 
HETATM   13  N3  UNL     1      -1.865  20.375  29.240  1.00  0.00    -0.360 N 
HETATM   14  C10 UNL     1      -2.832  19.478  29.532  1.00  0.00    -0.070 C 
ATOM     15  H3  UNL     1      -1.130  20.692  29.872  1.00  0.00     0.168 HD
ATOM     16  H2  UNL     1      -6.738  18.113  28.653  1.00  0.00     0.159 HD
ENDBRANCH   3   7
BRANCH   1  17
HETATM   17  C3  UNL     1      -8.589  16.432  26.365  1.00  0.00     0.058 C 
BRANCH  17  18
HETATM   18  C2  UNL     1      -8.135  17.460  25.346  1.00  0.00     0.040 C 
HETATM   19  C1  UNL     1      -8.589  17.083  23.947  1.00  0.00     0.010 C 
ENDBRANCH  17  18
ENDBRANCH   1  17
BRANCH   6  20
HETATM   20  C15 UNL     1      -8.888  13.658  27.457  1.00  0.00     0.147 C 
BRANCH  20  21
HETATM   21  N4  UNL     1      -8.949  12.728  28.560  1.00  0.00    -0.359 N 
HETATM   22  C16 UNL     1     -10.098  12.034  28.990  1.00  0.00     0.213 C 
HETATM   23  C17 UNL     1     -10.089  11.085  30.131  1.00  0.00     0.117 C 
HETATM   24  O1  UNL     1     -11.187  12.210  28.404  1.00  0.00    -0.274 OA
ATOM     25  H4  UNL     1      -8.084  12.559  29.073  1.00  0.00     0.162 HD
ENDBRANCH  20  21
ENDBRANCH   6  20
TORSDOF 5
ENDMDL
MODEL 4
REMARK VINA RESULT: -5.544652255      3.826      7.347
REMARK  5 active torsions:
REMARK  status: ('A' for Active; 'I' for Inactive)
REMARK    1  A    between atoms: C2_2  and  C3_3 
REMARK    2  A    between atoms: C3_3  and  N1_4 
REMARK    3  A    between atoms: C5_6  and  N2_7 
REMARK    4  A    between atoms: C14_19  and  C15_20 
REMARK    5  A    between atoms: C15_20  and  N4_21 
REMARK       I    between atoms: N4_21  and  C16_23 
ROOT
HETATM    1  N1  UNL     1      -7.049  14.890  26.658  1.00  0.00    -0.385 N 
HETATM    2  C4  UNL     1      -5.742  15.474  26.614  1.00  0.00     0.147 C 
HETATM    3  C5  UNL     1      -4.996  15.397  27.906  1.00  0.00     0.099 C 
HETATM    4  C12 UNL     1      -5.242  14.115  28.691  1.00  0.00     0.029 C 
HETATM    5  C13 UNL     1      -6.679  13.675  28.645  1.00  0.00     0.029 C 
HETATM    6  C14 UNL     1      -7.045  13.573  27.167  1.00  0.00     0.101 C 
ENDROOT
BRANCH   3   7
HETATM    7  N2  UNL     1      -5.024  16.473  28.785  1.00  0.00    -0.389 N 
HETATM    8  C6  UNL     1      -4.324  17.630  28.732  1.00  0.00    -0.006 C 
HETATM    9  C7  UNL     1      -4.469  18.616  27.604  1.00  0.00     0.054 C 
HETATM   10  C11 UNL     1      -2.810  17.484  29.162  1.00  0.00     0.156 C 
HETATM   11  C8  UNL     1      -4.129  20.029  27.829  1.00  0.00     0.026 C 
HETATM   12  C9  UNL     1      -2.749  20.566  27.607  1.00  0.00     0.129 C 
HETATM   13  N3  UNL     1      -1.712  19.895  28.452  1.00  0.00    -0.360 N 
HETATM   14  C10 UNL     1      -2.197  18.692  28.829  1.00  0.00    -0.070 C 
ATOM     15  H3  UNL     1      -0.800  20.278  28.700  1.00  0.00     0.168 HD
ATOM     16  H2  UNL     1      -5.659  16.378  29.577  1.00  0.00     0.159 HD
ENDBRANCH   3   7
BRANCH   1  17
HETATM   17  C3  UNL     1      -8.117  15.751  26.876  1.00  0.00     0.058 C 
BRANCH  17  18
HETATM   18  C2  UNL     1      -7.862  17.069  26.168  1.00  0.00     0.040 C 
HETATM   19  C1  UNL     1      -8.416  17.049  24.755  1.00  0.00     0.010 C 
ENDBRANCH  17  18
ENDBRANCH   1  17
BRANCH   6  20
HETATM   20  C15 UNL     1      -8.258  12.759  26.938  1.00  0.00     0.147 C 
BRANCH  20  21
HETATM   21  N4  UNL     1      -8.863  12.408  28.200  1.00  0.00    -0.359 N 
HETATM   22  C16 UNL     1     -10.241  12.212  28.428  1.00  0.00     0.213 C 
HETATM   23  C17 UNL     1     -10.797  11.845  29.754  1.00  0.00     0.117 C 
HETATM   24  O1  UNL     1     -11.052  12.352  27.489  1.00  0.00    -0.274 OA
ATOM     25  H4  UNL     1      -8.239  12.291  28.998  1.00  0.00     0.162 HD
ENDBRANCH  20  21
ENDBRANCH   6  20
TORSDOF 5
ENDMDL
MODEL 5
REMARK VINA RESULT: -5.533226773      4.653      8.429
REMARK  5 active torsions:
REMARK  status: ('A' for Active; 'I' for Inactive)
REMARK    1  A    between atoms: C2_2  and  C3_3 
REMARK    2  A    between atoms: C3_3  and  N1_4 
REMARK    3  A    between atoms: C5_6  and  N2_7 
REMARK    4  A    between atoms: C14_19  and  C15_20 
REMARK    5  A    between atoms: C15_20  and  N4_21 
REMARK       I    between atoms: N4_21  and  C16_23 
ROOT
HETATM    1  N1  UNL     1      -6.686  16.456  27.791  1.00  0.00    -0.385 N 
HETATM    2  C4  UNL     1      -5.376  17.014  27.640  1.00  0.00     0.147 C 
HETATM    3  C5  UNL     1      -4.962  17.912  28.760  1.00  0.00     0.099 C 
HETATM    4  C12 UNL     1      -5.459  17.468  30.129  1.00  0.00     0.029 C 
HETATM    5  C13 UNL     1      -6.867  16.939  30.092  1.00  0.00     0.029 C 
HETATM    6  C14 UNL     1      -6.877  15.831  29.043  1.00  0.00     0.101 C 
ENDROOT
BRANCH   3   7
HETATM    7  N2  UNL     1      -5.138  19.286  28.644  1.00  0.00    -0.389 N 
HETATM    8  C6  UNL     1      -4.230  20.233  28.314  1.00  0.00    -0.006 C 
HETATM    9  C7  UNL     1      -3.535  20.262  26.979  1.00  0.00     0.054 C 
HETATM   10  C11 UNL     1      -3.224  20.590  29.481  1.00  0.00     0.156 C 
HETATM   11  C8  UNL     1      -2.994  21.532  26.472  1.00  0.00     0.026 C 
HETATM   12  C9  UNL     1      -1.599  21.987  26.774  1.00  0.00     0.129 C 
HETATM   13  N3  UNL     1      -1.332  22.138  28.238  1.00  0.00    -0.360 N 
HETATM   14  C10 UNL     1      -2.235  21.388  28.906  1.00  0.00    -0.070 C 
ATOM     15  H3  UNL     1      -0.598  22.708  28.658  1.00  0.00     0.168 HD
ATOM     16  H2  UNL     1      -6.081  19.626  28.832  1.00  0.00     0.159 HD
ENDBRANCH   3   7
BRANCH   1  17
HETATM   17  C3  UNL     1      -7.725  17.103  27.134  1.00  0.00     0.058 C 
BRANCH  17  18
HETATM   18  C2  UNL     1      -7.876  16.536  25.735  1.00  0.00     0.040 C 
HETATM   19  C1  UNL     1      -8.313  17.608  24.753  1.00  0.00     0.010 C 
ENDBRANCH  17  18
ENDBRANCH   1  17
BRANCH   6  20
HETATM   20  C15 UNL     1      -8.044  14.934  29.176  1.00  0.00     0.147 C 
BRANCH  20  21
HETATM   21  N4  UNL     1      -7.733  13.633  28.635  1.00  0.00    -0.359 N 
HETATM   22  C16 UNL     1      -8.356  13.032  27.522  1.00  0.00     0.213 C 
HETATM   23  C17 UNL     1      -7.982  11.690  27.013  1.00  0.00     0.117 C 
HETATM   24  O1  UNL     1      -9.271  13.635  26.922  1.00  0.00    -0.274 OA
ATOM     25  H4  UNL     1      -6.996  13.101  29.098  1.00  0.00     0.162 HD
ENDBRANCH  20  21
ENDBRANCH   6  20
TORSDOF 5
ENDMDL
