MODEL 1
REMARK VINA RESULT: -6.809729366      0.000      0.000
REMARK  17 active torsions:
REMARK  status: ('A' for Active; 'I' for Inactive)
REMARK    1  A    between atoms: C1_4  and  C2_5 
REMARK    2  A    between atoms: C3_7  and  O2_8 
REMARK    3  A    between atoms: O2_8  and  C4_9 
REMARK    4  A    between atoms: C5_11  and  O4_12 
REMARK    5  A    between atoms: O4_12  and  C6_13 
REMARK    6  A    between atoms: C7_14  and  O5_15 
REMARK    7  A    between atoms: C8_17  and  N2_18 
REMARK    8  A    between atoms: C10_23  and  N3_24 
REMARK    9  A    between atoms: C11_28  and  O6_29 
REMARK   10  A    between atoms: O6_29  and  C12_30 
REMARK   11  A    between atoms: C12_30  and  C13_31 
REMARK   12  A    between atoms: C14_33  and  C15_34 
REMARK   13  A    between atoms: C15_34  and  O8_35 
REMARK   14  A    between atoms: C17_41  and  O9_42 
REMARK   15  A    between atoms: C18_44  and  O10_45 
REMARK   16  A    between atoms: C19_47  and  N5_48 
REMARK   17  A    between atoms: C21_53  and  O11_54 
ROOT
HETATM    1  C6  UNL     1      33.409  31.250  26.872  1.00  0.00     0.186 C 
HETATM    2  C7  UNL     1      33.427  32.260  27.993  1.00  0.00     0.180 C 
HETATM    3  C8  UNL     1      32.029  32.431  28.577  1.00  0.00     0.216 C 
HETATM    4  C9  UNL     1      31.150  32.987  27.465  1.00  0.00     0.071 C 
HETATM    5  C10 UNL     1      31.169  31.967  26.347  1.00  0.00     0.217 C 
HETATM    6  C11 UNL     1      32.565  31.879  25.743  1.00  0.00     0.183 C 
ENDROOT
BRANCH   1   7
HETATM    7  O4  UNL     1      32.828  30.081  27.354  1.00  0.00    -0.348 OA
BRANCH   7   8
HETATM    8  C5  UNL     1      32.954  29.022  26.487  1.00  0.00     0.297 C 
HETATM    9  O3  UNL     1      32.178  27.948  26.915  1.00  0.00    -0.326 OA
HETATM   10  C4  UNL     1      33.255  27.534  27.688  1.00  0.00     0.299 C 
HETATM   11  C18 UNL     1      34.172  28.144  26.644  1.00  0.00     0.228 C 
BRANCH  10  12
HETATM   12  O2  UNL     1      33.309  26.145  27.722  1.00  0.00    -0.327 OA
BRANCH  12  13
HETATM   13  C3  UNL     1      33.402  25.648  29.045  1.00  0.00     0.294 C 
HETATM   14  O1  UNL     1      34.489  24.848  29.075  1.00  0.00    -0.346 OA
HETATM   15  C2  UNL     1      34.332  23.500  29.159  1.00  0.00     0.191 C 
HETATM   16  C21 UNL     1      33.169  23.123  28.246  1.00  0.00     0.154 C 
HETATM   17  C20 UNL     1      31.936  23.612  28.979  1.00  0.00     0.072 C 
HETATM   18  C19 UNL     1      32.073  25.058  29.378  1.00  0.00     0.240 C 
BRANCH  15  19
HETATM   19  C1  UNL     1      35.592  22.860  28.662  1.00  0.00     0.087 C 
HETATM   20  N1  UNL     1      35.751  22.484  27.450  1.00  0.00    -0.409 N 
ATOM     21  H12 UNL     1      34.975  22.635  26.805  1.00  0.00     0.155 HD
ATOM     22  H11 UNL     1      36.609  22.048  27.112  1.00  0.00     0.155 HD
ENDBRANCH  15  19
BRANCH  16  23
HETATM   23  O11 UNL     1      33.054  21.767  28.051  1.00  0.00    -0.393 OA
ATOM     24  H11 UNL     1      33.570  21.452  27.317  1.00  0.00     0.210 HD
ENDBRANCH  16  23
BRANCH  18  25
HETATM   25  N5  UNL     1      30.994  25.802  28.766  1.00  0.00    -0.070 N 
ATOM     26  H53 UNL     1      30.820  26.678  29.258  1.00  0.00     0.274 HD
ATOM     27  H52 UNL     1      31.269  26.181  27.861  1.00  0.00     0.274 HD
ATOM     28  H51 UNL     1      30.146  25.239  28.694  1.00  0.00     0.274 HD
ENDBRANCH  18  25
ENDBRANCH  12  13
ENDBRANCH  10  12
BRANCH  11  29
HETATM   29  O10 UNL     1      35.305  28.746  27.126  1.00  0.00    -0.386 OA
ATOM     30  H10 UNL     1      35.165  29.446  27.753  1.00  0.00     0.210 HD
ENDBRANCH  11  29
ENDBRANCH   7   8
ENDBRANCH   1   7
BRANCH   2  31
HETATM   31  O5  UNL     1      34.272  31.934  29.027  1.00  0.00    -0.391 OA
ATOM     32  H5  UNL     1      35.151  32.282  28.931  1.00  0.00     0.210 HD
ENDBRANCH   2  31
BRANCH   6  33
HETATM   33  O6  UNL     1      33.119  33.078  25.486  1.00  0.00    -0.378 OA
BRANCH  33  34
HETATM   34  C12 UNL     1      33.346  33.529  24.246  1.00  0.00     0.204 C 
BRANCH  34  35
HETATM   35  C13 UNL     1      32.617  32.880  23.098  1.00  0.00     0.202 C 
HETATM   36  O7  UNL     1      31.435  33.489  22.867  1.00  0.00    -0.370 OA
HETATM   37  C14 UNL     1      30.872  33.334  21.641  1.00  0.00     0.171 C 
HETATM   38  C16 UNL     1      31.560  32.354  20.744  1.00  0.00     0.269 C 
HETATM   39  N4  UNL     1      32.991  32.560  20.678  1.00  0.00    -0.044 N 
HETATM   40  C17 UNL     1      33.575  32.916  21.923  1.00  0.00     0.350 C 
ATOM     41  H42 UNL     1      33.455  31.741  20.284  1.00  0.00     0.280 HD
ATOM     42  H41 UNL     1      33.223  33.248  19.961  1.00  0.00     0.280 HD
BRANCH  37  43
HETATM   43  C15 UNL     1      29.400  32.973  21.683  1.00  0.00     0.197 C 
BRANCH  43  44
HETATM   44  O8  UNL     1      28.814  33.367  22.902  1.00  0.00    -0.398 OA
ATOM     45  H8  UNL     1      28.429  32.624  23.352  1.00  0.00     0.209 HD
ENDBRANCH  43  44
ENDBRANCH  37  43
BRANCH  40  46
HETATM   46  O9  UNL     1      34.188  34.151  21.817  1.00  0.00    -0.368 OA
ATOM     47  H9  UNL     1      35.134  34.067  21.841  1.00  0.00     0.212 HD
ENDBRANCH  40  46
ENDBRANCH  34  35
ENDBRANCH  33  34
ENDBRANCH   6  33
BRANCH   3  48
HETATM   48  N2  UNL     1      32.121  33.311  29.700  1.00  0.00    -0.072 N 
ATOM     49  H23 UNL     1      33.084  33.462  30.005  1.00  0.00     0.274 HD
ATOM     50  H22 UNL     1      31.900  34.278  29.463  1.00  0.00     0.274 HD
ATOM     51  H21 UNL     1      31.527  32.941  30.442  1.00  0.00     0.274 HD
ENDBRANCH   3  48
BRANCH   5  52
HETATM   52  N3  UNL     1      30.150  32.180  25.374  1.00  0.00    -0.072 N 
ATOM     53  H33 UNL     1      29.683  31.303  25.141  1.00  0.00     0.274 HD
ATOM     54  H32 UNL     1      29.362  32.687  25.778  1.00  0.00     0.274 HD
ATOM     55  H31 UNL     1      30.487  32.646  24.532  1.00  0.00     0.274 HD
ENDBRANCH   5  52
TORSDOF 17
ENDMDL
MODEL 2
REMARK VINA RESULT: -6.770820305      1.746      2.849
REMARK  17 active torsions:
REMARK  status: ('A' for Active; 'I' for Inactive)
REMARK    1  A    between atoms: C1_4  and  C2_5 
REMARK    2  A    between atoms: C3_7  and  O2_8 
REMARK    3  A    between atoms: O2_8  and  C4_9 
REMARK    4  A    between atoms: C5_11  and  O4_12 
REMARK    5  A    between atoms: O4_12  and  C6_13 
REMARK    6  A    between atoms: C7_14  and  O5_15 
REMARK    7  A    between atoms: C8_17  and  N2_18 
REMARK    8  A    between atoms: C10_23  and  N3_24 
REMARK    9  A    between atoms: C11_28  and  O6_29 
REMARK   10  A    between atoms: O6_29  and  C12_30 
REMARK   11  A    between atoms: C12_30  and  C13_31 
REMARK   12  A    between atoms: C14_33  and  C15_34 
REMARK   13  A    between atoms: C15_34  and  O8_35 
REMARK   14  A    between atoms: C17_41  and  O9_42 
REMARK   15  A    between atoms: C18_44  and  O10_45 
REMARK   16  A    between atoms: C19_47  and  N5_48 
REMARK   17  A    between atoms: C21_53  and  O11_54 
ROOT
HETATM    1  C6  UNL     1      32.712  30.792  25.738  1.00  0.00     0.186 C 
HETATM    2  C7  UNL     1      32.753  31.711  26.935  1.00  0.00     0.180 C 
HETATM    3  C8  UNL     1      31.669  31.329  27.937  1.00  0.00     0.216 C 
HETATM    4  C9  UNL     1      30.331  31.533  27.239  1.00  0.00     0.071 C 
HETATM    5  C10 UNL     1      30.326  30.618  26.034  1.00  0.00     0.217 C 
HETATM    6  C11 UNL     1      31.373  31.077  25.025  1.00  0.00     0.183 C 
ENDROOT
BRANCH   1   7
HETATM    7  O4  UNL     1      32.776  29.481  26.199  1.00  0.00    -0.348 OA
BRANCH   7   8
HETATM    8  C5  UNL     1      33.964  28.861  25.893  1.00  0.00     0.297 C 
HETATM    9  O3  UNL     1      33.729  27.601  25.347  1.00  0.00    -0.326 OA
HETATM   10  C4  UNL     1      33.715  27.092  26.639  1.00  0.00     0.299 C 
HETATM   11  C18 UNL     1      34.698  28.183  27.024  1.00  0.00     0.228 C 
BRANCH  10  12
HETATM   12  O2  UNL     1      34.275  25.819  26.654  1.00  0.00    -0.327 OA
BRANCH  12  13
HETATM   13  C3  UNL     1      33.321  24.822  26.977  1.00  0.00     0.294 C 
HETATM   14  O1  UNL     1      32.335  25.445  27.656  1.00  0.00    -0.346 OA
HETATM   15  C2  UNL     1      32.201  25.237  28.992  1.00  0.00     0.191 C 
HETATM   16  C21 UNL     1      33.606  25.220  29.590  1.00  0.00     0.154 C 
HETATM   17  C20 UNL     1      34.194  23.898  29.141  1.00  0.00     0.072 C 
HETATM   18  C19 UNL     1      34.065  23.718  27.651  1.00  0.00     0.240 C 
BRANCH  15  19
HETATM   19  C1  UNL     1      31.426  26.386  29.560  1.00  0.00     0.087 C 
HETATM   20  N1  UNL     1      30.646  27.116  28.857  1.00  0.00    -0.409 N 
ATOM     21  H12 UNL     1      30.560  26.892  27.865  1.00  0.00     0.155 HD
ATOM     22  H11 UNL     1      30.119  27.898  29.244  1.00  0.00     0.155 HD
ENDBRANCH  15  19
BRANCH  16  23
HETATM   23  O11 UNL     1      33.607  25.257  30.964  1.00  0.00    -0.393 OA
ATOM     24  H11 UNL     1      32.852  24.828  31.349  1.00  0.00     0.210 HD
ENDBRANCH  16  23
BRANCH  18  25
HETATM   25  N5  UNL     1      35.390  23.554  27.096  1.00  0.00    -0.070 N 
ATOM     26  H53 UNL     1      35.386  22.916  26.302  1.00  0.00     0.274 HD
ATOM     27  H52 UNL     1      35.702  24.399  26.618  1.00  0.00     0.274 HD
ATOM     28  H51 UNL     1      36.060  23.260  27.808  1.00  0.00     0.274 HD
ENDBRANCH  18  25
ENDBRANCH  12  13
ENDBRANCH  10  12
BRANCH  11  29
HETATM   29  O10 UNL     1      34.533  28.719  28.274  1.00  0.00    -0.386 OA
ATOM     30  H10 UNL     1      33.669  29.066  28.462  1.00  0.00     0.210 HD
ENDBRANCH  11  29
ENDBRANCH   7   8
ENDBRANCH   1   7
BRANCH   2  31
HETATM   31  O5  UNL     1      33.955  31.708  27.602  1.00  0.00    -0.391 OA
ATOM     32  H5  UNL     1      33.879  31.542  28.534  1.00  0.00     0.210 HD
ENDBRANCH   2  31
BRANCH   6  33
HETATM   33  O6  UNL     1      31.350  32.401  24.788  1.00  0.00    -0.378 OA
BRANCH  33  34
HETATM   34  C12 UNL     1      31.103  32.925  23.582  1.00  0.00     0.204 C 
BRANCH  34  35
HETATM   35  C13 UNL     1      30.129  32.218  22.675  1.00  0.00     0.202 C 
HETATM   36  O7  UNL     1      28.857  32.563  22.965  1.00  0.00    -0.370 OA
HETATM   37  C14 UNL     1      27.916  32.379  22.003  1.00  0.00     0.171 C 
HETATM   38  C16 UNL     1      28.386  31.648  20.785  1.00  0.00     0.269 C 
HETATM   39  N4  UNL     1      29.627  32.173  20.257  1.00  0.00    -0.044 N 
HETATM   40  C17 UNL     1      30.558  32.556  21.260  1.00  0.00     0.350 C 
ATOM     41  H42 UNL     1      30.050  31.511  19.607  1.00  0.00     0.280 HD
ATOM     42  H41 UNL     1      29.446  32.948  19.618  1.00  0.00     0.280 HD
BRANCH  37  43
HETATM   43  C15 UNL     1      26.656  31.696  22.500  1.00  0.00     0.197 C 
BRANCH  43  44
HETATM   44  O8  UNL     1      26.610  31.675  23.907  1.00  0.00    -0.398 OA
ATOM     45  H8  UNL     1      27.257  31.077  24.262  1.00  0.00     0.209 HD
ENDBRANCH  43  44
ENDBRANCH  37  43
BRANCH  40  46
HETATM   46  O9  UNL     1      30.853  33.901  21.136  1.00  0.00    -0.368 OA
ATOM     47  H9  UNL     1      30.778  34.187  20.233  1.00  0.00     0.212 HD
ENDBRANCH  40  46
ENDBRANCH  34  35
ENDBRANCH  33  34
ENDBRANCH   6  33
BRANCH   3  48
HETATM   48  N2  UNL     1      31.821  32.155  29.093  1.00  0.00    -0.072 N 
ATOM     49  H23 UNL     1      32.311  31.682  29.853  1.00  0.00     0.274 HD
ATOM     50  H22 UNL     1      32.489  32.912  28.950  1.00  0.00     0.274 HD
ATOM     51  H21 UNL     1      30.898  32.491  29.367  1.00  0.00     0.274 HD
ENDBRANCH   3  48
BRANCH   5  52
HETATM   52  N3  UNL     1      29.033  30.449  25.460  1.00  0.00    -0.072 N 
ATOM     53  H33 UNL     1      29.089  30.412  24.442  1.00  0.00     0.274 HD
ATOM     54  H32 UNL     1      28.675  29.511  25.642  1.00  0.00     0.274 HD
ATOM     55  H31 UNL     1      28.362  31.157  25.760  1.00  0.00     0.274 HD
ENDBRANCH   5  52
TORSDOF 17
ENDMDL
MODEL 3
REMARK VINA RESULT: -6.732277523      2.170      3.108
REMARK  17 active torsions:
REMARK  status: ('A' for Active; 'I' for Inactive)
REMARK    1  A    between atoms: C1_4  and  C2_5 
REMARK    2  A    between atoms: C3_7  and  O2_8 
REMARK    3  A    between atoms: O2_8  and  C4_9 
REMARK    4  A    between atoms: C5_11  and  O4_12 
REMARK    5  A    between atoms: O4_12  and  C6_13 
REMARK    6  A    between atoms: C7_14  and  O5_15 
REMARK    7  A    between atoms: C8_17  and  N2_18 
REMARK    8  A    between atoms: C10_23  and  N3_24 
REMARK    9  A    between atoms: C11_28  and  O6_29 
REMARK   10  A    between atoms: O6_29  and  C12_30 
REMARK   11  A    between atoms: C12_30  and  C13_31 
REMARK   12  A    between atoms: C14_33  and  C15_34 
REMARK   13  A    between atoms: C15_34  and  O8_35 
REMARK   14  A    between atoms: C17_41  and  O9_42 
REMARK   15  A    between atoms: C18_44  and  O10_45 
REMARK   16  A    between atoms: C19_47  and  N5_48 
REMARK   17  A    between atoms: C21_53  and  O11_54 
ROOT
HETATM    1  C6  UNL     1      32.912  30.735  25.913  1.00  0.00     0.186 C 
HETATM    2  C7  UNL     1      32.739  31.985  26.741  1.00  0.00     0.180 C 
HETATM    3  C8  UNL     1      31.757  31.737  27.880  1.00  0.00     0.216 C 
HETATM    4  C9  UNL     1      30.413  31.412  27.242  1.00  0.00     0.071 C 
HETATM    5  C10 UNL     1      30.621  30.171  26.403  1.00  0.00     0.217 C 
HETATM    6  C11 UNL     1      31.550  30.479  25.235  1.00  0.00     0.183 C 
ENDROOT
BRANCH   1   7
HETATM    7  O4  UNL     1      33.259  29.695  26.770  1.00  0.00    -0.348 OA
BRANCH   7   8
HETATM    8  C5  UNL     1      34.221  28.864  26.246  1.00  0.00     0.297 C 
HETATM    9  O3  UNL     1      33.643  27.935  25.385  1.00  0.00    -0.326 OA
HETATM   10  C4  UNL     1      33.433  27.113  26.484  1.00  0.00     0.299 C 
HETATM   11  C18 UNL     1      34.680  27.713  27.107  1.00  0.00     0.228 C 
BRANCH  10  12
HETATM   12  O2  UNL     1      33.590  25.780  26.118  1.00  0.00    -0.327 OA
BRANCH  12  13
HETATM   13  C3  UNL     1      32.478  24.989  26.499  1.00  0.00     0.294 C 
HETATM   14  O1  UNL     1      32.125  25.400  27.735  1.00  0.00    -0.346 OA
HETATM   15  C2  UNL     1      32.371  24.600  28.807  1.00  0.00     0.191 C 
HETATM   16  C21 UNL     1      33.754  23.987  28.605  1.00  0.00     0.154 C 
HETATM   17  C20 UNL     1      33.558  22.960  27.507  1.00  0.00     0.072 C 
HETATM   18  C19 UNL     1      32.878  23.564  26.307  1.00  0.00     0.240 C 
BRANCH  15  19
HETATM   19  C1  UNL     1      32.376  25.463  30.031  1.00  0.00     0.087 C 
HETATM   20  N1  UNL     1      33.427  26.044  30.470  1.00  0.00    -0.409 N 
ATOM     21  H12 UNL     1      34.294  25.903  29.951  1.00  0.00     0.155 HD
ATOM     22  H11 UNL     1      33.430  26.631  31.304  1.00  0.00     0.155 HD
ENDBRANCH  15  19
BRANCH  16  23
HETATM   23  O11 UNL     1      34.229  23.346  29.725  1.00  0.00    -0.393 OA
ATOM     24  H11 UNL     1      34.955  23.802  30.135  1.00  0.00     0.210 HD
ENDBRANCH  16  23
BRANCH  18  25
HETATM   25  N5  UNL     1      33.750  23.407  25.164  1.00  0.00    -0.070 N 
ATOM     26  H53 UNL     1      33.328  22.810  24.453  1.00  0.00     0.274 HD
ATOM     27  H52 UNL     1      33.817  24.270  24.624  1.00  0.00     0.274 HD
ATOM     28  H51 UNL     1      34.671  23.066  25.440  1.00  0.00     0.274 HD
ENDBRANCH  18  25
ENDBRANCH  12  13
ENDBRANCH  10  12
BRANCH  11  29
HETATM   29  O10 UNL     1      34.636  27.904  28.463  1.00  0.00    -0.386 OA
ATOM     30  H10 UNL     1      34.286  27.181  28.969  1.00  0.00     0.210 HD
ENDBRANCH  11  29
ENDBRANCH   7   8
ENDBRANCH   1   7
BRANCH   2  31
HETATM   31  O5  UNL     1      33.906  32.457  27.293  1.00  0.00    -0.391 OA
ATOM     32  H5  UNL     1      33.989  32.288  28.224  1.00  0.00     0.210 HD
ENDBRANCH   2  31
BRANCH   6  33
HETATM   33  O6  UNL     1      31.238  31.613  24.582  1.00  0.00    -0.378 OA
BRANCH  33  34
HETATM   34  C12 UNL     1      31.070  31.673  23.255  1.00  0.00     0.204 C 
BRANCH  34  35
HETATM   35  C13 UNL     1      29.669  31.634  22.704  1.00  0.00     0.202 C 
HETATM   36  O7  UNL     1      28.842  30.953  23.526  1.00  0.00    -0.370 OA
HETATM   37  C14 UNL     1      27.509  31.189  23.420  1.00  0.00     0.171 C 
HETATM   38  C16 UNL     1      27.106  32.061  22.272  1.00  0.00     0.269 C 
HETATM   39  N4  UNL     1      27.894  33.271  22.181  1.00  0.00    -0.044 N 
HETATM   40  C17 UNL     1      29.270  33.081  22.481  1.00  0.00     0.350 C 
ATOM     41  H42 UNL     1      27.781  33.705  21.265  1.00  0.00     0.280 HD
ATOM     42  H41 UNL     1      27.496  34.005  22.768  1.00  0.00     0.280 HD
BRANCH  37  43
HETATM   43  C15 UNL     1      26.666  29.929  23.366  1.00  0.00     0.197 C 
BRANCH  43  44
HETATM   44  O8  UNL     1      26.614  29.298  24.625  1.00  0.00    -0.398 OA
ATOM     45  H8  UNL     1      27.486  29.159  24.974  1.00  0.00     0.209 HD
ENDBRANCH  43  44
ENDBRANCH  37  43
BRANCH  40  46
HETATM   46  O9  UNL     1      29.628  33.869  23.559  1.00  0.00    -0.368 OA
ATOM     47  H9  UNL     1      28.948  33.870  24.223  1.00  0.00     0.212 HD
ENDBRANCH  40  46
ENDBRANCH  34  35
ENDBRANCH  33  34
ENDBRANCH   6  33
BRANCH   3  48
HETATM   48  N2  UNL     1      31.714  32.913  28.693  1.00  0.00    -0.072 N 
ATOM     49  H23 UNL     1      32.083  32.757  29.631  1.00  0.00     0.274 HD
ATOM     50  H22 UNL     1      32.386  33.621  28.397  1.00  0.00     0.274 HD
ATOM     51  H21 UNL     1      30.754  33.259  28.699  1.00  0.00     0.274 HD
ENDBRANCH   3  48
BRANCH   5  52
HETATM   52  N3  UNL     1      29.401  29.553  26.001  1.00  0.00    -0.072 N 
ATOM     53  H33 UNL     1      28.773  30.234  25.574  1.00  0.00     0.274 HD
ATOM     54  H32 UNL     1      29.552  28.939  25.200  1.00  0.00     0.274 HD
ATOM     55  H31 UNL     1      28.934  29.052  26.757  1.00  0.00     0.274 HD
ENDBRANCH   5  52
TORSDOF 17
ENDMDL
MODEL 4
REMARK VINA RESULT: -6.679500135      1.323      1.870
REMARK  17 active torsions:
REMARK  status: ('A' for Active; 'I' for Inactive)
REMARK    1  A    between atoms: C1_4  and  C2_5 
REMARK    2  A    between atoms: C3_7  and  O2_8 
REMARK    3  A    between atoms: O2_8  and  C4_9 
REMARK    4  A    between atoms: C5_11  and  O4_12 
REMARK    5  A    between atoms: O4_12  and  C6_13 
REMARK    6  A    between atoms: C7_14  and  O5_15 
REMARK    7  A    between atoms: C8_17  and  N2_18 
REMARK    8  A    between atoms: C10_23  and  N3_24 
REMARK    9  A    between atoms: C11_28  and  O6_29 
REMARK   10  A    between atoms: O6_29  and  C12_30 
REMARK   11  A    between atoms: C12_30  and  C13_31 
REMARK   12  A    between atoms: C14_33  and  C15_34 
REMARK   13  A    between atoms: C15_34  and  O8_35 
REMARK   14  A    between atoms: C17_41  and  O9_42 
REMARK   15  A    between atoms: C18_44  and  O10_45 
REMARK   16  A    between atoms: C19_47  and  N5_48 
REMARK   17  A    between atoms: C21_53  and  O11_54 
ROOT
HETATM    1  C6  UNL     1      33.699  31.137  26.677  1.00  0.00     0.186 C 
HETATM    2  C7  UNL     1      33.503  32.088  27.833  1.00  0.00     0.180 C 
HETATM    3  C8  UNL     1      32.099  31.944  28.409  1.00  0.00     0.216 C 
HETATM    4  C9  UNL     1      31.127  32.344  27.307  1.00  0.00     0.071 C 
HETATM    5  C10 UNL     1      31.360  31.391  26.156  1.00  0.00     0.217 C 
HETATM    6  C11 UNL     1      32.745  31.616  25.563  1.00  0.00     0.183 C 
ENDROOT
BRANCH   1   7
HETATM    7  O4  UNL     1      33.373  29.856  27.113  1.00  0.00    -0.348 OA
BRANCH   7   8
HETATM    8  C5  UNL     1      34.115  28.875  26.500  1.00  0.00     0.297 C 
HETATM    9  O3  UNL     1      33.300  28.081  25.696  1.00  0.00    -0.326 OA
HETATM   10  C4  UNL     1      33.046  27.291  26.809  1.00  0.00     0.299 C 
HETATM   11  C18 UNL     1      34.433  27.644  27.313  1.00  0.00     0.228 C 
BRANCH  10  12
HETATM   12  O2  UNL     1      32.922  25.959  26.428  1.00  0.00    -0.327 OA
BRANCH  12  13
HETATM   13  C3  UNL     1      31.752  25.361  26.956  1.00  0.00     0.294 C 
HETATM   14  O1  UNL     1      31.640  25.801  28.227  1.00  0.00    -0.346 OA
HETATM   15  C2  UNL     1      31.885  24.951  29.259  1.00  0.00     0.191 C 
HETATM   16  C21 UNL     1      33.105  24.117  28.877  1.00  0.00     0.154 C 
HETATM   17  C20 UNL     1      32.594  23.160  27.819  1.00  0.00     0.072 C 
HETATM   18  C19 UNL     1      31.875  23.892  26.717  1.00  0.00     0.240 C 
BRANCH  15  19
HETATM   19  C1  UNL     1      32.198  25.777  30.469  1.00  0.00     0.087 C 
HETATM   20  N1  UNL     1      33.391  26.064  30.827  1.00  0.00    -0.409 N 
ATOM     21  H12 UNL     1      34.154  25.706  30.251  1.00  0.00     0.155 HD
ATOM     22  H11 UNL     1      33.604  26.626  31.651  1.00  0.00     0.155 HD
ENDBRANCH  15  19
BRANCH  16  23
HETATM   23  O11 UNL     1      33.606  23.384  29.926  1.00  0.00    -0.393 OA
ATOM     24  H11 UNL     1      34.415  23.739  30.275  1.00  0.00     0.210 HD
ENDBRANCH  16  23
BRANCH  18  25
HETATM   25  N5  UNL     1      32.549  23.612  25.469  1.00  0.00    -0.070 N 
ATOM     26  H53 UNL     1      33.131  24.396  25.176  1.00  0.00     0.274 HD
ATOM     27  H52 UNL     1      33.278  22.909  25.588  1.00  0.00     0.274 HD
ATOM     28  H51 UNL     1      31.887  23.345  24.739  1.00  0.00     0.274 HD
ENDBRANCH  18  25
ENDBRANCH  12  13
ENDBRANCH  10  12
BRANCH  11  29
HETATM   29  O10 UNL     1      34.550  27.814  28.667  1.00  0.00    -0.386 OA
ATOM     30  H10 UNL     1      35.342  28.246  28.962  1.00  0.00     0.210 HD
ENDBRANCH  11  29
ENDBRANCH   7   8
ENDBRANCH   1   7
BRANCH   2  31
HETATM   31  O5  UNL     1      34.395  31.909  28.863  1.00  0.00    -0.391 OA
ATOM     32  H5  UNL     1      35.306  31.968  28.600  1.00  0.00     0.210 HD
ENDBRANCH   2  31
BRANCH   6  33
HETATM   33  O6  UNL     1      33.038  32.912  25.352  1.00  0.00    -0.378 OA
BRANCH  33  34
HETATM   34  C12 UNL     1      33.210  33.435  24.132  1.00  0.00     0.204 C 
BRANCH  34  35
HETATM   35  C13 UNL     1      32.470  32.819  22.973  1.00  0.00     0.202 C 
HETATM   36  O7  UNL     1      31.287  33.436  22.769  1.00  0.00    -0.370 OA
HETATM   37  C14 UNL     1      30.713  33.316  21.544  1.00  0.00     0.171 C 
HETATM   38  C16 UNL     1      31.392  32.360  20.614  1.00  0.00     0.269 C 
HETATM   39  N4  UNL     1      32.823  32.566  20.541  1.00  0.00    -0.044 N 
HETATM   40  C17 UNL     1      33.418  32.887  21.791  1.00  0.00     0.350 C 
ATOM     41  H42 UNL     1      33.281  31.759  20.120  1.00  0.00     0.280 HD
ATOM     42  H41 UNL     1      33.049  33.274  19.842  1.00  0.00     0.280 HD
BRANCH  37  43
HETATM   43  C15 UNL     1      29.241  32.956  21.589  1.00  0.00     0.197 C 
BRANCH  43  44
HETATM   44  O8  UNL     1      28.780  32.863  22.917  1.00  0.00    -0.398 OA
ATOM     45  H8  UNL     1      28.238  32.092  23.038  1.00  0.00     0.209 HD
ENDBRANCH  43  44
ENDBRANCH  37  43
BRANCH  40  46
HETATM   46  O9  UNL     1      34.032  34.124  21.714  1.00  0.00    -0.368 OA
ATOM     47  H9  UNL     1      34.753  34.111  21.096  1.00  0.00     0.212 HD
ENDBRANCH  40  46
ENDBRANCH  34  35
ENDBRANCH  33  34
ENDBRANCH   6  33
BRANCH   3  48
HETATM   48  N2  UNL     1      32.004  32.783  29.562  1.00  0.00    -0.072 N 
ATOM     49  H23 UNL     1      31.185  33.392  29.540  1.00  0.00     0.274 HD
ATOM     50  H22 UNL     1      31.765  32.265  30.408  1.00  0.00     0.274 HD
ATOM     51  H21 UNL     1      32.878  33.301  29.651  1.00  0.00     0.274 HD
ENDBRANCH   3  48
BRANCH   5  52
HETATM   52  N3  UNL     1      30.321  31.421  25.181  1.00  0.00    -0.072 N 
ATOM     53  H33 UNL     1      30.429  32.224  24.561  1.00  0.00     0.274 HD
ATOM     54  H32 UNL     1      30.439  30.669  24.502  1.00  0.00     0.274 HD
ATOM     55  H31 UNL     1      29.385  31.399  25.587  1.00  0.00     0.274 HD
ENDBRANCH   5  52
TORSDOF 17
ENDMDL
MODEL 5
REMARK VINA RESULT: -6.654977795      1.593      2.642
REMARK  17 active torsions:
REMARK  status: ('A' for Active; 'I' for Inactive)
REMARK    1  A    between atoms: C1_4  and  C2_5 
REMARK    2  A    between atoms: C3_7  and  O2_8 
REMARK    3  A    between atoms: O2_8  and  C4_9 
REMARK    4  A    between atoms: C5_11  and  O4_12 
REMARK    5  A    between atoms: O4_12  and  C6_13 
REMARK    6  A    between atoms: C7_14  and  O5_15 
REMARK    7  A    between atoms: C8_17  and  N2_18 
REMARK    8  A    between atoms: C10_23  and  N3_24 
REMARK    9  A    between atoms: C11_28  and  O6_29 
REMARK   10  A    between atoms: O6_29  and  C12_30 
REMARK   11  A    between atoms: C12_30  and  C13_31 
REMARK   12  A    between atoms: C14_33  and  C15_34 
REMARK   13  A    between atoms: C15_34  and  O8_35 
REMARK   14  A    between atoms: C17_41  and  O9_42 
REMARK   15  A    between atoms: C18_44  and  O10_45 
REMARK   16  A    between atoms: C19_47  and  N5_48 
REMARK   17  A    between atoms: C21_53  and  O11_54 
ROOT
HETATM    1  C6  UNL     1      32.707  30.909  25.692  1.00  0.00     0.186 C 
HETATM    2  C7  UNL     1      32.756  31.779  26.925  1.00  0.00     0.180 C 
HETATM    3  C8  UNL     1      31.662  31.372  27.906  1.00  0.00     0.216 C 
HETATM    4  C9  UNL     1      30.330  31.624  27.212  1.00  0.00     0.071 C 
HETATM    5  C10 UNL     1      30.318  30.759  25.971  1.00  0.00     0.217 C 
HETATM    6  C11 UNL     1      31.375  31.242  24.986  1.00  0.00     0.183 C 
ENDROOT
BRANCH   1   7
HETATM    7  O4  UNL     1      32.750  29.580  26.100  1.00  0.00    -0.348 OA
BRANCH   7   8
HETATM    8  C5  UNL     1      33.952  28.972  25.823  1.00  0.00     0.297 C 
HETATM    9  O3  UNL     1      33.742  27.702  25.291  1.00  0.00    -0.326 OA
HETATM   10  C4  UNL     1      33.713  27.211  26.589  1.00  0.00     0.299 C 
HETATM   11  C18 UNL     1      34.674  28.319  26.976  1.00  0.00     0.228 C 
BRANCH  10  12
HETATM   12  O2  UNL     1      34.288  25.945  26.631  1.00  0.00    -0.327 OA
BRANCH  12  13
HETATM   13  C3  UNL     1      33.337  24.937  26.923  1.00  0.00     0.294 C 
HETATM   14  O1  UNL     1      32.344  25.539  27.612  1.00  0.00    -0.346 OA
HETATM   15  C2  UNL     1      32.203  25.296  28.942  1.00  0.00     0.191 C 
HETATM   16  C21 UNL     1      33.604  25.269  29.547  1.00  0.00     0.154 C 
HETATM   17  C20 UNL     1      34.200  23.961  29.068  1.00  0.00     0.072 C 
HETATM   18  C19 UNL     1      34.081  23.818  27.573  1.00  0.00     0.240 C 
BRANCH  15  19
HETATM   19  C1  UNL     1      31.420  26.427  29.534  1.00  0.00     0.087 C 
HETATM   20  N1  UNL     1      30.572  27.112  28.866  1.00  0.00    -0.409 N 
ATOM     21  H12 UNL     1      30.434  26.864  27.886  1.00  0.00     0.155 HD
ATOM     22  H11 UNL     1      30.039  27.882  29.269  1.00  0.00     0.155 HD
ENDBRANCH  15  19
BRANCH  16  23
HETATM   23  O11 UNL     1      33.597  25.270  30.922  1.00  0.00    -0.393 OA
ATOM     24  H11 UNL     1      33.967  26.062  31.295  1.00  0.00     0.210 HD
ENDBRANCH  16  23
BRANCH  18  25
HETATM   25  N5  UNL     1      35.410  23.674  27.023  1.00  0.00    -0.070 N 
ATOM     26  H53 UNL     1      35.430  23.910  26.031  1.00  0.00     0.274 HD
ATOM     27  H52 UNL     1      36.039  24.398  27.369  1.00  0.00     0.274 HD
ATOM     28  H51 UNL     1      35.786  22.741  27.193  1.00  0.00     0.274 HD
ENDBRANCH  18  25
ENDBRANCH  12  13
ENDBRANCH  10  12
BRANCH  11  29
HETATM   29  O10 UNL     1      34.480  28.870  28.216  1.00  0.00    -0.386 OA
ATOM     30  H10 UNL     1      33.589  29.136  28.413  1.00  0.00     0.210 HD
ENDBRANCH  11  29
ENDBRANCH   7   8
ENDBRANCH   1   7
BRANCH   2  31
HETATM   31  O5  UNL     1      33.955  31.732  27.595  1.00  0.00    -0.391 OA
ATOM     32  H5  UNL     1      34.389  30.888  27.552  1.00  0.00     0.210 HD
ENDBRANCH   2  31
BRANCH   6  33
HETATM   33  O6  UNL     1      31.372  32.575  24.802  1.00  0.00    -0.378 OA
BRANCH  33  34
HETATM   34  C12 UNL     1      30.916  33.160  23.688  1.00  0.00     0.204 C 
BRANCH  34  35
HETATM   35  C13 UNL     1      31.525  32.768  22.368  1.00  0.00     0.202 C 
HETATM   36  O7  UNL     1      31.088  33.571  21.374  1.00  0.00    -0.370 OA
HETATM   37  C14 UNL     1      31.840  33.649  20.246  1.00  0.00     0.171 C 
HETATM   38  C16 UNL     1      32.987  32.690  20.178  1.00  0.00     0.269 C 
HETATM   39  N4  UNL     1      33.789  32.686  21.383  1.00  0.00    -0.044 N 
HETATM   40  C17 UNL     1      33.027  32.800  22.577  1.00  0.00     0.350 C 
ATOM     41  H42 UNL     1      34.386  31.860  21.414  1.00  0.00     0.280 HD
ATOM     42  H41 UNL     1      34.504  33.412  21.341  1.00  0.00     0.280 HD
BRANCH  37  43
HETATM   43  C15 UNL     1      31.040  33.510  18.965  1.00  0.00     0.197 C 
BRANCH  43  44
HETATM   44  O8  UNL     1      30.051  34.508  18.872  1.00  0.00    -0.398 OA
ATOM     45  H8  UNL     1      30.425  35.373  18.992  1.00  0.00     0.209 HD
ENDBRANCH  43  44
ENDBRANCH  37  43
BRANCH  40  46
HETATM   46  O9  UNL     1      33.410  33.934  23.270  1.00  0.00    -0.368 OA
ATOM     47  H9  UNL     1      34.026  33.721  23.962  1.00  0.00     0.212 HD
ENDBRANCH  40  46
ENDBRANCH  34  35
ENDBRANCH  33  34
ENDBRANCH   6  33
BRANCH   3  48
HETATM   48  N2  UNL     1      31.822  32.149  29.096  1.00  0.00    -0.072 N 
ATOM     49  H23 UNL     1      31.768  31.586  29.944  1.00  0.00     0.274 HD
ATOM     50  H22 UNL     1      32.775  32.490  29.218  1.00  0.00     0.274 HD
ATOM     51  H21 UNL     1      31.133  32.902  29.078  1.00  0.00     0.274 HD
ENDBRANCH   3  48
BRANCH   5  52
HETATM   52  N3  UNL     1      29.024  30.631  25.387  1.00  0.00    -0.072 N 
ATOM     53  H33 UNL     1      28.503  31.504  25.466  1.00  0.00     0.274 HD
ATOM     54  H32 UNL     1      29.090  30.567  24.371  1.00  0.00     0.274 HD
ATOM     55  H31 UNL     1      28.486  29.851  25.765  1.00  0.00     0.274 HD
ENDBRANCH   5  52
TORSDOF 17
ENDMDL
