MODEL 1
REMARK VINA RESULT: -5.528753290      0.000      0.000
REMARK  10 active torsions:
REMARK  status: ('A' for Active; 'I' for Inactive)
REMARK    1  A    between atoms: N1_1  and  N2_4 
REMARK    2  A    between atoms: C1_6  and  C2_7 
REMARK    3  A    between atoms: C2_7  and  N3_9 
REMARK    4  A    between atoms: N3_9  and  C3_12 
REMARK    5  A    between atoms: C3_12  and  C4_13 
REMARK    6  A    between atoms: C4_13  and  N4_14 
REMARK       I    between atoms: N4_14  and  C5_16 
REMARK    7  A    between atoms: C5_16  and  C6_18 
REMARK    8  A    between atoms: C6_18  and  N5_19 
REMARK    9  A    between atoms: N5_19  and  C7_21 
REMARK   10  A    between atoms: C7_21  and  C8_22 
ROOT
HETATM    1  C3  UNL     1      80.767 188.691 135.288  1.00  0.00     0.254 C 
ENDROOT
BRANCH   1   2
HETATM    2  N3  UNL     1      81.703 188.154 136.275  1.00  0.00    -0.052 N 
ATOM      3  H32 UNL     1      81.647 187.135 136.306  1.00  0.00     0.279 HD
ATOM      4  H31 UNL     1      81.392 188.371 137.221  1.00  0.00     0.279 HD
BRANCH   2   5
HETATM    5  C2  UNL     1      83.045 188.573 136.083  1.00  0.00     0.321 C 
HETATM    6 CL1  UNL     1      83.097 190.260 135.427  1.00  0.00    -0.089 Cl
BRANCH   5   7
HETATM    7  C1  UNL     1      83.890 188.462 137.257  1.00  0.00     0.128 C 
HETATM    8  N2  UNL     1      84.530 189.484 137.697  1.00  0.00    -0.319 N 
ATOM      9  H2  UNL     1      84.443 190.379 137.216  1.00  0.00     0.185 HD
BRANCH   8  10
HETATM   10  N1  UNL     1      85.341 189.382 138.824  1.00  0.00    -0.346 N 
ATOM     11  H12 UNL     1      85.311 188.522 139.373  1.00  0.00     0.176 HD
ATOM     12  H11 UNL     1      85.953 190.151 139.096  1.00  0.00     0.176 HD
ENDBRANCH   8  10
ENDBRANCH   5   7
ENDBRANCH   2   5
ENDBRANCH   1   2
BRANCH   1  13
HETATM   13  C4  UNL     1      80.845 187.797 134.088  1.00  0.00     0.150 C 
BRANCH  13  14
HETATM   14  N4  UNL     1      79.579 187.220 133.681  1.00  0.00    -0.358 N 
HETATM   15  C5  UNL     1      79.257 185.891 134.023  1.00  0.00     0.234 C 
HETATM   16  O1  UNL     1      80.096 185.195 134.694  1.00  0.00    -0.272 OA
ATOM     17  H4  UNL     1      78.916 187.779 133.144  1.00  0.00     0.162 HD
BRANCH  15  18
HETATM   18  C6  UNL     1      77.964 185.236 133.642  1.00  0.00     0.217 C 
BRANCH  18  19
HETATM   19  N5  UNL     1      78.158 184.282 132.586  1.00  0.00    -0.408 N 
ATOM     20  H5  UNL     1      78.355 183.298 132.768  1.00  0.00     0.153 HD
BRANCH  19  21
HETATM   21  C7  UNL     1      78.056 184.810 131.256  1.00  0.00     0.185 C 
BRANCH  21  22
HETATM   22  C8  UNL     1      79.431 184.592 130.584  1.00  0.00     0.370 C 
HETATM   23  F1  UNL     1      80.371 184.312 131.590  1.00  0.00    -0.213 F 
HETATM   24  F2  UNL     1      79.435 183.441 129.807  1.00  0.00    -0.213 F 
ENDBRANCH  21  22
ENDBRANCH  19  21
ENDBRANCH  18  19
ENDBRANCH  15  18
ENDBRANCH  13  14
ENDBRANCH   1  13
TORSDOF 10
ENDMDL
MODEL 2
REMARK VINA RESULT: -5.314956910      1.638      1.806
REMARK  10 active torsions:
REMARK  status: ('A' for Active; 'I' for Inactive)
REMARK    1  A    between atoms: N1_1  and  N2_4 
REMARK    2  A    between atoms: C1_6  and  C2_7 
REMARK    3  A    between atoms: C2_7  and  N3_9 
REMARK    4  A    between atoms: N3_9  and  C3_12 
REMARK    5  A    between atoms: C3_12  and  C4_13 
REMARK    6  A    between atoms: C4_13  and  N4_14 
REMARK       I    between atoms: N4_14  and  C5_16 
REMARK    7  A    between atoms: C5_16  and  C6_18 
REMARK    8  A    between atoms: C6_18  and  N5_19 
REMARK    9  A    between atoms: N5_19  and  C7_21 
REMARK   10  A    between atoms: C7_21  and  C8_22 
ROOT
HETATM    1  C3  UNL     1      81.017 188.561 135.525  1.00  0.00     0.254 C 
ENDROOT
BRANCH   1   2
HETATM    2  N3  UNL     1      81.990 188.080 136.506  1.00  0.00    -0.052 N 
ATOM      3  H32 UNL     1      81.979 187.061 136.553  1.00  0.00     0.279 HD
ATOM      4  H31 UNL     1      81.682 188.298 137.453  1.00  0.00     0.279 HD
BRANCH   2   5
HETATM    5  C2  UNL     1      83.308 188.555 136.288  1.00  0.00     0.321 C 
HETATM    6 CL1  UNL     1      83.277 190.229 135.600  1.00  0.00    -0.089 Cl
BRANCH   5   7
HETATM    7  C1  UNL     1      84.172 188.505 137.453  1.00  0.00     0.128 C 
HETATM    8  N2  UNL     1      84.713 189.576 137.908  1.00  0.00    -0.319 N 
ATOM      9  H2  UNL     1      84.534 190.468 137.446  1.00  0.00     0.185 HD
BRANCH   8  10
HETATM   10  N1  UNL     1      85.542 189.533 139.027  1.00  0.00    -0.346 N 
ATOM     11  H12 UNL     1      86.323 188.877 139.032  1.00  0.00     0.176 HD
ATOM     12  H11 UNL     1      85.371 190.145 139.825  1.00  0.00     0.176 HD
ENDBRANCH   8  10
ENDBRANCH   5   7
ENDBRANCH   2   5
ENDBRANCH   1   2
BRANCH   1  13
HETATM   13  C4  UNL     1      81.121 187.655 134.336  1.00  0.00     0.150 C 
BRANCH  13  14
HETATM   14  N4  UNL     1      79.852 187.319 133.719  1.00  0.00    -0.358 N 
HETATM   15  C5  UNL     1      79.399 188.024 132.586  1.00  0.00     0.234 C 
HETATM   16  O1  UNL     1      80.119 188.970 132.107  1.00  0.00    -0.272 OA
ATOM     17  H4  UNL     1      79.283 186.567 134.108  1.00  0.00     0.162 HD
BRANCH  15  18
HETATM   18  C6  UNL     1      78.104 187.724 131.896  1.00  0.00     0.217 C 
BRANCH  18  19
HETATM   19  N5  UNL     1      78.003 186.328 131.570  1.00  0.00    -0.408 N 
ATOM     20  H5  UNL     1      77.317 185.714 132.008  1.00  0.00     0.153 HD
BRANCH  19  21
HETATM   21  C7  UNL     1      78.935 185.859 130.585  1.00  0.00     0.185 C 
BRANCH  21  22
HETATM   22  C8  UNL     1      79.345 184.429 131.005  1.00  0.00     0.370 C 
HETATM   23  F1  UNL     1      79.876 183.778 129.879  1.00  0.00    -0.213 F 
HETATM   24  F2  UNL     1      80.410 184.454 131.897  1.00  0.00    -0.213 F 
ENDBRANCH  21  22
ENDBRANCH  19  21
ENDBRANCH  18  19
ENDBRANCH  15  18
ENDBRANCH  13  14
ENDBRANCH   1  13
TORSDOF 10
ENDMDL
MODEL 3
REMARK VINA RESULT: -5.253273665      1.577      1.599
REMARK  10 active torsions:
REMARK  status: ('A' for Active; 'I' for Inactive)
REMARK    1  A    between atoms: N1_1  and  N2_4 
REMARK    2  A    between atoms: C1_6  and  C2_7 
REMARK    3  A    between atoms: C2_7  and  N3_9 
REMARK    4  A    between atoms: N3_9  and  C3_12 
REMARK    5  A    between atoms: C3_12  and  C4_13 
REMARK    6  A    between atoms: C4_13  and  N4_14 
REMARK       I    between atoms: N4_14  and  C5_16 
REMARK    7  A    between atoms: C5_16  and  C6_18 
REMARK    8  A    between atoms: C6_18  and  N5_19 
REMARK    9  A    between atoms: N5_19  and  C7_21 
REMARK   10  A    between atoms: C7_21  and  C8_22 
ROOT
HETATM    1  C3  UNL     1      81.024 188.569 135.608  1.00  0.00     0.254 C 
ENDROOT
BRANCH   1   2
HETATM    2  N3  UNL     1      81.995 188.128 136.609  1.00  0.00    -0.052 N 
ATOM      3  H32 UNL     1      81.957 187.115 136.725  1.00  0.00     0.279 HD
ATOM      4  H31 UNL     1      81.704 188.419 137.543  1.00  0.00     0.279 HD
BRANCH   2   5
HETATM    5  C2  UNL     1      83.323 188.551 136.346  1.00  0.00     0.321 C 
HETATM    6 CL1  UNL     1      83.331 190.204 135.609  1.00  0.00    -0.089 Cl
BRANCH   5   7
HETATM    7  C1  UNL     1      84.213 188.504 137.491  1.00  0.00     0.128 C 
HETATM    8  N2  UNL     1      84.708 189.585 137.974  1.00  0.00    -0.319 N 
ATOM      9  H2  UNL     1      84.473 190.482 137.549  1.00  0.00     0.185 HD
BRANCH   8  10
HETATM   10  N1  UNL     1      85.562 189.545 139.074  1.00  0.00    -0.346 N 
ATOM     11  H12 UNL     1      85.535 190.315 139.743  1.00  0.00     0.176 HD
ATOM     12  H11 UNL     1      86.202 188.762 139.207  1.00  0.00     0.176 HD
ENDBRANCH   8  10
ENDBRANCH   5   7
ENDBRANCH   2   5
ENDBRANCH   1   2
BRANCH   1  13
HETATM   13  C4  UNL     1      81.115 187.602 134.466  1.00  0.00     0.150 C 
BRANCH  13  14
HETATM   14  N4  UNL     1      79.846 187.291 133.836  1.00  0.00    -0.358 N 
HETATM   15  C5  UNL     1      79.552 185.972 133.436  1.00  0.00     0.234 C 
HETATM   16  O1  UNL     1      80.419 185.049 133.630  1.00  0.00    -0.272 OA
ATOM     17  H4  UNL     1      79.161 188.031 133.682  1.00  0.00     0.162 HD
BRANCH  15  18
HETATM   18  C6  UNL     1      78.259 185.579 132.789  1.00  0.00     0.217 C 
BRANCH  18  19
HETATM   19  N5  UNL     1      78.126 186.183 131.491  1.00  0.00    -0.408 N 
ATOM     20  H5  UNL     1      77.425 186.896 131.291  1.00  0.00     0.153 HD
BRANCH  19  21
HETATM   21  C7  UNL     1      79.047 185.711 130.498  1.00  0.00     0.185 C 
BRANCH  21  22
HETATM   22  C8  UNL     1      79.580 186.959 129.757  1.00  0.00     0.370 C 
HETATM   23  F1  UNL     1      80.077 187.859 130.716  1.00  0.00    -0.213 F 
HETATM   24  F2  UNL     1      80.697 186.650 128.992  1.00  0.00    -0.213 F 
ENDBRANCH  21  22
ENDBRANCH  19  21
ENDBRANCH  18  19
ENDBRANCH  15  18
ENDBRANCH  13  14
ENDBRANCH   1  13
TORSDOF 10
ENDMDL
MODEL 4
REMARK VINA RESULT: -5.244003334      4.778      8.227
REMARK  10 active torsions:
REMARK  status: ('A' for Active; 'I' for Inactive)
REMARK    1  A    between atoms: N1_1  and  N2_4 
REMARK    2  A    between atoms: C1_6  and  C2_7 
REMARK    3  A    between atoms: C2_7  and  N3_9 
REMARK    4  A    between atoms: N3_9  and  C3_12 
REMARK    5  A    between atoms: C3_12  and  C4_13 
REMARK    6  A    between atoms: C4_13  and  N4_14 
REMARK       I    between atoms: N4_14  and  C5_16 
REMARK    7  A    between atoms: C5_16  and  C6_18 
REMARK    8  A    between atoms: C6_18  and  N5_19 
REMARK    9  A    between atoms: N5_19  and  C7_21 
REMARK   10  A    between atoms: C7_21  and  C8_22 
ROOT
HETATM    1  C3  UNL     1      80.591 187.486 133.992  1.00  0.00     0.254 C 
ENDROOT
BRANCH   1   2
HETATM    2  N3  UNL     1      79.173 187.149 134.116  1.00  0.00    -0.052 N 
ATOM      3  H32 UNL     1      78.595 187.984 134.018  1.00  0.00     0.279 HD
ATOM      4  H31 UNL     1      78.947 186.896 135.077  1.00  0.00     0.279 HD
BRANCH   2   5
HETATM    5  C2  UNL     1      78.742 186.137 133.219  1.00  0.00     0.321 C 
HETATM    6 CL1  UNL     1      80.062 184.930 132.941  1.00  0.00    -0.089 Cl
BRANCH   5   7
HETATM    7  C1  UNL     1      77.517 185.464 133.606  1.00  0.00     0.128 C 
HETATM    8  N2  UNL     1      77.555 184.297 134.138  1.00  0.00    -0.319 N 
ATOM      9  H2  UNL     1      78.455 183.840 134.289  1.00  0.00     0.185 HD
BRANCH   8  10
HETATM   10  N1  UNL     1      76.381 183.648 134.512  1.00  0.00    -0.346 N 
ATOM     11  H12 UNL     1      75.491 184.007 134.166  1.00  0.00     0.176 HD
ATOM     12  H11 UNL     1      76.410 182.829 135.120  1.00  0.00     0.176 HD
ENDBRANCH   8  10
ENDBRANCH   5   7
ENDBRANCH   2   5
ENDBRANCH   1   2
BRANCH   1  13
HETATM   13  C4  UNL     1      80.769 188.834 134.622  1.00  0.00     0.150 C 
BRANCH  13  14
HETATM   14  N4  UNL     1      82.134 189.149 135.000  1.00  0.00    -0.358 N 
HETATM   15  C5  UNL     1      82.654 188.705 136.232  1.00  0.00     0.234 C 
HETATM   16  O1  UNL     1      81.908 188.023 137.019  1.00  0.00    -0.272 OA
ATOM     17  H4  UNL     1      82.721 189.695 134.369  1.00  0.00     0.162 HD
BRANCH  15  18
HETATM   18  C6  UNL     1      84.056 188.987 136.680  1.00  0.00     0.217 C 
BRANCH  18  19
HETATM   19  N5  UNL     1      84.215 188.715 138.082  1.00  0.00    -0.408 N 
ATOM     20  H5  UNL     1      83.506 188.968 138.770  1.00  0.00     0.153 HD
BRANCH  19  21
HETATM   21  C7  UNL     1      85.440 188.065 138.446  1.00  0.00     0.185 C 
BRANCH  21  22
HETATM   22  C8  UNL     1      86.312 189.124 139.160  1.00  0.00     0.370 C 
HETATM   23  F1  UNL     1      85.488 190.209 139.503  1.00  0.00    -0.213 F 
HETATM   24  F2  UNL     1      86.763 188.658 140.388  1.00  0.00    -0.213 F 
ENDBRANCH  21  22
ENDBRANCH  19  21
ENDBRANCH  18  19
ENDBRANCH  15  18
ENDBRANCH  13  14
ENDBRANCH   1  13
TORSDOF 10
ENDMDL
MODEL 5
REMARK VINA RESULT: -5.241308982      1.780      2.121
REMARK  10 active torsions:
REMARK  status: ('A' for Active; 'I' for Inactive)
REMARK    1  A    between atoms: N1_1  and  N2_4 
REMARK    2  A    between atoms: C1_6  and  C2_7 
REMARK    3  A    between atoms: C2_7  and  N3_9 
REMARK    4  A    between atoms: N3_9  and  C3_12 
REMARK    5  A    between atoms: C3_12  and  C4_13 
REMARK    6  A    between atoms: C4_13  and  N4_14 
REMARK       I    between atoms: N4_14  and  C5_16 
REMARK    7  A    between atoms: C5_16  and  C6_18 
REMARK    8  A    between atoms: C6_18  and  N5_19 
REMARK    9  A    between atoms: N5_19  and  C7_21 
REMARK   10  A    between atoms: C7_21  and  C8_22 
ROOT
HETATM    1  C3  UNL     1      81.056 187.605 135.039  1.00  0.00     0.254 C 
ENDROOT
BRANCH   1   2
HETATM    2  N3  UNL     1      81.619 188.258 136.220  1.00  0.00    -0.052 N 
ATOM      3  H32 UNL     1      81.495 187.672 137.047  1.00  0.00     0.279 HD
ATOM      4  H31 UNL     1      81.050 189.059 136.492  1.00  0.00     0.279 HD
BRANCH   2   5
HETATM    5  C2  UNL     1      82.978 188.636 136.075  1.00  0.00     0.321 C 
HETATM    6 CL1  UNL     1      83.104 190.307 135.389  1.00  0.00    -0.089 Cl
BRANCH   5   7
HETATM    7  C1  UNL     1      83.771 188.527 137.285  1.00  0.00     0.128 C 
HETATM    8  N2  UNL     1      84.540 189.489 137.648  1.00  0.00    -0.319 N 
ATOM      9  H2  UNL     1      84.593 190.334 137.080  1.00  0.00     0.185 HD
BRANCH   8  10
HETATM   10  N1  UNL     1      85.303 189.388 138.809  1.00  0.00    -0.346 N 
ATOM     11  H12 UNL     1      85.018 188.720 139.525  1.00  0.00     0.176 HD
ATOM     12  H11 UNL     1      86.129 189.972 138.941  1.00  0.00     0.176 HD
ENDBRANCH   8  10
ENDBRANCH   5   7
ENDBRANCH   2   5
ENDBRANCH   1   2
BRANCH   1  13
HETATM   13  C4  UNL     1      80.196 188.623 134.352  1.00  0.00     0.150 C 
BRANCH  13  14
HETATM   14  N4  UNL     1      80.371 188.690 132.914  1.00  0.00    -0.358 N 
HETATM   15  C5  UNL     1      79.499 187.991 132.055  1.00  0.00     0.234 C 
HETATM   16  O1  UNL     1      78.552 187.290 132.558  1.00  0.00    -0.272 OA
ATOM     17  H4  UNL     1      81.129 189.248 132.521  1.00  0.00     0.162 HD
BRANCH  15  18
HETATM   18  C6  UNL     1      79.618 188.024 130.562  1.00  0.00     0.217 C 
BRANCH  18  19
HETATM   19  N5  UNL     1      78.937 186.908 129.965  1.00  0.00    -0.408 N 
ATOM     20  H5  UNL     1      77.924 186.886 129.849  1.00  0.00     0.153 HD
BRANCH  19  21
HETATM   21  C7  UNL     1      79.781 185.829 129.543  1.00  0.00     0.185 C 
BRANCH  21  22
HETATM   22  C8  UNL     1      79.401 184.602 130.404  1.00  0.00     0.370 C 
HETATM   23  F1  UNL     1      79.777 183.443 129.704  1.00  0.00    -0.213 F 
HETATM   24  F2  UNL     1      80.166 184.545 131.562  1.00  0.00    -0.213 F 
ENDBRANCH  21  22
ENDBRANCH  19  21
ENDBRANCH  18  19
ENDBRANCH  15  18
ENDBRANCH  13  14
ENDBRANCH   1  13
TORSDOF 10
ENDMDL
