MODEL 1
REMARK VINA RESULT: -6.370858403      0.000      0.000
REMARK  4 active torsions:
REMARK  status: ('A' for Active; 'I' for Inactive)
REMARK    1  A    between atoms: O1_2  and  C2_3 
REMARK       I    between atoms: C2_3  and  N1_5 
REMARK    2  A    between atoms: N1_5  and  N2_7 
REMARK    3  A    between atoms: C3_9  and  C4_10 
REMARK    4  A    between atoms: C7_14  and  O3_15 
ROOT
HETATM    1  C4  UNL     1      25.540  40.670   3.303  1.00  0.00    -0.000 A 
HETATM    2  C5  UNL     1      24.484  40.166   4.031  1.00  0.00     0.036 A 
HETATM    3  C6  UNL     1      23.287  40.878   4.092  1.00  0.00     0.045 A 
HETATM    4 BR1  UNL     1      21.827  40.194   5.091  1.00  0.00    -0.048 Br
HETATM    5  C7  UNL     1      23.129  42.082   3.439  1.00  0.00     0.084 A 
HETATM    6  C8  UNL     1      24.188  42.583   2.712  1.00  0.00     0.057 A 
HETATM    7  C9  UNL     1      25.389  41.873   2.648  1.00  0.00     0.025 A 
HETATM    8 BR2  UNL     1      26.874  42.536   1.651  1.00  0.00    -0.050 Br
ENDROOT
BRANCH   1   9
HETATM    9  C3  UNL     1      26.814  39.946   3.218  1.00  0.00     0.120 C 
HETATM   10  N2  UNL     1      26.901  38.956   2.402  1.00  0.00    -0.307 N 
ATOM     11  H2  UNL     1      26.102  38.682   1.829  1.00  0.00     0.186 HD
BRANCH  10  12
HETATM   12  N1  UNL     1      28.104  38.269   2.317  1.00  0.00    -0.246 N 
HETATM   13  C2  UNL     1      28.981  38.533   1.242  1.00  0.00     0.379 C 
HETATM   14  O2  UNL     1      28.684  39.381   0.362  1.00  0.00    -0.237 OA
ATOM     15  H1  UNL     1      28.353  37.579   3.026  1.00  0.00     0.192 HD
BRANCH  13  16
HETATM   16  O1  UNL     1      30.194  37.863   1.128  1.00  0.00    -0.308 OA
HETATM   17  C1  UNL     1      31.239  38.264   0.288  1.00  0.00     0.215 C 
ENDBRANCH  13  16
ENDBRANCH  10  12
ENDBRANCH   1   9
BRANCH   5  18
HETATM   18  O3  UNL     1      21.942  42.803   3.491  1.00  0.00    -0.359 OA
ATOM     19  H3  UNL     1      21.812  43.523   4.097  1.00  0.00     0.217 HD
ENDBRANCH   5  18
TORSDOF 4
ENDMDL
MODEL 2
REMARK VINA RESULT: -6.134328752      3.756      7.748
REMARK  4 active torsions:
REMARK  status: ('A' for Active; 'I' for Inactive)
REMARK    1  A    between atoms: O1_2  and  C2_3 
REMARK       I    between atoms: C2_3  and  N1_5 
REMARK    2  A    between atoms: N1_5  and  N2_7 
REMARK    3  A    between atoms: C3_9  and  C4_10 
REMARK    4  A    between atoms: C7_14  and  O3_15 
ROOT
HETATM    1  C4  UNL     1      23.174  41.893   2.858  1.00  0.00    -0.000 A 
HETATM    2  C5  UNL     1      24.264  42.259   2.099  1.00  0.00     0.036 A 
HETATM    3  C6  UNL     1      25.508  41.685   2.357  1.00  0.00     0.045 A 
HETATM    4 BR1  UNL     1      27.016  42.182   1.318  1.00  0.00    -0.048 Br
HETATM    5  C7  UNL     1      25.681  40.755   3.359  1.00  0.00     0.084 A 
HETATM    6  C8  UNL     1      24.587  40.391   4.118  1.00  0.00     0.057 A 
HETATM    7  C9  UNL     1      23.339  40.963   3.862  1.00  0.00     0.025 A 
HETATM    8 BR2  UNL     1      21.806  40.483   4.891  1.00  0.00    -0.050 Br
ENDROOT
BRANCH   1   9
HETATM    9  C3  UNL     1      21.850  42.476   2.613  1.00  0.00     0.120 C 
HETATM   10  N2  UNL     1      21.139  41.996   1.656  1.00  0.00    -0.307 N 
ATOM     11  H2  UNL     1      21.488  41.228   1.082  1.00  0.00     0.186 HD
BRANCH  10  12
HETATM   12  N1  UNL     1      19.886  42.545   1.420  1.00  0.00    -0.246 N 
HETATM   13  C2  UNL     1      18.760  42.022   2.095  1.00  0.00     0.379 C 
HETATM   14  O2  UNL     1      18.881  41.068   2.905  1.00  0.00    -0.237 OA
ATOM     15  H1  UNL     1      19.778  43.319   0.765  1.00  0.00     0.192 HD
BRANCH  13  16
HETATM   16  O1  UNL     1      17.491  42.549   1.883  1.00  0.00    -0.308 OA
HETATM   17  C1  UNL     1      17.229  43.906   1.661  1.00  0.00     0.215 C 
ENDBRANCH  13  16
ENDBRANCH  10  12
ENDBRANCH   1   9
BRANCH   5  18
HETATM   18  O3  UNL     1      26.914  40.175   3.629  1.00  0.00    -0.359 OA
ATOM     19  H3  UNL     1      26.997  39.282   3.944  1.00  0.00     0.217 HD
ENDBRANCH   5  18
TORSDOF 4
ENDMDL
MODEL 3
REMARK VINA RESULT: -5.987334100      3.977      7.432
REMARK  4 active torsions:
REMARK  status: ('A' for Active; 'I' for Inactive)
REMARK    1  A    between atoms: O1_2  and  C2_3 
REMARK       I    between atoms: C2_3  and  N1_5 
REMARK    2  A    between atoms: N1_5  and  N2_7 
REMARK    3  A    between atoms: C3_9  and  C4_10 
REMARK    4  A    between atoms: C7_14  and  O3_15 
ROOT
HETATM    1  C4  UNL     1      23.134  41.491   3.628  1.00  0.00    -0.000 A 
HETATM    2  C5  UNL     1      24.356  40.956   3.971  1.00  0.00     0.036 A 
HETATM    3  C6  UNL     1      25.445  41.119   3.116  1.00  0.00     0.045 A 
HETATM    4 BR1  UNL     1      27.132  40.385   3.579  1.00  0.00    -0.048 Br
HETATM    5  C7  UNL     1      25.333  41.806   1.927  1.00  0.00     0.084 A 
HETATM    6  C8  UNL     1      24.107  42.341   1.585  1.00  0.00     0.057 A 
HETATM    7  C9  UNL     1      23.014  42.180   2.440  1.00  0.00     0.025 A 
HETATM    8 BR2  UNL     1      21.306  42.906   2.000  1.00  0.00    -0.050 Br
ENDROOT
BRANCH   1   9
HETATM    9  C3  UNL     1      21.967  41.339   4.504  1.00  0.00     0.120 C 
HETATM   10  N2  UNL     1      21.392  40.190   4.563  1.00  0.00    -0.307 N 
ATOM     11  H2  UNL     1      21.741  39.405   4.012  1.00  0.00     0.186 HD
BRANCH  10  12
HETATM   12  N1  UNL     1      20.288  40.042   5.390  1.00  0.00    -0.246 N 
HETATM   13  C2  UNL     1      18.999  40.324   4.886  1.00  0.00     0.379 C 
HETATM   14  O2  UNL     1      18.842  40.706   3.699  1.00  0.00    -0.237 OA
ATOM     15  H1  UNL     1      20.406  39.732   6.355  1.00  0.00     0.192 HD
BRANCH  13  16
HETATM   16  O1  UNL     1      17.872  40.185   5.688  1.00  0.00    -0.308 OA
HETATM   17  C1  UNL     1      17.907  40.068   7.082  1.00  0.00     0.215 C 
ENDBRANCH  13  16
ENDBRANCH  10  12
ENDBRANCH   1   9
BRANCH   5  18
HETATM   18  O3  UNL     1      26.408  41.976   1.064  1.00  0.00    -0.359 OA
ATOM     19  H3  UNL     1      26.350  41.783   0.135  1.00  0.00     0.217 HD
ENDBRANCH   5  18
TORSDOF 4
ENDMDL
MODEL 4
REMARK VINA RESULT: -5.964081593      2.689      6.581
REMARK  4 active torsions:
REMARK  status: ('A' for Active; 'I' for Inactive)
REMARK    1  A    between atoms: O1_2  and  C2_3 
REMARK       I    between atoms: C2_3  and  N1_5 
REMARK    2  A    between atoms: N1_5  and  N2_7 
REMARK    3  A    between atoms: C3_9  and  C4_10 
REMARK    4  A    between atoms: C7_14  and  O3_15 
ROOT
HETATM    1  C4  UNL     1      26.099  40.531   2.938  1.00  0.00    -0.000 A 
HETATM    2  C5  UNL     1      26.735  39.375   2.544  1.00  0.00     0.036 A 
HETATM    3  C6  UNL     1      27.755  39.438   1.595  1.00  0.00     0.045 A 
HETATM    4 BR1  UNL     1      28.638  37.851   1.045  1.00  0.00    -0.048 Br
HETATM    5  C7  UNL     1      28.146  40.634   1.034  1.00  0.00     0.084 A 
HETATM    6  C8  UNL     1      27.506  41.790   1.430  1.00  0.00     0.057 A 
HETATM    7  C9  UNL     1      26.485  41.731   2.382  1.00  0.00     0.025 A 
HETATM    8 BR2  UNL     1      25.579  43.310   2.953  1.00  0.00    -0.050 Br
ENDROOT
BRANCH   1   9
HETATM    9  C3  UNL     1      25.022  40.501   3.935  1.00  0.00     0.120 C 
HETATM   10  N2  UNL     1      23.805  40.528   3.521  1.00  0.00    -0.307 N 
ATOM     11  H2  UNL     1      23.595  40.569   2.523  1.00  0.00     0.186 HD
BRANCH  10  12
HETATM   12  N1  UNL     1      22.784  40.500   4.460  1.00  0.00    -0.246 N 
HETATM   13  C2  UNL     1      21.813  41.526   4.462  1.00  0.00     0.379 C 
HETATM   14  O2  UNL     1      21.864  42.461   3.623  1.00  0.00    -0.237 OA
ATOM     15  H1  UNL     1      22.735  39.745   5.145  1.00  0.00     0.192 HD
BRANCH  13  16
HETATM   16  O1  UNL     1      20.776  41.528   5.389  1.00  0.00    -0.308 OA
HETATM   17  C1  UNL     1      20.861  40.960   6.665  1.00  0.00     0.215 C 
ENDBRANCH  13  16
ENDBRANCH  10  12
ENDBRANCH   1   9
BRANCH   5  18
HETATM   18  O3  UNL     1      29.159  40.713   0.087  1.00  0.00    -0.359 OA
ATOM     19  H3  UNL     1      29.889  41.315   0.173  1.00  0.00     0.217 HD
ENDBRANCH   5  18
TORSDOF 4
ENDMDL
MODEL 5
REMARK VINA RESULT: -5.889967452      3.409      6.438
REMARK  4 active torsions:
REMARK  status: ('A' for Active; 'I' for Inactive)
REMARK    1  A    between atoms: O1_2  and  C2_3 
REMARK       I    between atoms: C2_3  and  N1_5 
REMARK    2  A    between atoms: N1_5  and  N2_7 
REMARK    3  A    between atoms: C3_9  and  C4_10 
REMARK    4  A    between atoms: C7_14  and  O3_15 
ROOT
HETATM    1  C4  UNL     1      25.519  40.508   2.483  1.00  0.00    -0.000 A 
HETATM    2  C5  UNL     1      25.206  39.686   1.422  1.00  0.00     0.036 A 
HETATM    3  C6  UNL     1      25.700  39.982   0.152  1.00  0.00     0.045 A 
HETATM    4 BR1  UNL     1      25.275  38.857  -1.316  1.00  0.00    -0.048 Br
HETATM    5  C7  UNL     1      26.498  41.082  -0.075  1.00  0.00     0.084 A 
HETATM    6  C8  UNL     1      26.809  41.903   0.990  1.00  0.00     0.057 A 
HETATM    7  C9  UNL     1      26.317  41.610   2.264  1.00  0.00     0.025 A 
HETATM    8 BR2  UNL     1      26.727  42.722   3.758  1.00  0.00    -0.050 Br
ENDROOT
BRANCH   1   9
HETATM    9  C3  UNL     1      25.017  40.226   3.833  1.00  0.00     0.120 C 
HETATM   10  N2  UNL     1      23.761  39.992   3.981  1.00  0.00    -0.307 N 
ATOM     11  H2  UNL     1      23.131  40.004   3.179  1.00  0.00     0.186 HD
BRANCH  10  12
HETATM   12  N1  UNL     1      23.282  39.726   5.256  1.00  0.00    -0.246 N 
HETATM   13  C2  UNL     1      21.942  40.038   5.574  1.00  0.00     0.379 C 
HETATM   14  O2  UNL     1      21.180  40.553   4.717  1.00  0.00    -0.237 OA
ATOM     15  H1  UNL     1      23.893  39.308   5.958  1.00  0.00     0.192 HD
BRANCH  13  16
HETATM   16  O1  UNL     1      21.430  39.783   6.842  1.00  0.00    -0.308 OA
HETATM   17  C1  UNL     1      20.136  40.124   7.252  1.00  0.00     0.215 C 
ENDBRANCH  13  16
ENDBRANCH  10  12
ENDBRANCH   1   9
BRANCH   5  18
HETATM   18  O3  UNL     1      26.996  41.390  -1.334  1.00  0.00    -0.359 OA
ATOM     19  H3  UNL     1      27.201  42.281  -1.595  1.00  0.00     0.217 HD
ENDBRANCH   5  18
TORSDOF 4
ENDMDL
