MODEL 1
REMARK VINA RESULT: -6.912151369      0.000      0.000
REMARK  2 active torsions:
REMARK  status: ('A' for Active; 'I' for Inactive)
REMARK    1  A    between atoms: C2_2  and  C3_3 
REMARK    2  A    between atoms: C6_6  and  C7_7 
ROOT
HETATM    1  C3  UNL     1      18.485   2.941  12.138  1.00  0.00     0.186 C 
HETATM    2  C4  UNL     1      17.372   3.791  11.626  1.00  0.00     0.035 C 
HETATM    3  C5  UNL     1      16.226   3.513  12.608  1.00  0.00     0.035 C 
HETATM    4  C6  UNL     1      16.991   2.964  13.762  1.00  0.00     0.191 C 
HETATM    5  N1  UNL     1      17.856   2.004  13.056  1.00  0.00    -0.066 N 
ATOM      6  H11 UNL     1      18.479   1.438  13.632  1.00  0.00     0.278 HD
ATOM      7  H12 UNL     1      17.397   1.194  12.640  1.00  0.00     0.278 HD
ENDROOT
BRANCH   4   8
HETATM    8  C7  UNL     1      16.181   2.327  14.828  1.00  0.00     0.025 A 
HETATM    9  C8  UNL     1      15.865   3.288  15.984  1.00  0.00     0.002 A 
HETATM   10  C9  UNL     1      14.536   3.105  16.672  1.00  0.00     0.084 C 
HETATM   11  C12 UNL     1      16.667   2.060  16.185  1.00  0.00     0.002 A 
HETATM   12  C10 UNL     1      14.759   2.007  17.665  1.00  0.00     0.244 C 
HETATM   13  F1  UNL     1      15.111   2.491  18.909  1.00  0.00    -0.206 F 
HETATM   14  F2  UNL     1      13.630   1.212  17.844  1.00  0.00    -0.206 F 
HETATM   15  C11 UNL     1      15.833   1.156  17.059  1.00  0.00     0.084 C 
ENDBRANCH   4   8
BRANCH   1  16
HETATM   16  C2  UNL     1      19.279   2.251  11.072  1.00  0.00     0.028 C 
HETATM   17  C1  UNL     1      19.156   0.758  11.110  1.00  0.00     0.007 C 
ENDBRANCH   1  16
TORSDOF 2
ENDMDL
MODEL 2
REMARK VINA RESULT: -6.427444930      0.881      1.623
REMARK  2 active torsions:
REMARK  status: ('A' for Active; 'I' for Inactive)
REMARK    1  A    between atoms: C2_2  and  C3_3 
REMARK    2  A    between atoms: C6_6  and  C7_7 
ROOT
HETATM    1  C3  UNL     1      17.968   2.187  12.360  1.00  0.00     0.186 C 
HETATM    2  C4  UNL     1      17.100   3.269  11.812  1.00  0.00     0.035 C 
HETATM    3  C5  UNL     1      16.271   3.714  13.024  1.00  0.00     0.035 C 
HETATM    4  C6  UNL     1      17.117   3.190  14.132  1.00  0.00     0.191 C 
HETATM    5  N1  UNL     1      17.365   1.826  13.634  1.00  0.00    -0.066 N 
ATOM      6  H11 UNL     1      17.907   1.208  14.239  1.00  0.00     0.278 HD
ATOM      7  H12 UNL     1      16.562   1.197  13.600  1.00  0.00     0.278 HD
ENDROOT
BRANCH   4   8
HETATM    8  C7  UNL     1      16.496   3.202  15.479  1.00  0.00     0.025 A 
HETATM    9  C8  UNL     1      15.882   1.846  15.859  1.00  0.00     0.002 A 
HETATM   10  C9  UNL     1      15.933   1.465  17.316  1.00  0.00     0.084 C 
HETATM   11  C12 UNL     1      15.056   3.067  15.725  1.00  0.00     0.002 A 
HETATM   12  C10 UNL     1      14.760   2.155  17.941  1.00  0.00     0.244 C 
HETATM   13  F1  UNL     1      13.638   1.350  17.975  1.00  0.00    -0.206 F 
HETATM   14  F2  UNL     1      15.011   2.555  19.250  1.00  0.00    -0.206 F 
HETATM   15  C11 UNL     1      14.554   3.385  17.111  1.00  0.00     0.084 C 
ENDBRANCH   4   8
BRANCH   1  16
HETATM   16  C2  UNL     1      18.134   1.006  11.453  1.00  0.00     0.028 C 
HETATM   17  C1  UNL     1      17.094  -0.052  11.656  1.00  0.00     0.007 C 
ENDBRANCH   1  16
TORSDOF 2
ENDMDL
MODEL 3
REMARK VINA RESULT: -6.392546688      4.010      5.921
REMARK  2 active torsions:
REMARK  status: ('A' for Active; 'I' for Inactive)
REMARK    1  A    between atoms: C2_2  and  C3_3 
REMARK    2  A    between atoms: C6_6  and  C7_7 
ROOT
HETATM    1  C3  UNL     1      16.000   5.455  13.914  1.00  0.00     0.186 C 
HETATM    2  C4  UNL     1      17.043   5.429  14.980  1.00  0.00     0.035 C 
HETATM    3  C5  UNL     1      17.690   4.047  14.818  1.00  0.00     0.035 C 
HETATM    4  C6  UNL     1      17.275   3.721  13.425  1.00  0.00     0.191 C 
HETATM    5  N1  UNL     1      15.846   4.068  13.501  1.00  0.00    -0.066 N 
ATOM      6  H11 UNL     1      15.288   3.899  12.664  1.00  0.00     0.278 HD
ATOM      7  H12 UNL     1      15.261   3.477  14.091  1.00  0.00     0.278 HD
ENDROOT
BRANCH   4   8
HETATM    8  C7  UNL     1      17.500   2.319  12.997  1.00  0.00     0.025 A 
HETATM    9  C8  UNL     1      18.075   2.220  11.575  1.00  0.00     0.002 A 
HETATM   10  C9  UNL     1      19.024   1.081  11.307  1.00  0.00     0.084 C 
HETATM   11  C12 UNL     1      16.752   1.653  11.925  1.00  0.00     0.002 A 
HETATM   12  C10 UNL     1      18.146  -0.098  11.019  1.00  0.00     0.244 C 
HETATM   13  F1  UNL     1      17.899  -0.248   9.668  1.00  0.00    -0.206 F 
HETATM   14  F2  UNL     1      18.698  -1.296  11.465  1.00  0.00    -0.206 F 
HETATM   15  C11 UNL     1      16.895   0.157  11.802  1.00  0.00     0.084 C 
ENDBRANCH   4   8
BRANCH   1  16
HETATM   16  C2  UNL     1      14.702   6.074  14.331  1.00  0.00     0.028 C 
HETATM   17  C1  UNL     1      14.078   6.924  13.266  1.00  0.00     0.007 C 
ENDBRANCH   1  16
TORSDOF 2
ENDMDL
MODEL 4
REMARK VINA RESULT: -6.347406991      2.819      3.964
REMARK  2 active torsions:
REMARK  status: ('A' for Active; 'I' for Inactive)
REMARK    1  A    between atoms: C2_2  and  C3_3 
REMARK    2  A    between atoms: C6_6  and  C7_7 
ROOT
HETATM    1  C3  UNL     1      16.148   6.653  12.465  1.00  0.00     0.186 C 
HETATM    2  C4  UNL     1      17.408   7.188  13.057  1.00  0.00     0.035 C 
HETATM    3  C5  UNL     1      17.476   6.510  14.432  1.00  0.00     0.035 C 
HETATM    4  C6  UNL     1      16.553   5.362  14.209  1.00  0.00     0.191 C 
HETATM    5  N1  UNL     1      15.423   6.068  13.582  1.00  0.00    -0.066 N 
ATOM      6  H11 UNL     1      14.602   5.507  13.352  1.00  0.00     0.278 HD
ATOM      7  H12 UNL     1      14.898   6.711  14.175  1.00  0.00     0.278 HD
ENDROOT
BRANCH   4   8
HETATM    8  C7  UNL     1      16.155   4.610  15.423  1.00  0.00     0.025 A 
HETATM    9  C8  UNL     1      16.158   3.089  15.204  1.00  0.00     0.002 A 
HETATM   10  C9  UNL     1      16.539   2.236  16.386  1.00  0.00     0.084 C 
HETATM   11  C12 UNL     1      14.920   3.828  15.541  1.00  0.00     0.002 A 
HETATM   12  C10 UNL     1      15.283   2.103  17.191  1.00  0.00     0.244 C 
HETATM   13  F1  UNL     1      14.567   0.970  16.858  1.00  0.00    -0.206 F 
HETATM   14  F2  UNL     1      15.531   2.037  18.559  1.00  0.00    -0.206 F 
HETATM   15  C11 UNL     1      14.519   3.362  16.918  1.00  0.00     0.084 C 
ENDBRANCH   4   8
BRANCH   1  16
HETATM   16  C2  UNL     1      15.333   7.666  11.722  1.00  0.00     0.028 C 
HETATM   17  C1  UNL     1      13.939   7.812  12.251  1.00  0.00     0.007 C 
ENDBRANCH   1  16
TORSDOF 2
ENDMDL
MODEL 5
REMARK VINA RESULT: -6.317310294      3.703      6.060
REMARK  2 active torsions:
REMARK  status: ('A' for Active; 'I' for Inactive)
REMARK    1  A    between atoms: C2_2  and  C3_3 
REMARK    2  A    between atoms: C6_6  and  C7_7 
ROOT
HETATM    1  C3  UNL     1      14.859   2.969  16.158  1.00  0.00     0.186 C 
HETATM    2  C4  UNL     1      15.187   4.407  15.937  1.00  0.00     0.035 C 
HETATM    3  C5  UNL     1      16.230   4.369  14.812  1.00  0.00     0.035 C 
HETATM    4  C6  UNL     1      15.966   3.015  14.249  1.00  0.00     0.191 C 
HETATM    5  N1  UNL     1      15.923   2.231  15.495  1.00  0.00    -0.066 N 
ATOM      6  H11 UNL     1      15.791   1.224  15.398  1.00  0.00     0.278 HD
ATOM      7  H12 UNL     1      16.800   2.133  16.006  1.00  0.00     0.278 HD
ENDROOT
BRANCH   4   8
HETATM    8  C7  UNL     1      16.976   2.508  13.289  1.00  0.00     0.025 A 
HETATM    9  C8  UNL     1      16.362   2.123  11.934  1.00  0.00     0.002 A 
HETATM   10  C9  UNL     1      17.221   2.343  10.716  1.00  0.00     0.084 C 
HETATM   11  C12 UNL     1      17.030   1.126  12.802  1.00  0.00     0.002 A 
HETATM   12  C10 UNL     1      18.107   1.138  10.641  1.00  0.00     0.244 C 
HETATM   13  F1  UNL     1      17.574   0.147   9.840  1.00  0.00    -0.206 F 
HETATM   14  F2  UNL     1      19.369   1.434  10.132  1.00  0.00    -0.206 F 
HETATM   15  C11 UNL     1      18.272   0.696  12.062  1.00  0.00     0.084 C 
ENDBRANCH   4   8
BRANCH   1  16
HETATM   16  C2  UNL     1      14.706   2.582  17.597  1.00  0.00     0.028 C 
HETATM   17  C1  UNL     1      15.161   1.185  17.889  1.00  0.00     0.007 C 
ENDBRANCH   1  16
TORSDOF 2
ENDMDL
