MODEL 1
REMARK VINA RESULT: -8.331271376      0.000      0.000
REMARK  5 active torsions:
REMARK  status: ('A' for Active; 'I' for Inactive)
REMARK    1  A    between atoms: C6_7  and  O1_8 
REMARK    2  A    between atoms: O1_8  and  C7_9 
REMARK    3  A    between atoms: C7_9  and  C8_10 
REMARK    4  A    between atoms: C10_17  and  C11_18 
REMARK    5  A    between atoms: N5_23  and  C14_25 
ROOT
HETATM    1  C8  UNL     1      -5.369   1.439  16.465  1.00  0.00     0.065 A 
HETATM    2  N2  UNL     1      -6.081   0.875  17.418  1.00  0.00    -0.300 N 
ATOM      3  H2  UNL     1      -5.992  -0.103  17.698  1.00  0.00     0.186 HD
HETATM    4  N3  UNL     1      -6.938   1.747  17.976  1.00  0.00    -0.275 N 
ATOM      5  H3  UNL     1      -7.590   1.539  18.732  1.00  0.00     0.189 HD
HETATM    6  C9  UNL     1      -6.794   2.924  17.380  1.00  0.00     0.216 A 
HETATM    7  F1  UNL     1      -7.445   4.115  17.602  1.00  0.00    -0.184 F 
HETATM    8  C10 UNL     1      -5.813   2.772  16.418  1.00  0.00     0.059 A 
ENDROOT
BRANCH   8   9
HETATM    9  C11 UNL     1      -5.316   3.771  15.475  1.00  0.00    -0.002 A 
HETATM   10  C12 UNL     1      -3.989   4.150  15.470  1.00  0.00     0.102 A 
HETATM   11  N4  UNL     1      -3.494   5.072  14.636  1.00  0.00    -0.350 N 
HETATM   12  C13 UNL     1      -4.261   5.731  13.703  1.00  0.00     0.126 A 
ATOM     13  H4  UNL     1      -2.501   5.297  14.695  1.00  0.00     0.166 HD
HETATM   14  N5  UNL     1      -3.719   6.561  12.945  1.00  0.00    -0.368 N 
HETATM   15  C18 UNL     1      -5.584   5.366  13.696  1.00  0.00     0.090 A 
ATOM     16  H5  UNL     1      -2.720   6.632  13.140  1.00  0.00     0.161 HD
HETATM   17  N7  UNL     1      -6.456   5.993  12.765  1.00  0.00    -0.098 NA
HETATM   18  C19 UNL     1      -6.125   4.402  14.560  1.00  0.00     0.044 A 
BRANCH  14  19
HETATM   19  C14 UNL     1      -4.082   7.414  11.913  1.00  0.00     0.110 C 
HETATM   20  C15 UNL     1      -3.859   6.646  10.594  1.00  0.00     0.054 C 
HETATM   21  C16 UNL     1      -2.635   7.246   9.988  1.00  0.00     0.234 C 
HETATM   22  N6  UNL     1      -2.661   8.608  10.418  1.00  0.00    -0.073 N 
HETATM   23  C17 UNL     1      -3.254   8.657  11.717  1.00  0.00     0.257 C 
ATOM     24  H62 UNL     1      -1.740   9.046  10.390  1.00  0.00     0.277 HD
ATOM     25  H61 UNL     1      -3.126   9.222   9.749  1.00  0.00     0.277 HD
ENDBRANCH  14  19
ENDBRANCH   8   9
BRANCH   1  26
HETATM   26  C7  UNL     1      -4.290   0.946  15.591  1.00  0.00     0.227 C 
BRANCH  26  27
HETATM   27  O1  UNL     1      -4.570   0.083  14.617  1.00  0.00    -0.380 OA
BRANCH  27  28
HETATM   28  C6  UNL     1      -4.534   0.397  13.309  1.00  0.00     0.126 C 
HETATM   29  C5  UNL     1      -3.527   1.584  13.243  1.00  0.00     0.072 C 
HETATM   30  C2  UNL     1      -3.385   2.149  11.883  1.00  0.00     0.155 C 
HETATM   31  N1  UNL     1      -2.939   1.111  10.988  1.00  0.00     0.102 N 
HETATM   32  C3  UNL     1      -4.616   2.872  11.467  1.00  0.00     0.049 C 
HETATM   33  C4  UNL     1      -2.253   3.178  11.950  1.00  0.00     0.049 C 
HETATM   34  C1  UNL     1      -1.578   0.740  11.371  1.00  0.00     0.311 C 
HETATM   35  C21 UNL     1      -3.749  -0.075  11.003  1.00  0.00     0.155 C 
HETATM   36  C20 UNL     1      -3.985  -0.627  12.368  1.00  0.00     0.072 C 
HETATM   37  C22 UNL     1      -2.975  -1.148  10.220  1.00  0.00     0.049 C 
HETATM   38  C23 UNL     1      -5.060   0.108  10.244  1.00  0.00     0.049 C 
ENDBRANCH  27  28
ENDBRANCH  26  27
ENDBRANCH   1  26
TORSDOF 5
ENDMDL
MODEL 2
REMARK VINA RESULT: -8.157643507      0.631      1.310
REMARK  5 active torsions:
REMARK  status: ('A' for Active; 'I' for Inactive)
REMARK    1  A    between atoms: C6_7  and  O1_8 
REMARK    2  A    between atoms: O1_8  and  C7_9 
REMARK    3  A    between atoms: C7_9  and  C8_10 
REMARK    4  A    between atoms: C10_17  and  C11_18 
REMARK    5  A    between atoms: N5_23  and  C14_25 
ROOT
HETATM    1  C8  UNL     1      -5.324   1.554  16.539  1.00  0.00     0.065 A 
HETATM    2  N2  UNL     1      -5.941   0.989  17.556  1.00  0.00    -0.300 N 
ATOM      3  H2  UNL     1      -5.779   0.031  17.867  1.00  0.00     0.186 HD
HETATM    4  N3  UNL     1      -6.813   1.835  18.134  1.00  0.00    -0.275 N 
ATOM      5  H3  UNL     1      -7.404   1.622  18.938  1.00  0.00     0.189 HD
HETATM    6  C9  UNL     1      -6.775   2.992  17.486  1.00  0.00     0.216 A 
HETATM    7  F1  UNL     1      -7.480   4.153  17.704  1.00  0.00    -0.184 F 
HETATM    8  C10 UNL     1      -5.848   2.856  16.471  1.00  0.00     0.059 A 
ENDROOT
BRANCH   8   9
HETATM    9  C11 UNL     1      -5.469   3.842  15.461  1.00  0.00    -0.002 A 
HETATM   10  C12 UNL     1      -6.370   4.269  14.507  1.00  0.00     0.102 A 
HETATM   11  N4  UNL     1      -6.063   5.157  13.554  1.00  0.00    -0.350 N 
HETATM   12  C13 UNL     1      -4.817   5.730  13.435  1.00  0.00     0.126 A 
ATOM     13  H4  UNL     1      -6.785   5.421  12.885  1.00  0.00     0.166 HD
HETATM   14  N5  UNL     1      -4.617   6.569  12.533  1.00  0.00    -0.368 N 
HETATM   15  C18 UNL     1      -3.909   5.315  14.376  1.00  0.00     0.090 A 
ATOM     16  H5  UNL     1      -5.462   6.718  11.982  1.00  0.00     0.161 HD
HETATM   17  N7  UNL     1      -2.594   5.853  14.334  1.00  0.00    -0.098 NA
HETATM   18  C19 UNL     1      -4.209   4.386  15.384  1.00  0.00     0.044 A 
BRANCH  14  19
HETATM   19  C14 UNL     1      -3.577   7.358  12.064  1.00  0.00     0.110 C 
HETATM   20  C15 UNL     1      -4.215   8.588  11.387  1.00  0.00     0.054 C 
HETATM   21  C16 UNL     1      -4.044   8.368   9.922  1.00  0.00     0.234 C 
HETATM   22  N6  UNL     1      -2.827   7.627   9.818  1.00  0.00    -0.073 N 
HETATM   23  C17 UNL     1      -2.713   6.789  10.970  1.00  0.00     0.257 C 
ATOM     24  H62 UNL     1      -2.759   7.105   8.944  1.00  0.00     0.277 HD
ATOM     25  H61 UNL     1      -2.012   8.226   9.684  1.00  0.00     0.277 HD
ENDBRANCH  14  19
ENDBRANCH   8   9
BRANCH   1  26
HETATM   26  C7  UNL     1      -4.273   1.086  15.618  1.00  0.00     0.227 C 
BRANCH  26  27
HETATM   27  O1  UNL     1      -4.563   0.177  14.691  1.00  0.00    -0.380 OA
BRANCH  27  28
HETATM   28  C6  UNL     1      -4.524   0.421  13.368  1.00  0.00     0.126 C 
HETATM   29  C5  UNL     1      -3.536   1.620  13.244  1.00  0.00     0.072 C 
HETATM   30  C2  UNL     1      -3.395   2.114  11.857  1.00  0.00     0.155 C 
HETATM   31  N1  UNL     1      -2.927   1.038  11.021  1.00  0.00     0.102 N 
HETATM   32  C3  UNL     1      -4.636   2.793  11.397  1.00  0.00     0.049 C 
HETATM   33  C4  UNL     1      -2.282   3.164  11.875  1.00  0.00     0.049 C 
HETATM   34  C1  UNL     1      -1.563   0.711  11.430  1.00  0.00     0.311 C 
HETATM   35  C21 UNL     1      -3.717  -0.160  11.095  1.00  0.00     0.155 C 
HETATM   36  C20 UNL     1      -3.952  -0.642  12.486  1.00  0.00     0.072 C 
HETATM   37  C22 UNL     1      -2.920  -1.259  10.374  1.00  0.00     0.049 C 
HETATM   38  C23 UNL     1      -5.026  -0.039  10.320  1.00  0.00     0.049 C 
ENDBRANCH  27  28
ENDBRANCH  26  27
ENDBRANCH   1  26
TORSDOF 5
ENDMDL
MODEL 3
REMARK VINA RESULT: -7.872186100      3.147      5.672
REMARK  5 active torsions:
REMARK  status: ('A' for Active; 'I' for Inactive)
REMARK    1  A    between atoms: C6_7  and  O1_8 
REMARK    2  A    between atoms: O1_8  and  C7_9 
REMARK    3  A    between atoms: C7_9  and  C8_10 
REMARK    4  A    between atoms: C10_17  and  C11_18 
REMARK    5  A    between atoms: N5_23  and  C14_25 
ROOT
HETATM    1  C8  UNL     1      -2.882   2.344  11.340  1.00  0.00     0.065 A 
HETATM    2  N2  UNL     1      -1.758   1.759  11.699  1.00  0.00    -0.300 N 
ATOM      3  H2  UNL     1      -1.691   0.796  12.028  1.00  0.00     0.186 HD
HETATM    4  N3  UNL     1      -0.709   2.592  11.577  1.00  0.00    -0.275 N 
ATOM      5  H3  UNL     1       0.261   2.362  11.796  1.00  0.00     0.189 HD
HETATM    6  C9  UNL     1      -1.144   3.761  11.125  1.00  0.00     0.216 A 
HETATM    7  F1  UNL     1      -0.453   4.916  10.845  1.00  0.00    -0.184 F 
HETATM    8  C10 UNL     1      -2.512   3.646  10.963  1.00  0.00     0.059 A 
ENDROOT
BRANCH   8   9
HETATM    9  C11 UNL     1      -3.454   4.672  10.518  1.00  0.00    -0.002 A 
HETATM   10  C12 UNL     1      -3.473   5.103   9.207  1.00  0.00     0.102 A 
HETATM   11  N4  UNL     1      -4.306   6.050   8.759  1.00  0.00    -0.350 N 
HETATM   12  C13 UNL     1      -5.224   6.685   9.565  1.00  0.00     0.126 A 
ATOM     13  H4  UNL     1      -4.258   6.313   7.776  1.00  0.00     0.166 HD
HETATM   14  N5  UNL     1      -5.982   7.540   9.065  1.00  0.00    -0.368 N 
HETATM   15  C18 UNL     1      -5.216   6.268  10.872  1.00  0.00     0.090 A 
ATOM     16  H5  UNL     1      -5.800   7.650   8.068  1.00  0.00     0.161 HD
HETATM   17  N7  UNL     1      -6.131   6.866  11.780  1.00  0.00    -0.098 NA
HETATM   18  C19 UNL     1      -4.353   5.277  11.364  1.00  0.00     0.044 A 
BRANCH  14  19
HETATM   19  C14 UNL     1      -7.003   8.387   9.475  1.00  0.00     0.110 C 
HETATM   20  C15 UNL     1      -8.291   7.910   8.775  1.00  0.00     0.054 C 
HETATM   21  C16 UNL     1      -8.560   8.919   7.711  1.00  0.00     0.234 C 
HETATM   22  N6  UNL     1      -8.047  10.141   8.245  1.00  0.00    -0.073 N 
HETATM   23  C17 UNL     1      -6.914   9.832   9.060  1.00  0.00     0.257 C 
ATOM     24  H62 UNL     1      -7.835  10.828   7.521  1.00  0.00     0.277 HD
ATOM     25  H61 UNL     1      -8.756  10.679   8.744  1.00  0.00     0.277 HD
ENDBRANCH  14  19
ENDBRANCH   8   9
BRANCH   1  26
HETATM   26  C7  UNL     1      -4.274   1.871  11.249  1.00  0.00     0.227 C 
BRANCH  26  27
HETATM   27  O1  UNL     1      -5.055   1.903  12.326  1.00  0.00    -0.380 OA
BRANCH  27  28
HETATM   28  C6  UNL     1      -4.643   2.325  13.535  1.00  0.00     0.126 C 
HETATM   29  C5  UNL     1      -5.567   3.544  13.834  1.00  0.00     0.072 C 
HETATM   30  C2  UNL     1      -5.236   4.223  15.107  1.00  0.00     0.155 C 
HETATM   31  N1  UNL     1      -5.351   3.278  16.187  1.00  0.00     0.102 N 
HETATM   32  C3  UNL     1      -3.936   4.940  15.014  1.00  0.00     0.049 C 
HETATM   33  C4  UNL     1      -6.322   5.277  15.337  1.00  0.00     0.049 C 
HETATM   34  C1  UNL     1      -6.761   2.918  16.323  1.00  0.00     0.311 C 
HETATM   35  C21 UNL     1      -4.596   2.070  16.003  1.00  0.00     0.155 C 
HETATM   36  C20 UNL     1      -4.839   1.400  14.694  1.00  0.00     0.072 C 
HETATM   37  C22 UNL     1      -5.057   1.090  17.094  1.00  0.00     0.049 C 
HETATM   38  C23 UNL     1      -3.104   2.275  16.253  1.00  0.00     0.049 C 
ENDBRANCH  27  28
ENDBRANCH  26  27
ENDBRANCH   1  26
TORSDOF 5
ENDMDL
MODEL 4
REMARK VINA RESULT: -7.843816796      3.648      6.227
REMARK  5 active torsions:
REMARK  status: ('A' for Active; 'I' for Inactive)
REMARK    1  A    between atoms: C6_7  and  O1_8 
REMARK    2  A    between atoms: O1_8  and  C7_9 
REMARK    3  A    between atoms: C7_9  and  C8_10 
REMARK    4  A    between atoms: C10_17  and  C11_18 
REMARK    5  A    between atoms: N5_23  and  C14_25 
ROOT
HETATM    1  C8  UNL     1      -4.114   1.479  11.028  1.00  0.00     0.065 A 
HETATM    2  N2  UNL     1      -4.778   0.354  11.195  1.00  0.00    -0.300 N 
ATOM      3  H2  UNL     1      -5.794   0.275  11.151  1.00  0.00     0.186 HD
HETATM    4  N3  UNL     1      -3.948  -0.677  11.432  1.00  0.00    -0.275 N 
ATOM      5  H3  UNL     1      -4.231  -1.644  11.592  1.00  0.00     0.189 HD
HETATM    6  C9  UNL     1      -2.699  -0.228  11.422  1.00  0.00     0.216 A 
HETATM    7  F1  UNL     1      -1.515  -0.900  11.613  1.00  0.00    -0.184 F 
HETATM    8  C10 UNL     1      -2.761   1.129  11.171  1.00  0.00     0.059 A 
ENDROOT
BRANCH   8   9
HETATM    9  C11 UNL     1      -1.654   2.080  11.093  1.00  0.00    -0.002 A 
HETATM   10  C12 UNL     1      -1.040   2.556  12.234  1.00  0.00     0.102 A 
HETATM   11  N4  UNL     1      -0.035   3.439  12.212  1.00  0.00    -0.350 N 
HETATM   12  C13 UNL     1       0.484   3.958  11.047  1.00  0.00     0.126 A 
ATOM     13  H4  UNL     1       0.366   3.742  13.099  1.00  0.00     0.166 HD
HETATM   14  N5  UNL     1       1.438   4.759  11.110  1.00  0.00    -0.368 N 
HETATM   15  C18 UNL     1      -0.117   3.495   9.903  1.00  0.00     0.090 A 
ATOM     16  H5  UNL     1       1.713   4.921  12.078  1.00  0.00     0.161 HD
HETATM   17  N7  UNL     1       0.352   3.974   8.650  1.00  0.00    -0.098 NA
HETATM   18  C19 UNL     1      -1.171   2.569   9.902  1.00  0.00     0.044 A 
BRANCH  14  19
HETATM   19  C14 UNL     1       2.234   5.493  10.242  1.00  0.00     0.110 C 
HETATM   20  C15 UNL     1       3.693   5.315  10.710  1.00  0.00     0.054 C 
HETATM   21  C16 UNL     1       4.065   6.610  11.348  1.00  0.00     0.234 C 
HETATM   22  N6  UNL     1       3.304   7.586  10.636  1.00  0.00    -0.073 N 
HETATM   23  C17 UNL     1       2.066   6.990  10.244  1.00  0.00     0.257 C 
ATOM     24  H62 UNL     1       3.174   8.447  11.167  1.00  0.00     0.277 HD
ATOM     25  H61 UNL     1       3.815   7.984   9.848  1.00  0.00     0.277 HD
ENDBRANCH  14  19
ENDBRANCH   8   9
BRANCH   1  26
HETATM   26  C7  UNL     1      -4.535   2.855  10.712  1.00  0.00     0.227 C 
BRANCH  26  27
HETATM   27  O1  UNL     1      -5.004   3.642  11.677  1.00  0.00    -0.380 OA
BRANCH  27  28
HETATM   28  C6  UNL     1      -4.623   3.553  12.964  1.00  0.00     0.126 C 
HETATM   29  C5  UNL     1      -4.260   5.021  13.342  1.00  0.00     0.072 C 
HETATM   30  C2  UNL     1      -3.734   5.151  14.719  1.00  0.00     0.155 C 
HETATM   31  N1  UNL     1      -4.722   4.664  15.647  1.00  0.00     0.102 N 
HETATM   32  C3  UNL     1      -2.382   4.544  14.841  1.00  0.00     0.049 C 
HETATM   33  C4  UNL     1      -3.586   6.650  14.993  1.00  0.00     0.049 C 
HETATM   34  C1  UNL     1      -5.866   5.573  15.607  1.00  0.00     0.311 C 
HETATM   35  C21 UNL     1      -5.195   3.336  15.369  1.00  0.00     0.155 C 
HETATM   36  C20 UNL     1      -5.655   3.142  13.964  1.00  0.00     0.072 C 
HETATM   37  C22 UNL     1      -6.418   3.105  16.271  1.00  0.00     0.049 C 
HETATM   38  C23 UNL     1      -4.188   2.264  15.776  1.00  0.00     0.049 C 
ENDBRANCH  27  28
ENDBRANCH  26  27
ENDBRANCH   1  26
TORSDOF 5
ENDMDL
MODEL 5
REMARK VINA RESULT: -7.790480825      3.858      6.463
REMARK  5 active torsions:
REMARK  status: ('A' for Active; 'I' for Inactive)
REMARK    1  A    between atoms: C6_7  and  O1_8 
REMARK    2  A    between atoms: O1_8  and  C7_9 
REMARK    3  A    between atoms: C7_9  and  C8_10 
REMARK    4  A    between atoms: C10_17  and  C11_18 
REMARK    5  A    between atoms: N5_23  and  C14_25 
ROOT
HETATM    1  C8  UNL     1      -3.892   2.235  11.024  1.00  0.00     0.065 A 
HETATM    2  N2  UNL     1      -4.672   1.185  11.174  1.00  0.00    -0.300 N 
ATOM      3  H2  UNL     1      -5.691   1.223  11.180  1.00  0.00     0.186 HD
HETATM    4  N3  UNL     1      -3.956   0.056  11.319  1.00  0.00    -0.275 N 
ATOM      5  H3  UNL     1      -4.340  -0.879  11.449  1.00  0.00     0.189 HD
HETATM    6  C9  UNL     1      -2.665   0.362  11.264  1.00  0.00     0.216 A 
HETATM    7  F1  UNL     1      -1.558  -0.448  11.362  1.00  0.00    -0.184 F 
HETATM    8  C10 UNL     1      -2.583   1.729  11.079  1.00  0.00     0.059 A 
ENDROOT
BRANCH   8   9
HETATM    9  C11 UNL     1      -1.379   2.552  10.987  1.00  0.00    -0.002 A 
HETATM   10  C12 UNL     1      -0.720   2.983  12.121  1.00  0.00     0.102 A 
HETATM   11  N4  UNL     1       0.375   3.751  12.085  1.00  0.00    -0.350 N 
HETATM   12  C13 UNL     1       0.951   4.185  10.913  1.00  0.00     0.126 A 
ATOM     13  H4  UNL     1       0.804   4.028  12.968  1.00  0.00     0.166 HD
HETATM   14  N5  UNL     1       1.986   4.879  10.963  1.00  0.00    -0.368 N 
HETATM   15  C18 UNL     1       0.307   3.766   9.776  1.00  0.00     0.090 A 
ATOM     16  H5  UNL     1       2.274   5.031  11.930  1.00  0.00     0.161 HD
HETATM   17  N7  UNL     1       0.828   4.164   8.515  1.00  0.00    -0.098 NA
HETATM   18  C19 UNL     1      -0.842   2.960   9.789  1.00  0.00     0.044 A 
BRANCH  14  19
HETATM   19  C14 UNL     1       2.860   5.503  10.084  1.00  0.00     0.110 C 
HETATM   20  C15 UNL     1       4.234   5.560  10.780  1.00  0.00     0.054 C 
HETATM   21  C16 UNL     1       4.416   6.983  11.184  1.00  0.00     0.234 C 
HETATM   22  N6  UNL     1       3.715   7.725  10.185  1.00  0.00    -0.073 N 
HETATM   23  C17 UNL     1       2.596   6.949   9.753  1.00  0.00     0.257 C 
ATOM     24  H62 UNL     1       3.448   8.657  10.503  1.00  0.00     0.277 HD
ATOM     25  H61 UNL     1       4.318   8.011   9.413  1.00  0.00     0.277 HD
ENDBRANCH  14  19
ENDBRANCH   8   9
BRANCH   1  26
HETATM   26  C7  UNL     1      -4.167   3.665  10.794  1.00  0.00     0.227 C 
BRANCH  26  27
HETATM   27  O1  UNL     1      -5.062   4.296  11.549  1.00  0.00    -0.380 OA
BRANCH  27  28
HETATM   28  C6  UNL     1      -4.794   4.786  12.772  1.00  0.00     0.126 C 
HETATM   29  C5  UNL     1      -5.563   3.826  13.729  1.00  0.00     0.072 C 
HETATM   30  C2  UNL     1      -5.469   4.226  15.151  1.00  0.00     0.155 C 
HETATM   31  N1  UNL     1      -4.082   4.255  15.539  1.00  0.00     0.102 N 
HETATM   32  C3  UNL     1      -6.237   5.473  15.413  1.00  0.00     0.049 C 
HETATM   33  C4  UNL     1      -6.123   3.108  15.966  1.00  0.00     0.049 C 
HETATM   34  C1  UNL     1      -3.578   2.883  15.513  1.00  0.00     0.311 C 
HETATM   35  C21 UNL     1      -3.244   5.056  14.691  1.00  0.00     0.155 C 
HETATM   36  C20 UNL     1      -3.375   4.740  13.240  1.00  0.00     0.072 C 
HETATM   37  C22 UNL     1      -1.791   4.743  15.083  1.00  0.00     0.049 C 
HETATM   38  C23 UNL     1      -3.416   6.550  14.950  1.00  0.00     0.049 C 
ENDBRANCH  27  28
ENDBRANCH  26  27
ENDBRANCH   1  26
TORSDOF 5
ENDMDL
