MODEL 1
REMARK VINA RESULT: -7.003658259      0.000      0.000
REMARK  8 active torsions:
REMARK  status: ('A' for Active; 'I' for Inactive)
REMARK    1  A    between atoms: C2_2  and  C3_3 
REMARK    2  A    between atoms: C2_2  and  N4_21 
REMARK    3  A    between atoms: C3_3  and  C4_4 
REMARK    4  A    between atoms: C7_7  and  C8_8 
REMARK    5  A    between atoms: C8_8  and  C9_9 
REMARK    6  A    between atoms: C9_9  and  N1_10 
REMARK    7  A    between atoms: N1_10  and  N2_12 
REMARK    8  A    between atoms: C10_17  and  O1_18 
ROOT
HETATM    1  C4  UNL     1       0.279   3.415  82.714  1.00  0.00     0.126 C 
HETATM    2  C5  UNL     1      -0.867   3.188  81.733  1.00  0.00     0.032 C 
HETATM    3  C6  UNL     1      -1.010   1.721  81.400  1.00  0.00     0.012 C 
HETATM    4  C7  UNL     1       0.245   1.328  80.631  1.00  0.00     0.042 C 
HETATM    5  C10 UNL     1       1.410   1.942  81.372  1.00  0.00     0.261 C 
HETATM    6  O2  UNL     1       1.061   2.238  82.666  1.00  0.00    -0.356 OA
ENDROOT
BRANCH   4   7
HETATM    7  C8  UNL     1       0.373  -0.178  80.539  1.00  0.00     0.030 C 
BRANCH   7   8
HETATM    8  C9  UNL     1      -0.454  -0.813  81.632  1.00  0.00     0.141 C 
BRANCH   8   9
HETATM    9  N1  UNL     1      -0.292  -2.235  81.668  1.00  0.00    -0.323 N 
ATOM     10  H1  UNL     1      -1.067  -2.827  81.965  1.00  0.00     0.181 HD
BRANCH   9  11
HETATM   11  N2  UNL     1       0.922  -2.813  81.297  1.00  0.00    -0.254 N 
HETATM   12  N3  UNL     1       0.968  -4.089  81.248  1.00  0.00    -0.331 N 
ATOM     13  H32 UNL     1       0.145  -4.647  81.473  1.00  0.00     0.178 HD
ATOM     14  H31 UNL     1       1.857  -4.512  80.977  1.00  0.00     0.178 HD
ATOM     15  H2  UNL     1       1.737  -2.241  81.075  1.00  0.00     0.207 HD
ENDBRANCH   9  11
ENDBRANCH   8   9
ENDBRANCH   7   8
ENDBRANCH   4   7
BRANCH   5  16
HETATM   16  O1  UNL     1       2.503   1.051  81.425  1.00  0.00    -0.371 OA
ATOM     17  H1  UNL     1       3.243   1.444  81.873  1.00  0.00     0.212 HD
ENDBRANCH   5  16
BRANCH   1  18
HETATM   18  C3  UNL     1      -0.356   3.551  84.074  1.00  0.00     0.056 C 
BRANCH  18  19
HETATM   19  C2  UNL     1      -0.464   2.279  84.849  1.00  0.00     0.077 C 
HETATM   20  C1  UNL     1       0.603   2.150  85.915  1.00  0.00     0.032 C 
BRANCH  19  21
HETATM   21  N4  UNL     1      -1.708   1.903  85.355  1.00  0.00    -0.408 N 
HETATM   22  C11 UNL     1      -2.694   2.828  85.692  1.00  0.00     0.117 C 
HETATM   23  C12 UNL     1      -3.430   2.312  86.932  1.00  0.00     0.021 C 
HETATM   24  C13 UNL     1      -2.446   1.325  87.511  1.00  0.00     0.021 C 
HETATM   25  C14 UNL     1      -1.687   0.826  86.317  1.00  0.00     0.117 C 
ENDBRANCH  19  21
ENDBRANCH  18  19
ENDBRANCH   1  18
TORSDOF 8
ENDMDL
MODEL 2
REMARK VINA RESULT: -6.975313928      3.131      3.832
REMARK  8 active torsions:
REMARK  status: ('A' for Active; 'I' for Inactive)
REMARK    1  A    between atoms: C2_2  and  C3_3 
REMARK    2  A    between atoms: C2_2  and  N4_21 
REMARK    3  A    between atoms: C3_3  and  C4_4 
REMARK    4  A    between atoms: C7_7  and  C8_8 
REMARK    5  A    between atoms: C8_8  and  C9_9 
REMARK    6  A    between atoms: C9_9  and  N1_10 
REMARK    7  A    between atoms: N1_10  and  N2_12 
REMARK    8  A    between atoms: C10_17  and  O1_18 
ROOT
HETATM    1  C4  UNL     1      -1.216   2.823  82.568  1.00  0.00     0.126 C 
HETATM    2  C5  UNL     1      -0.957   1.796  81.471  1.00  0.00     0.032 C 
HETATM    3  C6  UNL     1       0.494   1.814  81.045  1.00  0.00     0.012 C 
HETATM    4  C7  UNL     1       0.732   3.163  80.380  1.00  0.00     0.042 C 
HETATM    5  C10 UNL     1       0.072   4.198  81.262  1.00  0.00     0.261 C 
HETATM    6  O2  UNL     1      -0.113   3.707  82.531  1.00  0.00    -0.356 OA
ENDROOT
BRANCH   4   7
HETATM    7  C8  UNL     1       2.214   3.431  80.220  1.00  0.00     0.030 C 
BRANCH   7   8
HETATM    8  C9  UNL     1       2.990   2.460  81.077  1.00  0.00     0.141 C 
BRANCH   8   9
HETATM    9  N1  UNL     1       3.689   3.121  82.136  1.00  0.00    -0.323 N 
ATOM     10  H1  UNL     1       4.625   2.811  82.396  1.00  0.00     0.181 HD
BRANCH   9  11
HETATM   11  N2  UNL     1       3.096   4.186  82.811  1.00  0.00    -0.254 N 
HETATM   12  N3  UNL     1       2.432   3.908  83.868  1.00  0.00    -0.331 N 
ATOM     13  H32 UNL     1       2.350   2.944  84.190  1.00  0.00     0.178 HD
ATOM     14  H31 UNL     1       1.998   4.688  84.363  1.00  0.00     0.178 HD
ATOM     15  H2  UNL     1       3.187   5.145  82.477  1.00  0.00     0.207 HD
ENDBRANCH   9  11
ENDBRANCH   8   9
ENDBRANCH   7   8
ENDBRANCH   4   7
BRANCH   5  16
HETATM   16  O1  UNL     1       0.870   5.356  81.372  1.00  0.00    -0.371 OA
ATOM     17  H1  UNL     1       1.329   5.377  82.204  1.00  0.00     0.212 HD
ENDBRANCH   5  16
BRANCH   1  18
HETATM   18  C3  UNL     1      -1.214   2.057  83.866  1.00  0.00     0.056 C 
BRANCH  18  19
HETATM   19  C2  UNL     1      -1.510   2.874  85.080  1.00  0.00     0.077 C 
HETATM   20  C1  UNL     1      -2.536   3.957  84.822  1.00  0.00     0.032 C 
BRANCH  19  21
HETATM   21  N4  UNL     1      -1.783   2.221  86.281  1.00  0.00    -0.408 N 
HETATM   22  C11 UNL     1      -1.293   0.950  86.575  1.00  0.00     0.117 C 
HETATM   23  C12 UNL     1      -2.364   0.195  87.368  1.00  0.00     0.021 C 
HETATM   24  C13 UNL     1      -3.620   0.962  87.034  1.00  0.00     0.021 C 
HETATM   25  C14 UNL     1      -3.136   2.357  86.769  1.00  0.00     0.117 C 
ENDBRANCH  19  21
ENDBRANCH  18  19
ENDBRANCH   1  18
TORSDOF 8
ENDMDL
MODEL 3
REMARK VINA RESULT: -6.912484358      2.864      3.649
REMARK  8 active torsions:
REMARK  status: ('A' for Active; 'I' for Inactive)
REMARK    1  A    between atoms: C2_2  and  C3_3 
REMARK    2  A    between atoms: C2_2  and  N4_21 
REMARK    3  A    between atoms: C3_3  and  C4_4 
REMARK    4  A    between atoms: C7_7  and  C8_8 
REMARK    5  A    between atoms: C8_8  and  C9_9 
REMARK    6  A    between atoms: C9_9  and  N1_10 
REMARK    7  A    between atoms: N1_10  and  N2_12 
REMARK    8  A    between atoms: C10_17  and  O1_18 
ROOT
HETATM    1  C4  UNL     1      -0.934   1.127  83.013  1.00  0.00     0.126 C 
HETATM    2  C5  UNL     1      -0.538   0.422  81.719  1.00  0.00     0.032 C 
HETATM    3  C6  UNL     1       0.749   0.991  81.166  1.00  0.00     0.012 C 
HETATM    4  C7  UNL     1       0.444   2.425  80.752  1.00  0.00     0.042 C 
HETATM    5  C10 UNL     1      -0.363   3.033  81.876  1.00  0.00     0.261 C 
HETATM    6  O2  UNL     1      -0.185   2.326  83.039  1.00  0.00    -0.356 OA
ENDROOT
BRANCH   4   7
HETATM    7  C8  UNL     1       1.723   3.198  80.502  1.00  0.00     0.030 C 
BRANCH   7   8
HETATM    8  C9  UNL     1       2.895   2.396  81.016  1.00  0.00     0.141 C 
BRANCH   8   9
HETATM    9  N1  UNL     1       3.509   3.013  82.152  1.00  0.00    -0.323 N 
ATOM     10  H1  UNL     1       4.382   2.640  82.523  1.00  0.00     0.181 HD
BRANCH   9  11
HETATM   11  N2  UNL     1       2.916   4.123  82.753  1.00  0.00    -0.254 N 
HETATM   12  N3  UNL     1       2.439   3.963  83.928  1.00  0.00    -0.331 N 
ATOM     13  H32 UNL     1       2.497   3.057  84.392  1.00  0.00     0.178 HD
ATOM     14  H31 UNL     1       2.005   4.775  84.368  1.00  0.00     0.178 HD
ATOM     15  H2  UNL     1       2.866   5.023  82.276  1.00  0.00     0.207 HD
ENDBRANCH   9  11
ENDBRANCH   8   9
ENDBRANCH   7   8
ENDBRANCH   4   7
BRANCH   5  16
HETATM   16  O1  UNL     1       0.038   4.362  82.127  1.00  0.00    -0.371 OA
ATOM     17  H1  UNL     1      -0.642   4.844  82.583  1.00  0.00     0.212 HD
ENDBRANCH   5  16
BRANCH   1  18
HETATM   18  C3  UNL     1      -0.490   0.222  84.133  1.00  0.00     0.056 C 
BRANCH  18  19
HETATM   19  C2  UNL     1      -0.703   0.769  85.506  1.00  0.00     0.077 C 
HETATM   20  C1  UNL     1       0.330   1.807  85.889  1.00  0.00     0.032 C 
BRANCH  19  21
HETATM   21  N4  UNL     1      -1.980   1.193  85.871  1.00  0.00    -0.408 N 
HETATM   22  C11 UNL     1      -2.372   2.529  85.820  1.00  0.00     0.117 C 
HETATM   23  C12 UNL     1      -3.304   2.800  87.005  1.00  0.00     0.021 C 
HETATM   24  C13 UNL     1      -2.971   1.670  87.949  1.00  0.00     0.021 C 
HETATM   25  C14 UNL     1      -2.534   0.556  87.043  1.00  0.00     0.117 C 
ENDBRANCH  19  21
ENDBRANCH  18  19
ENDBRANCH   1  18
TORSDOF 8
ENDMDL
MODEL 4
REMARK VINA RESULT: -6.878727260      2.572      3.282
REMARK  8 active torsions:
REMARK  status: ('A' for Active; 'I' for Inactive)
REMARK    1  A    between atoms: C2_2  and  C3_3 
REMARK    2  A    between atoms: C2_2  and  N4_21 
REMARK    3  A    between atoms: C3_3  and  C4_4 
REMARK    4  A    between atoms: C7_7  and  C8_8 
REMARK    5  A    between atoms: C8_8  and  C9_9 
REMARK    6  A    between atoms: C9_9  and  N1_10 
REMARK    7  A    between atoms: N1_10  and  N2_12 
REMARK    8  A    between atoms: C10_17  and  O1_18 
ROOT
HETATM    1  C4  UNL     1      -1.336   1.890  83.513  1.00  0.00     0.126 C 
HETATM    2  C5  UNL     1      -0.962   0.420  83.674  1.00  0.00     0.032 C 
HETATM    3  C6  UNL     1       0.108   0.023  82.683  1.00  0.00     0.012 C 
HETATM    4  C7  UNL     1      -0.527   0.114  81.302  1.00  0.00     0.042 C 
HETATM    5  C10 UNL     1      -1.302   1.412  81.272  1.00  0.00     0.261 C 
HETATM    6  O2  UNL     1      -0.848   2.271  82.242  1.00  0.00    -0.356 OA
ENDROOT
BRANCH   4   7
HETATM    7  C8  UNL     1       0.530   0.071  80.218  1.00  0.00     0.030 C 
BRANCH   7   8
HETATM    8  C9  UNL     1       1.797   0.709  80.734  1.00  0.00     0.141 C 
BRANCH   8   9
HETATM    9  N1  UNL     1       1.959   2.046  80.249  1.00  0.00    -0.323 N 
ATOM     10  H1  UNL     1       2.238   2.204  79.281  1.00  0.00     0.181 HD
BRANCH   9  11
HETATM   11  N2  UNL     1       1.736   3.131  81.094  1.00  0.00    -0.254 N 
HETATM   12  N3  UNL     1       2.135   3.020  82.303  1.00  0.00    -0.331 N 
ATOM     13  H32 UNL     1       2.595   2.167  82.621  1.00  0.00     0.178 HD
ATOM     14  H31 UNL     1       1.972   3.815  82.922  1.00  0.00     0.178 HD
ATOM     15  H2  UNL     1       1.275   3.978  80.762  1.00  0.00     0.207 HD
ENDBRANCH   9  11
ENDBRANCH   8   9
ENDBRANCH   7   8
ENDBRANCH   4   7
BRANCH   5  16
HETATM   16  O1  UNL     1      -1.152   2.064  80.030  1.00  0.00    -0.371 OA
ATOM     17  H1  UNL     1      -1.679   2.853  79.992  1.00  0.00     0.212 HD
ENDBRANCH   5  16
BRANCH   1  18
HETATM   18  C3  UNL     1      -0.588   2.631  84.591  1.00  0.00     0.056 C 
BRANCH  18  19
HETATM   19  C2  UNL     1      -1.451   3.261  85.635  1.00  0.00     0.077 C 
HETATM   20  C1  UNL     1      -2.577   4.083  85.046  1.00  0.00     0.032 C 
BRANCH  19  21
HETATM   21  N4  UNL     1      -1.919   2.475  86.687  1.00  0.00    -0.408 N 
HETATM   22  C11 UNL     1      -1.334   1.260  87.036  1.00  0.00     0.117 C 
HETATM   23  C12 UNL     1      -2.444   0.302  87.477  1.00  0.00     0.021 C 
HETATM   24  C13 UNL     1      -3.675   0.922  86.861  1.00  0.00     0.021 C 
HETATM   25  C14 UNL     1      -3.356   2.387  86.805  1.00  0.00     0.117 C 
ENDBRANCH  19  21
ENDBRANCH  18  19
ENDBRANCH   1  18
TORSDOF 8
ENDMDL
MODEL 5
REMARK VINA RESULT: -6.708431531      0.989      1.295
REMARK  8 active torsions:
REMARK  status: ('A' for Active; 'I' for Inactive)
REMARK    1  A    between atoms: C2_2  and  C3_3 
REMARK    2  A    between atoms: C2_2  and  N4_21 
REMARK    3  A    between atoms: C3_3  and  C4_4 
REMARK    4  A    between atoms: C7_7  and  C8_8 
REMARK    5  A    between atoms: C8_8  and  C9_9 
REMARK    6  A    between atoms: C9_9  and  N1_10 
REMARK    7  A    between atoms: N1_10  and  N2_12 
REMARK    8  A    between atoms: C10_17  and  O1_18 
ROOT
HETATM    1  C4  UNL     1       0.085   3.414  83.448  1.00  0.00     0.126 C 
HETATM    2  C5  UNL     1      -1.053   2.591  82.852  1.00  0.00     0.032 C 
HETATM    3  C6  UNL     1      -0.553   1.251  82.363  1.00  0.00     0.012 C 
HETATM    4  C7  UNL     1       0.376   1.540  81.190  1.00  0.00     0.042 C 
HETATM    5  C10 UNL     1       1.254   2.694  81.613  1.00  0.00     0.261 C 
HETATM    6  O2  UNL     1       1.276   2.812  82.981  1.00  0.00    -0.356 OA
ENDROOT
BRANCH   4   7
HETATM    7  C8  UNL     1       1.195   0.316  80.837  1.00  0.00     0.030 C 
BRANCH   7   8
HETATM    8  C9  UNL     1       0.268  -0.791  80.394  1.00  0.00     0.141 C 
BRANCH   8   9
HETATM    9  N1  UNL     1       0.244  -1.875  81.328  1.00  0.00    -0.323 N 
ATOM     10  H1  UNL     1      -0.512  -1.942  82.009  1.00  0.00     0.181 HD
BRANCH   9  11
HETATM   11  N2  UNL     1       1.250  -2.839  81.310  1.00  0.00    -0.254 N 
HETATM   12  N3  UNL     1       0.884  -4.064  81.279  1.00  0.00    -0.331 N 
ATOM     13  H32 UNL     1      -0.106  -4.308  81.268  1.00  0.00     0.178 HD
ATOM     14  H31 UNL     1       1.620  -4.770  81.266  1.00  0.00     0.178 HD
ATOM     15  H2  UNL     1       2.237  -2.580  81.320  1.00  0.00     0.207 HD
ENDBRANCH   9  11
ENDBRANCH   8   9
ENDBRANCH   7   8
ENDBRANCH   4   7
BRANCH   5  16
HETATM   16  O1  UNL     1       2.585   2.502  81.187  1.00  0.00    -0.371 OA
ATOM     17  H1  UNL     1       3.113   2.117  81.877  1.00  0.00     0.212 HD
ENDBRANCH   5  16
BRANCH   1  18
HETATM   18  C3  UNL     1      -0.020   3.249  84.943  1.00  0.00     0.056 C 
BRANCH  18  19
HETATM   19  C2  UNL     1      -1.393   3.430  85.501  1.00  0.00     0.077 C 
HETATM   20  C1  UNL     1      -2.168   4.528  84.805  1.00  0.00     0.032 C 
BRANCH  19  21
HETATM   21  N4  UNL     1      -2.198   2.307  85.686  1.00  0.00    -0.408 N 
HETATM   22  C11 UNL     1      -3.399   2.351  86.391  1.00  0.00     0.117 C 
HETATM   23  C12 UNL     1      -3.547   1.038  87.166  1.00  0.00     0.021 C 
HETATM   24  C13 UNL     1      -2.128   0.527  87.221  1.00  0.00     0.021 C 
HETATM   25  C14 UNL     1      -1.494   1.080  85.978  1.00  0.00     0.117 C 
ENDBRANCH  19  21
ENDBRANCH  18  19
ENDBRANCH   1  18
TORSDOF 8
ENDMDL
