MODEL 1
REMARK VINA RESULT: -7.102249929      0.000      0.000
REMARK  8 active torsions:
REMARK  status: ('A' for Active; 'I' for Inactive)
REMARK    1  A    between atoms: C2_2  and  O1_3 
REMARK    2  A    between atoms: O1_3  and  C3_4 
REMARK    3  A    between atoms: C5_6  and  C6_7 
REMARK    4  A    between atoms: C8_11  and  C9_12 
REMARK    5  A    between atoms: C9_12  and  C10_13 
REMARK    6  A    between atoms: C14_20  and  C15_21 
REMARK    7  A    between atoms: C16_22  and  C17_23 
REMARK    8  A    between atoms: C17_23  and  N3_24 
ROOT
HETATM    1  C3  UNL     1     -17.008   7.649 -21.028  1.00  0.00     0.105 A 
HETATM    2  C4  UNL     1     -16.587   8.582 -21.945  1.00  0.00     0.055 A 
HETATM    3  C5  UNL     1     -16.702   9.937 -21.741  1.00  0.00     0.016 A 
HETATM    4  C13 UNL     1     -17.264  10.376 -20.569  1.00  0.00     0.103 A 
HETATM    5  N2  UNL     1     -17.691   9.471 -19.641  1.00  0.00    -0.356 N 
ATOM      6  H2  UNL     1     -18.108   9.803 -18.771  1.00  0.00     0.166 HD
HETATM    7  C14 UNL     1     -17.571   8.150 -19.856  1.00  0.00     0.120 A 
ENDROOT
BRANCH   7   8
HETATM    8  C15 UNL     1     -18.031   7.226 -18.860  1.00  0.00    -0.043 C 
HETATM    9  C16 UNL     1     -18.419   6.456 -18.016  1.00  0.00    -0.060 C 
BRANCH   9  10
HETATM   10  C17 UNL     1     -18.876   5.537 -16.980  1.00  0.00     0.186 C 
HETATM   11  C18 UNL     1     -18.211   4.214 -17.189  1.00  0.00     0.052 C 
HETATM   12  C19 UNL     1     -19.176   3.186 -16.629  1.00  0.00     0.003 C 
HETATM   13  C20 UNL     1     -20.543   3.820 -16.669  1.00  0.00     0.003 C 
HETATM   14  C21 UNL     1     -20.356   5.247 -17.093  1.00  0.00     0.052 C 
BRANCH  10  15
HETATM   15  N3  UNL     1     -18.588   6.026 -15.645  1.00  0.00    -0.059 N 
ATOM     16  H33 UNL     1     -17.619   6.334 -15.567  1.00  0.00     0.276 HD
ATOM     17  H32 UNL     1     -19.057   6.915 -15.469  1.00  0.00     0.276 HD
ATOM     18  H31 UNL     1     -18.817   5.340 -14.925  1.00  0.00     0.276 HD
ENDBRANCH  10  15
ENDBRANCH   9  10
ENDBRANCH   7   8
BRANCH   1  19
HETATM   19  O1  UNL     1     -16.890   6.279 -21.240  1.00  0.00    -0.348 OA
BRANCH  19  20
HETATM   20  C2  UNL     1     -15.954   5.852 -22.210  1.00  0.00     0.171 C 
HETATM   21  C1  UNL     1     -14.816   5.187 -21.434  1.00  0.00     0.034 C 
ENDBRANCH  19  20
ENDBRANCH   1  19
BRANCH   3  22
HETATM   22  C6  UNL     1     -16.223  10.881 -22.779  1.00  0.00     0.086 A 
HETATM   23  N1  UNL     1     -16.501  12.162 -22.921  1.00  0.00    -0.359 N 
HETATM   24  C7  UNL     1     -15.986  12.832 -23.897  1.00  0.00     0.103 A 
ATOM     25  H1  UNL     1     -17.124  12.625 -22.259  1.00  0.00     0.166 HD
HETATM   26  C8  UNL     1     -15.152  12.172 -24.763  1.00  0.00     0.000 A 
HETATM   27  S1  UNL     1     -15.169  10.586 -24.095  1.00  0.00    -0.075 SA
BRANCH  26  28
HETATM   28  C9  UNL     1     -14.436  12.717 -25.961  1.00  0.00     0.051 C 
BRANCH  28  29
HETATM   29  C10 UNL     1     -13.946  11.605 -26.852  1.00  0.00    -0.018 C 
HETATM   30  C11 UNL     1     -12.627  11.876 -27.490  1.00  0.00     0.010 C 
HETATM   31  C12 UNL     1     -14.975  11.457 -27.969  1.00  0.00     0.010 C 
ENDBRANCH  28  29
ENDBRANCH  26  28
ENDBRANCH   3  22
TORSDOF 8
ENDMDL
MODEL 2
REMARK VINA RESULT: -6.886997061      4.191     11.774
REMARK  8 active torsions:
REMARK  status: ('A' for Active; 'I' for Inactive)
REMARK    1  A    between atoms: C2_2  and  O1_3 
REMARK    2  A    between atoms: O1_3  and  C3_4 
REMARK    3  A    between atoms: C5_6  and  C6_7 
REMARK    4  A    between atoms: C8_11  and  C9_12 
REMARK    5  A    between atoms: C9_12  and  C10_13 
REMARK    6  A    between atoms: C14_20  and  C15_21 
REMARK    7  A    between atoms: C16_22  and  C17_23 
REMARK    8  A    between atoms: C17_23  and  N3_24 
ROOT
HETATM    1  C3  UNL     1     -14.033  10.641 -28.209  1.00  0.00     0.105 A 
HETATM    2  C4  UNL     1     -14.672  10.507 -27.000  1.00  0.00     0.055 A 
HETATM    3  C5  UNL     1     -14.650  11.480 -26.029  1.00  0.00     0.016 A 
HETATM    4  C13 UNL     1     -13.957  12.637 -26.279  1.00  0.00     0.103 A 
HETATM    5  N2  UNL     1     -13.313  12.797 -27.472  1.00  0.00    -0.356 N 
ATOM      6  H2  UNL     1     -12.799  13.660 -27.653  1.00  0.00     0.166 HD
HETATM    7  C14 UNL     1     -13.345  11.836 -28.411  1.00  0.00     0.120 A 
ENDROOT
BRANCH   7   8
HETATM    8  C15 UNL     1     -12.657  12.036 -29.653  1.00  0.00    -0.043 C 
HETATM    9  C16 UNL     1     -12.086  12.208 -30.702  1.00  0.00    -0.060 C 
BRANCH   9  10
HETATM   10  C17 UNL     1     -11.415  12.406 -31.982  1.00  0.00     0.186 C 
HETATM   11  C18 UNL     1     -11.325  11.088 -32.682  1.00  0.00     0.052 C 
HETATM   12  C19 UNL     1     -10.088  11.181 -33.556  1.00  0.00     0.003 C 
HETATM   13  C20 UNL     1      -9.204  12.228 -32.931  1.00  0.00     0.003 C 
HETATM   14  C21 UNL     1      -9.980  12.849 -31.807  1.00  0.00     0.052 C 
BRANCH  10  15
HETATM   15  N3  UNL     1     -12.108  13.363 -32.824  1.00  0.00    -0.059 N 
ATOM     16  H33 UNL     1     -11.566  14.220 -32.930  1.00  0.00     0.276 HD
ATOM     17  H32 UNL     1     -12.121  13.056 -33.797  1.00  0.00     0.276 HD
ATOM     18  H31 UNL     1     -13.051  13.561 -32.488  1.00  0.00     0.276 HD
ENDBRANCH  10  15
ENDBRANCH   9  10
ENDBRANCH   7   8
BRANCH   1  19
HETATM   19  O1  UNL     1     -14.059   9.653 -29.188  1.00  0.00    -0.348 OA
BRANCH  19  20
HETATM   20  C2  UNL     1     -13.223   8.528 -28.995  1.00  0.00     0.171 C 
HETATM   21  C1  UNL     1     -12.336   8.443 -30.238  1.00  0.00     0.034 C 
ENDBRANCH  19  20
ENDBRANCH   1  19
BRANCH   3  22
HETATM   22  C6  UNL     1     -15.365  11.260 -24.749  1.00  0.00     0.086 A 
HETATM   23  N1  UNL     1     -16.322  11.984 -24.203  1.00  0.00    -0.359 N 
HETATM   24  C7  UNL     1     -16.832  11.635 -23.069  1.00  0.00     0.103 A 
ATOM     25  H1  UNL     1     -16.660  12.822 -24.677  1.00  0.00     0.166 HD
HETATM   26  C8  UNL     1     -16.349  10.501 -22.468  1.00  0.00     0.000 A 
HETATM   27  S1  UNL     1     -15.160  10.002 -23.607  1.00  0.00    -0.075 SA
BRANCH  26  28
HETATM   28  C9  UNL     1     -16.768   9.890 -21.166  1.00  0.00     0.051 C 
BRANCH  28  29
HETATM   29  C10 UNL     1     -17.555   8.624 -21.389  1.00  0.00    -0.018 C 
HETATM   30  C11 UNL     1     -18.122   8.035 -20.144  1.00  0.00     0.010 C 
HETATM   31  C12 UNL     1     -16.582   7.606 -21.978  1.00  0.00     0.010 C 
ENDBRANCH  28  29
ENDBRANCH  26  28
ENDBRANCH   3  22
TORSDOF 8
ENDMDL
MODEL 3
REMARK VINA RESULT: -6.329980130      6.665      9.642
REMARK  8 active torsions:
REMARK  status: ('A' for Active; 'I' for Inactive)
REMARK    1  A    between atoms: C2_2  and  O1_3 
REMARK    2  A    between atoms: O1_3  and  C3_4 
REMARK    3  A    between atoms: C5_6  and  C6_7 
REMARK    4  A    between atoms: C8_11  and  C9_12 
REMARK    5  A    between atoms: C9_12  and  C10_13 
REMARK    6  A    between atoms: C14_20  and  C15_21 
REMARK    7  A    between atoms: C16_22  and  C17_23 
REMARK    8  A    between atoms: C17_23  and  N3_24 
ROOT
HETATM    1  C3  UNL     1     -11.680   6.814 -28.656  1.00  0.00     0.105 A 
HETATM    2  C4  UNL     1     -10.988   7.399 -29.689  1.00  0.00     0.055 A 
HETATM    3  C5  UNL     1      -9.947   8.276 -29.491  1.00  0.00     0.016 A 
HETATM    4  C13 UNL     1      -9.584   8.580 -28.204  1.00  0.00     0.103 A 
HETATM    5  N2  UNL     1     -10.254   8.013 -27.159  1.00  0.00    -0.356 N 
ATOM      6  H2  UNL     1      -9.979   8.241 -26.203  1.00  0.00     0.166 HD
HETATM    7  C14 UNL     1     -11.269   7.157 -27.369  1.00  0.00     0.120 A 
ENDROOT
BRANCH   7   8
HETATM    8  C15 UNL     1     -11.952   6.579 -26.248  1.00  0.00    -0.043 C 
HETATM    9  C16 UNL     1     -12.532   6.101 -25.304  1.00  0.00    -0.060 C 
BRANCH   9  10
HETATM   10  C17 UNL     1     -13.231   5.544 -24.152  1.00  0.00     0.186 C 
HETATM   11  C18 UNL     1     -14.643   5.251 -24.548  1.00  0.00     0.052 C 
HETATM   12  C19 UNL     1     -15.453   5.378 -23.271  1.00  0.00     0.003 C 
HETATM   13  C20 UNL     1     -14.665   6.279 -22.356  1.00  0.00     0.003 C 
HETATM   14  C21 UNL     1     -13.347   6.542 -23.022  1.00  0.00     0.052 C 
BRANCH  10  15
HETATM   15  N3  UNL     1     -12.599   4.336 -23.657  1.00  0.00    -0.059 N 
ATOM     16  H33 UNL     1     -12.002   3.914 -24.368  1.00  0.00     0.276 HD
ATOM     17  H32 UNL     1     -11.890   4.552 -22.955  1.00  0.00     0.276 HD
ATOM     18  H31 UNL     1     -13.278   3.664 -23.299  1.00  0.00     0.276 HD
ENDBRANCH  10  15
ENDBRANCH   9  10
ENDBRANCH   7   8
BRANCH   1  19
HETATM   19  O1  UNL     1     -12.732   5.929 -28.861  1.00  0.00    -0.348 OA
BRANCH  19  20
HETATM   20  C2  UNL     1     -12.408   4.634 -29.330  1.00  0.00     0.171 C 
HETATM   21  C1  UNL     1     -13.037   3.655 -28.337  1.00  0.00     0.034 C 
ENDBRANCH  19  20
ENDBRANCH   1  19
BRANCH   3  22
HETATM   22  C6  UNL     1      -9.250   8.866 -30.659  1.00  0.00     0.086 A 
HETATM   23  N1  UNL     1      -8.115   9.537 -30.690  1.00  0.00    -0.359 N 
HETATM   24  C7  UNL     1      -7.656   9.981 -31.812  1.00  0.00     0.103 A 
ATOM     25  H1  UNL     1      -7.599   9.705 -29.826  1.00  0.00     0.166 HD
HETATM   26  C8  UNL     1      -8.381   9.731 -32.949  1.00  0.00     0.000 A 
HETATM   27  S1  UNL     1      -9.712   8.850 -32.307  1.00  0.00    -0.075 SA
BRANCH  26  28
HETATM   28  C9  UNL     1      -8.068  10.133 -34.358  1.00  0.00     0.051 C 
BRANCH  28  29
HETATM   29  C10 UNL     1      -9.074  11.129 -34.874  1.00  0.00    -0.018 C 
HETATM   30  C11 UNL     1      -9.721  11.945 -33.808  1.00  0.00     0.010 C 
HETATM   31  C12 UNL     1     -10.169  10.323 -35.565  1.00  0.00     0.010 C 
ENDBRANCH  28  29
ENDBRANCH  26  28
ENDBRANCH   3  22
TORSDOF 8
ENDMDL
MODEL 4
REMARK VINA RESULT: -6.311366526      6.747     10.247
REMARK  8 active torsions:
REMARK  status: ('A' for Active; 'I' for Inactive)
REMARK    1  A    between atoms: C2_2  and  O1_3 
REMARK    2  A    between atoms: O1_3  and  C3_4 
REMARK    3  A    between atoms: C5_6  and  C6_7 
REMARK    4  A    between atoms: C8_11  and  C9_12 
REMARK    5  A    between atoms: C9_12  and  C10_13 
REMARK    6  A    between atoms: C14_20  and  C15_21 
REMARK    7  A    between atoms: C16_22  and  C17_23 
REMARK    8  A    between atoms: C17_23  and  N3_24 
ROOT
HETATM    1  C3  UNL     1     -12.398  10.105 -28.438  1.00  0.00     0.105 A 
HETATM    2  C4  UNL     1     -11.689  10.103 -29.615  1.00  0.00     0.055 A 
HETATM    3  C5  UNL     1     -11.612  11.197 -30.444  1.00  0.00     0.016 A 
HETATM    4  C13 UNL     1     -12.273  12.342 -30.079  1.00  0.00     0.103 A 
HETATM    5  N2  UNL     1     -12.984  12.372 -28.915  1.00  0.00    -0.356 N 
ATOM      6  H2  UNL     1     -13.474  13.226 -28.648  1.00  0.00     0.166 HD
HETATM    7  C14 UNL     1     -13.050  11.294 -28.116  1.00  0.00     0.120 A 
ENDROOT
BRANCH   7   8
HETATM    8  C15 UNL     1     -13.806  11.359 -26.899  1.00  0.00    -0.043 C 
HETATM    9  C16 UNL     1     -14.435  11.416 -25.871  1.00  0.00    -0.060 C 
BRANCH   9  10
HETATM   10  C17 UNL     1     -15.177  11.478 -24.616  1.00  0.00     0.186 C 
HETATM   11  C18 UNL     1     -16.639  11.524 -24.929  1.00  0.00     0.052 C 
HETATM   12  C19 UNL     1     -17.274  12.274 -23.774  1.00  0.00     0.003 C 
HETATM   13  C20 UNL     1     -16.186  13.125 -23.171  1.00  0.00     0.003 C 
HETATM   14  C21 UNL     1     -14.905  12.757 -23.859  1.00  0.00     0.052 C 
BRANCH  10  15
HETATM   15  N3  UNL     1     -14.895  10.346 -23.755  1.00  0.00    -0.059 N 
ATOM     16  H33 UNL     1     -13.993   9.927 -23.980  1.00  0.00     0.276 HD
ATOM     17  H32 UNL     1     -14.702  10.648 -22.800  1.00  0.00     0.276 HD
ATOM     18  H31 UNL     1     -15.640   9.649 -23.776  1.00  0.00     0.276 HD
ENDBRANCH  10  15
ENDBRANCH   9  10
ENDBRANCH   7   8
BRANCH   1  19
HETATM   19  O1  UNL     1     -12.473   8.995 -27.603  1.00  0.00    -0.348 OA
BRANCH  19  20
HETATM   20  C2  UNL     1     -12.146   7.738 -28.164  1.00  0.00     0.171 C 
HETATM   21  C1  UNL     1     -11.711   6.854 -26.994  1.00  0.00     0.034 C 
ENDBRANCH  19  20
ENDBRANCH   1  19
BRANCH   3  22
HETATM   22  C6  UNL     1     -10.826  11.116 -31.699  1.00  0.00     0.086 A 
HETATM   23  N1  UNL     1     -11.104  11.627 -32.882  1.00  0.00    -0.359 N 
HETATM   24  C7  UNL     1     -10.293  11.452 -33.871  1.00  0.00     0.103 A 
ATOM     25  H1  UNL     1     -11.962  12.163 -33.016  1.00  0.00     0.166 HD
HETATM   26  C8  UNL     1      -9.151  10.728 -33.646  1.00  0.00     0.000 A 
HETATM   27  S1  UNL     1      -9.328  10.336 -31.980  1.00  0.00    -0.075 SA
BRANCH  26  28
HETATM   28  C9  UNL     1      -8.061  10.387 -34.616  1.00  0.00     0.051 C 
BRANCH  28  29
HETATM   29  C10 UNL     1      -6.784  10.038 -33.896  1.00  0.00    -0.018 C 
HETATM   30  C11 UNL     1      -6.113  11.202 -33.251  1.00  0.00     0.010 C 
HETATM   31  C12 UNL     1      -5.829   9.482 -34.949  1.00  0.00     0.010 C 
ENDBRANCH  28  29
ENDBRANCH  26  28
ENDBRANCH   3  22
TORSDOF 8
ENDMDL
MODEL 5
REMARK VINA RESULT: -6.295755388      4.267     11.658
REMARK  8 active torsions:
REMARK  status: ('A' for Active; 'I' for Inactive)
REMARK    1  A    between atoms: C2_2  and  O1_3 
REMARK    2  A    between atoms: O1_3  and  C3_4 
REMARK    3  A    between atoms: C5_6  and  C6_7 
REMARK    4  A    between atoms: C8_11  and  C9_12 
REMARK    5  A    between atoms: C9_12  and  C10_13 
REMARK    6  A    between atoms: C14_20  and  C15_21 
REMARK    7  A    between atoms: C16_22  and  C17_23 
REMARK    8  A    between atoms: C17_23  and  N3_24 
ROOT
HETATM    1  C3  UNL     1     -13.698   9.949 -27.979  1.00  0.00     0.105 A 
HETATM    2  C4  UNL     1     -14.374   9.973 -26.783  1.00  0.00     0.055 A 
HETATM    3  C5  UNL     1     -14.563  11.122 -26.053  1.00  0.00     0.016 A 
HETATM    4  C13 UNL     1     -14.054  12.298 -26.542  1.00  0.00     0.103 A 
HETATM    5  N2  UNL     1     -13.379  12.304 -27.728  1.00  0.00    -0.356 N 
ATOM      6  H2  UNL     1     -13.002  13.181 -28.087  1.00  0.00     0.166 HD
HETATM    7  C14 UNL     1     -13.203  11.171 -28.429  1.00  0.00     0.120 A 
ENDROOT
BRANCH   7   8
HETATM    8  C15 UNL     1     -12.488  11.212 -29.672  1.00  0.00    -0.043 C 
HETATM    9  C16 UNL     1     -11.895  11.248 -30.723  1.00  0.00    -0.060 C 
BRANCH   9  10
HETATM   10  C17 UNL     1     -11.197  11.285 -32.002  1.00  0.00     0.186 C 
HETATM   11  C18 UNL     1      -9.752  11.578 -31.749  1.00  0.00     0.052 C 
HETATM   12  C19 UNL     1      -9.261  12.287 -32.996  1.00  0.00     0.003 C 
HETATM   13  C20 UNL     1     -10.475  12.902 -33.642  1.00  0.00     0.003 C 
HETATM   14  C21 UNL     1     -11.673  12.424 -32.875  1.00  0.00     0.052 C 
BRANCH  10  15
HETATM   15  N3  UNL     1     -11.324  10.040 -32.734  1.00  0.00    -0.059 N 
ATOM     16  H33 UNL     1     -10.872   9.272 -32.237  1.00  0.00     0.276 HD
ATOM     17  H32 UNL     1     -12.285   9.700 -32.719  1.00  0.00     0.276 HD
ATOM     18  H31 UNL     1     -10.975  10.116 -33.690  1.00  0.00     0.276 HD
ENDBRANCH  10  15
ENDBRANCH   9  10
ENDBRANCH   7   8
BRANCH   1  19
HETATM   19  O1  UNL     1     -13.509   8.783 -28.714  1.00  0.00    -0.348 OA
BRANCH  19  20
HETATM   20  C2  UNL     1     -12.503   7.893 -28.269  1.00  0.00     0.171 C 
HETATM   21  C1  UNL     1     -11.593   7.649 -29.474  1.00  0.00     0.034 C 
ENDBRANCH  19  20
ENDBRANCH   1  19
BRANCH   3  22
HETATM   22  C6  UNL     1     -15.304  11.066 -24.770  1.00  0.00     0.086 A 
HETATM   23  N1  UNL     1     -16.223  11.892 -24.310  1.00  0.00    -0.359 N 
HETATM   24  C7  UNL     1     -16.764  11.682 -23.157  1.00  0.00     0.103 A 
ATOM     25  H1  UNL     1     -16.509  12.698 -24.867  1.00  0.00     0.166 HD
HETATM   26  C8  UNL     1     -16.354  10.586 -22.443  1.00  0.00     0.000 A 
HETATM   27  S1  UNL     1     -15.182   9.915 -23.509  1.00  0.00    -0.075 SA
BRANCH  26  28
HETATM   28  C9  UNL     1     -16.820  10.127 -21.095  1.00  0.00     0.051 C 
BRANCH  28  29
HETATM   29  C10 UNL     1     -17.597   8.839 -21.200  1.00  0.00    -0.018 C 
HETATM   30  C11 UNL     1     -17.911   8.212 -19.885  1.00  0.00     0.010 C 
HETATM   31  C12 UNL     1     -16.719   7.864 -21.977  1.00  0.00     0.010 C 
ENDBRANCH  28  29
ENDBRANCH  26  28
ENDBRANCH   3  22
TORSDOF 8
ENDMDL
