MODEL 1
REMARK VINA RESULT: -8.017424931      0.000      0.000
REMARK  6 active torsions:
REMARK  status: ('A' for Active; 'I' for Inactive)
REMARK    1  A    between atoms: O1_2  and  C2_3 
REMARK    2  A    between atoms: C4_5  and  C5_6 
REMARK    3  A    between atoms: C5_6  and  C6_8 
REMARK    4  A    between atoms: C12_14  and  O3_15 
REMARK    5  A    between atoms: O3_15  and  C13_16 
REMARK    6  A    between atoms: C22_26  and  O5_27 
ROOT
HETATM    1  C2  UNL     1     -13.408   5.453 -22.829  1.00  0.00     0.102 A 
HETATM    2  C3  UNL     1     -14.556   5.592 -22.102  1.00  0.00     0.057 A 
HETATM    3  C4  UNL     1     -15.387   6.721 -22.312  1.00  0.00     0.046 A 
HETATM    4  C12 UNL     1     -15.033   7.668 -23.246  1.00  0.00     0.086 A 
HETATM    5  C21 UNL     1     -13.854   7.517 -23.987  1.00  0.00     0.077 A 
HETATM    6  C22 UNL     1     -13.056   6.400 -23.762  1.00  0.00     0.101 A 
ENDROOT
BRANCH   4   7
HETATM    7  O3  UNL     1     -15.812   8.774 -23.485  1.00  0.00    -0.337 OA
BRANCH   7   8
HETATM    8  C13 UNL     1     -15.599  10.103 -23.229  1.00  0.00     0.202 C 
HETATM    9  C14 UNL     1     -16.675  10.717 -22.361  1.00  0.00     0.156 C 
HETATM   10  O4  UNL     1     -17.106  10.167 -21.380  1.00  0.00    -0.295 OA
HETATM   11  C15 UNL     1     -17.205  12.044 -22.747  1.00  0.00     0.081 C 
HETATM   12  C16 UNL     1     -16.161  12.991 -23.243  1.00  0.00     0.012 C 
HETATM   13  C17 UNL     1     -15.061  12.336 -24.023  1.00  0.00    -0.012 C 
HETATM   14  C18 UNL     1     -14.640  13.158 -25.224  1.00  0.00     0.010 C 
HETATM   15  C19 UNL     1     -15.574  10.974 -24.472  1.00  0.00     0.022 C 
HETATM   16  C20 UNL     1     -14.632  10.456 -25.516  1.00  0.00     0.013 C 
ENDBRANCH   7   8
ENDBRANCH   4   7
BRANCH   3  17
HETATM   17  C5  UNL     1     -16.581   6.864 -21.517  1.00  0.00     0.166 C 
HETATM   18  O2  UNL     1     -17.693   6.847 -22.177  1.00  0.00    -0.292 OA
BRANCH  17  19
HETATM   19  C6  UNL     1     -16.725   7.018 -20.076  1.00  0.00     0.061 C 
HETATM   20  C7  UNL     1     -18.206   7.240 -19.704  1.00  0.00     0.012 C 
HETATM   21  C8  UNL     1     -18.584   6.624 -18.404  1.00  0.00     0.001 C 
HETATM   22  C9  UNL     1     -17.501   6.553 -17.378  1.00  0.00     0.000 C 
HETATM   23  C10 UNL     1     -16.218   5.969 -17.927  1.00  0.00     0.001 C 
HETATM   24  C11 UNL     1     -16.410   5.674 -19.397  1.00  0.00     0.012 C 
ENDBRANCH  17  19
ENDBRANCH   3  17
BRANCH   6  25
HETATM   25  O5  UNL     1     -11.887   6.242 -24.491  1.00  0.00    -0.358 OA
ATOM     26  H5  UNL     1     -11.054   6.472 -24.096  1.00  0.00     0.217 HD
ENDBRANCH   6  25
BRANCH   1  27
HETATM   27  O1  UNL     1     -12.589   4.369 -22.643  1.00  0.00    -0.353 OA
HETATM   28  C1  UNL     1     -11.711   4.179 -21.574  1.00  0.00     0.210 C 
ENDBRANCH   1  27
TORSDOF 6
ENDMDL
MODEL 2
REMARK VINA RESULT: -7.682235045      7.092     10.171
REMARK  6 active torsions:
REMARK  status: ('A' for Active; 'I' for Inactive)
REMARK    1  A    between atoms: O1_2  and  C2_3 
REMARK    2  A    between atoms: C4_5  and  C5_6 
REMARK    3  A    between atoms: C5_6  and  C6_8 
REMARK    4  A    between atoms: C12_14  and  O3_15 
REMARK    5  A    between atoms: O3_15  and  C13_16 
REMARK    6  A    between atoms: C22_26  and  O5_27 
ROOT
HETATM    1  C2  UNL     1     -11.760   5.191 -29.587  1.00  0.00     0.102 A 
HETATM    2  C3  UNL     1     -12.512   6.331 -29.545  1.00  0.00     0.057 A 
HETATM    3  C4  UNL     1     -11.923   7.573 -29.891  1.00  0.00     0.046 A 
HETATM    4  C12 UNL     1     -10.601   7.622 -30.269  1.00  0.00     0.086 A 
HETATM    5  C21 UNL     1      -9.837   6.449 -30.310  1.00  0.00     0.077 A 
HETATM    6  C22 UNL     1     -10.438   5.243 -29.965  1.00  0.00     0.101 A 
ENDROOT
BRANCH   4   7
HETATM    7  O3  UNL     1      -9.993   8.804 -30.619  1.00  0.00    -0.337 OA
BRANCH   7   8
HETATM    8  C13 UNL     1      -9.197   9.130 -31.686  1.00  0.00     0.202 C 
HETATM    9  C14 UNL     1      -7.813   9.581 -31.273  1.00  0.00     0.156 C 
HETATM   10  O4  UNL     1      -7.170   9.006 -30.433  1.00  0.00    -0.295 OA
HETATM   11  C15 UNL     1      -7.245  10.774 -31.939  1.00  0.00     0.081 C 
HETATM   12  C16 UNL     1      -7.534  10.844 -33.404  1.00  0.00     0.012 C 
HETATM   13  C17 UNL     1      -8.879  10.305 -33.789  1.00  0.00    -0.012 C 
HETATM   14  C18 UNL     1      -9.551  11.147 -34.854  1.00  0.00     0.010 C 
HETATM   15  C19 UNL     1      -9.731  10.275 -32.527  1.00  0.00     0.022 C 
HETATM   16  C20 UNL     1     -11.155  10.062 -32.947  1.00  0.00     0.013 C 
ENDBRANCH   7   8
ENDBRANCH   4   7
BRANCH   3  17
HETATM   17  C5  UNL     1     -12.725   8.768 -29.816  1.00  0.00     0.166 C 
HETATM   18  O2  UNL     1     -13.590   8.917 -30.765  1.00  0.00    -0.292 OA
BRANCH  17  19
HETATM   19  C6  UNL     1     -12.714   9.834 -28.823  1.00  0.00     0.061 C 
HETATM   20  C7  UNL     1     -12.210  11.149 -29.451  1.00  0.00     0.012 C 
HETATM   21  C8  UNL     1     -12.874  12.358 -28.896  1.00  0.00     0.001 C 
HETATM   22  C9  UNL     1     -13.307  12.265 -27.470  1.00  0.00     0.000 C 
HETATM   23  C10 UNL     1     -14.096  11.006 -27.183  1.00  0.00     0.001 C 
HETATM   24  C11 UNL     1     -14.165  10.180 -28.446  1.00  0.00     0.012 C 
ENDBRANCH  17  19
ENDBRANCH   3  17
BRANCH   6  25
HETATM   25  O5  UNL     1      -9.690   4.076 -30.002  1.00  0.00    -0.358 OA
ATOM     26  H5  UNL     1      -8.782   4.092 -29.725  1.00  0.00     0.217 HD
ENDBRANCH   6  25
BRANCH   1  27
HETATM   27  O1  UNL     1     -12.308   3.978 -29.256  1.00  0.00    -0.353 OA
HETATM   28  C1  UNL     1     -12.976   3.678 -28.067  1.00  0.00     0.210 C 
ENDBRANCH   1  27
TORSDOF 6
ENDMDL
MODEL 3
REMARK VINA RESULT: -7.348842243      9.067     11.941
REMARK  6 active torsions:
REMARK  status: ('A' for Active; 'I' for Inactive)
REMARK    1  A    between atoms: O1_2  and  C2_3 
REMARK    2  A    between atoms: C4_5  and  C5_6 
REMARK    3  A    between atoms: C5_6  and  C6_8 
REMARK    4  A    between atoms: C12_14  and  O3_15 
REMARK    5  A    between atoms: O3_15  and  C13_16 
REMARK    6  A    between atoms: C22_26  and  O5_27 
ROOT
HETATM    1  C2  UNL     1     -11.272   6.295 -29.522  1.00  0.00     0.102 A 
HETATM    2  C3  UNL     1     -11.848   7.477 -29.892  1.00  0.00     0.057 A 
HETATM    3  C4  UNL     1     -11.031   8.548 -30.331  1.00  0.00     0.046 A 
HETATM    4  C12 UNL     1      -9.665   8.391 -30.383  1.00  0.00     0.086 A 
HETATM    5  C21 UNL     1      -9.083   7.176 -30.001  1.00  0.00     0.077 A 
HETATM    6  C22 UNL     1      -9.906   6.140 -29.574  1.00  0.00     0.101 A 
ENDROOT
BRANCH   4   7
HETATM    7  O3  UNL     1      -8.837   9.401 -30.808  1.00  0.00    -0.337 OA
BRANCH   7   8
HETATM    8  C13 UNL     1      -7.668   9.372 -31.523  1.00  0.00     0.202 C 
HETATM    9  C14 UNL     1      -6.527  10.071 -30.817  1.00  0.00     0.156 C 
HETATM   10  O4  UNL     1      -6.302   9.919 -29.644  1.00  0.00    -0.295 OA
HETATM   11  C15 UNL     1      -5.665  10.971 -31.616  1.00  0.00     0.081 C 
HETATM   12  C16 UNL     1      -5.355  10.456 -32.984  1.00  0.00     0.012 C 
HETATM   13  C17 UNL     1      -6.477   9.689 -33.617  1.00  0.00    -0.012 C 
HETATM   14  C18 UNL     1      -6.623  10.000 -35.094  1.00  0.00     0.010 C 
HETATM   15  C19 UNL     1      -7.754  10.059 -32.873  1.00  0.00     0.022 C 
HETATM   16  C20 UNL     1      -8.912   9.573 -33.692  1.00  0.00     0.013 C 
ENDBRANCH   7   8
ENDBRANCH   4   7
BRANCH   3  17
HETATM   17  C5  UNL     1     -11.655   9.796 -30.693  1.00  0.00     0.166 C 
HETATM   18  O2  UNL     1     -12.736  10.085 -30.045  1.00  0.00    -0.292 OA
BRANCH  17  19
HETATM   19  C6  UNL     1     -11.246  10.789 -31.677  1.00  0.00     0.061 C 
HETATM   20  C7  UNL     1     -12.472  11.318 -32.449  1.00  0.00     0.012 C 
HETATM   21  C8  UNL     1     -12.360  12.756 -32.815  1.00  0.00     0.001 C 
HETATM   22  C9  UNL     1     -10.975  13.256 -33.067  1.00  0.00     0.000 C 
HETATM   23  C10 UNL     1     -10.011  12.878 -31.965  1.00  0.00     0.001 C 
HETATM   24  C11 UNL     1     -10.747  12.044 -30.942  1.00  0.00     0.012 C 
ENDBRANCH  17  19
ENDBRANCH   3  17
BRANCH   6  25
HETATM   25  O5  UNL     1      -9.339   4.932 -29.195  1.00  0.00    -0.358 OA
ATOM     26  H5  UNL     1      -8.599   4.929 -28.599  1.00  0.00     0.217 HD
ENDBRANCH   6  25
BRANCH   1  27
HETATM   27  O1  UNL     1     -12.043   5.244 -29.094  1.00  0.00    -0.353 OA
HETATM   28  C1  UNL     1     -12.692   4.317 -29.913  1.00  0.00     0.210 C 
ENDBRANCH   1  27
TORSDOF 6
ENDMDL
MODEL 4
REMARK VINA RESULT: -7.327210955      7.673     11.081
REMARK  6 active torsions:
REMARK  status: ('A' for Active; 'I' for Inactive)
REMARK    1  A    between atoms: O1_2  and  C2_3 
REMARK    2  A    between atoms: C4_5  and  C5_6 
REMARK    3  A    between atoms: C5_6  and  C6_8 
REMARK    4  A    between atoms: C12_14  and  O3_15 
REMARK    5  A    between atoms: O3_15  and  C13_16 
REMARK    6  A    between atoms: C22_26  and  O5_27 
ROOT
HETATM    1  C2  UNL     1     -12.415   7.324 -27.606  1.00  0.00     0.102 A 
HETATM    2  C3  UNL     1     -11.637   6.476 -28.343  1.00  0.00     0.057 A 
HETATM    3  C4  UNL     1     -11.075   6.922 -29.565  1.00  0.00     0.046 A 
HETATM    4  C12 UNL     1     -11.315   8.205 -30.001  1.00  0.00     0.086 A 
HETATM    5  C21 UNL     1     -12.113   9.068 -29.240  1.00  0.00     0.077 A 
HETATM    6  C22 UNL     1     -12.653   8.606 -28.044  1.00  0.00     0.101 A 
ENDROOT
BRANCH   4   7
HETATM    7  O3  UNL     1     -10.784   8.680 -31.176  1.00  0.00    -0.337 OA
BRANCH   7   8
HETATM    8  C13 UNL     1     -10.441   9.948 -31.565  1.00  0.00     0.202 C 
HETATM    9  C14 UNL     1     -11.204  10.418 -32.784  1.00  0.00     0.156 C 
HETATM   10  O4  UNL     1     -12.390  10.250 -32.908  1.00  0.00    -0.295 OA
HETATM   11  C15 UNL     1     -10.447  11.109 -33.853  1.00  0.00     0.081 C 
HETATM   12  C16 UNL     1      -9.406  12.052 -33.344  1.00  0.00     0.012 C 
HETATM   13  C17 UNL     1      -8.733  11.597 -32.084  1.00  0.00    -0.012 C 
HETATM   14  C18 UNL     1      -7.244  11.882 -32.093  1.00  0.00     0.010 C 
HETATM   15  C19 UNL     1      -8.981  10.100 -31.953  1.00  0.00     0.022 C 
HETATM   16  C20 UNL     1      -8.051   9.577 -30.900  1.00  0.00     0.013 C 
ENDBRANCH   7   8
ENDBRANCH   4   7
BRANCH   3  17
HETATM   17  C5  UNL     1     -10.279   6.005 -30.340  1.00  0.00     0.166 C 
HETATM   18  O2  UNL     1     -10.842   4.873 -30.612  1.00  0.00    -0.292 OA
BRANCH  17  19
HETATM   19  C6  UNL     1      -8.932   6.164 -30.873  1.00  0.00     0.061 C 
HETATM   20  C7  UNL     1      -8.031   5.000 -30.413  1.00  0.00     0.012 C 
HETATM   21  C8  UNL     1      -7.025   4.598 -31.433  1.00  0.00     0.001 C 
HETATM   22  C9  UNL     1      -6.534   5.688 -32.327  1.00  0.00     0.000 C 
HETATM   23  C10 UNL     1      -7.661   6.493 -32.935  1.00  0.00     0.001 C 
HETATM   24  C11 UNL     1      -8.974   5.970 -32.399  1.00  0.00     0.012 C 
ENDBRANCH  17  19
ENDBRANCH   3  17
BRANCH   6  25
HETATM   25  O5  UNL     1     -13.444   9.453 -27.283  1.00  0.00    -0.358 OA
ATOM     26  H5  UNL     1     -14.273   9.139 -26.941  1.00  0.00     0.217 HD
ENDBRANCH   6  25
BRANCH   1  27
HETATM   27  O1  UNL     1     -12.969   6.914 -26.421  1.00  0.00    -0.353 OA
HETATM   28  C1  UNL     1     -12.324   6.172 -25.428  1.00  0.00     0.210 C 
ENDBRANCH   1  27
TORSDOF 6
ENDMDL
MODEL 5
REMARK VINA RESULT: -7.288236947      7.446     10.839
REMARK  6 active torsions:
REMARK  status: ('A' for Active; 'I' for Inactive)
REMARK    1  A    between atoms: O1_2  and  C2_3 
REMARK    2  A    between atoms: C4_5  and  C5_6 
REMARK    3  A    between atoms: C5_6  and  C6_8 
REMARK    4  A    between atoms: C12_14  and  O3_15 
REMARK    5  A    between atoms: O3_15  and  C13_16 
REMARK    6  A    between atoms: C22_26  and  O5_27 
ROOT
HETATM    1  C2  UNL     1     -11.545   7.271 -27.483  1.00  0.00     0.102 A 
HETATM    2  C3  UNL     1     -10.549   7.190 -28.414  1.00  0.00     0.057 A 
HETATM    3  C4  UNL     1     -10.652   7.931 -29.618  1.00  0.00     0.046 A 
HETATM    4  C12 UNL     1     -11.753   8.727 -29.841  1.00  0.00     0.086 A 
HETATM    5  C21 UNL     1     -12.769   8.804 -28.880  1.00  0.00     0.077 A 
HETATM    6  C22 UNL     1     -12.644   8.067 -27.707  1.00  0.00     0.101 A 
ENDROOT
BRANCH   4   7
HETATM    7  O3  UNL     1     -11.889   9.466 -30.990  1.00  0.00    -0.337 OA
BRANCH   7   8
HETATM    8  C13 UNL     1     -11.288  10.629 -31.394  1.00  0.00     0.202 C 
HETATM    9  C14 UNL     1     -12.034  11.866 -30.945  1.00  0.00     0.156 C 
HETATM   10  O4  UNL     1     -12.471  11.988 -29.830  1.00  0.00    -0.295 OA
HETATM   11  C15 UNL     1     -12.223  12.957 -31.928  1.00  0.00     0.081 C 
HETATM   12  C16 UNL     1     -11.031  13.205 -32.794  1.00  0.00     0.012 C 
HETATM   13  C17 UNL     1     -10.262  11.966 -33.145  1.00  0.00    -0.012 C 
HETATM   14  C18 UNL     1      -9.787  11.974 -34.584  1.00  0.00     0.010 C 
HETATM   15  C19 UNL     1     -11.183  10.778 -32.901  1.00  0.00     0.022 C 
HETATM   16  C20 UNL     1     -10.560   9.581 -33.554  1.00  0.00     0.013 C 
ENDBRANCH   7   8
ENDBRANCH   4   7
BRANCH   3  17
HETATM   17  C5  UNL     1      -9.604   7.813 -30.600  1.00  0.00     0.166 C 
HETATM   18  O2  UNL     1      -9.632   6.738 -31.317  1.00  0.00    -0.292 OA
BRANCH  17  19
HETATM   19  C6  UNL     1      -8.516   8.730 -30.913  1.00  0.00     0.061 C 
HETATM   20  C7  UNL     1      -7.524   8.810 -29.734  1.00  0.00     0.012 C 
HETATM   21  C8  UNL     1      -6.111   8.986 -30.166  1.00  0.00     0.001 C 
HETATM   22  C9  UNL     1      -5.910   9.744 -31.438  1.00  0.00     0.000 C 
HETATM   23  C10 UNL     1      -6.784   9.234 -32.562  1.00  0.00     0.001 C 
HETATM   24  C11 UNL     1      -7.655   8.119 -32.032  1.00  0.00     0.012 C 
ENDBRANCH  17  19
ENDBRANCH   3  17
BRANCH   6  25
HETATM   25  O5  UNL     1     -13.645   8.137 -26.751  1.00  0.00    -0.358 OA
ATOM     26  H5  UNL     1     -14.112   7.347 -26.502  1.00  0.00     0.217 HD
ENDBRANCH   6  25
BRANCH   1  27
HETATM   27  O1  UNL     1     -11.466   6.564 -26.311  1.00  0.00    -0.353 OA
HETATM   28  C1  UNL     1     -10.550   5.549 -26.026  1.00  0.00     0.210 C 
ENDBRANCH   1  27
TORSDOF 6
ENDMDL
