MODEL 1
REMARK VINA RESULT: -6.251416868      0.000      0.000
REMARK  7 active torsions:
REMARK  status: ('A' for Active; 'I' for Inactive)
REMARK    1  A    between atoms: O1_2  and  C2_3 
REMARK    2  A    between atoms: C2_3  and  C3_5 
REMARK    3  A    between atoms: C3_5  and  C4_7 
REMARK    4  A    between atoms: C4_7  and  N1_8 
REMARK       I    between atoms: N1_8  and  C5_10 
REMARK       I    between atoms: C5_10  and  N2_12 
REMARK    5  A    between atoms: N2_12  and  S1_14 
REMARK    6  A    between atoms: S1_14  and  N3_15 
REMARK    7  A    between atoms: N3_15  and  N4_16 
ROOT
HETATM    1  N1  UNL     1     -41.195 -21.073  10.201  1.00  0.00    -0.335 N 
ATOM      2  H1  UNL     1     -40.879 -20.491  10.977  1.00  0.00     0.164 HD
HETATM    3  C5  UNL     1     -40.662 -20.820   8.910  1.00  0.00     0.327 C 
HETATM    4  O4  UNL     1     -41.026 -21.508   7.926  1.00  0.00    -0.246 OA
HETATM    5  N2  UNL     1     -39.709 -19.788   8.703  1.00  0.00    -0.267 N 
ATOM      6  H2  UNL     1     -39.411 -19.229   9.503  1.00  0.00     0.180 HD
ENDROOT
BRANCH   1   7
HETATM    7  C4  UNL     1     -42.159 -22.105  10.475  1.00  0.00     0.214 C 
BRANCH   7   8
HETATM    8  C3  UNL     1     -41.728 -23.079  11.500  1.00  0.00     0.241 C 
HETATM    9  O3  UNL     1     -42.399 -23.267  12.530  1.00  0.00    -0.285 OA
BRANCH   8  10
HETATM   10  C2  UNL     1     -40.503 -23.823  11.297  1.00  0.00     0.330 C 
HETATM   11  O2  UNL     1     -39.381 -23.278  11.127  1.00  0.00    -0.256 OA
BRANCH  10  12
HETATM   12  O1  UNL     1     -40.571 -25.206  11.290  1.00  0.00    -0.320 OA
HETATM   13  C1  UNL     1     -39.745 -25.988  10.418  1.00  0.00     0.213 C 
ENDBRANCH  10  12
ENDBRANCH   8  10
ENDBRANCH   7   8
ENDBRANCH   1   7
BRANCH   5  14
HETATM   14  S1  UNL     1     -39.024 -19.436   7.133  1.00  0.00     0.081 SA
BRANCH  14  15
HETATM   15  N3  UNL     1     -37.867 -20.696   6.689  1.00  0.00    -0.051 NA
BRANCH  15  16
HETATM   16  N4  UNL     1     -38.511 -21.841   6.264  1.00  0.00    -0.336 N 
ATOM     17  H42 UNL     1     -39.470 -22.074   6.518  1.00  0.00     0.173 HD
ATOM     18  H41 UNL     1     -37.905 -22.410   5.673  1.00  0.00     0.173 HD
ENDBRANCH  15  16
ENDBRANCH  14  15
ENDBRANCH   5  14
TORSDOF 7
ENDMDL
MODEL 2
REMARK VINA RESULT: -6.245954621      1.453      1.836
REMARK  7 active torsions:
REMARK  status: ('A' for Active; 'I' for Inactive)
REMARK    1  A    between atoms: O1_2  and  C2_3 
REMARK    2  A    between atoms: C2_3  and  C3_5 
REMARK    3  A    between atoms: C3_5  and  C4_7 
REMARK    4  A    between atoms: C4_7  and  N1_8 
REMARK       I    between atoms: N1_8  and  C5_10 
REMARK       I    between atoms: C5_10  and  N2_12 
REMARK    5  A    between atoms: N2_12  and  S1_14 
REMARK    6  A    between atoms: S1_14  and  N3_15 
REMARK    7  A    between atoms: N3_15  and  N4_16 
ROOT
HETATM    1  N1  UNL     1     -41.629 -20.894  10.059  1.00  0.00    -0.335 N 
ATOM      2  H1  UNL     1     -42.487 -20.542   9.633  1.00  0.00     0.164 HD
HETATM    3  C5  UNL     1     -40.534 -21.201   9.210  1.00  0.00     0.327 C 
HETATM    4  O4  UNL     1     -39.461 -21.640   9.689  1.00  0.00    -0.246 OA
HETATM    5  N2  UNL     1     -40.626 -21.019   7.804  1.00  0.00    -0.267 N 
ATOM      6  H2  UNL     1     -41.498 -20.660   7.414  1.00  0.00     0.180 HD
ENDROOT
BRANCH   1   7
HETATM    7  C4  UNL     1     -41.596 -21.053  11.488  1.00  0.00     0.214 C 
BRANCH   7   8
HETATM    8  C3  UNL     1     -41.946 -22.411  11.955  1.00  0.00     0.241 C 
HETATM    9  O3  UNL     1     -43.049 -22.919  11.685  1.00  0.00    -0.285 OA
BRANCH   8  10
HETATM   10  C2  UNL     1     -40.986 -23.158  12.740  1.00  0.00     0.330 C 
HETATM   11  O2  UNL     1     -41.047 -23.261  13.993  1.00  0.00    -0.256 OA
BRANCH  10  12
HETATM   12  O1  UNL     1     -39.948 -23.790  12.076  1.00  0.00    -0.320 OA
HETATM   13  C1  UNL     1     -40.185 -24.571  10.897  1.00  0.00     0.213 C 
ENDBRANCH  10  12
ENDBRANCH   8  10
ENDBRANCH   7   8
ENDBRANCH   1   7
BRANCH   5  14
HETATM   14  S1  UNL     1     -39.307 -21.383   6.715  1.00  0.00     0.081 SA
BRANCH  14  15
HETATM   15  N3  UNL     1     -38.228 -19.988   6.595  1.00  0.00    -0.051 NA
BRANCH  15  16
HETATM   16  N4  UNL     1     -38.665 -18.946   7.388  1.00  0.00    -0.336 N 
ATOM     17  H42 UNL     1     -39.109 -19.078   8.296  1.00  0.00     0.173 HD
ATOM     18  H41 UNL     1     -38.486 -18.044   6.946  1.00  0.00     0.173 HD
ENDBRANCH  15  16
ENDBRANCH  14  15
ENDBRANCH   5  14
TORSDOF 7
ENDMDL
MODEL 3
REMARK VINA RESULT: -6.163693983      3.653      5.367
REMARK  7 active torsions:
REMARK  status: ('A' for Active; 'I' for Inactive)
REMARK    1  A    between atoms: O1_2  and  C2_3 
REMARK    2  A    between atoms: C2_3  and  C3_5 
REMARK    3  A    between atoms: C3_5  and  C4_7 
REMARK    4  A    between atoms: C4_7  and  N1_8 
REMARK       I    between atoms: N1_8  and  C5_10 
REMARK       I    between atoms: C5_10  and  N2_12 
REMARK    5  A    between atoms: N2_12  and  S1_14 
REMARK    6  A    between atoms: S1_14  and  N3_15 
REMARK    7  A    between atoms: N3_15  and  N4_16 
ROOT
HETATM    1  N1  UNL     1     -41.517 -21.687   8.007  1.00  0.00    -0.335 N 
ATOM      2  H1  UNL     1     -42.500 -21.420   7.957  1.00  0.00     0.164 HD
HETATM    3  C5  UNL     1     -40.962 -21.968   9.283  1.00  0.00     0.327 C 
HETATM    4  O4  UNL     1     -39.756 -22.297   9.394  1.00  0.00    -0.246 OA
HETATM    5  N2  UNL     1     -41.753 -21.884  10.459  1.00  0.00    -0.267 N 
ATOM      6  H2  UNL     1     -42.735 -21.618  10.370  1.00  0.00     0.180 HD
ENDROOT
BRANCH   1   7
HETATM    7  C4  UNL     1     -40.768 -21.759   6.782  1.00  0.00     0.214 C 
BRANCH   7   8
HETATM    8  C3  UNL     1     -41.525 -22.318   5.641  1.00  0.00     0.241 C 
HETATM    9  O3  UNL     1     -41.966 -21.581   4.741  1.00  0.00    -0.285 OA
BRANCH   8  10
HETATM   10  C2  UNL     1     -41.754 -23.745   5.576  1.00  0.00     0.330 C 
HETATM   11  O2  UNL     1     -42.875 -24.255   5.317  1.00  0.00    -0.256 OA
BRANCH  10  12
HETATM   12  O1  UNL     1     -40.684 -24.591   5.813  1.00  0.00    -0.320 OA
HETATM   13  C1  UNL     1     -40.544 -25.830   5.104  1.00  0.00     0.213 C 
ENDBRANCH  10  12
ENDBRANCH   8  10
ENDBRANCH   7   8
ENDBRANCH   1   7
BRANCH   5  14
HETATM   14  S1  UNL     1     -41.117 -22.218  12.053  1.00  0.00     0.081 SA
BRANCH  14  15
HETATM   15  N3  UNL     1     -41.061 -23.964  12.321  1.00  0.00    -0.051 NA
BRANCH  15  16
HETATM   16  N4  UNL     1     -40.682 -24.635  11.176  1.00  0.00    -0.336 N 
ATOM     17  H42 UNL     1     -41.000 -24.378  10.242  1.00  0.00     0.173 HD
ATOM     18  H41 UNL     1     -40.052 -25.408  11.391  1.00  0.00     0.173 HD
ENDBRANCH  15  16
ENDBRANCH  14  15
ENDBRANCH   5  14
TORSDOF 7
ENDMDL
MODEL 4
REMARK VINA RESULT: -6.160721202      2.941      3.683
REMARK  7 active torsions:
REMARK  status: ('A' for Active; 'I' for Inactive)
REMARK    1  A    between atoms: O1_2  and  C2_3 
REMARK    2  A    between atoms: C2_3  and  C3_5 
REMARK    3  A    between atoms: C3_5  and  C4_7 
REMARK    4  A    between atoms: C4_7  and  N1_8 
REMARK       I    between atoms: N1_8  and  C5_10 
REMARK       I    between atoms: C5_10  and  N2_12 
REMARK    5  A    between atoms: N2_12  and  S1_14 
REMARK    6  A    between atoms: S1_14  and  N3_15 
REMARK    7  A    between atoms: N3_15  and  N4_16 
ROOT
HETATM    1  N1  UNL     1     -41.670 -21.940   8.435  1.00  0.00    -0.335 N 
ATOM      2  H1  UNL     1     -42.652 -22.018   8.699  1.00  0.00     0.164 HD
HETATM    3  C5  UNL     1     -41.259 -22.505   7.199  1.00  0.00     0.327 C 
HETATM    4  O4  UNL     1     -40.060 -22.437   6.836  1.00  0.00    -0.246 OA
HETATM    5  N2  UNL     1     -42.190 -23.159   6.349  1.00  0.00    -0.267 N 
ATOM      6  H2  UNL     1     -43.166 -23.214   6.643  1.00  0.00     0.180 HD
ENDROOT
BRANCH   1   7
HETATM    7  C4  UNL     1     -40.776 -21.263   9.335  1.00  0.00     0.214 C 
BRANCH   7   8
HETATM    8  C3  UNL     1     -39.788 -22.149   9.987  1.00  0.00     0.241 C 
HETATM    9  O3  UNL     1     -38.567 -21.930   9.889  1.00  0.00    -0.285 OA
BRANCH   8  10
HETATM   10  C2  UNL     1     -40.254 -23.288  10.749  1.00  0.00     0.330 C 
HETATM   11  O2  UNL     1     -40.872 -24.257  10.237  1.00  0.00    -0.256 OA
BRANCH  10  12
HETATM   12  O1  UNL     1     -40.005 -23.309  12.111  1.00  0.00    -0.320 OA
HETATM   13  C1  UNL     1     -41.043 -23.036  13.061  1.00  0.00     0.213 C 
ENDBRANCH  10  12
ENDBRANCH   8  10
ENDBRANCH   7   8
ENDBRANCH   1   7
BRANCH   5  14
HETATM   14  S1  UNL     1     -41.735 -23.873   4.820  1.00  0.00     0.081 SA
BRANCH  14  15
HETATM   15  N3  UNL     1     -41.397 -25.594   5.041  1.00  0.00    -0.051 NA
BRANCH  15  16
HETATM   16  N4  UNL     1     -40.081 -25.889   4.744  1.00  0.00    -0.336 N 
ATOM     17  H42 UNL     1     -39.499 -25.314   4.136  1.00  0.00     0.173 HD
ATOM     18  H41 UNL     1     -39.779 -26.746   5.208  1.00  0.00     0.173 HD
ENDBRANCH  15  16
ENDBRANCH  14  15
ENDBRANCH   5  14
TORSDOF 7
ENDMDL
MODEL 5
REMARK VINA RESULT: -6.158554688      3.234      5.578
REMARK  7 active torsions:
REMARK  status: ('A' for Active; 'I' for Inactive)
REMARK    1  A    between atoms: O1_2  and  C2_3 
REMARK    2  A    between atoms: C2_3  and  C3_5 
REMARK    3  A    between atoms: C3_5  and  C4_7 
REMARK    4  A    between atoms: C4_7  and  N1_8 
REMARK       I    between atoms: N1_8  and  C5_10 
REMARK       I    between atoms: C5_10  and  N2_12 
REMARK    5  A    between atoms: N2_12  and  S1_14 
REMARK    6  A    between atoms: S1_14  and  N3_15 
REMARK    7  A    between atoms: N3_15  and  N4_16 
ROOT
HETATM    1  N1  UNL     1     -40.546 -20.806   9.045  1.00  0.00    -0.335 N 
ATOM      2  H1  UNL     1     -41.529 -20.555   8.935  1.00  0.00     0.164 HD
HETATM    3  C5  UNL     1     -40.227 -21.933   9.848  1.00  0.00     0.327 C 
HETATM    4  O4  UNL     1     -39.032 -22.276  10.015  1.00  0.00    -0.246 OA
HETATM    5  N2  UNL     1     -41.247 -22.694  10.477  1.00  0.00    -0.267 N 
ATOM      6  H2  UNL     1     -42.219 -22.416  10.341  1.00  0.00     0.180 HD
ENDROOT
BRANCH   1   7
HETATM    7  C4  UNL     1     -39.560 -20.000   8.379  1.00  0.00     0.214 C 
BRANCH   7   8
HETATM    8  C3  UNL     1     -39.281 -20.409   6.986  1.00  0.00     0.241 C 
HETATM    9  O3  UNL     1     -38.238 -20.055   6.409  1.00  0.00    -0.285 OA
BRANCH   8  10
HETATM   10  C2  UNL     1     -40.243 -21.235   6.288  1.00  0.00     0.330 C 
HETATM   11  O2  UNL     1     -41.122 -20.772   5.515  1.00  0.00    -0.256 OA
BRANCH  10  12
HETATM   12  O1  UNL     1     -40.191 -22.606   6.480  1.00  0.00    -0.320 OA
HETATM   13  C1  UNL     1     -41.287 -23.452   6.108  1.00  0.00     0.213 C 
ENDBRANCH  10  12
ENDBRANCH   8  10
ENDBRANCH   7   8
ENDBRANCH   1   7
BRANCH   5  14
HETATM   14  S1  UNL     1     -40.906 -24.088  11.477  1.00  0.00     0.081 SA
BRANCH  14  15
HETATM   15  N3  UNL     1     -41.164 -23.681  13.178  1.00  0.00    -0.051 NA
BRANCH  15  16
HETATM   16  N4  UNL     1     -41.319 -22.320  13.350  1.00  0.00    -0.336 N 
ATOM     17  H42 UNL     1     -41.851 -21.728  12.712  1.00  0.00     0.173 HD
ATOM     18  H41 UNL     1     -40.837 -21.995  14.188  1.00  0.00     0.173 HD
ENDBRANCH  15  16
ENDBRANCH  14  15
ENDBRANCH   5  14
TORSDOF 7
ENDMDL
