MODEL 1
REMARK VINA RESULT: -8.249481838      0.000      0.000
REMARK  12 active torsions:
REMARK  status: ('A' for Active; 'I' for Inactive)
REMARK    1  A    between atoms: C2_3  and  C6_16 
REMARK    2  A    between atoms: N2_4  and  N3_6 
REMARK       I    between atoms: N3_6  and  C3_8 
REMARK    3  A    between atoms: C3_8  and  C4_10 
REMARK    4  A    between atoms: C4_10  and  C5_11 
REMARK    5  A    between atoms: C5_11  and  N4_12 
REMARK    6  A    between atoms: C7_17  and  N5_18 
REMARK    7  A    between atoms: N5_18  and  C8_20 
REMARK    8  A    between atoms: C8_20  and  C9_21 
REMARK    9  A    between atoms: C9_21  and  N6_22 
REMARK   10  A    between atoms: N9_37  and  N10_38 
REMARK   11  A    between atoms: C19_43  and  N12_44 
REMARK   12  A    between atoms: C20_49  and  N14_50 
ROOT
HETATM    1  N1  UNL     1     362.095 240.815 189.113  1.00  0.00    -0.190 NA
HETATM    2  C1  UNL     1     363.108 241.094 188.582  1.00  0.00     0.120 C 
HETATM    3  C2  UNL     1     364.332 241.367 187.947  1.00  0.00     0.146 C 
HETATM    4  N2  UNL     1     364.912 240.256 187.463  1.00  0.00    -0.287 N 
ATOM      5  H2  UNL     1     365.806 240.333 186.981  1.00  0.00     0.188 HD
ENDROOT
BRANCH   3   6
HETATM    6  C6  UNL     1     365.069 242.569 187.768  1.00  0.00     0.091 A 
HETATM    7  C7  UNL     1     365.855 243.192 188.694  1.00  0.00     0.134 A 
HETATM    8  N11 UNL     1     366.593 244.315 188.415  1.00  0.00    -0.176 N 
HETATM    9  C19 UNL     1     366.526 244.809 187.178  1.00  0.00     0.679 A 
ATOM     10  H11 UNL     1     367.173 244.756 189.130  1.00  0.00     0.186 HD
HETATM   11  N13 UNL     1     365.775 244.248 186.230  1.00  0.00    -0.176 N 
HETATM   12  C20 UNL     1     365.062 243.166 186.490  1.00  0.00     0.131 A 
ATOM     13  H13 UNL     1     365.751 244.658 185.297  1.00  0.00     0.186 HD
BRANCH   7  14
HETATM   14  N5  UNL     1     365.916 242.772 190.044  1.00  0.00    -0.373 N 
ATOM     15  H5  UNL     1     365.274 243.166 190.731  1.00  0.00     0.161 HD
BRANCH  14  16
HETATM   16  C8  UNL     1     366.911 241.763 190.457  1.00  0.00     0.143 C 
BRANCH  16  17
HETATM   17  C9  UNL     1     366.261 240.394 190.448  1.00  0.00     0.172 C 
BRANCH  17  18
HETATM   18  N6  UNL     1     365.827 239.987 191.743  1.00  0.00    -0.250 N 
HETATM   19  C10 UNL     1     364.621 240.211 192.301  1.00  0.00     0.141 A 
HETATM   20  N7  UNL     1     363.491 240.826 191.915  1.00  0.00    -0.334 N 
HETATM   21  C17 UNL     1     364.593 239.659 193.564  1.00  0.00     0.082 A 
HETATM   22  C11 UNL     1     362.385 240.899 192.725  1.00  0.00     0.087 A 
ATOM     23  H7  UNL     1     363.453 241.253 190.989  1.00  0.00     0.168 HD
HETATM   24  S1  UNL     1     360.827 241.589 192.545  1.00  0.00    -0.060 SA
HETATM   25  C15 UNL     1     362.332 240.360 193.978  1.00  0.00     0.001 A 
HETATM   26  C12 UNL     1     360.165 241.174 194.058  1.00  0.00     0.088 A 
HETATM   27  C13 UNL     1     358.838 241.451 194.604  1.00  0.00     0.107 C 
HETATM   28  C14 UNL     1     361.190 240.500 194.668  1.00  0.00     0.044 A 
HETATM   29  N8  UNL     1     357.783 241.680 195.018  1.00  0.00    -0.191 NA
HETATM   30  C16 UNL     1     363.508 239.711 194.399  1.00  0.00     0.035 A 
HETATM   31  C18 UNL     1     365.840 239.092 193.737  1.00  0.00     0.295 A 
HETATM   32  O2  UNL     1     366.224 238.483 194.767  1.00  0.00    -0.264 OA
HETATM   33  N9  UNL     1     366.570 239.302 192.625  1.00  0.00    -0.159 N 
BRANCH  33  34
HETATM   34  N10 UNL     1     367.884 238.852 192.480  1.00  0.00    -0.321 N 
ATOM     35 2H10 UNL     1     368.487 239.134 191.706  1.00  0.00     0.179 HD
ATOM     36 1H10 UNL     1     368.403 238.217 193.085  1.00  0.00     0.179 HD
ENDBRANCH  33  34
ENDBRANCH  17  18
ENDBRANCH  16  17
ENDBRANCH  14  16
ENDBRANCH   7  14
BRANCH   9  37
HETATM   37  N12 UNL     1     367.198 245.865 186.854  1.00  0.00    -0.234 N 
ATOM     38 2H12 UNL     1     366.917 246.747 187.282  1.00  0.00     0.174 HD
ATOM     39 1H12 UNL     1     367.975 245.804 186.195  1.00  0.00     0.174 HD
ENDBRANCH   9  37
BRANCH  12  40
HETATM   40  N14 UNL     1     364.340 242.642 185.546  1.00  0.00    -0.384 N 
ATOM     41 2H14 UNL     1     363.380 242.366 185.749  1.00  0.00     0.157 HD
ATOM     42 1H14 UNL     1     364.745 242.516 184.618  1.00  0.00     0.157 HD
ENDBRANCH  12  40
ENDBRANCH   3   6
BRANCH   4  43
HETATM   43  N3  UNL     1     364.327 239.009 187.602  1.00  0.00    -0.269 N 
HETATM   44  C3  UNL     1     365.077 237.809 187.679  1.00  0.00     0.237 C 
HETATM   45  O1  UNL     1     366.346 237.813 187.624  1.00  0.00    -0.272 OA
ATOM     46  H3  UNL     1     363.310 238.951 187.650  1.00  0.00     0.190 HD
BRANCH  44  47
HETATM   47  C4  UNL     1     364.349 236.522 187.828  1.00  0.00     0.132 C 
BRANCH  47  48
HETATM   48  C5  UNL     1     364.950 235.493 186.877  1.00  0.00     0.239 C 
BRANCH  48  49
HETATM   49  N4  UNL     1     365.043 236.059 185.544  1.00  0.00    -0.079 N 
ATOM     50  H43 UNL     1     364.402 236.840 185.411  1.00  0.00     0.274 HD
ATOM     51  H42 UNL     1     365.919 236.562 185.400  1.00  0.00     0.274 HD
ATOM     52  H41 UNL     1     364.903 235.324 184.850  1.00  0.00     0.274 HD
ENDBRANCH  48  49
ENDBRANCH  47  48
ENDBRANCH  44  47
ENDBRANCH   4  43
TORSDOF 12
ENDMDL
MODEL 2
REMARK VINA RESULT: -8.225932706      3.249      6.544
REMARK  12 active torsions:
REMARK  status: ('A' for Active; 'I' for Inactive)
REMARK    1  A    between atoms: C2_3  and  C6_16 
REMARK    2  A    between atoms: N2_4  and  N3_6 
REMARK       I    between atoms: N3_6  and  C3_8 
REMARK    3  A    between atoms: C3_8  and  C4_10 
REMARK    4  A    between atoms: C4_10  and  C5_11 
REMARK    5  A    between atoms: C5_11  and  N4_12 
REMARK    6  A    between atoms: C7_17  and  N5_18 
REMARK    7  A    between atoms: N5_18  and  C8_20 
REMARK    8  A    between atoms: C8_20  and  C9_21 
REMARK    9  A    between atoms: C9_21  and  N6_22 
REMARK   10  A    between atoms: N9_37  and  N10_38 
REMARK   11  A    between atoms: C19_43  and  N12_44 
REMARK   12  A    between atoms: C20_49  and  N14_50 
ROOT
HETATM    1  N1  UNL     1     368.527 247.610 188.904  1.00  0.00    -0.190 NA
HETATM    2  C1  UNL     1     368.061 246.542 188.737  1.00  0.00     0.120 C 
HETATM    3  C2  UNL     1     367.555 245.241 188.565  1.00  0.00     0.146 C 
HETATM    4  N2  UNL     1     368.223 244.336 189.298  1.00  0.00    -0.287 N 
ATOM      5  H2  UNL     1     367.942 243.357 189.253  1.00  0.00     0.188 HD
ENDROOT
BRANCH   3   6
HETATM    6  C6  UNL     1     366.519 244.720 187.743  1.00  0.00     0.091 A 
HETATM    7  C7  UNL     1     365.180 244.731 188.009  1.00  0.00     0.134 A 
HETATM    8  N11 UNL     1     364.238 244.269 187.125  1.00  0.00    -0.176 N 
HETATM    9  C19 UNL     1     364.667 243.788 185.957  1.00  0.00     0.679 A 
ATOM     10  H11 UNL     1     363.244 244.293 187.353  1.00  0.00     0.186 HD
HETATM   11  N13 UNL     1     365.961 243.748 185.639  1.00  0.00    -0.176 N 
HETATM   12  C20 UNL     1     366.875 244.192 186.484  1.00  0.00     0.131 A 
ATOM     13  H13 UNL     1     366.247 243.373 184.735  1.00  0.00     0.186 HD
BRANCH   7  14
HETATM   14  N5  UNL     1     364.657 245.152 189.255  1.00  0.00    -0.373 N 
ATOM     15  H5  UNL     1     364.628 246.144 189.487  1.00  0.00     0.161 HD
BRANCH  14  16
HETATM   16  C8  UNL     1     364.153 244.152 190.217  1.00  0.00     0.143 C 
BRANCH  16  17
HETATM   17  C9  UNL     1     365.207 243.913 191.279  1.00  0.00     0.172 C 
BRANCH  17  18
HETATM   18  N6  UNL     1     365.245 242.557 191.717  1.00  0.00    -0.250 N 
HETATM   19  C10 UNL     1     365.229 241.455 190.942  1.00  0.00     0.141 A 
HETATM   20  N7  UNL     1     365.178 241.219 189.621  1.00  0.00    -0.334 N 
HETATM   21  C17 UNL     1     365.278 240.334 191.744  1.00  0.00     0.082 A 
HETATM   22  C11 UNL     1     365.175 239.946 189.105  1.00  0.00     0.087 A 
ATOM     23  H7  UNL     1     365.141 242.010 188.979  1.00  0.00     0.168 HD
HETATM   24  S1  UNL     1     365.119 239.311 187.515  1.00  0.00    -0.060 SA
HETATM   25  C15 UNL     1     365.224 238.821 189.877  1.00  0.00     0.001 A 
HETATM   26  C12 UNL     1     365.158 237.648 187.881  1.00  0.00     0.088 A 
HETATM   27  C13 UNL     1     365.138 236.495 186.984  1.00  0.00     0.107 C 
HETATM   28  C14 UNL     1     365.215 237.635 189.249  1.00  0.00     0.044 A 
HETATM   29  N8  UNL     1     365.121 235.596 186.257  1.00  0.00    -0.191 NA
HETATM   30  C16 UNL     1     365.278 239.050 191.264  1.00  0.00     0.035 A 
HETATM   31  C18 UNL     1     365.326 240.817 193.036  1.00  0.00     0.295 A 
HETATM   32  O2  UNL     1     365.378 240.109 194.073  1.00  0.00    -0.264 OA
HETATM   33  N9  UNL     1     365.304 242.163 192.997  1.00  0.00    -0.159 N 
BRANCH  33  34
HETATM   34  N10 UNL     1     365.339 242.958 194.144  1.00  0.00    -0.321 N 
ATOM     35 2H10 UNL     1     365.441 243.973 194.115  1.00  0.00     0.179 HD
ATOM     36 1H10 UNL     1     365.272 242.663 195.118  1.00  0.00     0.179 HD
ENDBRANCH  33  34
ENDBRANCH  17  18
ENDBRANCH  16  17
ENDBRANCH  14  16
ENDBRANCH   7  14
BRANCH   9  37
HETATM   37  N12 UNL     1     363.827 243.339 185.082  1.00  0.00    -0.234 N 
ATOM     38 2H12 UNL     1     363.801 243.808 184.176  1.00  0.00     0.174 HD
ATOM     39 1H12 UNL     1     363.221 242.548 185.302  1.00  0.00     0.174 HD
ENDBRANCH   9  37
BRANCH  12  40
HETATM   40  N14 UNL     1     368.128 244.139 186.146  1.00  0.00    -0.384 N 
ATOM     41 2H14 UNL     1     368.828 243.946 186.861  1.00  0.00     0.157 HD
ATOM     42 1H14 UNL     1     368.390 244.293 185.172  1.00  0.00     0.157 HD
ENDBRANCH  12  40
ENDBRANCH   3   6
BRANCH   4  43
HETATM   43  N3  UNL     1     369.282 244.695 190.113  1.00  0.00    -0.269 N 
HETATM   44  C3  UNL     1     369.476 244.158 191.410  1.00  0.00     0.237 C 
HETATM   45  O1  UNL     1     368.674 243.303 191.903  1.00  0.00    -0.272 OA
ATOM     46  H3  UNL     1     369.953 245.379 189.765  1.00  0.00     0.190 HD
BRANCH  44  47
HETATM   47  C4  UNL     1     370.647 244.613 192.203  1.00  0.00     0.132 C 
BRANCH  47  48
HETATM   48  C5  UNL     1     371.371 245.718 191.442  1.00  0.00     0.239 C 
BRANCH  48  49
HETATM   49  N4  UNL     1     372.336 246.358 192.316  1.00  0.00    -0.079 N 
ATOM     50  H43 UNL     1     373.169 245.786 192.454  1.00  0.00     0.274 HD
ATOM     51  H42 UNL     1     372.781 247.162 191.874  1.00  0.00     0.274 HD
ATOM     52  H41 UNL     1     371.888 246.603 193.199  1.00  0.00     0.274 HD
ENDBRANCH  48  49
ENDBRANCH  47  48
ENDBRANCH  44  47
ENDBRANCH   4  43
TORSDOF 12
ENDMDL
MODEL 3
REMARK VINA RESULT: -8.139150981      1.793      1.889
REMARK  12 active torsions:
REMARK  status: ('A' for Active; 'I' for Inactive)
REMARK    1  A    between atoms: C2_3  and  C6_16 
REMARK    2  A    between atoms: N2_4  and  N3_6 
REMARK       I    between atoms: N3_6  and  C3_8 
REMARK    3  A    between atoms: C3_8  and  C4_10 
REMARK    4  A    between atoms: C4_10  and  C5_11 
REMARK    5  A    between atoms: C5_11  and  N4_12 
REMARK    6  A    between atoms: C7_17  and  N5_18 
REMARK    7  A    between atoms: N5_18  and  C8_20 
REMARK    8  A    between atoms: C8_20  and  C9_21 
REMARK    9  A    between atoms: C9_21  and  N6_22 
REMARK   10  A    between atoms: N9_37  and  N10_38 
REMARK   11  A    between atoms: C19_43  and  N12_44 
REMARK   12  A    between atoms: C20_49  and  N14_50 
ROOT
HETATM    1  N1  UNL     1     362.269 241.942 188.098  1.00  0.00    -0.190 NA
HETATM    2  C1  UNL     1     363.424 242.007 187.883  1.00  0.00     0.120 C 
HETATM    3  C2  UNL     1     364.809 242.022 187.637  1.00  0.00     0.146 C 
HETATM    4  N2  UNL     1     365.310 240.787 187.477  1.00  0.00    -0.287 N 
ATOM      5  H2  UNL     1     366.307 240.677 187.293  1.00  0.00     0.188 HD
ENDROOT
BRANCH   3   6
HETATM    6  C6  UNL     1     365.756 243.081 187.571  1.00  0.00     0.091 A 
HETATM    7  C7  UNL     1     366.638 243.449 188.545  1.00  0.00     0.134 A 
HETATM    8  N11 UNL     1     367.572 244.440 188.373  1.00  0.00    -0.176 N 
HETATM    9  C19 UNL     1     367.604 245.064 187.194  1.00  0.00     0.679 A 
ATOM     10  H11 UNL     1     368.220 244.691 189.121  1.00  0.00     0.186 HD
HETATM   11  N13 UNL     1     366.767 244.751 186.205  1.00  0.00    -0.176 N 
HETATM   12  C20 UNL     1     365.866 243.798 186.361  1.00  0.00     0.131 A 
ATOM     13  H13 UNL     1     366.824 245.252 185.318  1.00  0.00     0.186 HD
BRANCH   7  14
HETATM   14  N5  UNL     1     366.614 242.889 189.844  1.00  0.00    -0.373 N 
ATOM     15  H5  UNL     1     365.772 242.425 190.185  1.00  0.00     0.161 HD
BRANCH  14  16
HETATM   16  C8  UNL     1     367.809 242.976 190.706  1.00  0.00     0.143 C 
BRANCH  16  17
HETATM   17  C9  UNL     1     367.870 241.750 191.595  1.00  0.00     0.172 C 
BRANCH  17  18
HETATM   18  N6  UNL     1     366.652 241.009 191.588  1.00  0.00    -0.250 N 
HETATM   19  C10 UNL     1     365.492 241.350 192.183  1.00  0.00     0.141 A 
HETATM   20  N7  UNL     1     365.070 242.386 192.925  1.00  0.00    -0.334 N 
HETATM   21  C17 UNL     1     364.552 240.370 191.943  1.00  0.00     0.082 A 
HETATM   22  C11 UNL     1     363.788 242.463 193.411  1.00  0.00     0.087 A 
ATOM     23  H7  UNL     1     365.722 243.142 193.134  1.00  0.00     0.168 HD
HETATM   24  S1  UNL     1     362.948 243.614 194.363  1.00  0.00    -0.060 SA
HETATM   25  C15 UNL     1     362.839 241.508 193.187  1.00  0.00     0.001 A 
HETATM   26  C12 UNL     1     361.429 242.848 194.444  1.00  0.00     0.088 A 
HETATM   27  C13 UNL     1     360.202 243.277 195.113  1.00  0.00     0.107 C 
HETATM   28  C14 UNL     1     361.623 241.703 193.718  1.00  0.00     0.044 A 
HETATM   29  N8  UNL     1     359.242 243.634 195.649  1.00  0.00    -0.191 NA
HETATM   30  C16 UNL     1     363.264 240.414 192.411  1.00  0.00     0.035 A 
HETATM   31  C18 UNL     1     365.203 239.426 191.174  1.00  0.00     0.295 A 
HETATM   32  O2  UNL     1     364.689 238.364 190.741  1.00  0.00    -0.264 OA
HETATM   33  N9  UNL     1     366.471 239.832 190.972  1.00  0.00    -0.159 N 
BRANCH  33  34
HETATM   34  N10 UNL     1     367.397 239.095 190.229  1.00  0.00    -0.321 N 
ATOM     35 2H10 UNL     1     368.354 239.408 190.066  1.00  0.00     0.179 HD
ATOM     36 1H10 UNL     1     367.263 238.194 189.771  1.00  0.00     0.179 HD
ENDBRANCH  33  34
ENDBRANCH  17  18
ENDBRANCH  16  17
ENDBRANCH  14  16
ENDBRANCH   7  14
BRANCH   9  37
HETATM   37  N12 UNL     1     368.461 246.005 186.971  1.00  0.00    -0.234 N 
ATOM     38 2H12 UNL     1     369.010 245.943 186.113  1.00  0.00     0.174 HD
ATOM     39 1H12 UNL     1     368.574 246.773 187.633  1.00  0.00     0.174 HD
ENDBRANCH   9  37
BRANCH  12  40
HETATM   40  N14 UNL     1     365.064 243.516 185.379  1.00  0.00    -0.384 N 
ATOM     41 2H14 UNL     1     364.822 242.542 185.198  1.00  0.00     0.157 HD
ATOM     42 1H14 UNL     1     364.690 244.273 184.806  1.00  0.00     0.157 HD
ENDBRANCH  12  40
ENDBRANCH   3   6
BRANCH   4  43
HETATM   43  N3  UNL     1     364.512 239.660 187.557  1.00  0.00    -0.269 N 
HETATM   44  C3  UNL     1     365.025 238.341 187.474  1.00  0.00     0.237 C 
HETATM   45  O1  UNL     1     366.267 238.120 187.320  1.00  0.00    -0.272 OA
ATOM     46  H3  UNL     1     363.507 239.783 187.680  1.00  0.00     0.190 HD
BRANCH  44  47
HETATM   47  C4  UNL     1     364.079 237.200 187.571  1.00  0.00     0.132 C 
BRANCH  47  48
HETATM   48  C5  UNL     1     364.759 236.045 188.297  1.00  0.00     0.239 C 
BRANCH  48  49
HETATM   49  N4  UNL     1     363.923 235.603 189.398  1.00  0.00    -0.079 N 
ATOM     50  H43 UNL     1     362.938 235.820 189.245  1.00  0.00     0.274 HD
ATOM     51  H42 UNL     1     363.845 234.587 189.439  1.00  0.00     0.274 HD
ATOM     52  H41 UNL     1     364.272 235.997 190.272  1.00  0.00     0.274 HD
ENDBRANCH  48  49
ENDBRANCH  47  48
ENDBRANCH  44  47
ENDBRANCH   4  43
TORSDOF 12
ENDMDL
MODEL 4
REMARK VINA RESULT: -8.119223952      2.621      3.584
REMARK  12 active torsions:
REMARK  status: ('A' for Active; 'I' for Inactive)
REMARK    1  A    between atoms: C2_3  and  C6_16 
REMARK    2  A    between atoms: N2_4  and  N3_6 
REMARK       I    between atoms: N3_6  and  C3_8 
REMARK    3  A    between atoms: C3_8  and  C4_10 
REMARK    4  A    between atoms: C4_10  and  C5_11 
REMARK    5  A    between atoms: C5_11  and  N4_12 
REMARK    6  A    between atoms: C7_17  and  N5_18 
REMARK    7  A    between atoms: N5_18  and  C8_20 
REMARK    8  A    between atoms: C8_20  and  C9_21 
REMARK    9  A    between atoms: C9_21  and  N6_22 
REMARK   10  A    between atoms: N9_37  and  N10_38 
REMARK   11  A    between atoms: C19_43  and  N12_44 
REMARK   12  A    between atoms: C20_49  and  N14_50 
ROOT
HETATM    1  N1  UNL     1     366.149 240.519 190.326  1.00  0.00    -0.190 NA
HETATM    2  C1  UNL     1     365.445 240.841 189.439  1.00  0.00     0.120 C 
HETATM    3  C2  UNL     1     364.625 241.175 188.347  1.00  0.00     0.146 C 
HETATM    4  N2  UNL     1     364.508 240.164 187.472  1.00  0.00    -0.287 N 
ATOM      5  H2  UNL     1     363.935 240.293 186.639  1.00  0.00     0.188 HD
ENDROOT
BRANCH   3   6
HETATM    6  C6  UNL     1     363.949 242.374 187.991  1.00  0.00     0.091 A 
HETATM    7  C7  UNL     1     362.656 242.701 188.282  1.00  0.00     0.134 A 
HETATM    8  N11 UNL     1     362.101 243.915 187.963  1.00  0.00    -0.176 N 
HETATM    9  C19 UNL     1     362.873 244.804 187.338  1.00  0.00     0.679 A 
ATOM     10  H11 UNL     1     361.131 244.129 188.196  1.00  0.00     0.186 HD
HETATM   11  N13 UNL     1     364.143 244.544 187.025  1.00  0.00    -0.176 N 
HETATM   12  C20 UNL     1     364.686 243.379 187.329  1.00  0.00     0.131 A 
ATOM     13  H13 UNL     1     364.700 245.252 186.546  1.00  0.00     0.186 HD
BRANCH   7  14
HETATM   14  N5  UNL     1     361.755 241.783 188.872  1.00  0.00    -0.373 N 
ATOM     15  H5  UNL     1     360.990 241.393 188.323  1.00  0.00     0.161 HD
BRANCH  14  16
HETATM   16  C8  UNL     1     361.924 241.391 190.286  1.00  0.00     0.143 C 
BRANCH  16  17
HETATM   17  C9  UNL     1     362.183 242.632 191.116  1.00  0.00     0.172 C 
BRANCH  17  18
HETATM   18  N6  UNL     1     363.168 242.419 192.124  1.00  0.00    -0.250 N 
HETATM   19  C10 UNL     1     363.076 241.594 193.186  1.00  0.00     0.141 A 
HETATM   20  N7  UNL     1     362.144 240.752 193.660  1.00  0.00    -0.334 N 
HETATM   21  C17 UNL     1     364.237 241.672 193.925  1.00  0.00     0.082 A 
HETATM   22  C11 UNL     1     362.337 240.018 194.805  1.00  0.00     0.087 A 
ATOM     23  H7  UNL     1     361.264 240.653 193.154  1.00  0.00     0.168 HD
HETATM   24  S1  UNL     1     361.380 238.883 195.662  1.00  0.00    -0.060 SA
HETATM   25  C15 UNL     1     363.477 240.076 195.554  1.00  0.00     0.001 A 
HETATM   26  C12 UNL     1     362.453 238.524 196.934  1.00  0.00     0.088 A 
HETATM   27  C13 UNL     1     362.288 237.611 198.064  1.00  0.00     0.107 C 
HETATM   28  C14 UNL     1     363.540 239.308 196.652  1.00  0.00     0.044 A 
HETATM   29  N8  UNL     1     362.139 236.884 198.950  1.00  0.00    -0.191 NA
HETATM   30  C16 UNL     1     364.464 240.955 195.071  1.00  0.00     0.035 A 
HETATM   31  C18 UNL     1     365.030 242.582 193.256  1.00  0.00     0.295 A 
HETATM   32  O2  UNL     1     366.183 242.938 193.609  1.00  0.00    -0.264 OA
HETATM   33  N9  UNL     1     364.365 243.022 192.171  1.00  0.00    -0.159 N 
BRANCH  33  34
HETATM   34  N10 UNL     1     364.896 243.956 191.279  1.00  0.00    -0.321 N 
ATOM     35 2H10 UNL     1     364.369 244.760 190.937  1.00  0.00     0.179 HD
ATOM     36 1H10 UNL     1     365.827 243.973 190.864  1.00  0.00     0.179 HD
ENDBRANCH  33  34
ENDBRANCH  17  18
ENDBRANCH  16  17
ENDBRANCH  14  16
ENDBRANCH   7  14
BRANCH   9  37
HETATM   37  N12 UNL     1     362.409 245.965 187.011  1.00  0.00    -0.234 N 
ATOM     38 2H12 UNL     1     362.041 246.550 187.762  1.00  0.00     0.174 HD
ATOM     39 1H12 UNL     1     362.414 246.272 186.038  1.00  0.00     0.174 HD
ENDBRANCH   9  37
BRANCH  12  40
HETATM   40  N14 UNL     1     365.925 243.154 187.011  1.00  0.00    -0.384 N 
ATOM     41 2H14 UNL     1     366.256 243.419 186.083  1.00  0.00     0.157 HD
ATOM     42 1H14 UNL     1     366.545 242.718 187.693  1.00  0.00     0.157 HD
ENDBRANCH  12  40
ENDBRANCH   3   6
BRANCH   4  43
HETATM   43  N3  UNL     1     365.146 238.951 187.669  1.00  0.00    -0.269 N 
HETATM   44  C3  UNL     1     364.451 237.720 187.763  1.00  0.00     0.237 C 
HETATM   45  O1  UNL     1     363.185 237.662 187.671  1.00  0.00    -0.272 OA
ATOM     46  H3  UNL     1     366.162 238.944 187.750  1.00  0.00     0.190 HD
BRANCH  44  47
HETATM   47  C4  UNL     1     365.233 236.474 187.975  1.00  0.00     0.132 C 
BRANCH  47  48
HETATM   48  C5  UNL     1     364.274 235.311 188.200  1.00  0.00     0.239 C 
BRANCH  48  49
HETATM   49  N4  UNL     1     363.632 235.453 189.494  1.00  0.00    -0.079 N 
ATOM     50  H43 UNL     1     363.371 234.552 189.895  1.00  0.00     0.274 HD
ATOM     51  H42 UNL     1     364.286 235.752 190.217  1.00  0.00     0.274 HD
ATOM     52  H41 UNL     1     362.834 236.083 189.413  1.00  0.00     0.274 HD
ENDBRANCH  48  49
ENDBRANCH  47  48
ENDBRANCH  44  47
ENDBRANCH   4  43
TORSDOF 12
ENDMDL
MODEL 5
REMARK VINA RESULT: -8.097891117      4.224      8.252
REMARK  12 active torsions:
REMARK  status: ('A' for Active; 'I' for Inactive)
REMARK    1  A    between atoms: C2_3  and  C6_16 
REMARK    2  A    between atoms: N2_4  and  N3_6 
REMARK       I    between atoms: N3_6  and  C3_8 
REMARK    3  A    between atoms: C3_8  and  C4_10 
REMARK    4  A    between atoms: C4_10  and  C5_11 
REMARK    5  A    between atoms: C5_11  and  N4_12 
REMARK    6  A    between atoms: C7_17  and  N5_18 
REMARK    7  A    between atoms: N5_18  and  C8_20 
REMARK    8  A    between atoms: C8_20  and  C9_21 
REMARK    9  A    between atoms: C9_21  and  N6_22 
REMARK   10  A    between atoms: N9_37  and  N10_38 
REMARK   11  A    between atoms: C19_43  and  N12_44 
REMARK   12  A    between atoms: C20_49  and  N14_50 
ROOT
HETATM    1  N1  UNL     1     367.880 238.858 191.761  1.00  0.00    -0.190 NA
HETATM    2  C1  UNL     1     366.759 239.216 191.792  1.00  0.00     0.120 C 
HETATM    3  C2  UNL     1     365.412 239.619 191.770  1.00  0.00     0.146 C 
HETATM    4  N2  UNL     1     364.723 239.036 190.776  1.00  0.00    -0.287 N 
ATOM      5  H2  UNL     1     363.734 239.255 190.664  1.00  0.00     0.188 HD
ENDROOT
BRANCH   3   6
HETATM    6  C6  UNL     1     364.678 240.542 192.564  1.00  0.00     0.091 A 
HETATM    7  C7  UNL     1     364.317 241.812 192.218  1.00  0.00     0.134 A 
HETATM    8  N11 UNL     1     363.543 242.614 193.018  1.00  0.00    -0.176 N 
HETATM    9  C19 UNL     1     363.135 242.116 194.186  1.00  0.00     0.679 A 
ATOM     10  H11 UNL     1     363.288 243.559 192.729  1.00  0.00     0.186 HD
HETATM   11  N13 UNL     1     363.457 240.885 194.582  1.00  0.00    -0.176 N 
HETATM   12  C20 UNL     1     364.201 240.105 193.818  1.00  0.00     0.131 A 
ATOM     13  H13 UNL     1     363.125 240.541 195.483  1.00  0.00     0.186 HD
BRANCH   7  14
HETATM   14  N5  UNL     1     364.775 242.435 191.033  1.00  0.00    -0.373 N 
ATOM     15  H5  UNL     1     364.141 242.563 190.244  1.00  0.00     0.161 HD
BRANCH  14  16
HETATM   16  C8  UNL     1     366.173 242.901 190.939  1.00  0.00     0.143 C 
BRANCH  16  17
HETATM   17  C9  UNL     1     366.570 242.983 189.479  1.00  0.00     0.172 C 
BRANCH  17  18
HETATM   18  N6  UNL     1     367.059 244.272 189.117  1.00  0.00    -0.250 N 
HETATM   19  C10 UNL     1     368.155 244.889 189.601  1.00  0.00     0.141 A 
HETATM   20  N7  UNL     1     369.104 244.580 190.500  1.00  0.00    -0.334 N 
HETATM   21  C17 UNL     1     368.287 246.122 188.999  1.00  0.00     0.082 A 
HETATM   22  C11 UNL     1     370.135 245.437 190.798  1.00  0.00     0.087 A 
ATOM     23  H7  UNL     1     369.058 243.680 190.977  1.00  0.00     0.168 HD
HETATM   24  S1  UNL     1     371.473 245.355 191.865  1.00  0.00    -0.060 SA
HETATM   25  C15 UNL     1     370.289 246.662 190.216  1.00  0.00     0.001 A 
HETATM   26  C12 UNL     1     372.179 246.870 191.538  1.00  0.00     0.088 A 
HETATM   27  C13 UNL     1     373.379 247.483 192.104  1.00  0.00     0.107 C 
HETATM   28  C14 UNL     1     371.340 247.404 190.595  1.00  0.00     0.044 A 
HETATM   29  N8  UNL     1     374.331 247.950 192.564  1.00  0.00    -0.191 NA
HETATM   30  C16 UNL     1     369.303 247.002 189.271  1.00  0.00     0.035 A 
HETATM   31  C18 UNL     1     367.219 246.215 188.130  1.00  0.00     0.295 A 
HETATM   32  O2  UNL     1     366.974 247.197 187.384  1.00  0.00    -0.264 OA
HETATM   33  N9  UNL     1     366.489 245.087 188.218  1.00  0.00    -0.159 N 
BRANCH  33  34
HETATM   34  N10 UNL     1     365.334 244.866 187.463  1.00  0.00    -0.321 N 
ATOM     35 2H10 UNL     1     364.760 245.623 187.092  1.00  0.00     0.179 HD
ATOM     36 1H10 UNL     1     364.921 243.975 187.189  1.00  0.00     0.179 HD
ENDBRANCH  33  34
ENDBRANCH  17  18
ENDBRANCH  16  17
ENDBRANCH  14  16
ENDBRANCH   7  14
BRANCH   9  37
HETATM   37  N12 UNL     1     362.404 242.823 194.984  1.00  0.00    -0.234 N 
ATOM     38 2H12 UNL     1     362.488 242.637 195.983  1.00  0.00     0.174 HD
ATOM     39 1H12 UNL     1     361.771 243.534 194.615  1.00  0.00     0.174 HD
ENDBRANCH   9  37
BRANCH  12  40
HETATM   40  N14 UNL     1     364.498 238.910 194.231  1.00  0.00    -0.384 N 
ATOM     41 2H14 UNL     1     365.468 238.687 194.454  1.00  0.00     0.157 HD
ATOM     42 1H14 UNL     1     363.757 238.215 194.325  1.00  0.00     0.157 HD
ENDBRANCH  12  40
ENDBRANCH   3   6
BRANCH   4  43
HETATM   43  N3  UNL     1     365.320 238.147 189.899  1.00  0.00    -0.269 N 
HETATM   44  C3  UNL     1     364.919 238.009 188.547  1.00  0.00     0.237 C 
HETATM   45  O1  UNL     1     363.974 238.705 188.059  1.00  0.00    -0.272 OA
ATOM     46  H3  UNL     1     366.083 237.564 190.242  1.00  0.00     0.190 HD
BRANCH  44  47
HETATM   47  C4  UNL     1     365.627 237.023 187.690  1.00  0.00     0.132 C 
BRANCH  47  48
HETATM   48  C5  UNL     1     364.703 235.843 187.412  1.00  0.00     0.239 C 
BRANCH  48  49
HETATM   49  N4  UNL     1     363.598 235.858 188.354  1.00  0.00    -0.079 N 
ATOM     50  H43 UNL     1     362.869 236.516 188.081  1.00  0.00     0.274 HD
ATOM     51  H42 UNL     1     363.046 235.002 188.313  1.00  0.00     0.274 HD
ATOM     52  H41 UNL     1     363.952 236.043 189.293  1.00  0.00     0.274 HD
ENDBRANCH  48  49
ENDBRANCH  47  48
ENDBRANCH  44  47
ENDBRANCH   4  43
TORSDOF 12
ENDMDL
