MODEL 1
REMARK VINA RESULT: -6.272253912      0.000      0.000
REMARK  7 active torsions:
REMARK  status: ('A' for Active; 'I' for Inactive)
REMARK    1  A    between atoms: C2_2  and  C3_3 
REMARK    2  A    between atoms: N2_6  and  C4_7 
REMARK    3  A    between atoms: C4_7  and  C5_8 
REMARK    4  A    between atoms: C6_9  and  C7_10 
REMARK    5  A    between atoms: C7_10  and  C8_11 
REMARK    6  A    between atoms: C8_11  and  C9_12 
REMARK    7  A    between atoms: C9_12  and  C12_15 
ROOT
HETATM    1  C4  UNL     1      14.147  76.438  57.799  1.00  0.00     0.244 C 
ENDROOT
BRANCH   1   2
HETATM    2  N2  UNL     1      14.847  77.465  57.060  1.00  0.00    -0.275 N 
HETATM    3  N1  UNL     1      14.373  78.568  56.510  1.00  0.00    -0.285 N 
HETATM    4  C3  UNL     1      15.355  79.260  55.910  1.00  0.00     0.098 A 
ATOM      5  H1  UNL     1      13.394  78.854  56.537  1.00  0.00     0.188 HD
HETATM    6  N4  UNL     1      16.493  78.568  56.088  1.00  0.00    -0.335 N 
HETATM    7  C13 UNL     1      16.164  77.456  56.803  1.00  0.00     0.205 A 
HETATM    8  C14 UNL     1      17.816  78.925  55.616  1.00  0.00     0.158 C 
BRANCH   4   9
HETATM    9  C2  UNL     1      15.275  80.555  55.170  1.00  0.00     0.073 C 
HETATM   10  C1  UNL     1      14.134  81.411  55.633  1.00  0.00     0.013 C 
ENDBRANCH   4   9
ENDBRANCH   1   2
BRANCH   1  11
HETATM   11  C5  UNL     1      15.117  75.899  58.780  1.00  0.00    -0.071 C 
HETATM   12  C6  UNL     1      15.906  75.447  59.574  1.00  0.00    -0.013 C 
BRANCH  12  13
HETATM   13  C7  UNL     1      16.842  74.940  60.507  1.00  0.00    -0.014 C 
BRANCH  13  14
HETATM   14  C8  UNL     1      17.661  74.499  61.299  1.00  0.00    -0.074 C 
BRANCH  14  15
HETATM   15  C9  UNL     1      18.655  73.978  62.239  1.00  0.00     0.095 C 
HETATM   16  C10 UNL     1      19.503  72.969  61.495  1.00  0.00     0.039 C 
HETATM   17  C11 UNL     1      19.567  75.096  62.722  1.00  0.00     0.039 C 
BRANCH  15  18
HETATM   18  C12 UNL     1      17.985  73.398  63.404  1.00  0.00     0.251 C 
HETATM   19  N3  UNL     1      17.553  74.208  64.482  1.00  0.00    -0.061 NA
HETATM   20  O1  UNL     1      17.788  72.162  63.455  1.00  0.00    -0.275 OA
ENDBRANCH  15  18
ENDBRANCH  14  15
ENDBRANCH  13  14
ENDBRANCH  12  13
ENDBRANCH   1  11
TORSDOF 7
ENDMDL
MODEL 2
REMARK VINA RESULT: -6.242973011      1.968      3.427
REMARK  7 active torsions:
REMARK  status: ('A' for Active; 'I' for Inactive)
REMARK    1  A    between atoms: C2_2  and  C3_3 
REMARK    2  A    between atoms: N2_6  and  C4_7 
REMARK    3  A    between atoms: C4_7  and  C5_8 
REMARK    4  A    between atoms: C6_9  and  C7_10 
REMARK    5  A    between atoms: C7_10  and  C8_11 
REMARK    6  A    between atoms: C8_11  and  C9_12 
REMARK    7  A    between atoms: C9_12  and  C12_15 
ROOT
HETATM    1  C4  UNL     1      15.405  78.381  57.571  1.00  0.00     0.244 C 
ENDROOT
BRANCH   1   2
HETATM    2  N2  UNL     1      14.230  77.668  57.119  1.00  0.00    -0.275 N 
HETATM    3  N1  UNL     1      13.782  76.482  57.486  1.00  0.00    -0.285 N 
HETATM    4  C3  UNL     1      12.652  76.176  56.826  1.00  0.00     0.098 A 
ATOM      5  H1  UNL     1      14.231  75.881  58.176  1.00  0.00     0.188 HD
HETATM    6  N4  UNL     1      12.378  77.208  56.010  1.00  0.00    -0.335 N 
HETATM    7  C13 UNL     1      13.366  78.128  56.202  1.00  0.00     0.205 A 
HETATM    8  C14 UNL     1      11.255  77.330  55.102  1.00  0.00     0.158 C 
BRANCH   4   9
HETATM    9  C2  UNL     1      11.810  74.947  56.926  1.00  0.00     0.073 C 
HETATM   10  C1  UNL     1      10.789  75.038  58.021  1.00  0.00     0.013 C 
ENDBRANCH   4   9
ENDBRANCH   1   2
BRANCH   1  11
HETATM   11  C5  UNL     1      16.093  77.482  58.525  1.00  0.00    -0.071 C 
HETATM   12  C6  UNL     1      16.653  76.758  59.313  1.00  0.00    -0.013 C 
BRANCH  12  13
HETATM   13  C7  UNL     1      17.302  75.891  60.224  1.00  0.00    -0.014 C 
BRANCH  13  14
HETATM   14  C8  UNL     1      17.864  75.130  60.998  1.00  0.00    -0.074 C 
BRANCH  14  15
HETATM   15  C9  UNL     1      18.532  74.206  61.914  1.00  0.00     0.095 C 
HETATM   16  C10 UNL     1      19.438  73.318  61.090  1.00  0.00     0.039 C 
HETATM   17  C11 UNL     1      19.398  74.972  62.904  1.00  0.00     0.039 C 
BRANCH  15  18
HETATM   18  C12 UNL     1      17.537  73.445  62.671  1.00  0.00     0.251 C 
HETATM   19  N3  UNL     1      16.173  73.436  62.290  1.00  0.00    -0.061 NA
HETATM   20  O1  UNL     1      17.891  72.788  63.677  1.00  0.00    -0.275 OA
ENDBRANCH  15  18
ENDBRANCH  14  15
ENDBRANCH  13  14
ENDBRANCH  12  13
ENDBRANCH   1  11
TORSDOF 7
ENDMDL
MODEL 3
REMARK VINA RESULT: -6.215572215      3.883      8.050
REMARK  7 active torsions:
REMARK  status: ('A' for Active; 'I' for Inactive)
REMARK    1  A    between atoms: C2_2  and  C3_3 
REMARK    2  A    between atoms: N2_6  and  C4_7 
REMARK    3  A    between atoms: C4_7  and  C5_8 
REMARK    4  A    between atoms: C6_9  and  C7_10 
REMARK    5  A    between atoms: C7_10  and  C8_11 
REMARK    6  A    between atoms: C8_11  and  C9_12 
REMARK    7  A    between atoms: C9_12  and  C12_15 
ROOT
HETATM    1  C4  UNL     1      17.448  76.917  59.503  1.00  0.00     0.244 C 
ENDROOT
BRANCH   1   2
HETATM    2  N2  UNL     1      17.813  75.823  60.375  1.00  0.00    -0.275 N 
HETATM    3  N1  UNL     1      18.275  74.626  60.064  1.00  0.00    -0.285 N 
HETATM    4  C3  UNL     1      18.491  73.898  61.172  1.00  0.00     0.098 A 
ATOM      5  H1  UNL     1      18.445  74.300  59.113  1.00  0.00     0.188 HD
HETATM    6  N4  UNL     1      18.151  74.663  62.222  1.00  0.00    -0.335 N 
HETATM    7  C13 UNL     1      17.731  75.856  61.714  1.00  0.00     0.205 A 
HETATM    8  C14 UNL     1      18.215  74.302  63.625  1.00  0.00     0.158 C 
BRANCH   4   9
HETATM    9  C2  UNL     1      19.006  72.501  61.291  1.00  0.00     0.073 C 
HETATM   10  C1  UNL     1      19.782  72.070  60.082  1.00  0.00     0.013 C 
ENDBRANCH   4   9
ENDBRANCH   1   2
BRANCH   1  11
HETATM   11  C5  UNL     1      16.133  76.561  58.920  1.00  0.00    -0.071 C 
HETATM   12  C6  UNL     1      15.064  76.257  58.448  1.00  0.00    -0.013 C 
BRANCH  12  13
HETATM   13  C7  UNL     1      13.803  75.923  57.900  1.00  0.00    -0.014 C 
BRANCH  13  14
HETATM   14  C8  UNL     1      12.709  75.627  57.441  1.00  0.00    -0.074 C 
BRANCH  14  15
HETATM   15  C9  UNL     1      11.394  75.287  56.899  1.00  0.00     0.095 C 
HETATM   16  C10 UNL     1      11.186  76.114  55.649  1.00  0.00     0.039 C 
HETATM   17  C11 UNL     1      11.343  73.818  56.507  1.00  0.00     0.039 C 
BRANCH  15  18
HETATM   18  C12 UNL     1      10.360  75.527  57.908  1.00  0.00     0.251 C 
HETATM   19  N3  UNL     1       9.400  76.555  57.748  1.00  0.00    -0.061 NA
HETATM   20  O1  UNL     1      10.318  74.812  58.936  1.00  0.00    -0.275 OA
ENDBRANCH  15  18
ENDBRANCH  14  15
ENDBRANCH  13  14
ENDBRANCH  12  13
ENDBRANCH   1  11
TORSDOF 7
ENDMDL
MODEL 4
REMARK VINA RESULT: -6.192509468      2.623      4.454
REMARK  7 active torsions:
REMARK  status: ('A' for Active; 'I' for Inactive)
REMARK    1  A    between atoms: C2_2  and  C3_3 
REMARK    2  A    between atoms: N2_6  and  C4_7 
REMARK    3  A    between atoms: C4_7  and  C5_8 
REMARK    4  A    between atoms: C6_9  and  C7_10 
REMARK    5  A    between atoms: C7_10  and  C8_11 
REMARK    6  A    between atoms: C8_11  and  C9_12 
REMARK    7  A    between atoms: C9_12  and  C12_15 
ROOT
HETATM    1  C4  UNL     1      14.360  76.741  57.777  1.00  0.00     0.244 C 
ENDROOT
BRANCH   1   2
HETATM    2  N2  UNL     1      13.532  75.648  57.315  1.00  0.00    -0.275 N 
HETATM    3  N1  UNL     1      13.859  74.387  57.100  1.00  0.00    -0.285 N 
HETATM    4  C3  UNL     1      12.796  73.687  56.671  1.00  0.00     0.098 A 
ATOM      5  H1  UNL     1      14.792  73.998  57.239  1.00  0.00     0.188 HD
HETATM    6  N4  UNL     1      11.758  74.539  56.613  1.00  0.00    -0.335 N 
HETATM    7  C13 UNL     1      12.229  75.753  57.016  1.00  0.00     0.205 A 
HETATM    8  C14 UNL     1      10.401  74.237  56.205  1.00  0.00     0.158 C 
BRANCH   4   9
HETATM    9  C2  UNL     1      12.707  72.241  56.309  1.00  0.00     0.073 C 
HETATM   10  C1  UNL     1      13.877  71.782  55.490  1.00  0.00     0.013 C 
ENDBRANCH   4   9
ENDBRANCH   1   2
BRANCH   1  11
HETATM   11  C5  UNL     1      15.286  76.164  58.780  1.00  0.00    -0.071 C 
HETATM   12  C6  UNL     1      16.032  75.682  59.598  1.00  0.00    -0.013 C 
BRANCH  12  13
HETATM   13  C7  UNL     1      16.925  75.131  60.547  1.00  0.00    -0.014 C 
BRANCH  13  14
HETATM   14  C8  UNL     1      17.701  74.645  61.356  1.00  0.00    -0.074 C 
BRANCH  14  15
HETATM   15  C9  UNL     1      18.644  74.067  62.314  1.00  0.00     0.095 C 
HETATM   16  C10 UNL     1      19.421  72.986  61.595  1.00  0.00     0.039 C 
HETATM   17  C11 UNL     1      19.633  75.121  62.790  1.00  0.00     0.039 C 
BRANCH  15  18
HETATM   18  C12 UNL     1      17.922  73.557  63.481  1.00  0.00     0.251 C 
HETATM   19  N3  UNL     1      17.647  72.177  63.631  1.00  0.00    -0.061 NA
HETATM   20  O1  UNL     1      17.538  74.353  64.369  1.00  0.00    -0.275 OA
ENDBRANCH  15  18
ENDBRANCH  14  15
ENDBRANCH  13  14
ENDBRANCH  12  13
ENDBRANCH   1  11
TORSDOF 7
ENDMDL
MODEL 5
REMARK VINA RESULT: -6.190454812      1.710      2.745
REMARK  7 active torsions:
REMARK  status: ('A' for Active; 'I' for Inactive)
REMARK    1  A    between atoms: C2_2  and  C3_3 
REMARK    2  A    between atoms: N2_6  and  C4_7 
REMARK    3  A    between atoms: C4_7  and  C5_8 
REMARK    4  A    between atoms: C6_9  and  C7_10 
REMARK    5  A    between atoms: C7_10  and  C8_11 
REMARK    6  A    between atoms: C8_11  and  C9_12 
REMARK    7  A    between atoms: C9_12  and  C12_15 
ROOT
HETATM    1  C4  UNL     1      18.231  78.553  56.822  1.00  0.00     0.244 C 
ENDROOT
BRANCH   1   2
HETATM    2  N2  UNL     1      16.875  78.713  56.341  1.00  0.00    -0.275 N 
HETATM    3  N1  UNL     1      15.745  78.295  56.878  1.00  0.00    -0.285 N 
HETATM    4  C3  UNL     1      14.697  78.647  56.116  1.00  0.00     0.098 A 
ATOM      5  H1  UNL     1      15.676  77.774  57.753  1.00  0.00     0.188 HD
HETATM    6  N4  UNL     1      15.185  79.313  55.055  1.00  0.00    -0.335 N 
HETATM    7  C13 UNL     1      16.539  79.346  55.207  1.00  0.00     0.205 A 
HETATM    8  C14 UNL     1      14.429  79.886  53.960  1.00  0.00     0.158 C 
BRANCH   4   9
HETATM    9  C2  UNL     1      13.243  78.385  56.337  1.00  0.00     0.073 C 
HETATM   10  C1  UNL     1      12.923  76.920  56.367  1.00  0.00     0.013 C 
ENDBRANCH   4   9
ENDBRANCH   1   2
BRANCH   1  11
HETATM   11  C5  UNL     1      18.166  77.559  57.918  1.00  0.00    -0.071 C 
HETATM   12  C6  UNL     1      18.099  76.748  58.810  1.00  0.00    -0.013 C 
BRANCH  12  13
HETATM   13  C7  UNL     1      18.045  75.791  59.851  1.00  0.00    -0.014 C 
BRANCH  13  14
HETATM   14  C8  UNL     1      18.006  74.953  60.740  1.00  0.00    -0.074 C 
BRANCH  14  15
HETATM   15  C9  UNL     1      17.958  73.939  61.793  1.00  0.00     0.095 C 
HETATM   16  C10 UNL     1      16.530  73.451  61.895  1.00  0.00     0.039 C 
HETATM   17  C11 UNL     1      18.837  72.751  61.427  1.00  0.00     0.039 C 
BRANCH  15  18
HETATM   18  C12 UNL     1      18.451  74.500  63.052  1.00  0.00     0.251 C 
HETATM   19  N3  UNL     1      17.808  74.221  64.282  1.00  0.00    -0.061 NA
HETATM   20  O1  UNL     1      19.459  75.243  63.048  1.00  0.00    -0.275 OA
ENDBRANCH  15  18
ENDBRANCH  14  15
ENDBRANCH  13  14
ENDBRANCH  12  13
ENDBRANCH   1  11
TORSDOF 7
ENDMDL
