MODEL 1
REMARK VINA RESULT: -7.600959852      0.000      0.000
REMARK  2 active torsions:
REMARK  status: ('A' for Active; 'I' for Inactive)
REMARK       I    between atoms: C2_2  and  N1_4 
REMARK       I    between atoms: C3_6  and  N2_7 
REMARK       I    between atoms: C3_6  and  N4_19 
REMARK    1  A    between atoms: N3_14  and  O2_15 
REMARK    2  A    between atoms: N4_19  and  N5_21 
ROOT
HETATM    1  C1  UNL     1      18.796  72.770  62.617  1.00  0.00     0.118 C 
HETATM    2  C2  UNL     1      17.885  73.841  62.166  1.00  0.00     0.232 C 
HETATM    3  O1  UNL     1      17.008  74.269  62.947  1.00  0.00    -0.273 OA
HETATM    4  N1  UNL     1      18.006  74.367  60.881  1.00  0.00    -0.159 N 
ATOM      5  H1  UNL     1      18.157  75.373  60.806  1.00  0.00     0.187 HD
HETATM    6  C3  UNL     1      17.945  73.710  59.787  1.00  0.00     0.700 C 
HETATM    7  N2  UNL     1      18.086  74.392  58.559  1.00  0.00    -0.196 N 
ATOM      8  H2  UNL     1      18.966  74.277  58.055  1.00  0.00     0.184 HD
HETATM    9  C4  UNL     1      17.203  75.141  58.033  1.00  0.00     0.026 C 
HETATM   10  C5  UNL     1      15.871  75.471  58.544  1.00  0.00     0.081 C 
HETATM   11  C6  UNL     1      15.175  76.162  57.419  1.00  0.00     0.037 C 
HETATM   12  C7  UNL     1      14.813  77.607  57.754  1.00  0.00     0.034 C 
HETATM   13  C8  UNL     1      13.893  75.378  57.121  1.00  0.00     0.034 C 
HETATM   14  N3  UNL     1      16.045  76.192  56.284  1.00  0.00    -0.181 NA
HETATM   15  C9  UNL     1      17.378  75.850  56.737  1.00  0.00     0.129 C 
HETATM   16  C10 UNL     1      18.139  77.143  56.956  1.00  0.00     0.035 C 
HETATM   17  N4  UNL     1      17.736  72.315  59.818  1.00  0.00    -0.118 N 
ATOM     18  H4  UNL     1      18.546  71.698  59.876  1.00  0.00     0.207 HD
ENDROOT
BRANCH  17  19
HETATM   19  N5  UNL     1      16.453  71.747  59.772  1.00  0.00    -0.235 N 
HETATM   20  N6  UNL     1      16.025  71.088  58.775  1.00  0.00    -0.330 N 
ATOM     21  H62 UNL     1      16.654  70.977  57.979  1.00  0.00     0.178 HD
ATOM     22  H61 UNL     1      15.093  70.676  58.742  1.00  0.00     0.178 HD
ATOM     23  H5  UNL     1      15.836  71.867  60.577  1.00  0.00     0.208 HD
ENDBRANCH  17  19
BRANCH  14  24
HETATM   24  O2  UNL     1      15.634  75.380  55.283  1.00  0.00    -0.312 OA
ATOM     25  H2  UNL     1      16.203  75.411  54.522  1.00  0.00     0.237 HD
ENDBRANCH  14  24
TORSDOF 2
ENDMDL
MODEL 2
REMARK VINA RESULT: -7.542458257      2.810      5.358
REMARK  2 active torsions:
REMARK  status: ('A' for Active; 'I' for Inactive)
REMARK       I    between atoms: C2_2  and  N1_4 
REMARK       I    between atoms: C3_6  and  N2_7 
REMARK       I    between atoms: C3_6  and  N4_19 
REMARK    1  A    between atoms: N3_14  and  O2_15 
REMARK    2  A    between atoms: N4_19  and  N5_21 
ROOT
HETATM    1  C1  UNL     1      17.796  72.383  55.011  1.00  0.00     0.118 C 
HETATM    2  C2  UNL     1      18.636  72.487  56.221  1.00  0.00     0.232 C 
HETATM    3  O1  UNL     1      19.690  71.820  56.295  1.00  0.00    -0.273 OA
HETATM    4  N1  UNL     1      18.252  73.323  57.268  1.00  0.00    -0.159 N 
ATOM      5  H1  UNL     1      18.917  74.044  57.550  1.00  0.00     0.187 HD
HETATM    6  C3  UNL     1      17.148  73.272  57.910  1.00  0.00     0.700 C 
HETATM    7  N2  UNL     1      16.910  74.194  58.952  1.00  0.00    -0.196 N 
ATOM      8  H2  UNL     1      16.248  74.949  58.769  1.00  0.00     0.184 HD
HETATM    9  C4  UNL     1      17.454  74.158  60.101  1.00  0.00     0.026 C 
HETATM   10  C5  UNL     1      18.427  73.190  60.614  1.00  0.00     0.081 C 
HETATM   11  C6  UNL     1      18.524  73.464  62.077  1.00  0.00     0.037 C 
HETATM   12  C7  UNL     1      19.919  73.920  62.497  1.00  0.00     0.034 C 
HETATM   13  C8  UNL     1      18.178  72.165  62.812  1.00  0.00     0.034 C 
HETATM   14  N3  UNL     1      17.612  74.513  62.414  1.00  0.00    -0.181 NA
HETATM   15  C9  UNL     1      17.186  75.143  61.181  1.00  0.00     0.129 C 
HETATM   16  C10 UNL     1      18.037  76.380  60.974  1.00  0.00     0.035 C 
HETATM   17  N4  UNL     1      16.186  72.298  57.573  1.00  0.00    -0.118 N 
ATOM     18  H4  UNL     1      15.494  72.517  56.857  1.00  0.00     0.207 HD
ENDROOT
BRANCH  17  19
HETATM   19  N5  UNL     1      16.148  71.036  58.188  1.00  0.00    -0.235 N 
HETATM   20  N6  UNL     1      16.138  69.949  57.532  1.00  0.00    -0.330 N 
ATOM     21  H62 UNL     1      16.160  70.013  56.514  1.00  0.00     0.178 HD
ATOM     22  H61 UNL     1      16.110  69.032  57.979  1.00  0.00     0.178 HD
ATOM     23  H5  UNL     1      16.127  70.990  59.208  1.00  0.00     0.208 HD
ENDBRANCH  17  19
BRANCH  14  24
HETATM   24  O2  UNL     1      16.559  74.082  63.146  1.00  0.00    -0.312 OA
ATOM     25  H2  UNL     1      15.740  74.099  62.664  1.00  0.00     0.237 HD
ENDBRANCH  14  24
TORSDOF 2
ENDMDL
MODEL 3
REMARK VINA RESULT: -7.095424482      2.790      3.916
REMARK  2 active torsions:
REMARK  status: ('A' for Active; 'I' for Inactive)
REMARK       I    between atoms: C2_2  and  N1_4 
REMARK       I    between atoms: C3_6  and  N2_7 
REMARK       I    between atoms: C3_6  and  N4_19 
REMARK    1  A    between atoms: N3_14  and  O2_15 
REMARK    2  A    between atoms: N4_19  and  N5_21 
ROOT
HETATM    1  C1  UNL     1      17.984  72.304  63.231  1.00  0.00     0.118 C 
HETATM    2  C2  UNL     1      18.666  72.508  61.938  1.00  0.00     0.232 C 
HETATM    3  O1  UNL     1      19.699  73.212  61.894  1.00  0.00    -0.273 OA
HETATM    4  N1  UNL     1      18.161  71.920  60.779  1.00  0.00    -0.159 N 
ATOM      5  H1  UNL     1      18.790  71.306  60.261  1.00  0.00     0.187 HD
HETATM    6  C3  UNL     1      16.985  72.077  60.304  1.00  0.00     0.700 C 
HETATM    7  N2  UNL     1      16.624  71.408  59.114  1.00  0.00    -0.196 N 
ATOM      8  H2  UNL     1      15.996  70.608  59.196  1.00  0.00     0.184 HD
HETATM    9  C4  UNL     1      17.021  71.725  57.948  1.00  0.00     0.026 C 
HETATM   10  C5  UNL     1      17.915  72.819  57.559  1.00  0.00     0.081 C 
HETATM   11  C6  UNL     1      17.830  72.889  56.071  1.00  0.00     0.037 C 
HETATM   12  C7  UNL     1      19.165  72.591  55.393  1.00  0.00     0.034 C 
HETATM   13  C8  UNL     1      17.385  74.308  55.703  1.00  0.00     0.034 C 
HETATM   14  N3  UNL     1      16.890  71.912  55.613  1.00  0.00    -0.181 NA
HETATM   15  C9  UNL     1      16.626  71.004  56.709  1.00  0.00     0.129 C 
HETATM   16  C10 UNL     1      17.505  69.783  56.522  1.00  0.00     0.035 C 
HETATM   17  N4  UNL     1      16.066  72.913  60.970  1.00  0.00    -0.118 N 
ATOM     18  H4  UNL     1      15.470  72.512  61.693  1.00  0.00     0.207 HD
ENDROOT
BRANCH  17  19
HETATM   19  N5  UNL     1      15.942  74.280  60.671  1.00  0.00    -0.235 N 
HETATM   20  N6  UNL     1      15.334  74.709  59.643  1.00  0.00    -0.330 N 
ATOM     21  H62 UNL     1      14.923  74.017  59.015  1.00  0.00     0.178 HD
ATOM     22  H61 UNL     1      15.244  75.702  59.426  1.00  0.00     0.178 HD
ATOM     23  H5  UNL     1      16.358  74.959  61.310  1.00  0.00     0.208 HD
ENDBRANCH  17  19
BRANCH  14  24
HETATM   24  O2  UNL     1      15.751  72.462  55.132  1.00  0.00    -0.312 OA
ATOM     25  H2  UNL     1      15.012  72.357  55.720  1.00  0.00     0.237 HD
ENDBRANCH  14  24
TORSDOF 2
ENDMDL
MODEL 4
REMARK VINA RESULT: -6.893349254      3.338      4.160
REMARK  2 active torsions:
REMARK  status: ('A' for Active; 'I' for Inactive)
REMARK       I    between atoms: C2_2  and  N1_4 
REMARK       I    between atoms: C3_6  and  N2_7 
REMARK       I    between atoms: C3_6  and  N4_19 
REMARK    1  A    between atoms: N3_14  and  O2_15 
REMARK    2  A    between atoms: N4_19  and  N5_21 
ROOT
HETATM    1  C1  UNL     1      18.803  74.711  61.983  1.00  0.00     0.118 C 
HETATM    2  C2  UNL     1      18.170  74.735  60.649  1.00  0.00     0.232 C 
HETATM    3  O1  UNL     1      17.507  75.737  60.303  1.00  0.00    -0.273 OA
HETATM    4  N1  UNL     1      18.314  73.649  59.787  1.00  0.00    -0.159 N 
ATOM      5  H1  UNL     1      18.717  73.840  58.869  1.00  0.00     0.187 HD
HETATM    6  C3  UNL     1      17.989  72.439  60.035  1.00  0.00     0.700 C 
HETATM    7  N2  UNL     1      18.198  71.449  59.051  1.00  0.00    -0.196 N 
ATOM      8  H2  UNL     1      18.970  70.797  59.196  1.00  0.00     0.184 HD
HETATM    9  C4  UNL     1      17.501  71.306  57.997  1.00  0.00     0.026 C 
HETATM   10  C5  UNL     1      16.351  72.099  57.555  1.00  0.00     0.081 C 
HETATM   11  C6  UNL     1      15.768  71.344  56.408  1.00  0.00     0.037 C 
HETATM   12  C7  UNL     1      15.828  72.128  55.099  1.00  0.00     0.034 C 
HETATM   13  C8  UNL     1      14.304  71.048  56.749  1.00  0.00     0.034 C 
HETATM   14  N3  UNL     1      16.514  70.138  56.218  1.00  0.00    -0.181 NA
HETATM   15  C9  UNL     1      17.744  70.254  56.974  1.00  0.00     0.129 C 
HETATM   16  C10 UNL     1      18.833  70.704  56.021  1.00  0.00     0.035 C 
HETATM   17  N4  UNL     1      17.424  72.108  61.284  1.00  0.00    -0.118 N 
ATOM     18  H4  UNL     1      18.045  71.856  62.053  1.00  0.00     0.207 HD
ENDROOT
BRANCH  17  19
HETATM   19  N5  UNL     1      16.037  72.112  61.507  1.00  0.00    -0.235 N 
HETATM   20  N6  UNL     1      15.407  73.137  61.910  1.00  0.00    -0.330 N 
ATOM     21  H62 UNL     1      15.946  73.987  62.075  1.00  0.00     0.178 HD
ATOM     22  H61 UNL     1      14.400  73.140  62.072  1.00  0.00     0.178 HD
ATOM     23  H5  UNL     1      15.513  71.253  61.336  1.00  0.00     0.208 HD
ENDBRANCH  17  19
BRANCH  14  24
HETATM   24  O2  UNL     1      15.819  69.028  56.560  1.00  0.00    -0.312 OA
ATOM     25  H2  UNL     1      16.363  68.357  56.954  1.00  0.00     0.237 HD
ENDBRANCH  14  24
TORSDOF 2
ENDMDL
MODEL 5
REMARK VINA RESULT: -6.849891812      2.847      4.013
REMARK  2 active torsions:
REMARK  status: ('A' for Active; 'I' for Inactive)
REMARK       I    between atoms: C2_2  and  N1_4 
REMARK       I    between atoms: C3_6  and  N2_7 
REMARK       I    between atoms: C3_6  and  N4_19 
REMARK    1  A    between atoms: N3_14  and  O2_15 
REMARK    2  A    between atoms: N4_19  and  N5_21 
ROOT
HETATM    1  C1  UNL     1      17.635  69.440  56.418  1.00  0.00     0.118 C 
HETATM    2  C2  UNL     1      18.254  70.781  56.402  1.00  0.00     0.232 C 
HETATM    3  O1  UNL     1      19.499  70.881  56.438  1.00  0.00    -0.273 OA
HETATM    4  N1  UNL     1      17.453  71.920  56.348  1.00  0.00    -0.159 N 
ATOM      5  H1  UNL     1      17.616  72.562  55.572  1.00  0.00     0.187 HD
HETATM    6  C3  UNL     1      16.534  72.238  57.178  1.00  0.00     0.700 C 
HETATM    7  N2  UNL     1      15.809  73.433  56.983  1.00  0.00    -0.196 N 
ATOM      8  H2  UNL     1      14.849  73.352  56.644  1.00  0.00     0.184 HD
HETATM    9  C4  UNL     1      16.256  74.604  57.197  1.00  0.00     0.026 C 
HETATM   10  C5  UNL     1      17.584  74.994  57.679  1.00  0.00     0.081 C 
HETATM   11  C6  UNL     1      17.479  76.449  57.992  1.00  0.00     0.037 C 
HETATM   12  C7  UNL     1      18.397  77.304  57.121  1.00  0.00     0.034 C 
HETATM   13  C8  UNL     1      17.868  76.632  59.462  1.00  0.00     0.034 C 
HETATM   14  N3  UNL     1      16.136  76.881  57.750  1.00  0.00    -0.181 NA
HETATM   15  C9  UNL     1      15.471  75.848  56.983  1.00  0.00     0.129 C 
HETATM   16  C10 UNL     1      15.526  76.248  55.522  1.00  0.00     0.035 C 
HETATM   17  N4  UNL     1      16.258  71.396  58.274  1.00  0.00    -0.118 N 
ATOM     18  H4  UNL     1      15.576  70.647  58.160  1.00  0.00     0.207 HD
ENDROOT
BRANCH  17  19
HETATM   19  N5  UNL     1      16.890  71.552  59.519  1.00  0.00    -0.235 N 
HETATM   20  N6  UNL     1      16.351  72.161  60.494  1.00  0.00    -0.330 N 
ATOM     21  H62 UNL     1      15.418  72.548  60.350  1.00  0.00     0.178 HD
ATOM     22  H61 UNL     1      16.810  72.274  61.398  1.00  0.00     0.178 HD
ATOM     23  H5  UNL     1      17.823  71.159  59.646  1.00  0.00     0.208 HD
ENDBRANCH  17  19
BRANCH  14  24
HETATM   24  O2  UNL     1      15.463  77.173  58.887  1.00  0.00    -0.312 OA
ATOM     25  H2  UNL     1      16.012  77.140  59.662  1.00  0.00     0.237 HD
ENDBRANCH  14  24
TORSDOF 2
ENDMDL
