MODEL 1
REMARK VINA RESULT: -7.307044962      0.000      0.000
REMARK  8 active torsions:
REMARK  status: ('A' for Active; 'I' for Inactive)
REMARK    1  A    between atoms: C2_2  and  C4_4 
REMARK    2  A    between atoms: C5_5  and  C6_6 
REMARK    3  A    between atoms: C7_7  and  C8_8 
REMARK    4  A    between atoms: C9_9  and  C10_10 
REMARK    5  A    between atoms: C11_11  and  C12_12 
REMARK    6  A    between atoms: C13_13  and  C14_14 
REMARK    7  A    between atoms: C14_14  and  N4_22 
REMARK    8  A    between atoms: N1_15  and  N2_17 
ROOT
HETATM    1  C12 UNL     1      16.647  75.288  60.096  1.00  0.00    -0.070 C 
HETATM    2  C13 UNL     1      16.971  74.376  60.815  1.00  0.00    -0.024 C 
ENDROOT
BRANCH   1   3
HETATM    3  C11 UNL     1      16.274  76.382  59.212  1.00  0.00     0.073 C 
HETATM    4  C10 UNL     1      15.273  76.243  58.397  1.00  0.00     0.074 C 
BRANCH   4   5
HETATM    5  C9  UNL     1      14.922  77.340  57.531  1.00  0.00    -0.064 C 
HETATM    6  C8  UNL     1      14.649  78.260  56.801  1.00  0.00    -0.009 C 
BRANCH   6   7
HETATM    7  C7  UNL     1      14.351  79.346  55.948  1.00  0.00    -0.001 C 
HETATM    8  C6  UNL     1      14.117  80.284  55.212  1.00  0.00    -0.001 C 
BRANCH   8   9
HETATM    9  C5  UNL     1      13.853  81.368  54.334  1.00  0.00    -0.014 C 
HETATM   10  C4  UNL     1      13.639  82.283  53.576  1.00  0.00    -0.088 C 
BRANCH  10  11
HETATM   11  C2  UNL     1      13.392  83.384  52.644  1.00  0.00     0.058 C 
HETATM   12  C1  UNL     1      11.907  83.683  52.506  1.00  0.00     0.023 C 
HETATM   13  C3  UNL     1      13.940  82.987  51.306  1.00  0.00     0.023 C 
ENDBRANCH  10  11
ENDBRANCH   8   9
ENDBRANCH   6   7
ENDBRANCH   4   5
ENDBRANCH   1   3
BRANCH   2  14
HETATM   14  C14 UNL     1      17.371  73.283  61.653  1.00  0.00     0.175 C 
HETATM   15  N1  UNL     1      17.041  72.085  61.343  1.00  0.00    -0.264 N 
ATOM     16  H1  UNL     1      17.322  71.307  61.938  1.00  0.00     0.190 HD
BRANCH  15  17
HETATM   17  N2  UNL     1      16.299  71.850  60.194  1.00  0.00    -0.247 N 
HETATM   18  N3  UNL     1      16.800  71.314  59.145  1.00  0.00    -0.331 N 
ATOM     19  H32 UNL     1      17.786  71.054  59.171  1.00  0.00     0.178 HD
ATOM     20  H31 UNL     1      16.255  71.141  58.301  1.00  0.00     0.178 HD
ATOM     21  H2  UNL     1      15.314  72.115  60.186  1.00  0.00     0.207 HD
ENDBRANCH  15  17
BRANCH  14  22
HETATM   22  N4  UNL     1      18.132  73.469  62.842  1.00  0.00    -0.368 N 
HETATM   23  C15 UNL     1      17.734  72.845  64.083  1.00  0.00     0.151 C 
HETATM   24  C16 UNL     1      19.335  74.304  62.799  1.00  0.00     0.151 C 
ENDBRANCH  14  22
ENDBRANCH   2  14
TORSDOF 8
ENDMDL
MODEL 2
REMARK VINA RESULT: -7.304378490      6.406     11.799
REMARK  8 active torsions:
REMARK  status: ('A' for Active; 'I' for Inactive)
REMARK    1  A    between atoms: C2_2  and  C4_4 
REMARK    2  A    between atoms: C5_5  and  C6_6 
REMARK    3  A    between atoms: C7_7  and  C8_8 
REMARK    4  A    between atoms: C9_9  and  C10_10 
REMARK    5  A    between atoms: C11_11  and  C12_12 
REMARK    6  A    between atoms: C13_13  and  C14_14 
REMARK    7  A    between atoms: C14_14  and  N4_22 
REMARK    8  A    between atoms: N1_15  and  N2_17 
ROOT
HETATM    1  C12 UNL     1      13.250  80.952  55.357  1.00  0.00    -0.070 C 
HETATM    2  C13 UNL     1      12.664  81.668  54.584  1.00  0.00    -0.024 C 
ENDROOT
BRANCH   1   3
HETATM    3  C11 UNL     1      13.967  80.108  56.301  1.00  0.00     0.073 C 
HETATM    4  C10 UNL     1      13.962  78.819  56.150  1.00  0.00     0.074 C 
BRANCH   4   5
HETATM    5  C9  UNL     1      14.678  78.003  57.098  1.00  0.00    -0.064 C 
HETATM    6  C8  UNL     1      15.287  77.338  57.899  1.00  0.00    -0.009 C 
BRANCH   6   7
HETATM    7  C7  UNL     1      16.016  76.577  58.839  1.00  0.00    -0.001 C 
HETATM    8  C6  UNL     1      16.647  75.907  59.633  1.00  0.00    -0.001 C 
BRANCH   8   9
HETATM    9  C5  UNL     1      17.402  75.125  60.547  1.00  0.00    -0.014 C 
HETATM   10  C4  UNL     1      18.055  74.456  61.310  1.00  0.00    -0.088 C 
BRANCH  10  11
HETATM   11  C2  UNL     1      18.855  73.636  62.222  1.00  0.00     0.058 C 
HETATM   12  C1  UNL     1      19.249  72.310  61.588  1.00  0.00     0.023 C 
HETATM   13  C3  UNL     1      18.031  73.372  63.446  1.00  0.00     0.023 C 
ENDBRANCH  10  11
ENDBRANCH   8   9
ENDBRANCH   6   7
ENDBRANCH   4   5
ENDBRANCH   1   3
BRANCH   2  14
HETATM   14  C14 UNL     1      11.975  82.538  53.676  1.00  0.00     0.175 C 
HETATM   15  N1  UNL     1      12.639  83.252  52.847  1.00  0.00    -0.264 N 
ATOM     16  H1  UNL     1      12.152  83.873  52.202  1.00  0.00     0.190 HD
BRANCH  15  17
HETATM   17  N2  UNL     1      14.024  83.179  52.829  1.00  0.00    -0.247 N 
HETATM   18  N3  UNL     1      14.704  83.187  51.743  1.00  0.00    -0.331 N 
ATOM     19  H32 UNL     1      14.190  83.252  50.864  1.00  0.00     0.178 HD
ATOM     20  H31 UNL     1      15.722  83.133  51.730  1.00  0.00     0.178 HD
ATOM     21  H2  UNL     1      14.522  83.114  53.717  1.00  0.00     0.207 HD
ENDBRANCH  15  17
BRANCH  14  22
HETATM   22  N4  UNL     1      10.556  82.651  53.652  1.00  0.00    -0.368 N 
HETATM   23  C15 UNL     1       9.907  83.678  52.869  1.00  0.00     0.151 C 
HETATM   24  C16 UNL     1       9.748  81.712  54.435  1.00  0.00     0.151 C 
ENDBRANCH  14  22
ENDBRANCH   2  14
TORSDOF 8
ENDMDL
MODEL 3
REMARK VINA RESULT: -7.247111062      6.191     11.752
REMARK  8 active torsions:
REMARK  status: ('A' for Active; 'I' for Inactive)
REMARK    1  A    between atoms: C2_2  and  C4_4 
REMARK    2  A    between atoms: C5_5  and  C6_6 
REMARK    3  A    between atoms: C7_7  and  C8_8 
REMARK    4  A    between atoms: C9_9  and  C10_10 
REMARK    5  A    between atoms: C11_11  and  C12_12 
REMARK    6  A    between atoms: C13_13  and  C14_14 
REMARK    7  A    between atoms: C14_14  and  N4_22 
REMARK    8  A    between atoms: N1_15  and  N2_17 
ROOT
HETATM    1  C12 UNL     1      13.134  81.065  55.292  1.00  0.00    -0.070 C 
HETATM    2  C13 UNL     1      12.508  81.770  54.540  1.00  0.00    -0.024 C 
ENDROOT
BRANCH   1   3
HETATM    3  C11 UNL     1      13.906  80.231  56.201  1.00  0.00     0.073 C 
HETATM    4  C10 UNL     1      13.792  78.940  56.150  1.00  0.00     0.074 C 
BRANCH   4   5
HETATM    5  C9  UNL     1      14.566  78.135  57.061  1.00  0.00    -0.064 C 
HETATM    6  C8  UNL     1      15.206  77.472  57.840  1.00  0.00    -0.009 C 
BRANCH   6   7
HETATM    7  C7  UNL     1      15.954  76.715  58.768  1.00  0.00    -0.001 C 
HETATM    8  C6  UNL     1      16.614  76.064  59.554  1.00  0.00    -0.001 C 
BRANCH   8   9
HETATM    9  C5  UNL     1      17.400  75.321  60.473  1.00  0.00    -0.014 C 
HETATM   10  C4  UNL     1      18.060  74.674  61.250  1.00  0.00    -0.088 C 
BRANCH  10  11
HETATM   11  C2  UNL     1      18.849  73.875  62.189  1.00  0.00     0.058 C 
HETATM   12  C1  UNL     1      19.478  72.668  61.511  1.00  0.00     0.023 C 
HETATM   13  C3  UNL     1      17.932  73.407  63.279  1.00  0.00     0.023 C 
ENDBRANCH  10  11
ENDBRANCH   8   9
ENDBRANCH   6   7
ENDBRANCH   4   5
ENDBRANCH   1   3
BRANCH   2  14
HETATM   14  C14 UNL     1      11.778  82.627  53.652  1.00  0.00     0.175 C 
HETATM   15  N1  UNL     1      10.511  82.759  53.788  1.00  0.00    -0.264 N 
ATOM     16  H1  UNL     1       9.990  83.366  53.156  1.00  0.00     0.190 HD
BRANCH  15  17
HETATM   17  N2  UNL     1       9.851  82.073  54.796  1.00  0.00    -0.247 N 
HETATM   18  N3  UNL     1       8.993  81.151  54.560  1.00  0.00    -0.331 N 
ATOM     19  H32 UNL     1       8.800  80.924  53.584  1.00  0.00     0.178 HD
ATOM     20  H31 UNL     1       8.508  80.647  55.301  1.00  0.00     0.178 HD
ATOM     21  H2  UNL     1      10.057  82.312  55.766  1.00  0.00     0.207 HD
ENDBRANCH  15  17
BRANCH  14  22
HETATM   22  N4  UNL     1      12.406  83.354  52.601  1.00  0.00    -0.368 N 
HETATM   23  C15 UNL     1      13.844  83.368  52.465  1.00  0.00     0.151 C 
HETATM   24  C16 UNL     1      11.577  84.096  51.649  1.00  0.00     0.151 C 
ENDBRANCH  14  22
ENDBRANCH   2  14
TORSDOF 8
ENDMDL
MODEL 4
REMARK VINA RESULT: -7.160472197      6.265     11.731
REMARK  8 active torsions:
REMARK  status: ('A' for Active; 'I' for Inactive)
REMARK    1  A    between atoms: C2_2  and  C4_4 
REMARK    2  A    between atoms: C5_5  and  C6_6 
REMARK    3  A    between atoms: C7_7  and  C8_8 
REMARK    4  A    between atoms: C9_9  and  C10_10 
REMARK    5  A    between atoms: C11_11  and  C12_12 
REMARK    6  A    between atoms: C13_13  and  C14_14 
REMARK    7  A    between atoms: C14_14  and  N4_22 
REMARK    8  A    between atoms: N1_15  and  N2_17 
ROOT
HETATM    1  C12 UNL     1      13.129  81.103  55.243  1.00  0.00    -0.070 C 
HETATM    2  C13 UNL     1      12.522  81.835  54.501  1.00  0.00    -0.024 C 
ENDROOT
BRANCH   1   3
HETATM    3  C11 UNL     1      13.883  80.230  56.130  1.00  0.00     0.073 C 
HETATM    4  C10 UNL     1      13.709  78.945  56.074  1.00  0.00     0.074 C 
BRANCH   4   5
HETATM    5  C9  UNL     1      14.466  78.100  56.963  1.00  0.00    -0.064 C 
HETATM    6  C8  UNL     1      15.083  77.391  57.719  1.00  0.00    -0.009 C 
BRANCH   6   7
HETATM    7  C7  UNL     1      15.791  76.568  58.624  1.00  0.00    -0.001 C 
HETATM    8  C6  UNL     1      16.413  75.876  59.404  1.00  0.00    -0.001 C 
BRANCH   8   9
HETATM    9  C5  UNL     1      17.138  75.082  60.332  1.00  0.00    -0.014 C 
HETATM   10  C4  UNL     1      17.751  74.393  61.111  1.00  0.00    -0.088 C 
BRANCH  10  11
HETATM   11  C2  UNL     1      18.489  73.543  62.047  1.00  0.00     0.058 C 
HETATM   12  C1  UNL     1      19.408  74.358  62.944  1.00  0.00     0.023 C 
HETATM   13  C3  UNL     1      19.311  72.581  61.243  1.00  0.00     0.023 C 
ENDBRANCH  10  11
ENDBRANCH   8   9
ENDBRANCH   6   7
ENDBRANCH   4   5
ENDBRANCH   1   3
BRANCH   2  14
HETATM   14  C14 UNL     1      11.821  82.717  53.615  1.00  0.00     0.175 C 
HETATM   15  N1  UNL     1      10.561  82.894  53.754  1.00  0.00    -0.264 N 
ATOM     16  H1  UNL     1      10.060  83.519  53.123  1.00  0.00     0.190 HD
BRANCH  15  17
HETATM   17  N2  UNL     1       9.879  82.233  54.765  1.00  0.00    -0.247 N 
HETATM   18  N3  UNL     1       8.963  81.368  54.532  1.00  0.00    -0.331 N 
ATOM     19  H32 UNL     1       8.739  81.168  53.557  1.00  0.00     0.178 HD
ATOM     20  H31 UNL     1       8.462  80.882  55.275  1.00  0.00     0.178 HD
ATOM     21  H2  UNL     1      10.117  82.445  55.734  1.00  0.00     0.207 HD
ENDBRANCH  15  17
BRANCH  14  22
HETATM   22  N4  UNL     1      12.472  83.420  52.561  1.00  0.00    -0.368 N 
HETATM   23  C15 UNL     1      11.708  84.096  51.538  1.00  0.00     0.151 C 
HETATM   24  C16 UNL     1      13.936  83.453  52.519  1.00  0.00     0.151 C 
ENDBRANCH  14  22
ENDBRANCH   2  14
TORSDOF 8
ENDMDL
MODEL 5
REMARK VINA RESULT: -6.835417649      1.610      2.546
REMARK  8 active torsions:
REMARK  status: ('A' for Active; 'I' for Inactive)
REMARK    1  A    between atoms: C2_2  and  C4_4 
REMARK    2  A    between atoms: C5_5  and  C6_6 
REMARK    3  A    between atoms: C7_7  and  C8_8 
REMARK    4  A    between atoms: C9_9  and  C10_10 
REMARK    5  A    between atoms: C11_11  and  C12_12 
REMARK    6  A    between atoms: C13_13  and  C14_14 
REMARK    7  A    between atoms: C14_14  and  N4_22 
REMARK    8  A    between atoms: N1_15  and  N2_17 
ROOT
HETATM    1  C12 UNL     1      16.332  74.763  59.644  1.00  0.00    -0.070 C 
HETATM    2  C13 UNL     1      16.939  73.843  60.135  1.00  0.00    -0.024 C 
ENDROOT
BRANCH   1   3
HETATM    3  C11 UNL     1      15.609  75.867  59.030  1.00  0.00     0.073 C 
HETATM    4  C10 UNL     1      15.945  76.282  57.848  1.00  0.00     0.074 C 
BRANCH   4   5
HETATM    5  C9  UNL     1      15.215  77.377  57.261  1.00  0.00    -0.064 C 
HETATM    6  C8  UNL     1      14.614  78.290  56.751  1.00  0.00    -0.009 C 
BRANCH   6   7
HETATM    7  C7  UNL     1      13.930  79.364  56.139  1.00  0.00    -0.001 C 
HETATM    8  C6  UNL     1      13.323  80.276  55.614  1.00  0.00    -0.001 C 
BRANCH   8   9
HETATM    9  C5  UNL     1      12.601  81.344  55.019  1.00  0.00    -0.014 C 
HETATM   10  C4  UNL     1      11.974  82.241  54.508  1.00  0.00    -0.088 C 
BRANCH  10  11
HETATM   11  C2  UNL     1      11.201  83.315  53.883  1.00  0.00     0.058 C 
HETATM   12  C1  UNL     1       9.753  82.908  53.653  1.00  0.00     0.023 C 
HETATM   13  C3  UNL     1      11.839  83.632  52.564  1.00  0.00     0.023 C 
ENDBRANCH  10  11
ENDBRANCH   8   9
ENDBRANCH   6   7
ENDBRANCH   4   5
ENDBRANCH   1   3
BRANCH   2  14
HETATM   14  C14 UNL     1      17.667  72.743  60.696  1.00  0.00     0.175 C 
HETATM   15  N1  UNL     1      17.646  72.541  61.960  1.00  0.00    -0.264 N 
ATOM     16  H1  UNL     1      18.164  71.760  62.361  1.00  0.00     0.190 HD
BRANCH  15  17
HETATM   17  N2  UNL     1      16.915  73.386  62.782  1.00  0.00    -0.247 N 
HETATM   18  N3  UNL     1      17.296  73.705  63.962  1.00  0.00    -0.331 N 
ATOM     19  H32 UNL     1      18.177  73.312  64.297  1.00  0.00     0.178 HD
ATOM     20  H31 UNL     1      16.759  74.326  64.566  1.00  0.00     0.178 HD
ATOM     21  H2  UNL     1      16.037  73.770  62.431  1.00  0.00     0.207 HD
ENDBRANCH  15  17
BRANCH  14  22
HETATM   22  N4  UNL     1      18.432  71.845  59.899  1.00  0.00    -0.368 N 
HETATM   23  C15 UNL     1      18.154  71.681  58.491  1.00  0.00     0.151 C 
HETATM   24  C16 UNL     1      19.516  71.080  60.522  1.00  0.00     0.151 C 
ENDBRANCH  14  22
ENDBRANCH   2  14
TORSDOF 8
ENDMDL
