MODEL 1
REMARK VINA RESULT: -5.329810967      0.000      0.000
REMARK  1 active torsions:
REMARK  status: ('A' for Active; 'I' for Inactive)
REMARK    1  A    between atoms: C14_18  and  O1_19 
ROOT
HETATM    1  C1  UNL     1      35.925  -3.608  18.136  1.00  0.00     0.046 C 
HETATM    2  C2  UNL     1      36.860  -3.545  16.979  1.00  0.00     0.126 C 
HETATM    3  C3  UNL     1      36.527  -2.468  15.996  1.00  0.00     0.046 C 
HETATM    4  C4  UNL     1      36.137  -3.108  14.682  1.00  0.00     0.023 C 
HETATM    5  C5  UNL     1      37.357  -3.921  14.230  1.00  0.00     0.092 C 
HETATM    6  S1  UNL     1      38.130  -2.399  13.733  1.00  0.00    -0.151 SA
HETATM    7  C6  UNL     1      36.363  -2.172  13.517  1.00  0.00     0.013 C 
HETATM    8  C7  UNL     1      35.763  -2.726  12.270  1.00  0.00     0.021 C 
HETATM    9  C8  UNL     1      35.429  -1.686  11.235  1.00  0.00     0.002 C 
HETATM   10  C9  UNL     1      36.365  -0.518  11.381  1.00  0.00     0.000 C 
HETATM   11  C10 UNL     1      36.197   0.175  12.704  1.00  0.00     0.002 C 
HETATM   12  C11 UNL     1      35.832  -0.796  13.782  1.00  0.00     0.021 C 
HETATM   13  C12 UNL     1      37.935  -4.682  15.356  1.00  0.00     0.161 C 
HETATM   14  C13 UNL     1      38.416  -6.033  14.826  1.00  0.00     0.050 C 
HETATM   15  N1  UNL     1      36.872  -4.879  16.356  1.00  0.00    -0.054 N 
ATOM     16  H11 UNL     1      35.977  -5.210  15.996  1.00  0.00     0.279 HD
ATOM     17  H12 UNL     1      37.000  -5.666  16.993  1.00  0.00     0.279 HD
HETATM   18  C14 UNL     1      39.000  -3.997  16.132  1.00  0.00     0.157 C 
HETATM   19  C15 UNL     1      38.305  -3.406  17.366  1.00  0.00     0.072 C 
ENDROOT
BRANCH  18  20
HETATM   20  O1  UNL     1      39.878  -4.981  16.618  1.00  0.00    -0.393 OA
ATOM     21  H1  UNL     1      39.425  -5.815  16.586  1.00  0.00     0.210 HD
ENDBRANCH  18  20
TORSDOF 1
ENDMDL
MODEL 2
REMARK VINA RESULT: -5.144395723      2.006      2.745
REMARK  1 active torsions:
REMARK  status: ('A' for Active; 'I' for Inactive)
REMARK    1  A    between atoms: C14_18  and  O1_19 
ROOT
HETATM    1  C1  UNL     1      39.633  -3.342  15.606  1.00  0.00     0.046 C 
HETATM    2  C2  UNL     1      38.413  -3.597  14.793  1.00  0.00     0.126 C 
HETATM    3  C3  UNL     1      37.904  -2.387  14.077  1.00  0.00     0.046 C 
HETATM    4  C4  UNL     1      36.545  -2.025  14.633  1.00  0.00     0.023 C 
HETATM    5  C5  UNL     1      35.647  -3.243  14.380  1.00  0.00     0.092 C 
HETATM    6  S1  UNL     1      35.539  -2.752  12.675  1.00  0.00    -0.151 SA
HETATM    7  C6  UNL     1      35.722  -1.246  13.632  1.00  0.00     0.013 C 
HETATM    8  C7  UNL     1      34.490  -0.702  14.270  1.00  0.00     0.021 C 
HETATM    9  C8  UNL     1      33.922   0.506  13.575  1.00  0.00     0.002 C 
HETATM   10  C9  UNL     1      34.268   0.450  12.114  1.00  0.00     0.000 C 
HETATM   11  C10 UNL     1      35.752   0.527  11.885  1.00  0.00     0.002 C 
HETATM   12  C11 UNL     1      36.507  -0.141  12.990  1.00  0.00     0.021 C 
HETATM   13  C12 UNL     1      36.347  -4.499  14.720  1.00  0.00     0.161 C 
HETATM   14  C13 UNL     1      35.335  -5.461  15.340  1.00  0.00     0.050 C 
HETATM   15  N1  UNL     1      37.402  -4.174  15.695  1.00  0.00    -0.054 N 
ATOM     16  H11 UNL     1      37.118  -3.585  16.478  1.00  0.00     0.279 HD
ATOM     17  H12 UNL     1      37.718  -4.945  16.282  1.00  0.00     0.279 HD
HETATM   18  C14 UNL     1      37.103  -5.147  13.617  1.00  0.00     0.157 C 
HETATM   19  C15 UNL     1      38.563  -4.712  13.796  1.00  0.00     0.072 C 
ENDROOT
BRANCH  18  20
HETATM   20  O1  UNL     1      37.082  -6.534  13.840  1.00  0.00    -0.393 OA
ATOM     21  H1  UNL     1      37.183  -6.679  14.773  1.00  0.00     0.210 HD
ENDBRANCH  18  20
TORSDOF 1
ENDMDL
MODEL 3
REMARK VINA RESULT: -5.025504230      2.128      2.656
REMARK  1 active torsions:
REMARK  status: ('A' for Active; 'I' for Inactive)
REMARK    1  A    between atoms: C14_18  and  O1_19 
ROOT
HETATM    1  C1  UNL     1      36.230  -6.042  18.080  1.00  0.00     0.046 C 
HETATM    2  C2  UNL     1      36.864  -6.016  16.734  1.00  0.00     0.126 C 
HETATM    3  C3  UNL     1      37.350  -4.663  16.324  1.00  0.00     0.046 C 
HETATM    4  C4  UNL     1      36.550  -4.195  15.129  1.00  0.00     0.023 C 
HETATM    5  C5  UNL     1      36.793  -5.234  14.026  1.00  0.00     0.092 C 
HETATM    6  S1  UNL     1      38.394  -4.509  13.759  1.00  0.00    -0.151 SA
HETATM    7  C6  UNL     1      37.314  -3.184  14.306  1.00  0.00     0.013 C 
HETATM    8  C7  UNL     1      36.433  -2.567  13.274  1.00  0.00     0.021 C 
HETATM    9  C8  UNL     1      36.890  -1.211  12.809  1.00  0.00     0.002 C 
HETATM   10  C9  UNL     1      38.385  -1.117  12.936  1.00  0.00     0.000 C 
HETATM   11  C10 UNL     1      38.835  -1.214  14.366  1.00  0.00     0.002 C 
HETATM   12  C11 UNL     1      37.945  -2.121  15.155  1.00  0.00     0.021 C 
HETATM   13  C12 UNL     1      36.710  -6.608  14.563  1.00  0.00     0.161 C 
HETATM   14  C13 UNL     1      36.050  -7.497  13.510  1.00  0.00     0.050 C 
HETATM   15  N1  UNL     1      35.884  -6.564  15.781  1.00  0.00    -0.054 N 
ATOM     16  H11 UNL     1      35.005  -6.053  15.704  1.00  0.00     0.279 HD
ATOM     17  H12 UNL     1      35.444  -7.443  16.052  1.00  0.00     0.279 HD
HETATM   18  C14 UNL     1      37.984  -7.200  15.047  1.00  0.00     0.157 C 
HETATM   19  C15 UNL     1      37.991  -6.997  16.567  1.00  0.00     0.072 C 
ENDROOT
BRANCH  18  20
HETATM   20  O1  UNL     1      37.917  -8.588  14.842  1.00  0.00    -0.393 OA
ATOM     21  H1  UNL     1      37.875  -8.742  13.906  1.00  0.00     0.210 HD
ENDBRANCH  18  20
TORSDOF 1
ENDMDL
MODEL 4
REMARK VINA RESULT: -4.922894217      2.660      5.489
REMARK  1 active torsions:
REMARK  status: ('A' for Active; 'I' for Inactive)
REMARK    1  A    between atoms: C14_18  and  O1_19 
ROOT
HETATM    1  C1  UNL     1      33.369  -2.793  12.197  1.00  0.00     0.046 C 
HETATM    2  C2  UNL     1      34.760  -2.275  12.317  1.00  0.00     0.126 C 
HETATM    3  C3  UNL     1      35.697  -3.221  12.996  1.00  0.00     0.046 C 
HETATM    4  C4  UNL     1      36.157  -2.605  14.299  1.00  0.00     0.023 C 
HETATM    5  C5  UNL     1      36.860  -1.294  13.921  1.00  0.00     0.092 C 
HETATM    6  S1  UNL     1      38.265  -2.252  13.401  1.00  0.00    -0.151 SA
HETATM    7  C6  UNL     1      37.490  -3.162  14.740  1.00  0.00     0.013 C 
HETATM    8  C7  UNL     1      37.815  -2.720  16.127  1.00  0.00     0.021 C 
HETATM    9  C8  UNL     1      38.774  -3.627  16.850  1.00  0.00     0.002 C 
HETATM   10  C9  UNL     1      39.673  -4.302  15.851  1.00  0.00     0.000 C 
HETATM   11  C10 UNL     1      38.906  -5.201  14.923  1.00  0.00     0.002 C 
HETATM   12  C11 UNL     1      37.541  -4.657  14.645  1.00  0.00     0.021 C 
HETATM   13  C12 UNL     1      36.087  -0.550  12.906  1.00  0.00     0.161 C 
HETATM   14  C13 UNL     1      36.207   0.943  13.211  1.00  0.00     0.050 C 
HETATM   15  N1  UNL     1      34.682  -0.978  13.011  1.00  0.00    -0.054 N 
ATOM     16  H11 UNL     1      34.292  -1.000  13.953  1.00  0.00     0.279 HD
ATOM     17  H12 UNL     1      33.989  -0.322  12.651  1.00  0.00     0.279 HD
HETATM   18  C14 UNL     1      36.419  -0.839  11.488  1.00  0.00     0.157 C 
HETATM   19  C15 UNL     1      35.372  -1.854  11.010  1.00  0.00     0.072 C 
ENDROOT
BRANCH  18  20
HETATM   20  O1  UNL     1      36.188   0.332  10.746  1.00  0.00    -0.393 OA
ATOM     21  H1  UNL     1      35.353   0.691  11.022  1.00  0.00     0.210 HD
ENDBRANCH  18  20
TORSDOF 1
ENDMDL
MODEL 5
REMARK VINA RESULT: -4.897461880      1.969      2.713
REMARK  1 active torsions:
REMARK  status: ('A' for Active; 'I' for Inactive)
REMARK    1  A    between atoms: C14_18  and  O1_19 
ROOT
HETATM    1  C1  UNL     1      38.810  -5.676  18.609  1.00  0.00     0.046 C 
HETATM    2  C2  UNL     1      38.533  -5.728  17.147  1.00  0.00     0.126 C 
HETATM    3  C3  UNL     1      38.706  -4.413  16.456  1.00  0.00     0.046 C 
HETATM    4  C4  UNL     1      37.363  -3.954  15.932  1.00  0.00     0.023 C 
HETATM    5  C5  UNL     1      36.898  -5.042  14.955  1.00  0.00     0.092 C 
HETATM    6  S1  UNL     1      38.048  -4.398  13.762  1.00  0.00    -0.151 SA
HETATM    7  C6  UNL     1      37.514  -3.008  14.763  1.00  0.00     0.013 C 
HETATM    8  C7  UNL     1      36.204  -2.391  14.410  1.00  0.00     0.021 C 
HETATM    9  C8  UNL     1      36.321  -1.074  13.692  1.00  0.00     0.002 C 
HETATM   10  C9  UNL     1      37.606  -1.041  12.914  1.00  0.00     0.000 C 
HETATM   11  C10 UNL     1      38.809  -1.106  13.813  1.00  0.00     0.002 C 
HETATM   12  C11 UNL     1      38.538  -1.944  15.022  1.00  0.00     0.021 C 
HETATM   13  C12 UNL     1      37.127  -6.391  15.514  1.00  0.00     0.161 C 
HETATM   14  C13 UNL     1      35.961  -7.288  15.097  1.00  0.00     0.050 C 
HETATM   15  N1  UNL     1      37.173  -6.266  16.980  1.00  0.00    -0.054 N 
ATOM     16  H11 UNL     1      36.423  -5.720  17.404  1.00  0.00     0.279 HD
ATOM     17  H12 UNL     1      36.963  -7.115  17.506  1.00  0.00     0.279 HD
HETATM   18  C14 UNL     1      38.434  -7.020  15.192  1.00  0.00     0.157 C 
HETATM   19  C15 UNL     1      39.334  -6.762  16.408  1.00  0.00     0.072 C 
ENDROOT
BRANCH  18  20
HETATM   20  O1  UNL     1      38.240  -8.410  15.143  1.00  0.00    -0.393 OA
ATOM     21  H1  UNL     1      38.852  -8.811  15.749  1.00  0.00     0.210 HD
ENDBRANCH  18  20
TORSDOF 1
ENDMDL
