MODEL 1
REMARK VINA RESULT: -5.345435854      0.000      0.000
REMARK  2 active torsions:
REMARK  status: ('A' for Active; 'I' for Inactive)
REMARK    1  A    between atoms: N1_1  and  C1_5 
REMARK    2  A    between atoms: C1_5  and  C2_6 
ROOT
HETATM    1  C2  UNL     1       8.683 -12.584   5.373  1.00  0.00    -0.017 C 
HETATM    2  C3  UNL     1       7.255 -12.148   5.581  1.00  0.00     0.011 C 
HETATM    3  C4  UNL     1       6.606 -11.518   4.413  1.00  0.00     0.001 C 
HETATM    4  C5  UNL     1       6.648 -12.294   3.146  1.00  0.00     0.000 C 
HETATM    5  C6  UNL     1       7.826 -12.006   2.288  1.00  0.00     0.004 C 
HETATM    6  C7  UNL     1       9.061 -12.756   2.589  1.00  0.00    -0.014 C 
HETATM    7  C8  UNL     1      10.078 -11.937   3.382  1.00  0.00     0.005 C 
HETATM    8  C9  UNL     1       9.543 -11.562   4.719  1.00  0.00     0.011 C 
HETATM    9  C10 UNL     1       8.887 -14.044   3.318  1.00  0.00     0.005 C 
HETATM   10  C11 UNL     1       8.781 -13.959   4.784  1.00  0.00     0.011 C 
ENDROOT
BRANCH   1  11
HETATM   11  C1  UNL     1       9.231 -12.730   6.812  1.00  0.00     0.239 C 
BRANCH  11  12
HETATM   12  N1  UNL     1       9.482 -14.093   7.147  1.00  0.00    -0.079 N 
ATOM     13  H13 UNL     1       8.736 -14.476   7.728  1.00  0.00     0.274 HD
ATOM     14  H12 UNL     1       9.379 -14.700   6.334  1.00  0.00     0.274 HD
ATOM     15  H11 UNL     1      10.394 -14.213   7.588  1.00  0.00     0.274 HD
ENDBRANCH  11  12
ENDBRANCH   1  11
TORSDOF 2
ENDMDL
MODEL 2
REMARK VINA RESULT: -5.133194746      1.808      3.602
REMARK  2 active torsions:
REMARK  status: ('A' for Active; 'I' for Inactive)
REMARK    1  A    between atoms: N1_1  and  C1_5 
REMARK    2  A    between atoms: C1_5  and  C2_6 
ROOT
HETATM    1  C2  UNL     1       8.651 -12.392   4.998  1.00  0.00    -0.017 C 
HETATM    2  C3  UNL     1       7.367 -11.658   4.703  1.00  0.00     0.011 C 
HETATM    3  C4  UNL     1       6.751 -10.967   5.854  1.00  0.00     0.001 C 
HETATM    4  C5  UNL     1       7.631 -10.028   6.599  1.00  0.00     0.000 C 
HETATM    5  C6  UNL     1       8.369 -10.645   7.730  1.00  0.00     0.004 C 
HETATM    6  C7  UNL     1       9.645 -11.311   7.400  1.00  0.00    -0.014 C 
HETATM    7  C8  UNL     1       9.521 -12.831   7.318  1.00  0.00     0.005 C 
HETATM    8  C9  UNL     1       8.602 -13.238   6.220  1.00  0.00     0.011 C 
HETATM    9  C10 UNL     1      10.313 -10.868   6.145  1.00  0.00     0.005 C 
HETATM   10  C11 UNL     1       9.854 -11.501   4.898  1.00  0.00     0.011 C 
ENDROOT
BRANCH   1  11
HETATM   11  C1  UNL     1       8.788 -13.376   3.813  1.00  0.00     0.239 C 
BRANCH  11  12
HETATM   12  N1  UNL     1      10.025 -13.209   3.127  1.00  0.00    -0.079 N 
ATOM     13  H13 UNL     1       9.943 -13.470   2.144  1.00  0.00     0.274 HD
ATOM     14  H12 UNL     1      10.256 -12.223   3.012  1.00  0.00     0.274 HD
ATOM     15  H11 UNL     1      10.783 -13.718   3.583  1.00  0.00     0.274 HD
ENDBRANCH  11  12
ENDBRANCH   1  11
TORSDOF 2
ENDMDL
MODEL 3
REMARK VINA RESULT: -4.964056420      1.745      2.649
REMARK  2 active torsions:
REMARK  status: ('A' for Active; 'I' for Inactive)
REMARK    1  A    between atoms: N1_1  and  C1_5 
REMARK    2  A    between atoms: C1_5  and  C2_6 
ROOT
HETATM    1  C2  UNL     1       9.829 -11.347   6.964  1.00  0.00    -0.017 C 
HETATM    2  C3  UNL     1       8.937 -10.347   7.656  1.00  0.00     0.011 C 
HETATM    3  C4  UNL     1       7.785  -9.870   6.866  1.00  0.00     0.001 C 
HETATM    4  C5  UNL     1       6.904 -10.923   6.295  1.00  0.00     0.000 C 
HETATM    5  C6  UNL     1       7.287 -11.372   4.932  1.00  0.00     0.004 C 
HETATM    6  C7  UNL     1       8.315 -12.428   4.851  1.00  0.00    -0.014 C 
HETATM    7  C8  UNL     1       9.702 -11.886   4.509  1.00  0.00     0.005 C 
HETATM    8  C9  UNL     1      10.200 -10.972   5.574  1.00  0.00     0.011 C 
HETATM    9  C10 UNL     1       8.477 -13.284   6.059  1.00  0.00     0.005 C 
HETATM   10  C11 UNL     1       9.343 -12.756   7.127  1.00  0.00     0.011 C 
ENDROOT
BRANCH   1  11
HETATM   11  C1  UNL     1      11.143 -11.286   7.777  1.00  0.00     0.239 C 
BRANCH  11  12
HETATM   12  N1  UNL     1      11.683 -12.584   8.009  1.00  0.00    -0.079 N 
ATOM     13  H13 UNL     1      12.378 -12.570   8.756  1.00  0.00     0.274 HD
ATOM     14  H12 UNL     1      10.996 -13.200   8.442  1.00  0.00     0.274 HD
ATOM     15  H11 UNL     1      12.065 -12.993   7.156  1.00  0.00     0.274 HD
ENDBRANCH  11  12
ENDBRANCH   1  11
TORSDOF 2
ENDMDL
MODEL 4
REMARK VINA RESULT: -4.640146645      2.232      3.556
REMARK  2 active torsions:
REMARK  status: ('A' for Active; 'I' for Inactive)
REMARK    1  A    between atoms: N1_1  and  C1_5 
REMARK    2  A    between atoms: C1_5  and  C2_6 
ROOT
HETATM    1  C2  UNL     1       8.323 -14.175   2.302  1.00  0.00    -0.017 C 
HETATM    2  C3  UNL     1       6.965 -13.899   1.707  1.00  0.00     0.011 C 
HETATM    3  C4  UNL     1       6.105 -12.984   2.483  1.00  0.00     0.001 C 
HETATM    4  C5  UNL     1       6.703 -11.670   2.839  1.00  0.00     0.000 C 
HETATM    5  C6  UNL     1       7.412 -11.651   4.144  1.00  0.00     0.004 C 
HETATM    6  C7  UNL     1       8.819 -12.098   4.137  1.00  0.00    -0.014 C 
HETATM    7  C8  UNL     1       8.993 -13.529   4.640  1.00  0.00     0.005 C 
HETATM    8  C9  UNL     1       8.296 -14.501   3.753  1.00  0.00     0.011 C 
HETATM    9  C10 UNL     1       9.529 -12.015   2.830  1.00  0.00     0.005 C 
HETATM   10  C11 UNL     1       9.341 -13.147   1.907  1.00  0.00     0.011 C 
ENDROOT
BRANCH   1  11
HETATM   11  C1  UNL     1       8.775 -15.472   1.591  1.00  0.00     0.239 C 
BRANCH  11  12
HETATM   12  N1  UNL     1       7.668 -16.307   1.262  1.00  0.00    -0.079 N 
ATOM     13  H13 UNL     1       7.896 -16.941   0.496  1.00  0.00     0.274 HD
ATOM     14  H12 UNL     1       7.492 -16.996   1.993  1.00  0.00     0.274 HD
ATOM     15  H11 UNL     1       6.831 -15.762   1.055  1.00  0.00     0.274 HD
ENDBRANCH  11  12
ENDBRANCH   1  11
TORSDOF 2
ENDMDL
MODEL 5
REMARK VINA RESULT: -4.388960009      2.153      3.423
REMARK  2 active torsions:
REMARK  status: ('A' for Active; 'I' for Inactive)
REMARK    1  A    between atoms: N1_1  and  C1_5 
REMARK    2  A    between atoms: C1_5  and  C2_6 
ROOT
HETATM    1  C2  UNL     1       6.974 -12.338   2.705  1.00  0.00    -0.017 C 
HETATM    2  C3  UNL     1       6.065 -13.337   2.034  1.00  0.00     0.011 C 
HETATM    3  C4  UNL     1       6.745 -14.425   1.304  1.00  0.00     0.001 C 
HETATM    4  C5  UNL     1       7.753 -15.199   2.077  1.00  0.00     0.000 C 
HETATM    5  C6  UNL     1       9.135 -14.663   1.991  1.00  0.00     0.004 C 
HETATM    6  C7  UNL     1       9.486 -13.587   2.939  1.00  0.00    -0.014 C 
HETATM    7  C8  UNL     1       9.454 -12.199   2.303  1.00  0.00     0.005 C 
HETATM    8  C9  UNL     1       8.082 -11.848   1.843  1.00  0.00     0.011 C 
HETATM    9  C10 UNL     1       8.664 -13.509   4.178  1.00  0.00     0.005 C 
HETATM   10  C11 UNL     1       7.391 -12.776   4.077  1.00  0.00     0.011 C 
ENDROOT
BRANCH   1  11
HETATM   11  C1  UNL     1       6.058 -11.114   2.942  1.00  0.00     0.239 C 
BRANCH  11  12
HETATM   12  N1  UNL     1       5.823 -10.890   4.329  1.00  0.00    -0.079 N 
ATOM     13  H13 UNL     1       5.267 -10.048   4.481  1.00  0.00     0.274 HD
ATOM     14  H12 UNL     1       5.177 -11.579   4.713  1.00  0.00     0.274 HD
ATOM     15  H11 UNL     1       6.694 -10.860   4.861  1.00  0.00     0.274 HD
ENDBRANCH  11  12
ENDBRANCH   1  11
TORSDOF 2
ENDMDL
