MODEL 1
REMARK VINA RESULT: -7.667165139      0.000      0.000
REMARK  3 active torsions:
REMARK  status: ('A' for Active; 'I' for Inactive)
REMARK    1  A    between atoms: C7_7  and  C8_8 
REMARK    2  A    between atoms: N1_9  and  N2_11 
REMARK       I    between atoms: C9_13  and  N4_15 
REMARK    3  A    between atoms: N4_15  and  C10_17 
ROOT
HETATM    1  N2  UNL     1     -20.076  24.513   1.209  1.00  0.00    -0.273 N 
ATOM      2  H2  UNL     1     -19.618  23.655   1.515  1.00  0.00     0.189 HD
HETATM    3  C9  UNL     1     -20.915  25.059   2.018  1.00  0.00     0.221 C 
HETATM    4  N3  UNL     1     -21.622  26.252   1.719  1.00  0.00    -0.061 NA
HETATM    5  N4  UNL     1     -21.136  24.422   3.268  1.00  0.00    -0.159 N 
ATOM      6  H4  UNL     1     -20.433  23.775   3.626  1.00  0.00     0.187 HD
ENDROOT
BRANCH   1   7
HETATM    7  N1  UNL     1     -19.749  24.997  -0.033  1.00  0.00    -0.309 N 
HETATM    8  C8  UNL     1     -18.798  25.793  -0.289  1.00  0.00     0.119 C 
ATOM      9  H1  UNL     1     -20.323  24.689  -0.819  1.00  0.00     0.186 HD
BRANCH   8  10
HETATM   10  C7  UNL     1     -18.389  26.345  -1.546  1.00  0.00    -0.013 A 
HETATM   11  C2  UNL     1     -17.086  26.327  -1.949  1.00  0.00    -0.050 A 
HETATM   12  C1  UNL     1     -16.018  25.743  -1.123  1.00  0.00     0.049 C 
HETATM   13  C3  UNL     1     -16.673  26.861  -3.173  1.00  0.00     0.007 A 
HETATM   14  C4  UNL     1     -17.585  27.432  -4.024  1.00  0.00     0.001 A 
HETATM   15  C5  UNL     1     -18.905  27.461  -3.637  1.00  0.00     0.001 A 
HETATM   16  C6  UNL     1     -19.297  26.933  -2.433  1.00  0.00     0.013 A 
ENDBRANCH   8  10
ENDBRANCH   1   7
BRANCH   5  17
HETATM   17  C10 UNL     1     -22.194  24.638   3.959  1.00  0.00     0.716 A 
HETATM   18  N5  UNL     1     -23.449  24.509   3.551  1.00  0.00    -0.115 N 
HETATM   19  N6  UNL     1     -24.245  24.828   4.566  1.00  0.00    -0.213 N 
ATOM     20  H5  UNL     1     -23.750  24.217   2.621  1.00  0.00     0.207 HD
HETATM   21  N7  UNL     1     -23.480  25.151   5.589  1.00  0.00    -0.213 N 
ATOM     22  H6  UNL     1     -25.265  24.824   4.554  1.00  0.00     0.210 HD
HETATM   23  N8  UNL     1     -22.220  25.041   5.237  1.00  0.00    -0.115 N 
ATOM     24  H7  UNL     1     -23.815  25.441   6.508  1.00  0.00     0.210 HD
ATOM     25  H8  UNL     1     -21.410  25.229   5.827  1.00  0.00     0.207 HD
ENDBRANCH   5  17
TORSDOF 3
ENDMDL
MODEL 2
REMARK VINA RESULT: -7.591651804      1.083      2.286
REMARK  3 active torsions:
REMARK  status: ('A' for Active; 'I' for Inactive)
REMARK    1  A    between atoms: C7_7  and  C8_8 
REMARK    2  A    between atoms: N1_9  and  N2_11 
REMARK       I    between atoms: C9_13  and  N4_15 
REMARK    3  A    between atoms: N4_15  and  C10_17 
ROOT
HETATM    1  N2  UNL     1     -19.964  26.164   0.517  1.00  0.00    -0.273 N 
ATOM      2  H2  UNL     1     -20.227  27.130   0.716  1.00  0.00     0.189 HD
HETATM    3  C9  UNL     1     -20.536  25.239   1.205  1.00  0.00     0.221 C 
HETATM    4  N3  UNL     1     -20.263  23.858   1.032  1.00  0.00    -0.061 NA
HETATM    5  N4  UNL     1     -21.487  25.637   2.183  1.00  0.00    -0.159 N 
ATOM      6  H4  UNL     1     -21.922  26.556   2.107  1.00  0.00     0.187 HD
ENDROOT
BRANCH   1   7
HETATM    7  N1  UNL     1     -19.026  25.953  -0.463  1.00  0.00    -0.309 N 
HETATM    8  C8  UNL     1     -18.116  26.766  -0.802  1.00  0.00     0.119 C 
ATOM      9  H1  UNL     1     -19.065  25.063  -0.961  1.00  0.00     0.186 HD
BRANCH   8  10
HETATM   10  C7  UNL     1     -17.104  26.628  -1.807  1.00  0.00    -0.013 A 
HETATM   11  C2  UNL     1     -17.241  27.183  -3.045  1.00  0.00    -0.050 A 
HETATM   12  C1  UNL     1     -18.432  27.956  -3.430  1.00  0.00     0.049 C 
HETATM   13  C3  UNL     1     -16.262  27.056  -4.034  1.00  0.00     0.007 A 
HETATM   14  C4  UNL     1     -15.110  26.356  -3.785  1.00  0.00     0.001 A 
HETATM   15  C5  UNL     1     -14.951  25.787  -2.542  1.00  0.00     0.001 A 
HETATM   16  C6  UNL     1     -15.920  25.918  -1.580  1.00  0.00     0.013 A 
ENDBRANCH   8  10
ENDBRANCH   1   7
BRANCH   5  17
HETATM   17  C10 UNL     1     -21.812  24.871   3.159  1.00  0.00     0.716 A 
HETATM   18  N5  UNL     1     -23.024  24.705   3.667  1.00  0.00    -0.115 N 
HETATM   19  N6  UNL     1     -22.935  23.829   4.663  1.00  0.00    -0.213 N 
ATOM     20  H5  UNL     1     -23.876  25.167   3.351  1.00  0.00     0.207 HD
HETATM   21  N7  UNL     1     -21.673  23.463   4.762  1.00  0.00    -0.213 N 
ATOM     22  H6  UNL     1     -23.705  23.500   5.246  1.00  0.00     0.210 HD
HETATM   23  N8  UNL     1     -20.969  24.091   3.849  1.00  0.00    -0.115 N 
ATOM     24  H7  UNL     1     -21.302  22.798   5.441  1.00  0.00     0.210 HD
ATOM     25  H8  UNL     1     -19.965  24.002   3.694  1.00  0.00     0.207 HD
ENDBRANCH   5  17
TORSDOF 3
ENDMDL
MODEL 3
REMARK VINA RESULT: -7.385214480      1.240      2.136
REMARK  3 active torsions:
REMARK  status: ('A' for Active; 'I' for Inactive)
REMARK    1  A    between atoms: C7_7  and  C8_8 
REMARK    2  A    between atoms: N1_9  and  N2_11 
REMARK       I    between atoms: C9_13  and  N4_15 
REMARK    3  A    between atoms: N4_15  and  C10_17 
ROOT
HETATM    1  N2  UNL     1     -18.542  24.387   1.139  1.00  0.00    -0.273 N 
ATOM      2  H2  UNL     1     -17.924  23.839   1.737  1.00  0.00     0.189 HD
HETATM    3  C9  UNL     1     -19.696  24.707   1.610  1.00  0.00     0.221 C 
HETATM    4  N3  UNL     1     -20.651  25.465   0.885  1.00  0.00    -0.061 NA
HETATM    5  N4  UNL     1     -20.016  24.269   2.923  1.00  0.00    -0.159 N 
ATOM      6  H4  UNL     1     -19.260  24.015   3.559  1.00  0.00     0.187 HD
ENDROOT
BRANCH   1   7
HETATM    7  N1  UNL     1     -18.077  24.728  -0.108  1.00  0.00    -0.309 N 
HETATM    8  C8  UNL     1     -17.332  25.717  -0.373  1.00  0.00     0.119 C 
ATOM      9  H1  UNL     1     -18.356  24.133  -0.888  1.00  0.00     0.186 HD
BRANCH   8  10
HETATM   10  C7  UNL     1     -16.805  26.144  -1.635  1.00  0.00    -0.013 A 
HETATM   11  C2  UNL     1     -17.500  26.982  -2.457  1.00  0.00    -0.050 A 
HETATM   12  C1  UNL     1     -18.831  27.501  -2.104  1.00  0.00     0.049 C 
HETATM   13  C3  UNL     1     -16.998  27.406  -3.690  1.00  0.00     0.007 A 
HETATM   14  C4  UNL     1     -15.766  26.985  -4.120  1.00  0.00     0.001 A 
HETATM   15  C5  UNL     1     -15.048  26.139  -3.306  1.00  0.00     0.001 A 
HETATM   16  C6  UNL     1     -15.552  25.729  -2.099  1.00  0.00     0.013 A 
ENDBRANCH   8  10
ENDBRANCH   1   7
BRANCH   5  17
HETATM   17  C10 UNL     1     -21.229  24.186   3.330  1.00  0.00     0.716 A 
HETATM   18  N5  UNL     1     -22.093  25.183   3.461  1.00  0.00    -0.115 N 
HETATM   19  N6  UNL     1     -23.238  24.677   3.908  1.00  0.00    -0.213 N 
ATOM     20  H5  UNL     1     -21.911  26.165   3.255  1.00  0.00     0.207 HD
HETATM   21  N7  UNL     1     -23.073  23.377   4.050  1.00  0.00    -0.213 N 
ATOM     22  H6  UNL     1     -24.090  25.201   4.106  1.00  0.00     0.210 HD
HETATM   23  N8  UNL     1     -21.849  23.057   3.700  1.00  0.00    -0.115 N 
ATOM     24  H7  UNL     1     -23.785  22.724   4.379  1.00  0.00     0.210 HD
ATOM     25  H8  UNL     1     -21.444  22.121   3.710  1.00  0.00     0.207 HD
ENDBRANCH   5  17
TORSDOF 3
ENDMDL
MODEL 4
REMARK VINA RESULT: -7.331025520      1.192      1.862
REMARK  3 active torsions:
REMARK  status: ('A' for Active; 'I' for Inactive)
REMARK    1  A    between atoms: C7_7  and  C8_8 
REMARK    2  A    between atoms: N1_9  and  N2_11 
REMARK       I    between atoms: C9_13  and  N4_15 
REMARK    3  A    between atoms: N4_15  and  C10_17 
ROOT
HETATM    1  N2  UNL     1     -20.158  26.313   0.325  1.00  0.00    -0.273 N 
ATOM      2  H2  UNL     1     -20.470  27.257   0.553  1.00  0.00     0.189 HD
HETATM    3  C9  UNL     1     -20.618  25.346   1.040  1.00  0.00     0.221 C 
HETATM    4  N3  UNL     1     -20.267  23.988   0.832  1.00  0.00    -0.061 NA
HETATM    5  N4  UNL     1     -21.522  25.672   2.087  1.00  0.00    -0.159 N 
ATOM      6  H4  UNL     1     -22.021  26.561   2.052  1.00  0.00     0.187 HD
ENDROOT
BRANCH   1   7
HETATM    7  N1  UNL     1     -19.280  26.172  -0.720  1.00  0.00    -0.309 N 
HETATM    8  C8  UNL     1     -18.180  26.786  -0.849  1.00  0.00     0.119 C 
ATOM      9  H1  UNL     1     -19.536  25.514  -1.459  1.00  0.00     0.186 HD
BRANCH   8  10
HETATM   10  C7  UNL     1     -17.210  26.700  -1.900  1.00  0.00    -0.013 A 
HETATM   11  C2  UNL     1     -16.115  25.892  -1.802  1.00  0.00    -0.050 A 
HETATM   12  C1  UNL     1     -15.859  25.059  -0.617  1.00  0.00     0.049 C 
HETATM   13  C3  UNL     1     -15.161  25.799  -2.819  1.00  0.00     0.007 A 
HETATM   14  C4  UNL     1     -15.300  26.531  -3.970  1.00  0.00     0.001 A 
HETATM   15  C5  UNL     1     -16.397  27.353  -4.089  1.00  0.00     0.001 A 
HETATM   16  C6  UNL     1     -17.326  27.437  -3.084  1.00  0.00     0.013 A 
ENDBRANCH   8  10
ENDBRANCH   1   7
BRANCH   5  17
HETATM   17  C10 UNL     1     -21.725  24.879   3.074  1.00  0.00     0.716 A 
HETATM   18  N5  UNL     1     -22.883  24.642   3.675  1.00  0.00    -0.115 N 
HETATM   19  N6  UNL     1     -22.666  23.761   4.647  1.00  0.00    -0.213 N 
ATOM     20  H5  UNL     1     -23.781  25.060   3.434  1.00  0.00     0.207 HD
HETATM   21  N7  UNL     1     -21.382  23.464   4.639  1.00  0.00    -0.213 N 
ATOM     22  H6  UNL     1     -23.368  23.385   5.284  1.00  0.00     0.210 HD
HETATM   23  N8  UNL     1     -20.789  24.139   3.683  1.00  0.00    -0.115 N 
ATOM     24  H7  UNL     1     -20.923  22.812   5.276  1.00  0.00     0.210 HD
ATOM     25  H8  UNL     1     -19.798  24.106   3.446  1.00  0.00     0.207 HD
ENDBRANCH   5  17
TORSDOF 3
ENDMDL
MODEL 5
REMARK VINA RESULT: -7.286337723      1.199      1.487
REMARK  3 active torsions:
REMARK  status: ('A' for Active; 'I' for Inactive)
REMARK    1  A    between atoms: C7_7  and  C8_8 
REMARK    2  A    between atoms: N1_9  and  N2_11 
REMARK       I    between atoms: C9_13  and  N4_15 
REMARK    3  A    between atoms: N4_15  and  C10_17 
ROOT
HETATM    1  N2  UNL     1     -18.852  24.495   0.979  1.00  0.00    -0.273 N 
ATOM      2  H2  UNL     1     -18.211  23.886   1.489  1.00  0.00     0.189 HD
HETATM    3  C9  UNL     1     -19.961  24.805   1.555  1.00  0.00     0.221 C 
HETATM    4  N3  UNL     1     -20.940  25.641   0.959  1.00  0.00    -0.061 NA
HETATM    5  N4  UNL     1     -20.202  24.275   2.851  1.00  0.00    -0.159 N 
ATOM      6  H4  UNL     1     -19.412  23.953   3.410  1.00  0.00     0.187 HD
ENDROOT
BRANCH   1   7
HETATM    7  N1  UNL     1     -18.464  24.920  -0.267  1.00  0.00    -0.309 N 
HETATM    8  C8  UNL     1     -17.473  25.667  -0.518  1.00  0.00     0.119 C 
ATOM      9  H1  UNL     1     -19.024  24.607  -1.061  1.00  0.00     0.186 HD
BRANCH   8  10
HETATM   10  C7  UNL     1     -17.001  26.156  -1.779  1.00  0.00    -0.013 A 
HETATM   11  C2  UNL     1     -15.705  25.990  -2.173  1.00  0.00    -0.050 A 
HETATM   12  C1  UNL     1     -14.712  25.302  -1.335  1.00  0.00     0.049 C 
HETATM   13  C3  UNL     1     -15.231  26.462  -3.401  1.00  0.00     0.007 A 
HETATM   14  C4  UNL     1     -16.070  27.118  -4.263  1.00  0.00     0.001 A 
HETATM   15  C5  UNL     1     -17.381  27.296  -3.885  1.00  0.00     0.001 A 
HETATM   16  C6  UNL     1     -17.835  26.830  -2.677  1.00  0.00     0.013 A 
ENDBRANCH   8  10
ENDBRANCH   1   7
BRANCH   5  17
HETATM   17  C10 UNL     1     -21.386  24.190   3.335  1.00  0.00     0.716 A 
HETATM   18  N5  UNL     1     -22.241  25.186   3.520  1.00  0.00    -0.115 N 
HETATM   19  N6  UNL     1     -23.354  24.680   4.042  1.00  0.00    -0.213 N 
ATOM     20  H5  UNL     1     -22.075  26.168   3.300  1.00  0.00     0.207 HD
HETATM   21  N7  UNL     1     -23.178  23.381   4.176  1.00  0.00    -0.213 N 
ATOM     22  H6  UNL     1     -24.192  25.203   4.293  1.00  0.00     0.210 HD
HETATM   23  N8  UNL     1     -21.978  23.061   3.749  1.00  0.00    -0.115 N 
ATOM     24  H7  UNL     1     -23.865  22.727   4.552  1.00  0.00     0.210 HD
ATOM     25  H8  UNL     1     -21.572  22.126   3.734  1.00  0.00     0.207 HD
ENDBRANCH   5  17
TORSDOF 3
ENDMDL
