MODEL 1
REMARK VINA RESULT: -6.646269020      0.000      0.000
REMARK  3 active torsions:
REMARK  status: ('A' for Active; 'I' for Inactive)
REMARK    1  A    between atoms: C9_11  and  C10_12 
REMARK    2  A    between atoms: C11_13  and  O1_14 
REMARK    3  A    between atoms: N2_16  and  C12_17 
ROOT
HETATM    1  C10 UNL     1      83.769  95.669  17.505  1.00  0.00     0.112 C 
HETATM    2  C11 UNL     1      83.167  96.654  18.099  1.00  0.00     0.190 C 
HETATM    3  N2  UNL     1      84.057  97.180  19.129  1.00  0.00    -0.212 N 
HETATM    4  N4  UNL     1      85.356  96.790  18.755  1.00  0.00    -0.012 NA
HETATM    5  N5  UNL     1      84.996  95.495  18.274  1.00  0.00    -0.279 N 
ATOM      6  H5  UNL     1      85.497  94.621  18.436  1.00  0.00     0.184 HD
ENDROOT
BRANCH   1   7
HETATM    7  C9  UNL     1      83.404  94.769  16.429  1.00  0.00     0.034 A 
HETATM    8  C2  UNL     1      82.229  93.869  16.506  1.00  0.00     0.036 A 
HETATM    9  C1  UNL     1      81.271  93.762  17.390  1.00  0.00     0.044 C 
HETATM   10  N1  UNL     1      82.328  93.025  15.373  1.00  0.00    -0.355 N 
HETATM   11  C3  UNL     1      83.380  93.369  14.743  1.00  0.00     0.043 A 
ATOM     12  H1  UNL     1      81.679  92.283  15.112  1.00  0.00     0.166 HD
HETATM   13  C4  UNL     1      83.838  92.793  13.568  1.00  0.00     0.030 A 
HETATM   14  C8  UNL     1      84.057  94.405  15.327  1.00  0.00     0.005 A 
HETATM   15  C5  UNL     1      84.968  93.229  12.943  1.00  0.00     0.002 A 
HETATM   16  C6  UNL     1      85.641  94.275  13.529  1.00  0.00     0.001 A 
HETATM   17  C7  UNL     1      85.211  94.868  14.698  1.00  0.00     0.014 A 
ENDBRANCH   1   7
BRANCH   2  18
HETATM   18  O1  UNL     1      81.906  97.241  17.918  1.00  0.00    -0.343 OA
ATOM     19  H1  UNL     1      81.259  97.573  18.529  1.00  0.00     0.219 HD
ENDBRANCH   2  18
BRANCH   3  20
HETATM   20  C12 UNL     1      83.660  97.926  20.264  1.00  0.00     0.200 C 
HETATM   21  N3  UNL     1      82.718  98.800  20.189  1.00  0.00    -0.394 N 
ATOM     22  H32 UNL     1      82.260  98.944  19.290  1.00  0.00     0.156 HD
ATOM     23  H31 UNL     1      82.431  99.338  21.007  1.00  0.00     0.156 HD
ENDBRANCH   3  20
TORSDOF 3
ENDMDL
MODEL 2
REMARK VINA RESULT: -6.559081591      1.498      1.821
REMARK  3 active torsions:
REMARK  status: ('A' for Active; 'I' for Inactive)
REMARK    1  A    between atoms: C9_11  and  C10_12 
REMARK    2  A    between atoms: C11_13  and  O1_14 
REMARK    3  A    between atoms: N2_16  and  C12_17 
ROOT
HETATM    1  C10 UNL     1      82.727  96.004  17.105  1.00  0.00     0.112 C 
HETATM    2  C11 UNL     1      83.500  95.966  18.148  1.00  0.00     0.190 C 
HETATM    3  N2  UNL     1      83.135  97.071  19.029  1.00  0.00    -0.212 N 
HETATM    4  N4  UNL     1      81.814  97.418  18.689  1.00  0.00    -0.012 NA
HETATM    5  N5  UNL     1      81.965  97.236  17.281  1.00  0.00    -0.279 N 
ATOM      6  H5  UNL     1      81.611  97.846  16.544  1.00  0.00     0.184 HD
ENDROOT
BRANCH   1   7
HETATM    7  C9  UNL     1      82.611  95.195  15.909  1.00  0.00     0.034 A 
HETATM    8  C2  UNL     1      81.347  94.528  15.517  1.00  0.00     0.036 A 
HETATM    9  C1  UNL     1      80.137  94.596  16.011  1.00  0.00     0.044 C 
HETATM   10  N1  UNL     1      81.686  93.688  14.429  1.00  0.00    -0.355 N 
HETATM   11  C3  UNL     1      82.935  93.835  14.221  1.00  0.00     0.043 A 
ATOM     12  H1  UNL     1      81.052  93.081  13.911  1.00  0.00     0.166 HD
HETATM   13  C4  UNL     1      83.667  93.191  13.235  1.00  0.00     0.030 A 
HETATM   14  C8  UNL     1      83.533  94.723  15.072  1.00  0.00     0.005 A 
HETATM   15  C5  UNL     1      85.000  93.414  13.064  1.00  0.00     0.002 A 
HETATM   16  C6  UNL     1      85.597  94.313  13.917  1.00  0.00     0.001 A 
HETATM   17  C7  UNL     1      84.896  94.967  14.909  1.00  0.00     0.014 A 
ENDBRANCH   1   7
BRANCH   2  18
HETATM   18  O1  UNL     1      84.537  95.101  18.526  1.00  0.00    -0.343 OA
ATOM     19  H1  UNL     1      85.031  94.444  18.051  1.00  0.00     0.219 HD
ENDBRANCH   2  18
BRANCH   3  20
HETATM   20  C12 UNL     1      83.966  97.652  20.015  1.00  0.00     0.200 C 
HETATM   21  N3  UNL     1      85.249  97.597  19.921  1.00  0.00    -0.394 N 
ATOM     22  H32 UNL     1      85.657  97.123  19.116  1.00  0.00     0.156 HD
ATOM     23  H31 UNL     1      85.848  98.017  20.632  1.00  0.00     0.156 HD
ENDBRANCH   3  20
TORSDOF 3
ENDMDL
MODEL 3
REMARK VINA RESULT: -6.391173504      2.062      2.999
REMARK  3 active torsions:
REMARK  status: ('A' for Active; 'I' for Inactive)
REMARK    1  A    between atoms: C9_11  and  C10_12 
REMARK    2  A    between atoms: C11_13  and  O1_14 
REMARK    3  A    between atoms: N2_16  and  C12_17 
ROOT
HETATM    1  C10 UNL     1      83.375  94.707  17.026  1.00  0.00     0.112 C 
HETATM    2  C11 UNL     1      84.154  95.669  17.416  1.00  0.00     0.190 C 
HETATM    3  N2  UNL     1      83.817  96.002  18.796  1.00  0.00    -0.212 N 
HETATM    4  N4  UNL     1      83.176  94.865  19.323  1.00  0.00    -0.012 NA
HETATM    5  N5  UNL     1      82.448  94.537  18.140  1.00  0.00    -0.279 N 
ATOM      6  H5  UNL     1      81.473  94.242  18.084  1.00  0.00     0.184 HD
ENDROOT
BRANCH   1   7
HETATM    7  C9  UNL     1      83.229  93.970  15.787  1.00  0.00     0.034 A 
HETATM    8  C2  UNL     1      84.378  93.341  15.093  1.00  0.00     0.036 A 
HETATM    9  C1  UNL     1      85.630  93.196  15.440  1.00  0.00     0.044 C 
HETATM   10  N1  UNL     1      83.869  92.903  13.847  1.00  0.00    -0.355 N 
HETATM   11  C3  UNL     1      82.636  93.221  13.815  1.00  0.00     0.043 A 
ATOM     12  H1  UNL     1      84.391  92.422  13.114  1.00  0.00     0.166 HD
HETATM   13  C4  UNL     1      81.766  92.965  12.766  1.00  0.00     0.030 A 
HETATM   14  C8  UNL     1      82.203  93.856  14.946  1.00  0.00     0.005 A 
HETATM   15  C5  UNL     1      80.452  93.323  12.813  1.00  0.00     0.002 A 
HETATM   16  C6  UNL     1      80.019  93.955  13.955  1.00  0.00     0.001 A 
HETATM   17  C7  UNL     1      80.860  94.226  15.015  1.00  0.00     0.014 A 
ENDBRANCH   1   7
BRANCH   2  18
HETATM   18  O1  UNL     1      85.182  96.375  16.773  1.00  0.00    -0.343 OA
ATOM     19  H1  UNL     1      85.673  97.153  17.011  1.00  0.00     0.219 HD
ENDBRANCH   2  18
BRANCH   3  20
HETATM   20  C12 UNL     1      84.092  97.229  19.443  1.00  0.00     0.200 C 
HETATM   21  N3  UNL     1      85.290  97.541  19.797  1.00  0.00    -0.394 N 
ATOM     22  H32 UNL     1      86.042  96.881  19.599  1.00  0.00     0.156 HD
ATOM     23  H31 UNL     1      85.489  98.427  20.263  1.00  0.00     0.156 HD
ENDBRANCH   3  20
TORSDOF 3
ENDMDL
MODEL 4
REMARK VINA RESULT: -6.353320299      1.649      2.870
REMARK  3 active torsions:
REMARK  status: ('A' for Active; 'I' for Inactive)
REMARK    1  A    between atoms: C9_11  and  C10_12 
REMARK    2  A    between atoms: C11_13  and  O1_14 
REMARK    3  A    between atoms: N2_16  and  C12_17 
ROOT
HETATM    1  C10 UNL     1      83.519  95.696  17.064  1.00  0.00     0.112 C 
HETATM    2  C11 UNL     1      83.040  96.688  17.751  1.00  0.00     0.190 C 
HETATM    3  N2  UNL     1      83.864  96.859  18.944  1.00  0.00    -0.212 N 
HETATM    4  N4  UNL     1      85.105  96.265  18.646  1.00  0.00    -0.012 NA
HETATM    5  N5  UNL     1      84.574  95.159  17.916  1.00  0.00    -0.279 N 
ATOM      6  H5  UNL     1      84.873  94.185  17.979  1.00  0.00     0.184 HD
ENDROOT
BRANCH   1   7
HETATM    7  C9  UNL     1      83.140  95.060  15.819  1.00  0.00     0.034 A 
HETATM    8  C2  UNL     1      84.109  94.807  14.726  1.00  0.00     0.036 A 
HETATM    9  C1  UNL     1      85.407  94.952  14.662  1.00  0.00     0.044 C 
HETATM   10  N1  UNL     1      83.330  94.367  13.629  1.00  0.00    -0.355 N 
HETATM   11  C3  UNL     1      82.114  94.365  14.011  1.00  0.00     0.043 A 
ATOM     12  H1  UNL     1      83.676  94.102  12.707  1.00  0.00     0.166 HD
HETATM   13  C4  UNL     1      81.028  93.992  13.235  1.00  0.00     0.030 A 
HETATM   14  C8  UNL     1      81.946  94.766  15.308  1.00  0.00     0.005 A 
HETATM   15  C5  UNL     1      79.755  94.002  13.723  1.00  0.00     0.002 A 
HETATM   16  C6  UNL     1      79.591  94.399  15.029  1.00  0.00     0.001 A 
HETATM   17  C7  UNL     1      80.652  94.777  15.825  1.00  0.00     0.014 A 
ENDBRANCH   1   7
BRANCH   2  18
HETATM   18  O1  UNL     1      81.951  97.547  17.542  1.00  0.00    -0.343 OA
ATOM     19  H1  UNL     1      81.893  98.473  17.343  1.00  0.00     0.219 HD
ENDBRANCH   2  18
BRANCH   3  20
HETATM   20  C12 UNL     1      83.465  97.499  20.141  1.00  0.00     0.200 C 
HETATM   21  N3  UNL     1      82.916  98.663  20.123  1.00  0.00    -0.394 N 
ATOM     22  H32 UNL     1      82.773  99.118  19.222  1.00  0.00     0.156 HD
ATOM     23  H31 UNL     1      82.628  99.124  20.986  1.00  0.00     0.156 HD
ENDBRANCH   3  20
TORSDOF 3
ENDMDL
MODEL 5
REMARK VINA RESULT: -6.272980125      2.377      3.657
REMARK  3 active torsions:
REMARK  status: ('A' for Active; 'I' for Inactive)
REMARK    1  A    between atoms: C9_11  and  C10_12 
REMARK    2  A    between atoms: C11_13  and  O1_14 
REMARK    3  A    between atoms: N2_16  and  C12_17 
ROOT
HETATM    1  C10 UNL     1      83.941  97.528  19.880  1.00  0.00     0.112 C 
HETATM    2  C11 UNL     1      83.631  97.618  21.138  1.00  0.00     0.190 C 
HETATM    3  N2  UNL     1      84.809  98.075  21.868  1.00  0.00    -0.212 N 
HETATM    4  N4  UNL     1      85.628  98.716  20.920  1.00  0.00    -0.012 NA
HETATM    5  N5  UNL     1      85.373  97.802  19.854  1.00  0.00    -0.279 N 
ATOM      6  H5  UNL     1      86.058  97.417  19.202  1.00  0.00     0.184 HD
ENDROOT
BRANCH   1   7
HETATM    7  C9  UNL     1      83.213  97.135  18.690  1.00  0.00     0.034 A 
HETATM    8  C2  UNL     1      81.894  97.710  18.336  1.00  0.00     0.036 A 
HETATM    9  C1  UNL     1      81.200  98.685  18.863  1.00  0.00     0.044 C 
HETATM   10  N1  UNL     1      81.431  96.940  17.242  1.00  0.00    -0.355 N 
HETATM   11  C3  UNL     1      82.323  96.064  16.998  1.00  0.00     0.043 A 
ATOM     12  H1  UNL     1      80.550  97.065  16.742  1.00  0.00     0.166 HD
HETATM   13  C4  UNL     1      82.260  95.109  15.994  1.00  0.00     0.030 A 
HETATM   14  C8  UNL     1      83.407  96.137  17.830  1.00  0.00     0.005 A 
HETATM   15  C5  UNL     1      83.265  94.213  15.787  1.00  0.00     0.002 A 
HETATM   16  C6  UNL     1      84.356  94.295  16.620  1.00  0.00     0.001 A 
HETATM   17  C7  UNL     1      84.447  95.232  17.629  1.00  0.00     0.014 A 
ENDBRANCH   1   7
BRANCH   2  18
HETATM   18  O1  UNL     1      82.443  97.369  21.841  1.00  0.00    -0.343 OA
ATOM     19  H1  UNL     1      81.537  97.293  21.564  1.00  0.00     0.219 HD
ENDBRANCH   2  18
BRANCH   3  20
HETATM   20  C12 UNL     1      85.048  97.893  23.251  1.00  0.00     0.200 C 
HETATM   21  N3  UNL     1      86.150  98.280  23.793  1.00  0.00    -0.394 N 
ATOM     22  H32 UNL     1      86.852  98.723  23.201  1.00  0.00     0.156 HD
ATOM     23  H31 UNL     1      86.322  98.149  24.790  1.00  0.00     0.156 HD
ENDBRANCH   3  20
TORSDOF 3
ENDMDL
