MODEL 1
REMARK VINA RESULT: -8.840389137      0.000      0.000
REMARK  11 active torsions:
REMARK  status: ('A' for Active; 'I' for Inactive)
REMARK    1  A    between atoms: N1_1  and  C1_5 
REMARK    2  A    between atoms: C1_5  and  O1_6 
REMARK    3  A    between atoms: C1_5  and  C2_8 
REMARK    4  A    between atoms: N3_12  and  C4_14 
REMARK    5  A    between atoms: N7_24  and  C7_25 
REMARK    6  A    between atoms: C7_25  and  C8_26 
REMARK    7  A    between atoms: C8_26  and  N8_27 
REMARK    8  A    between atoms: C8_26  and  C9_31 
REMARK    9  A    between atoms: C10_34  and  C11_35 
REMARK   10  A    between atoms: C12_45  and  O3_46 
REMARK   11  A    between atoms: C13_48  and  O4_49 
ROOT
HETATM    1  C2  UNL     1      18.884  -6.343   7.639  1.00  0.00     0.133 A 
HETATM    2  N2  UNL     1      17.805  -7.025   7.210  1.00  0.00    -0.186 N 
ATOM      3  H2  UNL     1      17.428  -7.864   7.651  1.00  0.00     0.184 HD
HETATM    4  C3  UNL     1      17.301  -6.437   6.118  1.00  0.00     0.688 A 
HETATM    5  N3  UNL     1      16.283  -6.832   5.455  1.00  0.00    -0.169 N 
ATOM      6  H3  UNL     1      16.029  -6.268   4.644  1.00  0.00     0.186 HD
HETATM    7  N7  UNL     1      18.059  -5.371   5.841  1.00  0.00    -0.158 N 
HETATM    8  C13 UNL     1      19.044  -5.291   6.767  1.00  0.00     0.185 A 
ENDROOT
BRANCH   7   9
HETATM    9  C7  UNL     1      17.902  -4.428   4.761  1.00  0.00     0.189 C 
BRANCH   9  10
HETATM   10  C8  UNL     1      18.657  -4.792   3.527  1.00  0.00     0.255 C 
BRANCH  10  11
HETATM   11  N8  UNL     1      19.811  -5.585   3.865  1.00  0.00    -0.068 N 
ATOM     12  H83 UNL     1      20.637  -5.303   3.336  1.00  0.00     0.275 HD
ATOM     13  H82 UNL     1      20.155  -5.378   4.803  1.00  0.00     0.275 HD
ATOM     14  H81 UNL     1      19.604  -6.577   3.746  1.00  0.00     0.275 HD
ENDBRANCH  10  11
BRANCH  10  15
HETATM   15  C9  UNL     1      19.035  -3.556   2.734  1.00  0.00     0.083 A 
HETATM   16  N9  UNL     1      18.629  -3.358   1.514  1.00  0.00    -0.346 N 
HETATM   17  C10 UNL     1      18.972  -2.270   0.865  1.00  0.00     0.124 A 
ATOM     18  H9  UNL     1      18.039  -4.053   1.058  1.00  0.00     0.166 HD
HETATM   19  S1  UNL     1      19.932  -1.447   2.014  1.00  0.00    -0.042 SA
HETATM   20  C12 UNL     1      19.827  -2.585   3.295  1.00  0.00     0.134 A 
BRANCH  17  21
HETATM   21  C11 UNL     1      18.610  -1.877  -0.503  1.00  0.00     0.171 A 
HETATM   22  N10 UNL     1      17.453  -1.442  -1.011  1.00  0.00    -0.266 N 
HETATM   23  N11 UNL     1      17.584  -1.200  -2.325  1.00  0.00    -0.227 N 
ATOM     24  H10 UNL     1      16.594  -1.312  -0.477  1.00  0.00     0.190 HD
HETATM   25  N12 UNL     1      18.834  -1.491  -2.628  1.00  0.00    -0.227 N 
ATOM     26  H11 UNL     1      16.862  -0.861  -2.960  1.00  0.00     0.210 HD
HETATM   27  N13 UNL     1      19.474  -1.904  -1.537  1.00  0.00    -0.266 N 
ATOM     28  H12 UNL     1      19.247  -1.410  -3.558  1.00  0.00     0.210 HD
ATOM     29  H13 UNL     1      20.451  -2.193  -1.491  1.00  0.00     0.190 HD
ENDBRANCH  17  21
BRANCH  20  30
HETATM   30  O3  UNL     1      20.392  -2.558   4.585  1.00  0.00    -0.352 OA
ATOM     31  H3  UNL     1      21.270  -2.296   4.837  1.00  0.00     0.218 HD
ENDBRANCH  20  30
ENDBRANCH  10  15
ENDBRANCH   9  10
ENDBRANCH   7   9
BRANCH   8  32
HETATM   32  O4  UNL     1      20.057  -4.338   6.864  1.00  0.00    -0.344 OA
ATOM     33  H4  UNL     1      20.728  -4.201   6.206  1.00  0.00     0.219 HD
ENDBRANCH   8  32
BRANCH   5  34
HETATM   34  C4  UNL     1      15.477  -7.944   5.705  1.00  0.00     0.204 A 
HETATM   35  N4  UNL     1      15.465  -9.094   5.047  1.00  0.00    -0.280 N 
HETATM   36  N5  UNL     1      14.649 -10.090   5.373  1.00  0.00    -0.294 N 
ATOM     37  H4  UNL     1      16.106  -9.219   4.262  1.00  0.00     0.188 HD
HETATM   38  C5  UNL     1      13.785  -9.966   6.405  1.00  0.00     0.200 A 
ATOM     39  H5  UNL     1      14.673 -10.958   4.838  1.00  0.00     0.187 HD
HETATM   40  N6  UNL     1      13.753  -8.819   7.112  1.00  0.00    -0.315 N 
HETATM   41  C6  UNL     1      14.574  -7.836   6.773  1.00  0.00     0.292 A 
ATOM     42  H6  UNL     1      13.107  -8.710   7.894  1.00  0.00     0.170 HD
HETATM   43  O2  UNL     1      14.532  -6.754   7.452  1.00  0.00    -0.264 OA
ENDBRANCH   5  34
BRANCH   1  44
HETATM   44  C1  UNL     1      19.726  -6.661   8.813  1.00  0.00     0.372 C 
BRANCH  44  45
HETATM   45  N1  UNL     1      19.662  -5.547   9.759  1.00  0.00    -0.047 N 
ATOM     46  H13 UNL     1      20.329  -4.801   9.560  1.00  0.00     0.277 HD
ATOM     47  H12 UNL     1      18.818  -4.981   9.671  1.00  0.00     0.277 HD
ATOM     48  H11 UNL     1      19.780  -5.966  10.681  1.00  0.00     0.277 HD
ENDBRANCH  44  45
BRANCH  44  49
HETATM   49  O1  UNL     1      21.060  -6.741   8.422  1.00  0.00    -0.365 OA
ATOM     50  H1  UNL     1      21.445  -7.414   8.972  1.00  0.00     0.212 HD
ENDBRANCH  44  49
ENDBRANCH   1  44
TORSDOF 11
ENDMDL
MODEL 2
REMARK VINA RESULT: -8.680368682      3.743      7.621
REMARK  11 active torsions:
REMARK  status: ('A' for Active; 'I' for Inactive)
REMARK    1  A    between atoms: N1_1  and  C1_5 
REMARK    2  A    between atoms: C1_5  and  O1_6 
REMARK    3  A    between atoms: C1_5  and  C2_8 
REMARK    4  A    between atoms: N3_12  and  C4_14 
REMARK    5  A    between atoms: N7_24  and  C7_25 
REMARK    6  A    between atoms: C7_25  and  C8_26 
REMARK    7  A    between atoms: C8_26  and  N8_27 
REMARK    8  A    between atoms: C8_26  and  C9_31 
REMARK    9  A    between atoms: C10_34  and  C11_35 
REMARK   10  A    between atoms: C12_45  and  O3_46 
REMARK   11  A    between atoms: C13_48  and  O4_49 
ROOT
HETATM    1  C2  UNL     1      19.092  -5.461   3.107  1.00  0.00     0.133 A 
HETATM    2  N2  UNL     1      19.144  -6.778   2.830  1.00  0.00    -0.186 N 
ATOM      3  H2  UNL     1      19.492  -7.182   1.960  1.00  0.00     0.184 HD
HETATM    4  C3  UNL     1      18.671  -7.479   3.868  1.00  0.00     0.688 A 
HETATM    5  N3  UNL     1      18.571  -8.751   3.933  1.00  0.00    -0.169 N 
ATOM      6  H3  UNL     1      18.189  -9.127   4.800  1.00  0.00     0.186 HD
HETATM    7  N7  UNL     1      18.311  -6.609   4.819  1.00  0.00    -0.158 N 
HETATM    8  C13 UNL     1      18.563  -5.355   4.371  1.00  0.00     0.185 A 
ENDROOT
BRANCH   7   9
HETATM    9  C7  UNL     1      17.753  -6.895   6.117  1.00  0.00     0.189 C 
BRANCH   9  10
HETATM   10  C8  UNL     1      16.358  -6.396   6.298  1.00  0.00     0.255 C 
BRANCH  10  11
HETATM   11  N8  UNL     1      16.254  -5.644   7.523  1.00  0.00    -0.068 N 
ATOM     12  H83 UNL     1      17.092  -5.733   8.097  1.00  0.00     0.275 HD
ATOM     13  H82 UNL     1      16.292  -4.638   7.357  1.00  0.00     0.275 HD
ATOM     14  H81 UNL     1      15.413  -5.914   8.032  1.00  0.00     0.275 HD
ENDBRANCH  10  11
BRANCH  10  15
HETATM   15  C9  UNL     1      15.360  -7.537   6.250  1.00  0.00     0.083 A 
HETATM   16  N9  UNL     1      15.490  -8.544   5.438  1.00  0.00    -0.346 N 
HETATM   17  C10 UNL     1      14.608  -9.516   5.434  1.00  0.00     0.124 A 
ATOM     18  H9  UNL     1      16.284  -8.580   4.800  1.00  0.00     0.166 HD
HETATM   19  S1  UNL     1      13.506  -9.014   6.639  1.00  0.00    -0.042 SA
HETATM   20  C12 UNL     1      14.272  -7.544   7.086  1.00  0.00     0.134 A 
BRANCH  17  21
HETATM   21  C11 UNL     1      14.592 -10.724   4.598  1.00  0.00     0.171 A 
HETATM   22  N10 UNL     1      13.676 -11.688   4.472  1.00  0.00    -0.266 N 
HETATM   23  N11 UNL     1      14.087 -12.606   3.584  1.00  0.00    -0.227 N 
ATOM     24  H10 UNL     1      12.791 -11.722   4.978  1.00  0.00     0.190 HD
HETATM   25  N12 UNL     1      15.268 -12.203   3.159  1.00  0.00    -0.227 N 
ATOM     26  H11 UNL     1      13.586 -13.446   3.295  1.00  0.00     0.210 HD
HETATM   27  N13 UNL     1      15.594 -11.063   3.763  1.00  0.00    -0.266 N 
ATOM     28  H12 UNL     1      15.844 -12.691   2.472  1.00  0.00     0.210 HD
ATOM     29  H13 UNL     1      16.455 -10.536   3.619  1.00  0.00     0.190 HD
ENDBRANCH  17  21
BRANCH  20  30
HETATM   30  O3  UNL     1      13.904  -6.583   8.048  1.00  0.00    -0.352 OA
ATOM     31  H3  UNL     1      13.627  -6.725   8.946  1.00  0.00     0.218 HD
ENDBRANCH  20  30
ENDBRANCH  10  15
ENDBRANCH   9  10
ENDBRANCH   7   9
BRANCH   8  32
HETATM   32  O4  UNL     1      18.343  -4.148   5.033  1.00  0.00    -0.344 OA
ATOM     33  H4  UNL     1      18.294  -4.055   5.976  1.00  0.00     0.219 HD
ENDBRANCH   8  32
BRANCH   5  34
HETATM   34  C4  UNL     1      18.923  -9.687   2.960  1.00  0.00     0.204 A 
HETATM   35  N4  UNL     1      18.226 -10.035   1.888  1.00  0.00    -0.280 N 
HETATM   36  N5  UNL     1      18.660 -10.946   1.024  1.00  0.00    -0.294 N 
ATOM     37  H4  UNL     1      17.325  -9.587   1.721  1.00  0.00     0.188 HD
HETATM   38  C5  UNL     1      19.848 -11.563   1.208  1.00  0.00     0.200 A 
ATOM     39  H5  UNL     1      18.089 -11.183   0.212  1.00  0.00     0.187 HD
HETATM   40  N6  UNL     1      20.601 -11.250   2.281  1.00  0.00    -0.315 N 
HETATM   41  C6  UNL     1      20.154 -10.339   3.133  1.00  0.00     0.292 A 
ATOM     42  H6  UNL     1      21.500 -11.707   2.434  1.00  0.00     0.170 HD
HETATM   43  O2  UNL     1      20.878 -10.053   4.146  1.00  0.00    -0.264 OA
ENDBRANCH   5  34
BRANCH   1  44
HETATM   44  C1  UNL     1      19.522  -4.353   2.227  1.00  0.00     0.372 C 
BRANCH  44  45
HETATM   45  N1  UNL     1      20.110  -3.294   3.047  1.00  0.00    -0.047 N 
ATOM     46  H13 UNL     1      19.673  -3.195   3.964  1.00  0.00     0.277 HD
ATOM     47  H12 UNL     1      21.049  -3.511   3.384  1.00  0.00     0.277 HD
ATOM     48  H11 UNL     1      20.064  -2.450   2.477  1.00  0.00     0.277 HD
ENDBRANCH  44  45
BRANCH  44  49
HETATM   49  O1  UNL     1      18.406  -3.778   1.623  1.00  0.00    -0.365 OA
ATOM     50  H1  UNL     1      17.720  -3.806   2.279  1.00  0.00     0.212 HD
ENDBRANCH  44  49
ENDBRANCH   1  44
TORSDOF 11
ENDMDL
MODEL 3
REMARK VINA RESULT: -8.510157409      3.634      5.308
REMARK  11 active torsions:
REMARK  status: ('A' for Active; 'I' for Inactive)
REMARK    1  A    between atoms: N1_1  and  C1_5 
REMARK    2  A    between atoms: C1_5  and  O1_6 
REMARK    3  A    between atoms: C1_5  and  C2_8 
REMARK    4  A    between atoms: N3_12  and  C4_14 
REMARK    5  A    between atoms: N7_24  and  C7_25 
REMARK    6  A    between atoms: C7_25  and  C8_26 
REMARK    7  A    between atoms: C8_26  and  N8_27 
REMARK    8  A    between atoms: C8_26  and  C9_31 
REMARK    9  A    between atoms: C10_34  and  C11_35 
REMARK   10  A    between atoms: C12_45  and  O3_46 
REMARK   11  A    between atoms: C13_48  and  O4_49 
ROOT
HETATM    1  C2  UNL     1      15.295  -9.811   4.436  1.00  0.00     0.133 A 
HETATM    2  N2  UNL     1      16.286 -10.224   3.623  1.00  0.00    -0.186 N 
ATOM      3  H2  UNL     1      16.272 -11.080   3.068  1.00  0.00     0.184 HD
HETATM    4  C3  UNL     1      17.293  -9.342   3.650  1.00  0.00     0.688 A 
HETATM    5  N3  UNL     1      18.389  -9.433   3.001  1.00  0.00    -0.169 N 
ATOM      6  H3  UNL     1      19.054  -8.672   3.134  1.00  0.00     0.186 HD
HETATM    7  N7  UNL     1      16.949  -8.356   4.486  1.00  0.00    -0.158 N 
HETATM    8  C13 UNL     1      15.718  -8.623   4.984  1.00  0.00     0.185 A 
ENDROOT
BRANCH   7   9
HETATM    9  C7  UNL     1      17.711  -7.182   4.833  1.00  0.00     0.189 C 
BRANCH   9  10
HETATM   10  C8  UNL     1      18.956  -7.010   4.027  1.00  0.00     0.255 C 
BRANCH  10  11
HETATM   11  N8  UNL     1      20.081  -7.580   4.723  1.00  0.00    -0.068 N 
ATOM     12  H83 UNL     1      19.920  -7.634   5.729  1.00  0.00     0.275 HD
ATOM     13  H82 UNL     1      20.183  -8.577   4.532  1.00  0.00     0.275 HD
ATOM     14  H81 UNL     1      20.931  -7.061   4.502  1.00  0.00     0.275 HD
ENDBRANCH  10  11
BRANCH  10  15
HETATM   15  C9  UNL     1      19.185  -5.551   3.682  1.00  0.00     0.083 A 
HETATM   16  N9  UNL     1      19.380  -5.145   2.462  1.00  0.00    -0.346 N 
HETATM   17  C10 UNL     1      19.567  -3.872   2.205  1.00  0.00     0.124 A 
ATOM     18  H9  UNL     1      19.388  -5.821   1.699  1.00  0.00     0.166 HD
HETATM   19  S1  UNL     1      19.470  -3.167   3.758  1.00  0.00    -0.042 SA
HETATM   20  C12 UNL     1      19.185  -4.596   4.667  1.00  0.00     0.134 A 
BRANCH  17  21
HETATM   21  C11 UNL     1      19.797  -3.233   0.903  1.00  0.00     0.171 A 
HETATM   22  N10 UNL     1      19.049  -2.372   0.205  1.00  0.00    -0.266 N 
HETATM   23  N11 UNL     1      19.660  -2.052  -0.945  1.00  0.00    -0.227 N 
ATOM     24  H10 UNL     1      18.143  -2.011   0.505  1.00  0.00     0.190 HD
HETATM   25  N12 UNL     1      20.795  -2.722  -0.957  1.00  0.00    -0.227 N 
ATOM     26  H11 UNL     1      19.315  -1.417  -1.665  1.00  0.00     0.210 HD
HETATM   27  N13 UNL     1      20.898  -3.446   0.155  1.00  0.00    -0.266 N 
ATOM     28  H12 UNL     1      21.489  -2.690  -1.705  1.00  0.00     0.210 HD
ATOM     29  H13 UNL     1      21.676  -4.058   0.399  1.00  0.00     0.190 HD
ENDBRANCH  17  21
BRANCH  20  30
HETATM   30  O3  UNL     1      19.000  -4.770   6.053  1.00  0.00    -0.352 OA
ATOM     31  H3  UNL     1      18.232  -5.097   6.507  1.00  0.00     0.218 HD
ENDBRANCH  20  30
ENDBRANCH  10  15
ENDBRANCH   9  10
ENDBRANCH   7   9
BRANCH   8  32
HETATM   32  O4  UNL     1      14.974  -7.865   5.887  1.00  0.00    -0.344 OA
ATOM     33  H4  UNL     1      14.434  -7.123   5.645  1.00  0.00     0.219 HD
ENDBRANCH   8  32
BRANCH   5  34
HETATM   34  C4  UNL     1      18.787 -10.451   2.132  1.00  0.00     0.204 A 
HETATM   35  N4  UNL     1      18.139 -10.899   1.068  1.00  0.00    -0.280 N 
HETATM   36  N5  UNL     1      18.614 -11.881   0.309  1.00  0.00    -0.294 N 
ATOM     37  H4  UNL     1      17.244 -10.476   0.823  1.00  0.00     0.188 HD
HETATM   38  C5  UNL     1      19.796 -12.469   0.599  1.00  0.00     0.200 A 
ATOM     39  H5  UNL     1      18.080 -12.196  -0.502  1.00  0.00     0.187 HD
HETATM   40  N6  UNL     1      20.501 -12.054   1.669  1.00  0.00    -0.315 N 
HETATM   41  C6  UNL     1      20.012 -11.074   2.416  1.00  0.00     0.292 A 
ATOM     42  H6  UNL     1      21.395 -12.487   1.901  1.00  0.00     0.170 HD
HETATM   43  O2  UNL     1      20.692 -10.690   3.429  1.00  0.00    -0.264 OA
ENDBRANCH   5  34
BRANCH   1  44
HETATM   44  C1  UNL     1      14.009 -10.498   4.686  1.00  0.00     0.372 C 
BRANCH  44  45
HETATM   45  N1  UNL     1      13.711 -10.443   6.117  1.00  0.00    -0.047 N 
ATOM     46  H13 UNL     1      13.256 -11.284   6.474  1.00  0.00     0.277 HD
ATOM     47  H12 UNL     1      14.539 -10.492   6.711  1.00  0.00     0.277 HD
ATOM     48  H11 UNL     1      13.163  -9.593   6.249  1.00  0.00     0.277 HD
ENDBRANCH  44  45
BRANCH  44  49
HETATM   49  O1  UNL     1      14.137 -11.851   4.385  1.00  0.00    -0.365 OA
ATOM     50  H1  UNL     1      13.693 -11.969   3.553  1.00  0.00     0.212 HD
ENDBRANCH  44  49
ENDBRANCH   1  44
TORSDOF 11
ENDMDL
MODEL 4
REMARK VINA RESULT: -8.481183331      4.891      8.144
REMARK  11 active torsions:
REMARK  status: ('A' for Active; 'I' for Inactive)
REMARK    1  A    between atoms: N1_1  and  C1_5 
REMARK    2  A    between atoms: C1_5  and  O1_6 
REMARK    3  A    between atoms: C1_5  and  C2_8 
REMARK    4  A    between atoms: N3_12  and  C4_14 
REMARK    5  A    between atoms: N7_24  and  C7_25 
REMARK    6  A    between atoms: C7_25  and  C8_26 
REMARK    7  A    between atoms: C8_26  and  N8_27 
REMARK    8  A    between atoms: C8_26  and  C9_31 
REMARK    9  A    between atoms: C10_34  and  C11_35 
REMARK   10  A    between atoms: C12_45  and  O3_46 
REMARK   11  A    between atoms: C13_48  and  O4_49 
ROOT
HETATM    1  C2  UNL     1      20.871  -9.814   4.430  1.00  0.00     0.133 A 
HETATM    2  N2  UNL     1      20.035  -8.793   4.698  1.00  0.00    -0.186 N 
ATOM      3  H2  UNL     1      20.178  -8.094   5.428  1.00  0.00     0.184 HD
HETATM    4  C3  UNL     1      18.989  -8.831   3.864  1.00  0.00     0.688 A 
HETATM    5  N3  UNL     1      18.007  -8.014   3.853  1.00  0.00    -0.169 N 
ATOM      6  H3  UNL     1      17.290  -8.185   3.148  1.00  0.00     0.186 HD
HETATM    7  N7  UNL     1      19.151  -9.883   3.054  1.00  0.00    -0.158 N 
HETATM    8  C13 UNL     1      20.308 -10.506   3.384  1.00  0.00     0.185 A 
ENDROOT
BRANCH   7   9
HETATM    9  C7  UNL     1      18.283 -10.325   1.990  1.00  0.00     0.189 C 
BRANCH   9  10
HETATM   10  C8  UNL     1      17.901 -11.764   2.081  1.00  0.00     0.255 C 
BRANCH  10  11
HETATM   11  N8  UNL     1      18.018 -12.392   0.789  1.00  0.00    -0.068 N 
ATOM     12  H83 UNL     1      18.519 -11.804   0.123  1.00  0.00     0.275 HD
ATOM     13  H82 UNL     1      18.662 -13.183   0.806  1.00  0.00     0.275 HD
ATOM     14  H81 UNL     1      17.097 -12.659   0.443  1.00  0.00     0.275 HD
ENDBRANCH  10  11
BRANCH  10  15
HETATM   15  C9  UNL     1      16.509 -11.924   2.662  1.00  0.00     0.083 A 
HETATM   16  N9  UNL     1      16.029 -11.111   3.556  1.00  0.00    -0.346 N 
HETATM   17  C10 UNL     1      14.816 -11.279   4.027  1.00  0.00     0.124 A 
ATOM     18  H9  UNL     1      16.599 -10.335   3.893  1.00  0.00     0.166 HD
HETATM   19  S1  UNL     1      14.284 -12.665   3.182  1.00  0.00    -0.042 SA
HETATM   20  C12 UNL     1      15.696 -12.949   2.247  1.00  0.00     0.134 A 
BRANCH  17  21
HETATM   21  C11 UNL     1      14.110 -10.468   5.027  1.00  0.00     0.171 A 
HETATM   22  N10 UNL     1      13.519 -10.812   6.175  1.00  0.00    -0.266 N 
HETATM   23  N11 UNL     1      12.995  -9.731   6.772  1.00  0.00    -0.227 N 
ATOM     24  H10 UNL     1      13.473 -11.762   6.545  1.00  0.00     0.190 HD
HETATM   25  N12 UNL     1      13.265  -8.710   5.983  1.00  0.00    -0.227 N 
ATOM     26  H11 UNL     1      12.490  -9.705   7.657  1.00  0.00     0.210 HD
HETATM   27  N13 UNL     1      13.941  -9.135   4.918  1.00  0.00    -0.266 N 
ATOM     28  H12 UNL     1      12.998  -7.741   6.162  1.00  0.00     0.210 HD
ATOM     29  H13 UNL     1      14.273  -8.552   4.150  1.00  0.00     0.190 HD
ENDBRANCH  17  21
BRANCH  20  30
HETATM   30  O3  UNL     1      15.974 -13.955   1.301  1.00  0.00    -0.352 OA
ATOM     31  H3  UNL     1      15.396 -14.639   0.983  1.00  0.00     0.218 HD
ENDBRANCH  20  30
ENDBRANCH  10  15
ENDBRANCH   9  10
ENDBRANCH   7   9
BRANCH   8  32
HETATM   32  O4  UNL     1      20.867 -11.642   2.801  1.00  0.00    -0.344 OA
ATOM     33  H4  UNL     1      20.515 -12.081   2.036  1.00  0.00     0.219 HD
ENDBRANCH   8  32
BRANCH   5  34
HETATM   34  C4  UNL     1      17.798  -6.915   4.688  1.00  0.00     0.204 A 
HETATM   35  N4  UNL     1      18.323  -5.704   4.572  1.00  0.00    -0.280 N 
HETATM   36  N5  UNL     1      18.054  -4.729   5.433  1.00  0.00    -0.294 N 
ATOM     37  H4  UNL     1      18.955  -5.515   3.794  1.00  0.00     0.188 HD
HETATM   38  C5  UNL     1      17.221  -4.938   6.476  1.00  0.00     0.200 A 
ATOM     39  H5  UNL     1      18.481  -3.811   5.304  1.00  0.00     0.187 HD
HETATM   40  N6  UNL     1      16.657  -6.150   6.646  1.00  0.00    -0.315 N 
HETATM   41  C6  UNL     1      16.936  -7.112   5.778  1.00  0.00     0.292 A 
ATOM     42  H6  UNL     1      16.026  -6.324   7.428  1.00  0.00     0.170 HD
HETATM   43  O2  UNL     1      16.395  -8.257   5.951  1.00  0.00    -0.264 OA
ENDBRANCH   5  34
BRANCH   1  44
HETATM   44  C1  UNL     1      22.141 -10.126   5.121  1.00  0.00     0.372 C 
BRANCH  44  45
HETATM   45  N1  UNL     1      23.184 -10.354   4.120  1.00  0.00    -0.047 N 
ATOM     46  H13 UNL     1      23.671 -11.243   4.232  1.00  0.00     0.277 HD
ATOM     47  H12 UNL     1      22.821 -10.533   3.183  1.00  0.00     0.277 HD
ATOM     48  H11 UNL     1      23.796  -9.541   4.175  1.00  0.00     0.277 HD
ENDBRANCH  44  45
BRANCH  44  49
HETATM   49  O1  UNL     1      22.015 -11.330   5.808  1.00  0.00    -0.365 OA
ATOM     50  H1  UNL     1      21.355 -11.174   6.474  1.00  0.00     0.212 HD
ENDBRANCH  44  49
ENDBRANCH   1  44
TORSDOF 11
ENDMDL
MODEL 5
REMARK VINA RESULT: -8.414579404      2.953      7.790
REMARK  11 active torsions:
REMARK  status: ('A' for Active; 'I' for Inactive)
REMARK    1  A    between atoms: N1_1  and  C1_5 
REMARK    2  A    between atoms: C1_5  and  O1_6 
REMARK    3  A    between atoms: C1_5  and  C2_8 
REMARK    4  A    between atoms: N3_12  and  C4_14 
REMARK    5  A    between atoms: N7_24  and  C7_25 
REMARK    6  A    between atoms: C7_25  and  C8_26 
REMARK    7  A    between atoms: C8_26  and  N8_27 
REMARK    8  A    between atoms: C8_26  and  C9_31 
REMARK    9  A    between atoms: C10_34  and  C11_35 
REMARK   10  A    between atoms: C12_45  and  O3_46 
REMARK   11  A    between atoms: C13_48  and  O4_49 
ROOT
HETATM    1  C2  UNL     1      20.094  -5.020   7.581  1.00  0.00     0.133 A 
HETATM    2  N2  UNL     1      20.051  -4.389   6.393  1.00  0.00    -0.186 N 
ATOM      3  H2  UNL     1      20.603  -3.568   6.144  1.00  0.00     0.184 HD
HETATM    4  C3  UNL     1      19.175  -5.001   5.585  1.00  0.00     0.688 A 
HETATM    5  N3  UNL     1      18.887  -4.654   4.390  1.00  0.00    -0.169 N 
ATOM      6  H3  UNL     1      18.197  -5.231   3.910  1.00  0.00     0.186 HD
HETATM    7  N7  UNL     1      18.650  -6.031   6.257  1.00  0.00    -0.158 N 
HETATM    8  C13 UNL     1      19.202  -6.064   7.494  1.00  0.00     0.185 A 
ENDROOT
BRANCH   7   9
HETATM    9  C7  UNL     1      17.668  -6.981   5.797  1.00  0.00     0.189 C 
BRANCH   9  10
HETATM   10  C8  UNL     1      16.258  -6.554   6.032  1.00  0.00     0.255 C 
BRANCH  10  11
HETATM   11  N8  UNL     1      16.163  -5.803   7.258  1.00  0.00    -0.068 N 
ATOM     12  H83 UNL     1      16.422  -6.364   8.069  1.00  0.00     0.275 HD
ATOM     13  H82 UNL     1      16.892  -5.092   7.327  1.00  0.00     0.275 HD
ATOM     14  H81 UNL     1      15.231  -5.402   7.354  1.00  0.00     0.275 HD
ENDBRANCH  10  11
BRANCH  10  15
HETATM   15  C9  UNL     1      15.318  -7.744   6.025  1.00  0.00     0.083 A 
HETATM   16  N9  UNL     1      15.467  -8.746   5.210  1.00  0.00    -0.346 N 
HETATM   17  C10 UNL     1      14.636  -9.761   5.242  1.00  0.00     0.124 A 
ATOM     18  H9  UNL     1      16.236  -8.743   4.540  1.00  0.00     0.166 HD
HETATM   19  S1  UNL     1      13.558  -9.311   6.488  1.00  0.00    -0.042 SA
HETATM   20  C12 UNL     1      14.265  -7.803   6.903  1.00  0.00     0.134 A 
BRANCH  17  21
HETATM   21  C11 UNL     1      14.649 -10.971   4.409  1.00  0.00     0.171 A 
HETATM   22  N10 UNL     1      13.740 -11.939   4.258  1.00  0.00    -0.266 N 
HETATM   23  N11 UNL     1      14.180 -12.858   3.385  1.00  0.00    -0.227 N 
ATOM     24  H10 UNL     1      12.841 -11.974   4.738  1.00  0.00     0.190 HD
HETATM   25  N12 UNL     1      15.372 -12.452   2.995  1.00  0.00    -0.227 N 
ATOM     26  H11 UNL     1      13.690 -13.700   3.084  1.00  0.00     0.210 HD
HETATM   27  N13 UNL     1      15.677 -11.309   3.605  1.00  0.00    -0.266 N 
ATOM     28  H12 UNL     1      15.970 -12.940   2.327  1.00  0.00     0.210 HD
ATOM     29  H13 UNL     1      16.540 -10.780   3.485  1.00  0.00     0.190 HD
ENDBRANCH  17  21
BRANCH  20  30
HETATM   30  O3  UNL     1      13.887  -6.858   7.877  1.00  0.00    -0.352 OA
ATOM     31  H3  UNL     1      14.309  -6.668   8.707  1.00  0.00     0.218 HD
ENDBRANCH  20  30
ENDBRANCH  10  15
ENDBRANCH   9  10
ENDBRANCH   7   9
BRANCH   8  32
HETATM   32  O4  UNL     1      18.949  -6.969   8.523  1.00  0.00    -0.344 OA
ATOM     33  H4  UNL     1      18.381  -7.726   8.443  1.00  0.00     0.219 HD
ENDBRANCH   8  32
BRANCH   5  34
HETATM   34  C4  UNL     1      19.404  -3.581   3.662  1.00  0.00     0.204 A 
HETATM   35  N4  UNL     1      19.982  -2.488   4.139  1.00  0.00    -0.280 N 
HETATM   36  N5  UNL     1      20.437  -1.523   3.348  1.00  0.00    -0.294 N 
ATOM     37  H4  UNL     1      20.080  -2.385   5.150  1.00  0.00     0.188 HD
HETATM   38  C5  UNL     1      20.327  -1.620   2.005  1.00  0.00     0.200 A 
ATOM     39  H5  UNL     1      20.875  -0.698   3.760  1.00  0.00     0.187 HD
HETATM   40  N6  UNL     1      19.749  -2.709   1.462  1.00  0.00    -0.315 N 
HETATM   41  C6  UNL     1      19.299  -3.662   2.265  1.00  0.00     0.292 A 
ATOM     42  H6  UNL     1      19.658  -2.798   0.449  1.00  0.00     0.170 HD
HETATM   43  O2  UNL     1      18.753  -4.689   1.736  1.00  0.00    -0.264 OA
ENDBRANCH   5  34
BRANCH   1  44
HETATM   44  C1  UNL     1      20.932  -4.663   8.746  1.00  0.00     0.372 C 
BRANCH  44  45
HETATM   45  N1  UNL     1      21.828  -3.569   8.369  1.00  0.00    -0.047 N 
ATOM     46  H13 UNL     1      22.679  -3.525   8.930  1.00  0.00     0.277 HD
ATOM     47  H12 UNL     1      22.285  -3.706   7.467  1.00  0.00     0.277 HD
ATOM     48  H11 UNL     1      21.261  -2.723   8.417  1.00  0.00     0.277 HD
ENDBRANCH  44  45
BRANCH  44  49
HETATM   49  O1  UNL     1      21.764  -5.732   9.067  1.00  0.00    -0.365 OA
ATOM     50  H1  UNL     1      22.159  -6.002   8.246  1.00  0.00     0.212 HD
ENDBRANCH  44  49
ENDBRANCH   1  44
TORSDOF 11
ENDMDL
