MODEL 1
REMARK VINA RESULT: -8.268390504      0.000      0.000
REMARK  8 active torsions:
REMARK  status: ('A' for Active; 'I' for Inactive)
REMARK    1  A    between atoms: C2_2  and  C3_3 
REMARK    2  A    between atoms: C5_5  and  C6_6 
REMARK    3  A    between atoms: C6_6  and  C7_7 
REMARK    4  A    between atoms: C13_17  and  O2_18 
REMARK    5  A    between atoms: N2_21  and  C15_22 
REMARK    6  A    between atoms: C15_22  and  C16_23 
REMARK    7  A    between atoms: C16_23  and  O3_24 
REMARK    8  A    between atoms: O3_24  and  C17_25 
ROOT
HETATM    1  C7  UNL     1      -7.271   8.085  15.925  1.00  0.00     0.102 A 
HETATM    2  C8  UNL     1      -6.777   8.261  14.556  1.00  0.00     0.127 A 
HETATM    3  N1  UNL     1      -5.921   7.556  13.931  1.00  0.00    -0.383 N 
ATOM      4  H11 UNL     1      -5.577   7.678  12.978  1.00  0.00     0.158 HD
ATOM      5  H12 UNL     1      -5.460   6.742  14.339  1.00  0.00     0.158 HD
HETATM    6  O1  UNL     1      -7.406   9.372  13.999  1.00  0.00    -0.296 OA
HETATM    7  C9  UNL     1      -8.223   9.980  14.956  1.00  0.00     0.097 A 
HETATM    8  C10 UNL     1      -9.038  11.108  14.904  1.00  0.00     0.021 A 
HETATM    9  C11 UNL     1      -9.740  11.513  15.991  1.00  0.00     0.044 A 
HETATM   10  C12 UNL     1      -9.656  10.801  17.182  1.00  0.00     0.067 A 
HETATM   11  C13 UNL     1      -8.858   9.679  17.259  1.00  0.00     0.077 A 
HETATM   12  C14 UNL     1      -8.155   9.294  16.131  1.00  0.00     0.022 A 
HETATM   13  N2  UNL     1     -10.299  12.621  15.307  1.00  0.00    -0.374 N 
HETATM   14  C21 UNL     1      -9.587  12.246  14.116  1.00  0.00     0.167 A 
ENDROOT
BRANCH  13  15
HETATM   15  C15 UNL     1     -11.224  13.708  15.674  1.00  0.00     0.150 C 
BRANCH  15  16
HETATM   16  C16 UNL     1     -12.562  13.145  16.008  1.00  0.00     0.195 C 
BRANCH  16  17
HETATM   17  O3  UNL     1     -12.788  12.888  17.351  1.00  0.00    -0.345 OA
BRANCH  17  18
HETATM   18  C17 UNL     1     -13.927  12.202  17.857  1.00  0.00     0.119 A 
HETATM   19  C18 UNL     1     -13.826  11.249  18.801  1.00  0.00     0.076 A 
HETATM   20 CL1  UNL     1     -12.273  10.736  19.522  1.00  0.00    -0.081 Cl
HETATM   21  C19 UNL     1     -14.979  10.648  19.220  1.00  0.00     0.078 A 
HETATM   22  S1  UNL     1     -16.174  11.432  18.285  1.00  0.00    -0.085 SA
HETATM   23  C20 UNL     1     -15.177  12.492  17.395  1.00  0.00     0.109 A 
HETATM   24 CL2  UNL     1     -15.719  13.638  16.181  1.00  0.00    -0.073 Cl
ENDBRANCH  17  18
ENDBRANCH  16  17
ENDBRANCH  15  16
ENDBRANCH  13  15
BRANCH  11  25
HETATM   25  O2  UNL     1      -8.777   8.965  18.463  1.00  0.00    -0.360 OA
ATOM     26  H2  UNL     1      -9.189   8.111  18.532  1.00  0.00     0.217 HD
ENDBRANCH  11  25
BRANCH   1  27
HETATM   27  C6  UNL     1      -8.200   6.900  16.100  1.00  0.00     0.045 C 
BRANCH  27  28
HETATM   28  C5  UNL     1      -7.632   5.763  16.817  1.00  0.00    -0.019 C 
HETATM   29  C3  UNL     1      -8.284   4.762  17.360  1.00  0.00    -0.067 C 
HETATM   30  C4  UNL     1      -7.492   3.690  18.056  1.00  0.00     0.048 C 
BRANCH  29  31
HETATM   31  C2  UNL     1      -9.715   4.631  17.328  1.00  0.00    -0.004 C 
HETATM   32  C1  UNL     1     -10.416   4.264  18.399  1.00  0.00     0.012 C 
ENDBRANCH  29  31
ENDBRANCH  27  28
ENDBRANCH   1  27
TORSDOF 8
ENDMDL
MODEL 2
REMARK VINA RESULT: -8.266479288      0.424      1.657
REMARK  8 active torsions:
REMARK  status: ('A' for Active; 'I' for Inactive)
REMARK    1  A    between atoms: C2_2  and  C3_3 
REMARK    2  A    between atoms: C5_5  and  C6_6 
REMARK    3  A    between atoms: C6_6  and  C7_7 
REMARK    4  A    between atoms: C13_17  and  O2_18 
REMARK    5  A    between atoms: N2_21  and  C15_22 
REMARK    6  A    between atoms: C15_22  and  C16_23 
REMARK    7  A    between atoms: C16_23  and  O3_24 
REMARK    8  A    between atoms: O3_24  and  C17_25 
ROOT
HETATM    1  C7  UNL     1      -7.217   8.044  15.924  1.00  0.00     0.102 A 
HETATM    2  C8  UNL     1      -6.719   8.247  14.561  1.00  0.00     0.127 A 
HETATM    3  N1  UNL     1      -5.851   7.562  13.929  1.00  0.00    -0.383 N 
ATOM      4  H11 UNL     1      -5.504   7.704  12.980  1.00  0.00     0.158 HD
ATOM      5  H12 UNL     1      -5.381   6.748  14.327  1.00  0.00     0.158 HD
HETATM    6  O1  UNL     1      -7.360   9.358  14.017  1.00  0.00    -0.296 OA
HETATM    7  C9  UNL     1      -8.189   9.941  14.979  1.00  0.00     0.097 A 
HETATM    8  C10 UNL     1      -9.018  11.059  14.940  1.00  0.00     0.021 A 
HETATM    9  C11 UNL     1      -9.731  11.438  16.030  1.00  0.00     0.044 A 
HETATM   10  C12 UNL     1      -9.643  10.709  17.210  1.00  0.00     0.067 A 
HETATM   11  C13 UNL     1      -8.831   9.597  17.274  1.00  0.00     0.077 A 
HETATM   12  C14 UNL     1      -8.118   9.239  16.144  1.00  0.00     0.022 A 
HETATM   13  N2  UNL     1     -10.301  12.549  15.359  1.00  0.00    -0.374 N 
HETATM   14  C21 UNL     1      -9.579  12.201  14.167  1.00  0.00     0.167 A 
ENDROOT
BRANCH  13  15
HETATM   15  C15 UNL     1     -11.241  13.618  15.738  1.00  0.00     0.150 C 
BRANCH  15  16
HETATM   16  C16 UNL     1     -12.571  13.032  16.065  1.00  0.00     0.195 C 
BRANCH  16  17
HETATM   17  O3  UNL     1     -12.885  12.968  17.413  1.00  0.00    -0.345 OA
BRANCH  17  18
HETATM   18  C17 UNL     1     -13.944  12.188  17.956  1.00  0.00     0.119 A 
HETATM   19  C18 UNL     1     -15.217  12.327  17.546  1.00  0.00     0.076 A 
HETATM   20 CL1  UNL     1     -15.726  13.491  16.289  1.00  0.00    -0.081 Cl
HETATM   21  C19 UNL     1     -16.161  11.531  18.131  1.00  0.00     0.078 A 
HETATM   22  S1  UNL     1     -15.244  10.610  19.237  1.00  0.00    -0.085 SA
HETATM   23  C20 UNL     1     -13.698  11.260  18.925  1.00  0.00     0.109 A 
HETATM   24 CL2  UNL     1     -12.206  10.794  19.723  1.00  0.00    -0.073 Cl
ENDBRANCH  17  18
ENDBRANCH  16  17
ENDBRANCH  15  16
ENDBRANCH  13  15
BRANCH  11  25
HETATM   25  O2  UNL     1      -8.746   8.866  18.468  1.00  0.00    -0.360 OA
ATOM     26  H2  UNL     1      -8.147   9.146  19.149  1.00  0.00     0.217 HD
ENDBRANCH  11  25
BRANCH   1  27
HETATM   27  C6  UNL     1      -8.131   6.844  16.077  1.00  0.00     0.045 C 
BRANCH  27  28
HETATM   28  C5  UNL     1      -7.574   5.729  16.833  1.00  0.00    -0.019 C 
HETATM   29  C3  UNL     1      -8.230   4.722  17.362  1.00  0.00    -0.067 C 
HETATM   30  C4  UNL     1      -7.449   3.675  18.106  1.00  0.00     0.048 C 
BRANCH  29  31
HETATM   31  C2  UNL     1      -9.656   4.563  17.270  1.00  0.00    -0.004 C 
HETATM   32  C1  UNL     1     -10.397   4.211  18.318  1.00  0.00     0.012 C 
ENDBRANCH  29  31
ENDBRANCH  27  28
ENDBRANCH   1  27
TORSDOF 8
ENDMDL
MODEL 3
REMARK VINA RESULT: -8.023442865      3.584      7.696
REMARK  8 active torsions:
REMARK  status: ('A' for Active; 'I' for Inactive)
REMARK    1  A    between atoms: C2_2  and  C3_3 
REMARK    2  A    between atoms: C5_5  and  C6_6 
REMARK    3  A    between atoms: C6_6  and  C7_7 
REMARK    4  A    between atoms: C13_17  and  O2_18 
REMARK    5  A    between atoms: N2_21  and  C15_22 
REMARK    6  A    between atoms: C15_22  and  C16_23 
REMARK    7  A    between atoms: C16_23  and  O3_24 
REMARK    8  A    between atoms: O3_24  and  C17_25 
ROOT
HETATM    1  C7  UNL     1     -14.519  12.202  16.631  1.00  0.00     0.102 A 
HETATM    2  C8  UNL     1     -14.347  13.558  16.100  1.00  0.00     0.127 A 
HETATM    3  N1  UNL     1     -15.248  14.410  15.811  1.00  0.00    -0.383 N 
ATOM      4  H11 UNL     1     -15.129  15.354  15.441  1.00  0.00     0.158 HD
ATOM      5  H12 UNL     1     -16.246  14.232  15.927  1.00  0.00     0.158 HD
HETATM    6  O1  UNL     1     -12.985  13.801  15.941  1.00  0.00    -0.296 OA
HETATM    7  C9  UNL     1     -12.261  12.650  16.262  1.00  0.00     0.097 A 
HETATM    8  C10 UNL     1     -10.895  12.376  16.254  1.00  0.00     0.021 A 
HETATM    9  C11 UNL     1     -10.426  11.153  16.605  1.00  0.00     0.044 A 
HETATM   10  C12 UNL     1     -11.309  10.148  16.982  1.00  0.00     0.067 A 
HETATM   11  C13 UNL     1     -12.666  10.394  17.000  1.00  0.00     0.077 A 
HETATM   12  C14 UNL     1     -13.110  11.653  16.636  1.00  0.00     0.022 A 
HETATM   13  N2  UNL     1      -9.077  11.530  16.390  1.00  0.00    -0.374 N 
HETATM   14  C21 UNL     1      -9.504  12.848  16.011  1.00  0.00     0.167 A 
ENDROOT
BRANCH  13  15
HETATM   15  C15 UNL     1      -7.778  10.844  16.503  1.00  0.00     0.150 C 
BRANCH  15  16
HETATM   16  C16 UNL     1      -7.758   9.645  15.619  1.00  0.00     0.195 C 
BRANCH  16  17
HETATM   17  O3  UNL     1      -8.148   8.454  16.210  1.00  0.00    -0.345 OA
BRANCH  17  18
HETATM   18  C17 UNL     1      -7.364   7.728  17.148  1.00  0.00     0.119 A 
HETATM   19  C18 UNL     1      -7.644   7.725  18.464  1.00  0.00     0.076 A 
HETATM   20 CL1  UNL     1      -9.015   8.618  19.182  1.00  0.00    -0.081 Cl
HETATM   21  C19 UNL     1      -6.828   6.996  19.283  1.00  0.00     0.078 A 
HETATM   22  S1  UNL     1      -5.692   6.336  18.193  1.00  0.00    -0.085 SA
HETATM   23  C20 UNL     1      -6.285   7.001  16.738  1.00  0.00     0.109 A 
HETATM   24 CL2  UNL     1      -5.593   6.765  15.143  1.00  0.00    -0.073 Cl
ENDBRANCH  17  18
ENDBRANCH  16  17
ENDBRANCH  15  16
ENDBRANCH  13  15
BRANCH  11  25
HETATM   25  O2  UNL     1     -13.552   9.376  17.381  1.00  0.00    -0.360 OA
ATOM     26  H2  UNL     1     -14.008   8.876  16.715  1.00  0.00     0.217 HD
ENDBRANCH  11  25
BRANCH   1  27
HETATM   27  C6  UNL     1     -14.951  12.157  18.083  1.00  0.00     0.045 C 
BRANCH  27  28
HETATM   28  C5  UNL     1     -16.156  11.379  18.351  1.00  0.00    -0.019 C 
HETATM   29  C3  UNL     1     -16.352  10.534  19.336  1.00  0.00    -0.067 C 
HETATM   30  C4  UNL     1     -17.680   9.836  19.421  1.00  0.00     0.048 C 
BRANCH  29  31
HETATM   31  C2  UNL     1     -15.367  10.237  20.340  1.00  0.00    -0.004 C 
HETATM   32  C1  UNL     1     -14.976   8.991  20.600  1.00  0.00     0.012 C 
ENDBRANCH  29  31
ENDBRANCH  27  28
ENDBRANCH   1  27
TORSDOF 8
ENDMDL
MODEL 4
REMARK VINA RESULT: -8.016351558      2.966      7.149
REMARK  8 active torsions:
REMARK  status: ('A' for Active; 'I' for Inactive)
REMARK    1  A    between atoms: C2_2  and  C3_3 
REMARK    2  A    between atoms: C5_5  and  C6_6 
REMARK    3  A    between atoms: C6_6  and  C7_7 
REMARK    4  A    between atoms: C13_17  and  O2_18 
REMARK    5  A    between atoms: N2_21  and  C15_22 
REMARK    6  A    between atoms: C15_22  and  C16_23 
REMARK    7  A    between atoms: C16_23  and  O3_24 
REMARK    8  A    between atoms: O3_24  and  C17_25 
ROOT
HETATM    1  C7  UNL     1     -14.659  12.314  16.613  1.00  0.00     0.102 A 
HETATM    2  C8  UNL     1     -14.515  13.690  16.132  1.00  0.00     0.127 A 
HETATM    3  N1  UNL     1     -15.430  14.545  15.903  1.00  0.00    -0.383 N 
ATOM      4  H11 UNL     1     -15.330  15.503  15.567  1.00  0.00     0.158 HD
ATOM      5  H12 UNL     1     -16.423  14.353  16.039  1.00  0.00     0.158 HD
HETATM    6  O1  UNL     1     -13.159  13.953  15.945  1.00  0.00    -0.296 OA
HETATM    7  C9  UNL     1     -12.417  12.798  16.200  1.00  0.00     0.097 A 
HETATM    8  C10 UNL     1     -11.049  12.537  16.143  1.00  0.00     0.021 A 
HETATM    9  C11 UNL     1     -10.560  11.306  16.432  1.00  0.00     0.044 A 
HETATM   10  C12 UNL     1     -11.424  10.278  16.793  1.00  0.00     0.067 A 
HETATM   11  C13 UNL     1     -12.782  10.510  16.859  1.00  0.00     0.077 A 
HETATM   12  C14 UNL     1     -13.246  11.778  16.557  1.00  0.00     0.022 A 
HETATM   13  N2  UNL     1      -9.220  11.704  16.194  1.00  0.00    -0.374 N 
HETATM   14  C21 UNL     1      -9.670  13.032  15.880  1.00  0.00     0.167 A 
ENDROOT
BRANCH  13  15
HETATM   15  C15 UNL     1      -7.913  11.027  16.244  1.00  0.00     0.150 C 
BRANCH  15  16
HETATM   16  C16 UNL     1      -8.108   9.550  16.293  1.00  0.00     0.195 C 
BRANCH  16  17
HETATM   17  O3  UNL     1      -7.945   8.963  17.537  1.00  0.00    -0.345 OA
BRANCH  17  18
HETATM   18  C17 UNL     1      -8.884   8.080  18.139  1.00  0.00     0.119 A 
HETATM   19  C18 UNL     1      -9.689   8.469  19.144  1.00  0.00     0.076 A 
HETATM   20 CL1  UNL     1      -9.678  10.117  19.834  1.00  0.00    -0.081 Cl
HETATM   21  C19 UNL     1     -10.556   7.545  19.655  1.00  0.00     0.078 A 
HETATM   22  S1  UNL     1     -10.222   6.157  18.718  1.00  0.00    -0.085 SA
HETATM   23  C20 UNL     1      -8.999   6.790  17.711  1.00  0.00     0.109 A 
HETATM   24 CL2  UNL     1      -8.139   5.910  16.460  1.00  0.00    -0.073 Cl
ENDBRANCH  17  18
ENDBRANCH  16  17
ENDBRANCH  15  16
ENDBRANCH  13  15
BRANCH  11  25
HETATM   25  O2  UNL     1     -13.647   9.469  17.223  1.00  0.00    -0.360 OA
ATOM     26  H2  UNL     1     -14.354   9.638  17.834  1.00  0.00     0.217 HD
ENDBRANCH  11  25
BRANCH   1  27
HETATM   27  C6  UNL     1     -15.050  12.206  18.074  1.00  0.00     0.045 C 
BRANCH  27  28
HETATM   28  C5  UNL     1     -16.224  11.384  18.347  1.00  0.00    -0.019 C 
HETATM   29  C3  UNL     1     -16.377  10.518  19.321  1.00  0.00    -0.067 C 
HETATM   30  C4  UNL     1     -17.679   9.774  19.415  1.00  0.00     0.048 C 
BRANCH  29  31
HETATM   31  C2  UNL     1     -15.368  10.240  20.306  1.00  0.00    -0.004 C 
HETATM   32  C1  UNL     1     -14.878   9.016  20.491  1.00  0.00     0.012 C 
ENDBRANCH  29  31
ENDBRANCH  27  28
ENDBRANCH   1  27
TORSDOF 8
ENDMDL
MODEL 5
REMARK VINA RESULT: -8.006572019      2.846      7.144
REMARK  8 active torsions:
REMARK  status: ('A' for Active; 'I' for Inactive)
REMARK    1  A    between atoms: C2_2  and  C3_3 
REMARK    2  A    between atoms: C5_5  and  C6_6 
REMARK    3  A    between atoms: C6_6  and  C7_7 
REMARK    4  A    between atoms: C13_17  and  O2_18 
REMARK    5  A    between atoms: N2_21  and  C15_22 
REMARK    6  A    between atoms: C15_22  and  C16_23 
REMARK    7  A    between atoms: C16_23  and  O3_24 
REMARK    8  A    between atoms: O3_24  and  C17_25 
ROOT
HETATM    1  C7  UNL     1     -14.644  12.335  16.601  1.00  0.00     0.102 A 
HETATM    2  C8  UNL     1     -14.497  13.713  16.124  1.00  0.00     0.127 A 
HETATM    3  N1  UNL     1     -15.412  14.568  15.893  1.00  0.00    -0.383 N 
ATOM      4  H11 UNL     1     -15.310  15.528  15.561  1.00  0.00     0.158 HD
ATOM      5  H12 UNL     1     -16.405  14.376  16.025  1.00  0.00     0.158 HD
HETATM    6  O1  UNL     1     -13.141  13.976  15.944  1.00  0.00    -0.296 OA
HETATM    7  C9  UNL     1     -12.399  12.820  16.198  1.00  0.00     0.097 A 
HETATM    8  C10 UNL     1     -11.032  12.560  16.146  1.00  0.00     0.021 A 
HETATM    9  C11 UNL     1     -10.544  11.328  16.434  1.00  0.00     0.044 A 
HETATM   10  C12 UNL     1     -11.409  10.299  16.789  1.00  0.00     0.067 A 
HETATM   11  C13 UNL     1     -12.767  10.531  16.849  1.00  0.00     0.077 A 
HETATM   12  C14 UNL     1     -13.230  11.799  16.549  1.00  0.00     0.022 A 
HETATM   13  N2  UNL     1      -9.203  11.726  16.203  1.00  0.00    -0.374 N 
HETATM   14  C21 UNL     1      -9.651  13.055  15.891  1.00  0.00     0.167 A 
ENDROOT
BRANCH  13  15
HETATM   15  C15 UNL     1      -7.896  11.049  16.257  1.00  0.00     0.150 C 
BRANCH  15  16
HETATM   16  C16 UNL     1      -8.088   9.571  16.226  1.00  0.00     0.195 C 
BRANCH  16  17
HETATM   17  O3  UNL     1      -7.854   8.909  17.420  1.00  0.00    -0.345 OA
BRANCH  17  18
HETATM   18  C17 UNL     1      -8.801   8.075  18.076  1.00  0.00     0.119 A 
HETATM   19  C18 UNL     1      -8.983   6.789  17.728  1.00  0.00     0.076 A 
HETATM   20 CL1  UNL     1      -8.069   5.983  16.421  1.00  0.00    -0.081 Cl
HETATM   21  C19 UNL     1      -9.919   6.072  18.419  1.00  0.00     0.078 A 
HETATM   22  S1  UNL     1     -10.520   7.215  19.536  1.00  0.00    -0.085 SA
HETATM   23  C20 UNL     1      -9.569   8.561  19.093  1.00  0.00     0.109 A 
HETATM   24 CL2  UNL     1      -9.644  10.156  19.821  1.00  0.00    -0.073 Cl
ENDBRANCH  17  18
ENDBRANCH  16  17
ENDBRANCH  15  16
ENDBRANCH  13  15
BRANCH  11  25
HETATM   25  O2  UNL     1     -13.634   9.489  17.207  1.00  0.00    -0.360 OA
ATOM     26  H2  UNL     1     -14.236   9.606  17.933  1.00  0.00     0.217 HD
ENDBRANCH  11  25
BRANCH   1  27
HETATM   27  C6  UNL     1     -15.040  12.224  18.060  1.00  0.00     0.045 C 
BRANCH  27  28
HETATM   28  C5  UNL     1     -16.226  11.415  18.323  1.00  0.00    -0.019 C 
HETATM   29  C3  UNL     1     -16.402  10.562  19.305  1.00  0.00    -0.067 C 
HETATM   30  C4  UNL     1     -17.712   9.830  19.387  1.00  0.00     0.048 C 
BRANCH  29  31
HETATM   31  C2  UNL     1     -15.410  10.287  20.309  1.00  0.00    -0.004 C 
HETATM   32  C1  UNL     1     -14.900   9.070  20.484  1.00  0.00     0.012 C 
ENDBRANCH  29  31
ENDBRANCH  27  28
ENDBRANCH   1  27
TORSDOF 8
ENDMDL
