MODEL 1
REMARK VINA RESULT: -7.704316303      0.000      0.000
REMARK  3 active torsions:
REMARK  status: ('A' for Active; 'I' for Inactive)
REMARK    1  A    between atoms: C4_5  and  S1_6 
REMARK    2  A    between atoms: S1_6  and  N2_9 
REMARK    3  A    between atoms: N2_9  and  C5_11 
ROOT
HETATM    1  S1  UNL     1       4.498  -5.908 -38.979  1.00  0.00     0.264 S 
HETATM    2  O1  UNL     1       5.622  -5.149 -38.277  1.00  0.00    -0.200 OA
HETATM    3  O2  UNL     1       3.269  -5.655 -38.129  1.00  0.00    -0.200 OA
ENDROOT
BRANCH   1   4
HETATM    4  C4  UNL     1       4.891  -7.637 -38.844  1.00  0.00     0.080 A 
HETATM    5  C3  UNL     1       4.828  -8.222 -37.617  1.00  0.00     0.027 A 
HETATM    6  C2  UNL     1       5.125  -9.565 -37.461  1.00  0.00     0.028 A 
HETATM    7  C1  UNL     1       5.486 -10.296 -38.578  1.00  0.00     0.046 A 
HETATM    8  N1  UNL     1       5.784 -11.666 -38.395  1.00  0.00    -0.102 NA
HETATM    9  C11 UNL     1       5.557  -9.734 -39.821  1.00  0.00     0.028 A 
HETATM   10  C10 UNL     1       5.248  -8.370 -39.933  1.00  0.00     0.027 A 
ENDBRANCH   1   4
BRANCH   1  11
HETATM   11  N2  UNL     1       4.293  -5.470 -40.551  1.00  0.00    -0.264 N 
ATOM     12  H2  UNL     1       3.495  -5.976 -40.935  1.00  0.00     0.180 HD
BRANCH  11  13
HETATM   13  C5  UNL     1       4.768  -4.741 -41.429  1.00  0.00     0.139 A 
HETATM   14  N3  UNL     1       5.657  -5.279 -42.338  1.00  0.00    -0.350 N 
HETATM   15  C6  UNL     1       6.210  -4.570 -43.306  1.00  0.00     0.090 A 
ATOM     16  H3  UNL     1       5.898  -6.267 -42.259  1.00  0.00     0.166 HD
HETATM   17  C7  UNL     1       5.915  -3.236 -43.451  1.00  0.00     0.019 A 
HETATM   18  C8  UNL     1       5.042  -2.652 -42.580  1.00  0.00     0.032 A 
HETATM   19  C9  UNL     1       4.468  -3.416 -41.564  1.00  0.00     0.091 A 
HETATM   20  N4  UNL     1       3.577  -2.706 -40.720  1.00  0.00    -0.098 NA
ENDBRANCH  11  13
ENDBRANCH   1  11
TORSDOF 3
ENDMDL
MODEL 2
REMARK VINA RESULT: -7.652303947      0.072      1.124
REMARK  3 active torsions:
REMARK  status: ('A' for Active; 'I' for Inactive)
REMARK    1  A    between atoms: C4_5  and  S1_6 
REMARK    2  A    between atoms: S1_6  and  N2_9 
REMARK    3  A    between atoms: N2_9  and  C5_11 
ROOT
HETATM    1  S1  UNL     1       4.488  -5.943 -38.951  1.00  0.00     0.264 S 
HETATM    2  O1  UNL     1       5.608  -5.180 -38.247  1.00  0.00    -0.200 OA
HETATM    3  O2  UNL     1       3.249  -5.662 -38.124  1.00  0.00    -0.200 OA
ENDROOT
BRANCH   1   4
HETATM    4  C4  UNL     1       4.863  -7.672 -38.778  1.00  0.00     0.080 A 
HETATM    5  C3  UNL     1       5.157  -8.387 -39.897  1.00  0.00     0.027 A 
HETATM    6  C2  UNL     1       5.455  -9.736 -39.813  1.00  0.00     0.028 A 
HETATM    7  C1  UNL     1       5.447 -10.338 -38.569  1.00  0.00     0.046 A 
HETATM    8  N1  UNL     1       5.755 -11.717 -38.507  1.00  0.00    -0.102 NA
HETATM    9  C11 UNL     1       5.156  -9.644 -37.429  1.00  0.00     0.028 A 
HETATM   10  C10 UNL     1       4.859  -8.279 -37.560  1.00  0.00     0.027 A 
ENDBRANCH   1   4
BRANCH   1  11
HETATM   11  N2  UNL     1       4.310  -5.532 -40.534  1.00  0.00    -0.264 N 
ATOM     12  H2  UNL     1       3.546  -6.077 -40.934  1.00  0.00     0.180 HD
BRANCH  11  13
HETATM   13  C5  UNL     1       4.778  -4.794 -41.408  1.00  0.00     0.139 A 
HETATM   14  N3  UNL     1       5.675  -5.318 -42.318  1.00  0.00    -0.350 N 
HETATM   15  C6  UNL     1       6.222  -4.598 -43.282  1.00  0.00     0.090 A 
ATOM     16  H3  UNL     1       5.926  -6.304 -42.244  1.00  0.00     0.166 HD
HETATM   17  C7  UNL     1       5.913  -3.266 -43.421  1.00  0.00     0.019 A 
HETATM   18  C8  UNL     1       5.032  -2.696 -42.548  1.00  0.00     0.032 A 
HETATM   19  C9  UNL     1       4.464  -3.471 -41.537  1.00  0.00     0.091 A 
HETATM   20  N4  UNL     1       3.565  -2.776 -40.691  1.00  0.00    -0.098 NA
ENDBRANCH  11  13
ENDBRANCH   1  11
TORSDOF 3
ENDMDL
MODEL 3
REMARK VINA RESULT: -7.368695276      1.855      2.500
REMARK  3 active torsions:
REMARK  status: ('A' for Active; 'I' for Inactive)
REMARK    1  A    between atoms: C4_5  and  S1_6 
REMARK    2  A    between atoms: S1_6  and  N2_9 
REMARK    3  A    between atoms: N2_9  and  C5_11 
ROOT
HETATM    1  S1  UNL     1       4.511  -6.372 -38.647  1.00  0.00     0.264 S 
HETATM    2  O1  UNL     1       5.395  -5.617 -37.657  1.00  0.00    -0.200 OA
HETATM    3  O2  UNL     1       3.200  -5.611 -38.653  1.00  0.00    -0.200 OA
ENDROOT
BRANCH   1   4
HETATM    4  C4  UNL     1       4.196  -7.969 -37.932  1.00  0.00     0.080 A 
HETATM    5  C3  UNL     1       2.920  -8.279 -37.576  1.00  0.00     0.027 A 
HETATM    6  C2  UNL     1       2.625  -9.510 -37.015  1.00  0.00     0.028 A 
HETATM    7  C1  UNL     1       3.653 -10.413 -36.825  1.00  0.00     0.046 A 
HETATM    8  N1  UNL     1       3.328 -11.664 -36.252  1.00  0.00    -0.102 NA
HETATM    9  C11 UNL     1       4.943 -10.128 -37.174  1.00  0.00     0.028 A 
HETATM   10  C10 UNL     1       5.197  -8.870 -37.738  1.00  0.00     0.027 A 
ENDBRANCH   1   4
BRANCH   1  11
HETATM   11  N2  UNL     1       5.177  -6.516 -40.144  1.00  0.00    -0.264 N 
ATOM     12  H2  UNL     1       6.091  -6.960 -40.059  1.00  0.00     0.180 HD
BRANCH  11  13
HETATM   13  C5  UNL     1       4.956  -6.273 -41.336  1.00  0.00     0.139 A 
HETATM   14  N3  UNL     1       5.748  -5.351 -41.991  1.00  0.00    -0.350 N 
HETATM   15  C6  UNL     1       5.579  -5.034 -43.263  1.00  0.00     0.090 A 
ATOM     16  H3  UNL     1       6.497  -4.894 -41.470  1.00  0.00     0.166 HD
HETATM   17  C7  UNL     1       4.583  -5.625 -44.003  1.00  0.00     0.019 A 
HETATM   18  C8  UNL     1       3.769  -6.544 -43.406  1.00  0.00     0.032 A 
HETATM   19  C9  UNL     1       3.963  -6.866 -42.063  1.00  0.00     0.091 A 
HETATM   20  N4  UNL     1       3.061  -7.831 -41.549  1.00  0.00    -0.098 NA
ENDBRANCH  11  13
ENDBRANCH   1  11
TORSDOF 3
ENDMDL
MODEL 4
REMARK VINA RESULT: -7.266842283      2.083      6.074
REMARK  3 active torsions:
REMARK  status: ('A' for Active; 'I' for Inactive)
REMARK    1  A    between atoms: C4_5  and  S1_6 
REMARK    2  A    between atoms: S1_6  and  N2_9 
REMARK    3  A    between atoms: N2_9  and  C5_11 
ROOT
HETATM    1  S1  UNL     1       4.724  -6.215 -38.705  1.00  0.00     0.264 S 
HETATM    2  O1  UNL     1       3.345  -5.944 -38.108  1.00  0.00    -0.200 OA
HETATM    3  O2  UNL     1       5.576  -5.042 -38.260  1.00  0.00    -0.200 OA
ENDROOT
BRANCH   1   4
HETATM    4  C4  UNL     1       4.545  -6.103 -40.470  1.00  0.00     0.080 A 
HETATM    5  C3  UNL     1       5.440  -5.351 -41.166  1.00  0.00     0.027 A 
HETATM    6  C2  UNL     1       5.342  -5.232 -42.542  1.00  0.00     0.028 A 
HETATM    7  C1  UNL     1       4.316  -5.895 -43.190  1.00  0.00     0.046 A 
HETATM    8  N1  UNL     1       4.236  -5.760 -44.595  1.00  0.00    -0.102 NA
HETATM    9  C11 UNL     1       3.404  -6.657 -42.516  1.00  0.00     0.028 A 
HETATM   10  C10 UNL     1       3.541  -6.749 -41.123  1.00  0.00     0.027 A 
ENDBRANCH   1   4
BRANCH   1  11
HETATM   11  N2  UNL     1       5.356  -7.669 -38.266  1.00  0.00    -0.264 N 
ATOM     12  H2  UNL     1       6.237  -7.514 -37.777  1.00  0.00     0.180 HD
BRANCH  11  13
HETATM   13  C5  UNL     1       5.135  -8.884 -38.321  1.00  0.00     0.139 A 
HETATM   14  N3  UNL     1       4.493  -9.498 -37.263  1.00  0.00    -0.350 N 
HETATM   15  C6  UNL     1       4.220 -10.791 -37.243  1.00  0.00     0.090 A 
ATOM     16  H3  UNL     1       4.218  -8.929 -36.463  1.00  0.00     0.166 HD
HETATM   17  C7  UNL     1       4.571 -11.596 -38.300  1.00  0.00     0.019 A 
HETATM   18  C8  UNL     1       5.208 -11.042 -39.372  1.00  0.00     0.032 A 
HETATM   19  C9  UNL     1       5.488  -9.675 -39.376  1.00  0.00     0.091 A 
HETATM   20  N4  UNL     1       6.150  -9.210 -40.540  1.00  0.00    -0.098 NA
ENDBRANCH  11  13
ENDBRANCH   1  11
TORSDOF 3
ENDMDL
MODEL 5
REMARK VINA RESULT: -7.240916088      1.653      6.219
REMARK  3 active torsions:
REMARK  status: ('A' for Active; 'I' for Inactive)
REMARK    1  A    between atoms: C4_5  and  S1_6 
REMARK    2  A    between atoms: S1_6  and  N2_9 
REMARK    3  A    between atoms: N2_9  and  C5_11 
ROOT
HETATM    1  S1  UNL     1       4.889  -5.915 -38.878  1.00  0.00     0.264 S 
HETATM    2  O1  UNL     1       3.493  -5.914 -38.258  1.00  0.00    -0.200 OA
HETATM    3  O2  UNL     1       5.731  -5.077 -37.936  1.00  0.00    -0.200 OA
ENDROOT
BRANCH   1   4
HETATM    4  C4  UNL     1       4.763  -5.025 -40.412  1.00  0.00     0.080 A 
HETATM    5  C3  UNL     1       5.309  -5.579 -41.529  1.00  0.00     0.027 A 
HETATM    6  C2  UNL     1       5.238  -4.924 -42.747  1.00  0.00     0.028 A 
HETATM    7  C1  UNL     1       4.600  -3.699 -42.801  1.00  0.00     0.046 A 
HETATM    8  N1  UNL     1       4.539  -3.049 -44.056  1.00  0.00    -0.102 NA
HETATM    9  C11 UNL     1       4.043  -3.120 -41.696  1.00  0.00     0.028 A 
HETATM   10  C10 UNL     1       4.140  -3.818 -40.483  1.00  0.00     0.027 A 
ENDBRANCH   1   4
BRANCH   1  11
HETATM   11  N2  UNL     1       5.500  -7.423 -39.117  1.00  0.00    -0.264 N 
ATOM     12  H2  UNL     1       6.465  -7.342 -39.438  1.00  0.00     0.180 HD
BRANCH  11  13
HETATM   13  C5  UNL     1       5.199  -8.619 -39.043  1.00  0.00     0.139 A 
HETATM   14  N3  UNL     1       5.865  -9.424 -38.138  1.00  0.00    -0.350 N 
HETATM   15  C6  UNL     1       5.604 -10.712 -37.997  1.00  0.00     0.090 A 
ATOM     16  H3  UNL     1       6.589  -9.006 -37.554  1.00  0.00     0.166 HD
HETATM   17  C7  UNL     1       4.637 -11.317 -38.763  1.00  0.00     0.019 A 
HETATM   18  C8  UNL     1       3.948 -10.569 -39.673  1.00  0.00     0.032 A 
HETATM   19  C9  UNL     1       4.236  -9.211 -39.809  1.00  0.00     0.091 A 
HETATM   20  N4  UNL     1       3.460  -8.535 -40.782  1.00  0.00    -0.098 NA
ENDBRANCH  11  13
ENDBRANCH   1  11
TORSDOF 3
ENDMDL
