MODEL 1
REMARK VINA RESULT: -7.458742366      0.000      0.000
REMARK  8 active torsions:
REMARK  status: ('A' for Active; 'I' for Inactive)
REMARK    1  A    between atoms: C2_2  and  C3_3 
REMARK    2  A    between atoms: C3_3  and  N1_4 
REMARK    3  A    between atoms: N1_4  and  C4_7 
REMARK    4  A    between atoms: C4_7  and  C5_8 
REMARK       I    between atoms: C5_8  and  N2_10 
REMARK    5  A    between atoms: N2_10  and  C6_12 
REMARK    6  A    between atoms: C8_14  and  C9_15 
REMARK    7  A    between atoms: C9_15  and  C10_16 
REMARK    8  A    between atoms: C25_33  and  O4_34 
ROOT
HETATM    1  C5  UNL     1      37.411 -22.707  25.641  1.00  0.00     0.243 C 
HETATM    2  O1  UNL     1      38.514 -23.263  25.900  1.00  0.00    -0.272 OA
HETATM    3  N2  UNL     1      37.127 -21.342  25.834  1.00  0.00    -0.354 N 
ATOM      4  H2  UNL     1      36.189 -21.034  25.582  1.00  0.00     0.162 HD
ENDROOT
BRANCH   1   5
HETATM    5  C4  UNL     1      36.391 -23.636  25.092  1.00  0.00     0.335 C 
BRANCH   5   6
HETATM    6  N1  UNL     1      36.859 -24.993  24.996  1.00  0.00    -0.054 N 
ATOM      7  H12 UNL     1      36.461 -25.568  25.739  1.00  0.00     0.279 HD
ATOM      8  H11 UNL     1      37.845 -25.055  25.247  1.00  0.00     0.279 HD
BRANCH   6   9
HETATM    9  C3  UNL     1      36.617 -25.586  23.694  1.00  0.00     0.147 C 
HETATM   10  C20 UNL     1      35.238 -25.016  23.274  1.00  0.00     0.043 C 
HETATM   11  C21 UNL     1      35.088 -25.431  21.827  1.00  0.00     0.004 C 
HETATM   12  C22 UNL     1      34.916 -26.911  21.794  1.00  0.00     0.012 C 
HETATM   13  C23 UNL     1      35.786 -27.728  22.660  1.00  0.00    -0.012 C 
HETATM   14  C24 UNL     1      36.671 -28.605  21.756  1.00  0.00     0.018 C 
HETATM   15  C25 UNL     1      34.876 -28.751  23.366  1.00  0.00     0.126 C 
HETATM   16  C28 UNL     1      36.558 -27.064  23.730  1.00  0.00     0.036 C 
HETATM   17  C26 UNL     1      35.532 -28.934  24.731  1.00  0.00     0.033 C 
HETATM   18  C27 UNL     1      35.871 -27.465  25.019  1.00  0.00     0.011 C 
BRANCH   9  19
HETATM   19  C2  UNL     1      37.573 -24.974  22.755  1.00  0.00     0.002 C 
HETATM   20  C1  UNL     1      38.832 -25.288  22.596  1.00  0.00     0.009 C 
ENDBRANCH   9  19
BRANCH  15  21
HETATM   21  O4  UNL     1      33.612 -28.266  23.590  1.00  0.00    -0.395 OA
ATOM     22  H4  UNL     1      33.602 -27.545  24.209  1.00  0.00     0.210 HD
ENDBRANCH  15  21
ENDBRANCH   6   9
ENDBRANCH   5   6
ENDBRANCH   1   5
BRANCH   3  23
HETATM   23  C6  UNL     1      38.005 -20.345  26.343  1.00  0.00     0.093 C 
HETATM   24  C7  UNL     1      37.790 -19.900  27.759  1.00  0.00     0.031 C 
HETATM   25  C8  UNL     1      38.584 -18.593  27.814  1.00  0.00     0.003 C 
HETATM   26  C11 UNL     1      38.219 -17.984  26.514  1.00  0.00     0.008 C 
HETATM   27  C12 UNL     1      38.893 -16.757  26.060  1.00  0.00    -0.043 C 
HETATM   28  C18 UNL     1      38.089 -19.086  25.495  1.00  0.00    -0.019 C 
HETATM   29  C13 UNL     1      37.840 -15.898  25.328  1.00  0.00     0.015 C 
HETATM   30  C14 UNL     1      39.349 -15.917  27.231  1.00  0.00     0.015 C 
HETATM   31  C15 UNL     1      40.050 -16.910  25.127  1.00  0.00     0.009 C 
HETATM   32  C16 UNL     1      40.338 -18.298  24.662  1.00  0.00     0.002 C 
HETATM   33  C17 UNL     1      39.156 -19.164  24.470  1.00  0.00     0.011 C 
HETATM   34  C19 UNL     1      36.764 -18.949  24.715  1.00  0.00     0.018 C 
BRANCH  25  35
HETATM   35  C9  UNL     1      39.958 -18.869  28.179  1.00  0.00     0.118 C 
BRANCH  35  36
HETATM   36  C10 UNL     1      40.065 -19.435  29.538  1.00  0.00     0.172 C 
HETATM   37  O2  UNL     1      40.509 -20.555  29.854  1.00  0.00    -0.648 OA
HETATM   38  O3  UNL     1      39.624 -18.635  30.614  1.00  0.00    -0.648 OA
ENDBRANCH  35  36
ENDBRANCH  25  35
ENDBRANCH   3  23
TORSDOF 8
ENDMDL
MODEL 2
REMARK VINA RESULT: -7.436644092      4.188      5.408
REMARK  8 active torsions:
REMARK  status: ('A' for Active; 'I' for Inactive)
REMARK    1  A    between atoms: C2_2  and  C3_3 
REMARK    2  A    between atoms: C3_3  and  N1_4 
REMARK    3  A    between atoms: N1_4  and  C4_7 
REMARK    4  A    between atoms: C4_7  and  C5_8 
REMARK       I    between atoms: C5_8  and  N2_10 
REMARK    5  A    between atoms: N2_10  and  C6_12 
REMARK    6  A    between atoms: C8_14  and  C9_15 
REMARK    7  A    between atoms: C9_15  and  C10_16 
REMARK    8  A    between atoms: C25_33  and  O4_34 
ROOT
HETATM    1  C5  UNL     1      40.829 -21.556  29.441  1.00  0.00     0.243 C 
HETATM    2  O1  UNL     1      41.870 -20.854  29.568  1.00  0.00    -0.272 OA
HETATM    3  N2  UNL     1      39.639 -21.134  28.817  1.00  0.00    -0.354 N 
ATOM      4  H2  UNL     1      38.877 -21.811  28.790  1.00  0.00     0.162 HD
ENDROOT
BRANCH   1   5
HETATM    5  C4  UNL     1      40.956 -22.918  30.018  1.00  0.00     0.335 C 
BRANCH   5   6
HETATM    6  N1  UNL     1      41.969 -23.709  29.374  1.00  0.00    -0.054 N 
ATOM      7  H12 UNL     1      42.406 -24.350  30.037  1.00  0.00     0.279 HD
ATOM      8  H11 UNL     1      42.779 -23.138  29.135  1.00  0.00     0.279 HD
BRANCH   6   9
HETATM    9  C3  UNL     1      41.478 -24.424  28.210  1.00  0.00     0.147 C 
HETATM   10  C20 UNL     1      39.958 -24.574  28.477  1.00  0.00     0.043 C 
HETATM   11  C21 UNL     1      39.399 -25.097  27.173  1.00  0.00     0.004 C 
HETATM   12  C22 UNL     1      39.895 -26.490  26.991  1.00  0.00     0.012 C 
HETATM   13  C23 UNL     1      41.311 -26.765  27.296  1.00  0.00    -0.012 C 
HETATM   14  C24 UNL     1      42.005 -27.192  25.990  1.00  0.00     0.018 C 
HETATM   15  C25 UNL     1      41.341 -28.047  28.150  1.00  0.00     0.126 C 
HETATM   16  C28 UNL     1      42.091 -25.759  28.046  1.00  0.00     0.036 C 
HETATM   17  C26 UNL     1      42.526 -27.829  29.084  1.00  0.00     0.033 C 
HETATM   18  C27 UNL     1      42.277 -26.354  29.426  1.00  0.00     0.011 C 
BRANCH   9  19
HETATM   19  C2  UNL     1      41.563 -23.499  27.067  1.00  0.00     0.002 C 
HETATM   20  C1  UNL     1      42.648 -22.990  26.544  1.00  0.00     0.009 C 
ENDBRANCH   9  19
BRANCH  15  21
HETATM   21  O4  UNL     1      40.226 -28.182  28.938  1.00  0.00    -0.395 OA
ATOM     22  H4  UNL     1      40.351 -28.808  29.642  1.00  0.00     0.210 HD
ENDBRANCH  15  21
ENDBRANCH   6   9
ENDBRANCH   5   6
ENDBRANCH   1   5
BRANCH   3  23
HETATM   23  C6  UNL     1      39.382 -19.868  28.221  1.00  0.00     0.093 C 
HETATM   24  C7  UNL     1      38.281 -19.042  28.815  1.00  0.00     0.031 C 
HETATM   25  C8  UNL     1      38.018 -18.011  27.716  1.00  0.00     0.003 C 
HETATM   26  C11 UNL     1      38.080 -18.863  26.506  1.00  0.00     0.008 C 
HETATM   27  C12 UNL     1      38.039 -18.250  25.169  1.00  0.00    -0.043 C 
HETATM   28  C18 UNL     1      39.136 -19.915  26.722  1.00  0.00    -0.019 C 
HETATM   29  C13 UNL     1      37.228 -19.192  24.255  1.00  0.00     0.015 C 
HETATM   30  C14 UNL     1      37.268 -16.950  25.186  1.00  0.00     0.015 C 
HETATM   31  C15 UNL     1      39.343 -18.000  24.484  1.00  0.00     0.009 C 
HETATM   32  C16 UNL     1      40.560 -18.503  25.186  1.00  0.00     0.002 C 
HETATM   33  C17 UNL     1      40.385 -19.763  25.939  1.00  0.00     0.011 C 
HETATM   34  C19 UNL     1      38.587 -21.315  26.373  1.00  0.00     0.018 C 
BRANCH  25  35
HETATM   35  C9  UNL     1      38.886 -16.866  27.899  1.00  0.00     0.118 C 
BRANCH  35  36
HETATM   36  C10 UNL     1      38.154 -15.696  28.422  1.00  0.00     0.172 C 
HETATM   37  O2  UNL     1      37.502 -15.627  29.481  1.00  0.00    -0.648 OA
HETATM   38  O3  UNL     1      38.184 -14.512  27.654  1.00  0.00    -0.648 OA
ENDBRANCH  35  36
ENDBRANCH  25  35
ENDBRANCH   3  23
TORSDOF 8
ENDMDL
MODEL 3
REMARK VINA RESULT: -7.411607513      4.136      9.306
REMARK  8 active torsions:
REMARK  status: ('A' for Active; 'I' for Inactive)
REMARK    1  A    between atoms: C2_2  and  C3_3 
REMARK    2  A    between atoms: C3_3  and  N1_4 
REMARK    3  A    between atoms: N1_4  and  C4_7 
REMARK    4  A    between atoms: C4_7  and  C5_8 
REMARK       I    between atoms: C5_8  and  N2_10 
REMARK    5  A    between atoms: N2_10  and  C6_12 
REMARK    6  A    between atoms: C8_14  and  C9_15 
REMARK    7  A    between atoms: C9_15  and  C10_16 
REMARK    8  A    between atoms: C25_33  and  O4_34 
ROOT
HETATM    1  C5  UNL     1      38.927 -21.363  27.601  1.00  0.00     0.243 C 
HETATM    2  O1  UNL     1      38.896 -21.137  28.842  1.00  0.00    -0.272 OA
HETATM    3  N2  UNL     1      39.806 -22.257  26.962  1.00  0.00    -0.354 N 
ATOM      4  H2  UNL     1      39.717 -22.335  25.950  1.00  0.00     0.162 HD
ENDROOT
BRANCH   1   5
HETATM    5  C4  UNL     1      37.924 -20.586  26.830  1.00  0.00     0.335 C 
BRANCH   5   6
HETATM    6  N1  UNL     1      37.379 -19.479  27.571  1.00  0.00    -0.054 N 
ATOM      7  H12 UNL     1      37.590 -19.569  28.565  1.00  0.00     0.279 HD
ATOM      8  H11 UNL     1      36.362 -19.534  27.611  1.00  0.00     0.279 HD
BRANCH   6   9
HETATM    9  C3  UNL     1      37.809 -18.189  27.064  1.00  0.00     0.147 C 
HETATM   10  C20 UNL     1      39.209 -17.985  27.698  1.00  0.00     0.043 C 
HETATM   11  C21 UNL     1      39.766 -16.770  26.992  1.00  0.00     0.004 C 
HETATM   12  C22 UNL     1      38.972 -15.587  27.428  1.00  0.00     0.012 C 
HETATM   13  C23 UNL     1      37.506 -15.729  27.509  1.00  0.00    -0.012 C 
HETATM   14  C24 UNL     1      36.878 -14.775  26.476  1.00  0.00     0.018 C 
HETATM   15  C25 UNL     1      37.074 -15.125  28.858  1.00  0.00     0.126 C 
HETATM   16  C28 UNL     1      36.914 -17.081  27.460  1.00  0.00     0.036 C 
HETATM   17  C26 UNL     1      35.882 -15.981  29.269  1.00  0.00     0.033 C 
HETATM   18  C27 UNL     1      36.439 -17.355  28.871  1.00  0.00     0.011 C 
BRANCH   9  19
HETATM   19  C2  UNL     1      38.076 -18.358  25.625  1.00  0.00     0.002 C 
HETATM   20  C1  UNL     1      37.292 -18.021  24.633  1.00  0.00     0.009 C 
ENDBRANCH   9  19
BRANCH  15  21
HETATM   21  O4  UNL     1      38.029 -15.273  29.832  1.00  0.00    -0.395 OA
ATOM     22  H4  UNL     1      38.597 -16.019  29.677  1.00  0.00     0.210 HD
ENDBRANCH  15  21
ENDBRANCH   6   9
ENDBRANCH   5   6
ENDBRANCH   1   5
BRANCH   3  23
HETATM   23  C6  UNL     1      40.806 -23.064  27.572  1.00  0.00     0.093 C 
HETATM   24  C7  UNL     1      42.206 -22.932  27.051  1.00  0.00     0.031 C 
HETATM   25  C8  UNL     1      42.881 -24.187  27.609  1.00  0.00     0.003 C 
HETATM   26  C11 UNL     1      41.827 -25.202  27.382  1.00  0.00     0.008 C 
HETATM   27  C12 UNL     1      41.983 -26.562  27.923  1.00  0.00    -0.043 C 
HETATM   28  C18 UNL     1      40.487 -24.550  27.602  1.00  0.00    -0.019 C 
HETATM   29  C13 UNL     1      41.384 -27.540  26.891  1.00  0.00     0.015 C 
HETATM   30  C14 UNL     1      43.442 -26.943  28.034  1.00  0.00     0.015 C 
HETATM   31  C15 UNL     1      41.329 -26.862  29.233  1.00  0.00     0.009 C 
HETATM   32  C16 UNL     1      40.486 -25.775  29.810  1.00  0.00     0.002 C 
HETATM   33  C17 UNL     1      39.755 -24.946  28.828  1.00  0.00     0.011 C 
HETATM   34  C19 UNL     1      39.535 -24.856  26.426  1.00  0.00     0.018 C 
BRANCH  25  35
HETATM   35  C9  UNL     1      43.416 -23.911  28.926  1.00  0.00     0.118 C 
BRANCH  35  36
HETATM   36  C10 UNL     1      44.662 -23.123  28.862  1.00  0.00     0.172 C 
HETATM   37  O2  UNL     1      45.779 -23.510  28.470  1.00  0.00    -0.648 OA
HETATM   38  O3  UNL     1      44.605 -21.777  29.285  1.00  0.00    -0.648 OA
ENDBRANCH  35  36
ENDBRANCH  25  35
ENDBRANCH   3  23
TORSDOF 8
ENDMDL
MODEL 4
REMARK VINA RESULT: -7.291798014      2.109      9.572
REMARK  8 active torsions:
REMARK  status: ('A' for Active; 'I' for Inactive)
REMARK    1  A    between atoms: C2_2  and  C3_3 
REMARK    2  A    between atoms: C3_3  and  N1_4 
REMARK    3  A    between atoms: N1_4  and  C4_7 
REMARK    4  A    between atoms: C4_7  and  C5_8 
REMARK       I    between atoms: C5_8  and  N2_10 
REMARK    5  A    between atoms: N2_10  and  C6_12 
REMARK    6  A    between atoms: C8_14  and  C9_15 
REMARK    7  A    between atoms: C9_15  and  C10_16 
REMARK    8  A    between atoms: C25_33  and  O4_34 
ROOT
HETATM    1  C5  UNL     1      37.525 -21.542  26.277  1.00  0.00     0.243 C 
HETATM    2  O1  UNL     1      36.295 -21.408  26.029  1.00  0.00    -0.272 OA
HETATM    3  N2  UNL     1      38.347 -22.565  25.766  1.00  0.00    -0.354 N 
ATOM      4  H2  UNL     1      39.324 -22.548  26.056  1.00  0.00     0.162 HD
ENDROOT
BRANCH   1   5
HETATM    5  C4  UNL     1      38.067 -20.498  27.182  1.00  0.00     0.335 C 
BRANCH   5   6
HETATM    6  N1  UNL     1      37.151 -19.411  27.399  1.00  0.00    -0.054 N 
ATOM      7  H12 UNL     1      36.862 -19.368  28.377  1.00  0.00     0.279 HD
ATOM      8  H11 UNL     1      36.248 -19.605  26.967  1.00  0.00     0.279 HD
BRANCH   6   9
HETATM    9  C3  UNL     1      37.672 -18.131  26.956  1.00  0.00     0.147 C 
HETATM   10  C20 UNL     1      39.084 -18.061  27.593  1.00  0.00     0.043 C 
HETATM   11  C21 UNL     1      39.726 -16.854  26.947  1.00  0.00     0.004 C 
HETATM   12  C22 UNL     1      39.020 -15.641  27.448  1.00  0.00     0.012 C 
HETATM   13  C23 UNL     1      37.549 -15.681  27.528  1.00  0.00    -0.012 C 
HETATM   14  C24 UNL     1      36.990 -14.632  26.549  1.00  0.00     0.018 C 
HETATM   15  C25 UNL     1      37.163 -15.118  28.910  1.00  0.00     0.126 C 
HETATM   16  C28 UNL     1      36.859 -16.983  27.413  1.00  0.00     0.036 C 
HETATM   17  C26 UNL     1      35.912 -15.906  29.282  1.00  0.00     0.033 C 
HETATM   18  C27 UNL     1      36.368 -17.294  28.811  1.00  0.00     0.011 C 
BRANCH   9  19
HETATM   19  C2  UNL     1      37.924 -18.243  25.509  1.00  0.00     0.002 C 
HETATM   20  C1  UNL     1      37.049 -18.120  24.545  1.00  0.00     0.009 C 
ENDBRANCH   9  19
BRANCH  15  21
HETATM   21  O4  UNL     1      38.107 -15.384  29.869  1.00  0.00    -0.395 OA
ATOM     22  H4  UNL     1      38.893 -15.776  29.509  1.00  0.00     0.210 HD
ENDBRANCH  15  21
ENDBRANCH   6   9
ENDBRANCH   5   6
ENDBRANCH   1   5
BRANCH   3  23
HETATM   23  C6  UNL     1      37.965 -23.620  24.892  1.00  0.00     0.093 C 
HETATM   24  C7  UNL     1      37.157 -24.738  25.479  1.00  0.00     0.031 C 
HETATM   25  C8  UNL     1      37.297 -25.833  24.419  1.00  0.00     0.003 C 
HETATM   26  C11 UNL     1      38.733 -25.717  24.079  1.00  0.00     0.008 C 
HETATM   27  C12 UNL     1      39.291 -26.492  22.959  1.00  0.00    -0.043 C 
HETATM   28  C18 UNL     1      39.117 -24.261  24.136  1.00  0.00    -0.019 C 
HETATM   29  C13 UNL     1      40.715 -26.926  23.363  1.00  0.00     0.015 C 
HETATM   30  C14 UNL     1      38.526 -27.778  22.748  1.00  0.00     0.015 C 
HETATM   31  C15 UNL     1      39.407 -25.806  21.636  1.00  0.00     0.009 C 
HETATM   32  C16 UNL     1      39.044 -24.358  21.613  1.00  0.00     0.002 C 
HETATM   33  C17 UNL     1      39.379 -23.599  22.836  1.00  0.00     0.011 C 
HETATM   34  C19 UNL     1      40.400 -24.071  24.973  1.00  0.00     0.018 C 
BRANCH  25  35
HETATM   35  C9  UNL     1      36.254 -25.689  23.425  1.00  0.00     0.118 C 
BRANCH  35  36
HETATM   36  C10 UNL     1      34.928 -26.057  23.959  1.00  0.00     0.172 C 
HETATM   37  O2  UNL     1      34.068 -25.291  24.433  1.00  0.00    -0.648 OA
HETATM   38  O3  UNL     1      34.572 -27.423  23.938  1.00  0.00    -0.648 OA
ENDBRANCH  35  36
ENDBRANCH  25  35
ENDBRANCH   3  23
TORSDOF 8
ENDMDL
MODEL 5
REMARK VINA RESULT: -7.278313268      5.294      8.681
REMARK  8 active torsions:
REMARK  status: ('A' for Active; 'I' for Inactive)
REMARK    1  A    between atoms: C2_2  and  C3_3 
REMARK    2  A    between atoms: C3_3  and  N1_4 
REMARK    3  A    between atoms: N1_4  and  C4_7 
REMARK    4  A    between atoms: C4_7  and  C5_8 
REMARK       I    between atoms: C5_8  and  N2_10 
REMARK    5  A    between atoms: N2_10  and  C6_12 
REMARK    6  A    between atoms: C8_14  and  C9_15 
REMARK    7  A    between atoms: C9_15  and  C10_16 
REMARK    8  A    between atoms: C25_33  and  O4_34 
ROOT
HETATM    1  C5  UNL     1      39.204 -21.108  27.700  1.00  0.00     0.243 C 
HETATM    2  O1  UNL     1      38.966 -21.568  28.851  1.00  0.00    -0.272 OA
HETATM    3  N2  UNL     1      40.477 -21.041  27.103  1.00  0.00    -0.354 N 
ATOM      4  H2  UNL     1      40.517 -20.641  26.166  1.00  0.00     0.162 HD
ENDROOT
BRANCH   1   5
HETATM    5  C4  UNL     1      37.993 -20.625  26.990  1.00  0.00     0.335 C 
BRANCH   5   6
HETATM    6  N1  UNL     1      37.374 -19.499  27.636  1.00  0.00    -0.054 N 
ATOM      7  H12 UNL     1      37.516 -19.536  28.646  1.00  0.00     0.279 HD
ATOM      8  H11 UNL     1      36.358 -19.577  27.607  1.00  0.00     0.279 HD
BRANCH   6   9
HETATM    9  C3  UNL     1      37.811 -18.224  27.097  1.00  0.00     0.147 C 
HETATM   10  C20 UNL     1      39.216 -18.018  27.719  1.00  0.00     0.043 C 
HETATM   11  C21 UNL     1      39.779 -16.823  26.982  1.00  0.00     0.004 C 
HETATM   12  C22 UNL     1      38.997 -15.624  27.396  1.00  0.00     0.012 C 
HETATM   13  C23 UNL     1      37.531 -15.752  27.488  1.00  0.00    -0.012 C 
HETATM   14  C24 UNL     1      36.905 -14.816  26.437  1.00  0.00     0.018 C 
HETATM   15  C25 UNL     1      37.112 -15.114  28.826  1.00  0.00     0.126 C 
HETATM   16  C28 UNL     1      36.927 -17.100  27.473  1.00  0.00     0.036 C 
HETATM   17  C26 UNL     1      35.915 -15.951  29.263  1.00  0.00     0.033 C 
HETATM   18  C27 UNL     1      36.458 -17.338  28.893  1.00  0.00     0.011 C 
BRANCH   9  19
HETATM   19  C2  UNL     1      38.068 -18.427  25.661  1.00  0.00     0.002 C 
HETATM   20  C1  UNL     1      37.269 -18.135  24.668  1.00  0.00     0.009 C 
ENDBRANCH   9  19
BRANCH  15  21
HETATM   21  O4  UNL     1      38.071 -15.248  29.797  1.00  0.00    -0.395 OA
ATOM     22  H4  UNL     1      37.711 -15.202  30.675  1.00  0.00     0.210 HD
ENDBRANCH  15  21
ENDBRANCH   6   9
ENDBRANCH   5   6
ENDBRANCH   1   5
BRANCH   3  23
HETATM   23  C6  UNL     1      41.713 -21.468  27.661  1.00  0.00     0.093 C 
HETATM   24  C7  UNL     1      42.098 -20.896  28.993  1.00  0.00     0.031 C 
HETATM   25  C8  UNL     1      43.591 -21.223  29.069  1.00  0.00     0.003 C 
HETATM   26  C11 UNL     1      44.023 -20.906  27.688  1.00  0.00     0.008 C 
HETATM   27  C12 UNL     1      45.390 -21.228  27.250  1.00  0.00    -0.043 C 
HETATM   28  C18 UNL     1      42.914 -21.294  26.745  1.00  0.00    -0.019 C 
HETATM   29  C13 UNL     1      45.851 -20.096  26.309  1.00  0.00     0.015 C 
HETATM   30  C14 UNL     1      46.358 -21.201  28.411  1.00  0.00     0.015 C 
HETATM   31  C15 UNL     1      45.593 -22.513  26.514  1.00  0.00     0.009 C 
HETATM   32  C16 UNL     1      44.359 -23.291  26.199  1.00  0.00     0.002 C 
HETATM   33  C17 UNL     1      43.157 -22.486  25.899  1.00  0.00     0.011 C 
HETATM   34  C19 UNL     1      42.603 -20.139  25.769  1.00  0.00     0.018 C 
BRANCH  25  35
HETATM   35  C9  UNL     1      43.776 -22.535  29.654  1.00  0.00     0.118 C 
BRANCH  35  36
HETATM   36  C10 UNL     1      44.364 -22.460  31.005  1.00  0.00     0.172 C 
HETATM   37  O2  UNL     1      44.619 -23.410  31.769  1.00  0.00    -0.648 OA
HETATM   38  O3  UNL     1      44.683 -21.180  31.508  1.00  0.00    -0.648 OA
ENDBRANCH  35  36
ENDBRANCH  25  35
ENDBRANCH   3  23
TORSDOF 8
ENDMDL
