MODEL 1
REMARK VINA RESULT: -8.770485993      0.000      0.000
REMARK  10 active torsions:
REMARK  status: ('A' for Active; 'I' for Inactive)
REMARK    1  A    between atoms: C2_2  and  N1_3 
REMARK    2  A    between atoms: N1_3  and  C4_5 
REMARK    3  A    between atoms: C7_9  and  C8_10 
REMARK    4  A    between atoms: C11_13  and  O1_14 
REMARK    5  A    between atoms: C13_16  and  C14_17 
REMARK    6  A    between atoms: C14_17  and  C15_18 
REMARK    7  A    between atoms: C15_18  and  O2_19 
REMARK    8  A    between atoms: O2_19  and  C16_20 
REMARK    9  A    between atoms: C19_23  and  C20_24 
REMARK   10  A    between atoms: C22_27  and  N3_28 
ROOT
HETATM    1  C8  UNL     1      -0.760   8.207 -19.394  1.00  0.00     0.016 A 
HETATM    2  C9  UNL     1      -0.410   8.101 -18.046  1.00  0.00    -0.014 A 
HETATM    3  C10 UNL     1      -1.023   9.172 -17.190  1.00  0.00     0.052 C 
HETATM    4  C11 UNL     1       0.213   7.038 -17.435  1.00  0.00     0.082 A 
HETATM    5  C13 UNL     1       0.512   5.974 -18.221  1.00  0.00    -0.003 A 
HETATM    6  C25 UNL     1       0.155   6.045 -19.612  1.00  0.00     0.043 A 
HETATM    7  S2  UNL     1       0.341   4.956 -20.907  1.00  0.00    -0.074 SA
HETATM    8  C26 UNL     1      -0.370   5.897 -22.162  1.00  0.00     0.048 A 
HETATM    9  C27 UNL     1      -0.556   5.518 -23.594  1.00  0.00     0.076 C 
HETATM   10  N5  UNL     1      -0.711   6.994 -21.511  1.00  0.00    -0.352 N 
ATOM     11  H5  UNL     1      -1.172   7.756 -22.009  1.00  0.00     0.166 HD
HETATM   12  C28 UNL     1      -0.461   7.111 -20.219  1.00  0.00     0.063 A 
ENDROOT
BRANCH   5  13
HETATM   13  C14 UNL     1       1.195   4.722 -17.943  1.00  0.00     0.070 C 
BRANCH  13  14
HETATM   14  C15 UNL     1       2.725   4.726 -17.902  1.00  0.00     0.180 C 
BRANCH  14  15
HETATM   15  O2  UNL     1       3.157   3.479 -17.456  1.00  0.00    -0.348 OA
BRANCH  15  16
HETATM   16  C16 UNL     1       3.810   3.327 -16.228  1.00  0.00     0.107 A 
HETATM   17  C17 UNL     1       5.139   3.476 -15.988  1.00  0.00     0.041 A 
HETATM   18  C18 UNL     1       5.661   3.283 -14.697  1.00  0.00     0.017 A 
HETATM   19  C19 UNL     1       4.828   2.935 -13.680  1.00  0.00    -0.006 A 
HETATM   20  C23 UNL     1       3.478   2.781 -13.884  1.00  0.00     0.059 A 
HETATM   21  C24 UNL     1       2.992   2.986 -15.150  1.00  0.00     0.150 A 
HETATM   22  F1  UNL     1       1.667   2.832 -15.381  1.00  0.00    -0.203 F 
BRANCH  19  23
HETATM   23  C20 UNL     1       5.331   2.807 -12.276  1.00  0.00     0.051 A 
HETATM   24  C21 UNL     1       6.355   3.624 -11.848  1.00  0.00     0.083 A 
HETATM   25  S1  UNL     1       6.478   3.187 -10.207  1.00  0.00    -0.064 SA
HETATM   26  C22 UNL     1       5.253   2.013 -10.155  1.00  0.00     0.142 A 
HETATM   27  N4  UNL     1       4.793   2.007 -11.407  1.00  0.00    -0.336 N 
ATOM     28  H4  UNL     1       4.031   1.385 -11.677  1.00  0.00     0.168 HD
BRANCH  26  29
HETATM   29  N3  UNL     1       4.841   1.224  -9.176  1.00  0.00    -0.380 N 
ATOM     30  H32 UNL     1       3.870   1.075  -8.900  1.00  0.00     0.158 HD
ATOM     31  H31 UNL     1       5.353   0.598  -8.554  1.00  0.00     0.158 HD
ENDBRANCH  26  29
ENDBRANCH  19  23
ENDBRANCH  15  16
ENDBRANCH  14  15
ENDBRANCH  13  14
ENDBRANCH   5  13
BRANCH   4  32
HETATM   32  O1  UNL     1       0.469   7.110 -16.076  1.00  0.00    -0.355 OA
HETATM   33  C12 UNL     1       1.685   7.432 -15.477  1.00  0.00     0.210 C 
ENDBRANCH   4  32
BRANCH   1  34
HETATM   34  C7  UNL     1      -1.055   9.586 -19.764  1.00  0.00     0.100 C 
HETATM   35  N2  UNL     1      -2.123  10.154 -20.308  1.00  0.00    -0.389 N 
HETATM   36  C6  UNL     1      -1.976  11.618 -20.202  1.00  0.00     0.124 C 
HETATM   37  C29 UNL     1      -3.157   9.760 -21.067  1.00  0.00     0.124 C 
HETATM   38  C5  UNL     1      -3.080  12.352 -20.872  1.00  0.00     0.055 C 
HETATM   39  C4  UNL     1      -4.431  11.842 -20.422  1.00  0.00     0.225 C 
HETATM   40  C30 UNL     1      -4.483  10.370 -20.548  1.00  0.00     0.055 C 
BRANCH  39  41
HETATM   41  N1  UNL     1      -5.407  12.567 -21.242  1.00  0.00     0.088 N 
HETATM   42  C3  UNL     1      -4.713  13.234 -22.328  1.00  0.00     0.310 C 
BRANCH  41  43
HETATM   43  C2  UNL     1      -6.518  11.769 -21.636  1.00  0.00     0.268 C 
HETATM   44  C1  UNL     1      -7.542  12.563 -22.400  1.00  0.00     0.037 C 
ENDBRANCH  41  43
ENDBRANCH  39  41
ENDBRANCH   1  34
TORSDOF 10
ENDMDL
MODEL 2
REMARK VINA RESULT: -8.709694396      4.408     11.714
REMARK  10 active torsions:
REMARK  status: ('A' for Active; 'I' for Inactive)
REMARK    1  A    between atoms: C2_2  and  N1_3 
REMARK    2  A    between atoms: N1_3  and  C4_5 
REMARK    3  A    between atoms: C7_9  and  C8_10 
REMARK    4  A    between atoms: C11_13  and  O1_14 
REMARK    5  A    between atoms: C13_16  and  C14_17 
REMARK    6  A    between atoms: C14_17  and  C15_18 
REMARK    7  A    between atoms: C15_18  and  O2_19 
REMARK    8  A    between atoms: O2_19  and  C16_20 
REMARK    9  A    between atoms: C19_23  and  C20_24 
REMARK   10  A    between atoms: C22_27  and  N3_28 
ROOT
HETATM    1  C8  UNL     1       0.168   4.812 -20.903  1.00  0.00     0.016 A 
HETATM    2  C9  UNL     1      -0.258   6.004 -21.496  1.00  0.00    -0.014 A 
HETATM    3  C10 UNL     1      -1.181   5.788 -22.660  1.00  0.00     0.052 C 
HETATM    4  C11 UNL     1      -0.103   7.276 -20.997  1.00  0.00     0.082 A 
HETATM    5  C13 UNL     1       0.518   7.388 -19.796  1.00  0.00    -0.003 A 
HETATM    6  C25 UNL     1       0.958   6.180 -19.153  1.00  0.00     0.043 A 
HETATM    7  S2  UNL     1       1.752   5.884 -17.676  1.00  0.00    -0.074 SA
HETATM    8  C26 UNL     1       1.861   4.167 -17.761  1.00  0.00     0.048 A 
HETATM    9  C27 UNL     1       2.446   3.238 -16.751  1.00  0.00     0.076 C 
HETATM   10  N5  UNL     1       1.277   3.921 -18.920  1.00  0.00    -0.352 N 
ATOM     11  H5  UNL     1       1.187   2.959 -19.248  1.00  0.00     0.166 HD
HETATM   12  C28 UNL     1       0.808   4.912 -19.658  1.00  0.00     0.063 A 
ENDROOT
BRANCH   5  13
HETATM   13  C14 UNL     1       0.891   8.544 -18.999  1.00  0.00     0.070 C 
BRANCH  13  14
HETATM   14  C15 UNL     1      -0.176   9.177 -18.102  1.00  0.00     0.180 C 
BRANCH  14  15
HETATM   15  O2  UNL     1      -0.489  10.435 -18.612  1.00  0.00    -0.348 OA
BRANCH  15  16
HETATM   16  C16 UNL     1      -1.735  10.701 -19.190  1.00  0.00     0.107 A 
HETATM   17  C17 UNL     1      -2.952  10.329 -18.712  1.00  0.00     0.041 A 
HETATM   18  C18 UNL     1      -4.128  10.662 -19.408  1.00  0.00     0.017 A 
HETATM   19  C19 UNL     1      -4.046  11.356 -20.574  1.00  0.00    -0.006 A 
HETATM   20  C23 UNL     1      -2.834  11.754 -21.084  1.00  0.00     0.059 A 
HETATM   21  C24 UNL     1      -1.703  11.427 -20.382  1.00  0.00     0.150 A 
HETATM   22  F1  UNL     1      -0.494  11.798 -20.866  1.00  0.00    -0.203 F 
BRANCH  19  23
HETATM   23  C20 UNL     1      -5.278  11.805 -21.296  1.00  0.00     0.051 A 
HETATM   24  C21 UNL     1      -5.240  12.962 -22.043  1.00  0.00     0.083 A 
HETATM   25  S1  UNL     1      -6.795  12.974 -22.734  1.00  0.00    -0.064 SA
HETATM   26  C22 UNL     1      -7.398  11.542 -22.050  1.00  0.00     0.142 A 
HETATM   27  N4  UNL     1      -6.373  11.108 -21.317  1.00  0.00    -0.336 N 
ATOM     28  H4  UNL     1      -6.448  10.243 -20.781  1.00  0.00     0.168 HD
BRANCH  26  29
HETATM   29  N3  UNL     1      -8.589  10.970 -22.131  1.00  0.00    -0.380 N 
ATOM     30  H32 UNL     1      -9.473  11.453 -22.290  1.00  0.00     0.158 HD
ATOM     31  H31 UNL     1      -8.868   9.989 -22.101  1.00  0.00     0.158 HD
ENDBRANCH  26  29
ENDBRANCH  19  23
ENDBRANCH  15  16
ENDBRANCH  14  15
ENDBRANCH  13  14
ENDBRANCH   5  13
BRANCH   4  32
HETATM   32  O1  UNL     1      -0.605   8.340 -21.726  1.00  0.00    -0.355 OA
HETATM   33  C12 UNL     1       0.091   9.112 -22.654  1.00  0.00     0.210 C 
ENDBRANCH   4  32
BRANCH   1  34
HETATM   34  C7  UNL     1       0.177   3.712 -21.859  1.00  0.00     0.100 C 
HETATM   35  N2  UNL     1       1.146   2.918 -22.295  1.00  0.00    -0.389 N 
HETATM   36  C6  UNL     1       0.533   1.806 -23.046  1.00  0.00     0.124 C 
HETATM   37  C29 UNL     1       2.483   2.972 -22.389  1.00  0.00     0.124 C 
HETATM   38  C5  UNL     1       1.544   0.908 -23.662  1.00  0.00     0.055 C 
HETATM   39  C4  UNL     1       2.574   0.462 -22.647  1.00  0.00     0.225 C 
HETATM   40  C30 UNL     1       3.121   1.636 -21.934  1.00  0.00     0.055 C 
BRANCH  39  41
HETATM   41  N1  UNL     1       3.558  -0.310 -23.413  1.00  0.00     0.088 N 
HETATM   42  C3  UNL     1       2.989  -0.656 -24.703  1.00  0.00     0.310 C 
BRANCH  41  43
HETATM   43  C2  UNL     1       4.842   0.303 -23.463  1.00  0.00     0.268 C 
HETATM   44  C1  UNL     1       5.920  -0.676 -23.840  1.00  0.00     0.037 C 
ENDBRANCH  41  43
ENDBRANCH  39  41
ENDBRANCH   1  34
TORSDOF 10
ENDMDL
MODEL 3
REMARK VINA RESULT: -8.642114065      3.131     12.156
REMARK  10 active torsions:
REMARK  status: ('A' for Active; 'I' for Inactive)
REMARK    1  A    between atoms: C2_2  and  N1_3 
REMARK    2  A    between atoms: N1_3  and  C4_5 
REMARK    3  A    between atoms: C7_9  and  C8_10 
REMARK    4  A    between atoms: C11_13  and  O1_14 
REMARK    5  A    between atoms: C13_16  and  C14_17 
REMARK    6  A    between atoms: C14_17  and  C15_18 
REMARK    7  A    between atoms: C15_18  and  O2_19 
REMARK    8  A    between atoms: O2_19  and  C16_20 
REMARK    9  A    between atoms: C19_23  and  C20_24 
REMARK   10  A    between atoms: C22_27  and  N3_28 
ROOT
HETATM    1  C8  UNL     1       1.823   4.838 -16.250  1.00  0.00     0.016 A 
HETATM    2  C9  UNL     1       1.340   6.052 -15.756  1.00  0.00    -0.014 A 
HETATM    3  C10 UNL     1       1.885   6.397 -14.400  1.00  0.00     0.052 C 
HETATM    4  C11 UNL     1       0.640   7.008 -16.454  1.00  0.00     0.082 A 
HETATM    5  C13 UNL     1       0.401   6.753 -17.764  1.00  0.00    -0.003 A 
HETATM    6  C25 UNL     1       0.895   5.517 -18.308  1.00  0.00     0.043 A 
HETATM    7  S2  UNL     1       0.818   4.830 -19.864  1.00  0.00    -0.074 SA
HETATM    8  C26 UNL     1       1.666   3.362 -19.559  1.00  0.00     0.048 A 
HETATM    9  C27 UNL     1       1.986   2.274 -20.529  1.00  0.00     0.076 C 
HETATM   10  N5  UNL     1       1.962   3.487 -18.278  1.00  0.00    -0.352 N 
ATOM     11  H5  UNL     1       2.483   2.749 -17.804  1.00  0.00     0.166 HD
HETATM   12  C28 UNL     1       1.587   4.561 -17.606  1.00  0.00     0.063 A 
ENDROOT
BRANCH   5  13
HETATM   13  C14 UNL     1      -0.328   7.491 -18.781  1.00  0.00     0.070 C 
BRANCH  13  14
HETATM   14  C15 UNL     1       0.203   8.865 -19.198  1.00  0.00     0.180 C 
BRANCH  14  15
HETATM   15  O2  UNL     1      -0.657   9.839 -18.698  1.00  0.00    -0.348 OA
BRANCH  15  16
HETATM   16  C16 UNL     1      -1.714  10.346 -19.463  1.00  0.00     0.107 A 
HETATM   17  C17 UNL     1      -1.680  10.679 -20.780  1.00  0.00     0.041 A 
HETATM   18  C18 UNL     1      -2.824  11.187 -21.421  1.00  0.00     0.017 A 
HETATM   19  C19 UNL     1      -3.973  11.354 -20.714  1.00  0.00    -0.006 A 
HETATM   20  C23 UNL     1      -4.046  11.021 -19.383  1.00  0.00     0.059 A 
HETATM   21  C24 UNL     1      -2.920  10.518 -18.783  1.00  0.00     0.150 A 
HETATM   22  F1  UNL     1      -2.961  10.191 -17.470  1.00  0.00    -0.203 F 
BRANCH  19  23
HETATM   23  C20 UNL     1      -5.234  11.808 -21.380  1.00  0.00     0.051 A 
HETATM   24  C21 UNL     1      -5.232  12.983 -22.099  1.00  0.00     0.083 A 
HETATM   25  S1  UNL     1      -6.812  12.997 -22.734  1.00  0.00    -0.064 SA
HETATM   26  C22 UNL     1      -7.377  11.543 -22.066  1.00  0.00     0.142 A 
HETATM   27  N4  UNL     1      -6.322  11.101 -21.380  1.00  0.00    -0.336 N 
ATOM     28  H4  UNL     1      -6.370  10.223 -20.864  1.00  0.00     0.168 HD
BRANCH  26  29
HETATM   29  N3  UNL     1      -8.564  10.961 -22.118  1.00  0.00    -0.380 N 
ATOM     30  H32 UNL     1      -8.961  10.489 -22.931  1.00  0.00     0.158 HD
ATOM     31  H31 UNL     1      -9.279  10.822 -21.403  1.00  0.00     0.158 HD
ENDBRANCH  26  29
ENDBRANCH  19  23
ENDBRANCH  15  16
ENDBRANCH  14  15
ENDBRANCH  13  14
ENDBRANCH   5  13
BRANCH   4  32
HETATM   32  O1  UNL     1       0.253   8.162 -15.794  1.00  0.00    -0.355 OA
HETATM   33  C12 UNL     1      -1.006   8.430 -15.260  1.00  0.00     0.210 C 
ENDBRANCH   4  32
BRANCH   1  34
HETATM   34  C7  UNL     1       2.178   3.924 -15.171  1.00  0.00     0.100 C 
HETATM   35  N2  UNL     1       3.339   3.619 -14.607  1.00  0.00    -0.389 N 
HETATM   36  C6  UNL     1       3.071   2.843 -13.381  1.00  0.00     0.124 C 
HETATM   37  C29 UNL     1       4.635   3.667 -14.953  1.00  0.00     0.124 C 
HETATM   38  C5  UNL     1       4.315   2.368 -12.723  1.00  0.00     0.055 C 
HETATM   39  C4  UNL     1       5.298   3.501 -12.523  1.00  0.00     0.225 C 
HETATM   40  C30 UNL     1       5.494   4.231 -13.794  1.00  0.00     0.055 C 
BRANCH  39  41
HETATM   41  N1  UNL     1       6.505   2.870 -11.980  1.00  0.00     0.088 N 
HETATM   42  C3  UNL     1       7.665   3.647 -12.377  1.00  0.00     0.310 C 
BRANCH  41  43
HETATM   43  C2  UNL     1       6.416   2.585 -10.588  1.00  0.00     0.268 C 
HETATM   44  C1  UNL     1       6.167   3.825  -9.773  1.00  0.00     0.037 C 
ENDBRANCH  41  43
ENDBRANCH  39  41
ENDBRANCH   1  34
TORSDOF 10
ENDMDL
MODEL 4
REMARK VINA RESULT: -8.491074282      4.584     11.272
REMARK  10 active torsions:
REMARK  status: ('A' for Active; 'I' for Inactive)
REMARK    1  A    between atoms: C2_2  and  N1_3 
REMARK    2  A    between atoms: N1_3  and  C4_5 
REMARK    3  A    between atoms: C7_9  and  C8_10 
REMARK    4  A    between atoms: C11_13  and  O1_14 
REMARK    5  A    between atoms: C13_16  and  C14_17 
REMARK    6  A    between atoms: C14_17  and  C15_18 
REMARK    7  A    between atoms: C15_18  and  O2_19 
REMARK    8  A    between atoms: O2_19  and  C16_20 
REMARK    9  A    between atoms: C19_23  and  C20_24 
REMARK   10  A    between atoms: C22_27  and  N3_28 
ROOT
HETATM    1  C8  UNL     1       2.014   5.654 -19.938  1.00  0.00     0.016 A 
HETATM    2  C9  UNL     1       2.233   5.921 -18.584  1.00  0.00    -0.014 A 
HETATM    3  C10 UNL     1       3.634   5.609 -18.140  1.00  0.00     0.052 C 
HETATM    4  C11 UNL     1       1.405   6.616 -17.735  1.00  0.00     0.082 A 
HETATM    5  C13 UNL     1       0.258   7.106 -18.267  1.00  0.00    -0.003 A 
HETATM    6  C25 UNL     1       0.007   6.860 -19.662  1.00  0.00     0.043 A 
HETATM    7  S2  UNL     1      -1.274   7.291 -20.696  1.00  0.00    -0.074 SA
HETATM    8  C26 UNL     1      -0.710   6.566 -22.152  1.00  0.00     0.048 A 
HETATM    9  C27 UNL     1      -1.363   6.582 -23.494  1.00  0.00     0.076 C 
HETATM   10  N5  UNL     1       0.434   6.035 -21.758  1.00  0.00    -0.352 N 
ATOM     11  H5  UNL     1       1.013   5.527 -22.427  1.00  0.00     0.166 HD
HETATM   12  C28 UNL     1       0.833   6.158 -20.505  1.00  0.00     0.063 A 
ENDROOT
BRANCH   5  13
HETATM   13  C14 UNL     1      -0.853   7.833 -17.680  1.00  0.00     0.070 C 
BRANCH  13  14
HETATM   14  C15 UNL     1      -0.605   9.262 -17.190  1.00  0.00     0.180 C 
BRANCH  14  15
HETATM   15  O2  UNL     1      -0.622  10.114 -18.292  1.00  0.00    -0.348 OA
BRANCH  15  16
HETATM   16  C16 UNL     1      -1.819  10.471 -18.923  1.00  0.00     0.107 A 
HETATM   17  C17 UNL     1      -3.078  10.285 -18.448  1.00  0.00     0.041 A 
HETATM   18  C18 UNL     1      -4.196  10.689 -19.199  1.00  0.00     0.017 A 
HETATM   19  C19 UNL     1      -4.015  11.265 -20.418  1.00  0.00    -0.006 A 
HETATM   20  C23 UNL     1      -2.756  11.475 -20.927  1.00  0.00     0.059 A 
HETATM   21  C24 UNL     1      -1.682  11.082 -20.170  1.00  0.00     0.150 A 
HETATM   22  F1  UNL     1      -0.431  11.268 -20.653  1.00  0.00    -0.203 F 
BRANCH  19  23
HETATM   23  C20 UNL     1      -5.173  11.788 -21.207  1.00  0.00     0.051 A 
HETATM   24  C21 UNL     1      -5.023  12.943 -21.943  1.00  0.00     0.083 A 
HETATM   25  S1  UNL     1      -6.533  13.049 -22.724  1.00  0.00    -0.064 SA
HETATM   26  C22 UNL     1      -7.258  11.654 -22.085  1.00  0.00     0.142 A 
HETATM   27  N4  UNL     1      -6.305  11.158 -21.296  1.00  0.00    -0.336 N 
ATOM     28  H4  UNL     1      -6.461  10.297 -20.771  1.00  0.00     0.168 HD
BRANCH  26  29
HETATM   29  N3  UNL     1      -8.473  11.153 -22.238  1.00  0.00    -0.380 N 
ATOM     30  H32 UNL     1      -9.295  11.669 -22.552  1.00  0.00     0.158 HD
ATOM     31  H31 UNL     1      -8.829  10.203 -22.130  1.00  0.00     0.158 HD
ENDBRANCH  26  29
ENDBRANCH  19  23
ENDBRANCH  15  16
ENDBRANCH  14  15
ENDBRANCH  13  14
ENDBRANCH   5  13
BRANCH   4  32
HETATM   32  O1  UNL     1       1.800   6.792 -16.419  1.00  0.00    -0.355 OA
HETATM   33  C12 UNL     1       1.298   6.121 -15.306  1.00  0.00     0.210 C 
ENDBRANCH   4  32
BRANCH   1  34
HETATM   34  C7  UNL     1       2.891   4.596 -20.424  1.00  0.00     0.100 C 
HETATM   35  N2  UNL     1       2.656   3.348 -20.808  1.00  0.00    -0.389 N 
HETATM   36  C6  UNL     1       3.870   2.827 -21.464  1.00  0.00     0.124 C 
HETATM   37  C29 UNL     1       1.710   2.422 -20.589  1.00  0.00     0.124 C 
HETATM   38  C5  UNL     1       3.743   1.397 -21.846  1.00  0.00     0.055 C 
HETATM   39  C4  UNL     1       2.474   1.150 -22.631  1.00  0.00     0.225 C 
HETATM   40  C30 UNL     1       1.315   1.717 -21.911  1.00  0.00     0.055 C 
BRANCH  39  41
HETATM   41  N1  UNL     1       2.425  -0.302 -22.835  1.00  0.00     0.088 N 
HETATM   42  C3  UNL     1       1.294  -0.845 -22.105  1.00  0.00     0.310 C 
BRANCH  41  43
HETATM   43  C2  UNL     1       2.500  -0.683 -24.204  1.00  0.00     0.268 C 
HETATM   44  C1  UNL     1       3.716  -1.520 -24.492  1.00  0.00     0.037 C 
ENDBRANCH  41  43
ENDBRANCH  39  41
ENDBRANCH   1  34
TORSDOF 10
ENDMDL
MODEL 5
REMARK VINA RESULT: -8.488835013      1.898      3.249
REMARK  10 active torsions:
REMARK  status: ('A' for Active; 'I' for Inactive)
REMARK    1  A    between atoms: C2_2  and  N1_3 
REMARK    2  A    between atoms: N1_3  and  C4_5 
REMARK    3  A    between atoms: C7_9  and  C8_10 
REMARK    4  A    between atoms: C11_13  and  O1_14 
REMARK    5  A    between atoms: C13_16  and  C14_17 
REMARK    6  A    between atoms: C14_17  and  C15_18 
REMARK    7  A    between atoms: C15_18  and  O2_19 
REMARK    8  A    between atoms: O2_19  and  C16_20 
REMARK    9  A    between atoms: C19_23  and  C20_24 
REMARK   10  A    between atoms: C22_27  and  N3_28 
ROOT
HETATM    1  C8  UNL     1      -0.318   9.410 -20.115  1.00  0.00     0.016 A 
HETATM    2  C9  UNL     1       0.091   8.706 -21.250  1.00  0.00    -0.014 A 
HETATM    3  C10 UNL     1       0.360   9.595 -22.432  1.00  0.00     0.052 C 
HETATM    4  C11 UNL     1       0.470   7.386 -21.312  1.00  0.00     0.082 A 
HETATM    5  C13 UNL     1       0.457   6.694 -20.145  1.00  0.00    -0.003 A 
HETATM    6  C25 UNL     1       0.052   7.391 -18.955  1.00  0.00     0.043 A 
HETATM    7  S2  UNL     1      -0.096   6.909 -17.330  1.00  0.00    -0.074 SA
HETATM    8  C26 UNL     1      -0.638   8.395 -16.649  1.00  0.00     0.048 A 
HETATM    9  C27 UNL     1      -0.950   8.684 -15.219  1.00  0.00     0.076 C 
HETATM   10  N5  UNL     1      -0.672   9.177 -17.712  1.00  0.00    -0.352 N 
ATOM     11  H5  UNL     1      -0.961  10.151 -17.615  1.00  0.00     0.166 HD
HETATM   12  C28 UNL     1      -0.333   8.708 -18.900  1.00  0.00     0.063 A 
ENDROOT
BRANCH   5  13
HETATM   13  C14 UNL     1       0.742   5.303 -19.837  1.00  0.00     0.070 C 
BRANCH  13  14
HETATM   14  C15 UNL     1       2.158   4.939 -19.385  1.00  0.00     0.180 C 
BRANCH  14  15
HETATM   15  O2  UNL     1       2.107   3.714 -18.724  1.00  0.00    -0.348 OA
BRANCH  15  16
HETATM   16  C16 UNL     1       2.532   3.579 -17.398  1.00  0.00     0.107 A 
HETATM   17  C17 UNL     1       1.760   3.657 -16.282  1.00  0.00     0.041 A 
HETATM   18  C18 UNL     1       2.329   3.508 -15.005  1.00  0.00     0.017 A 
HETATM   19  C19 UNL     1       3.665   3.291 -14.884  1.00  0.00    -0.006 A 
HETATM   20  C23 UNL     1       4.476   3.199 -15.990  1.00  0.00     0.059 A 
HETATM   21  C24 UNL     1       3.896   3.337 -17.225  1.00  0.00     0.150 A 
HETATM   22  F1  UNL     1       4.673   3.261 -18.331  1.00  0.00    -0.203 F 
BRANCH  19  23
HETATM   23  C20 UNL     1       4.291   3.039 -13.548  1.00  0.00     0.051 A 
HETATM   24  C21 UNL     1       5.515   3.604 -13.259  1.00  0.00     0.083 A 
HETATM   25  S1  UNL     1       5.733   3.133 -11.637  1.00  0.00    -0.064 SA
HETATM   26  C22 UNL     1       4.293   2.261 -11.420  1.00  0.00     0.142 A 
HETATM   27  N4  UNL     1       3.697   2.371 -12.608  1.00  0.00    -0.336 N 
ATOM     28  H4  UNL     1       2.789   1.936 -12.775  1.00  0.00     0.168 HD
BRANCH  26  29
HETATM   29  N3  UNL     1       3.835   1.573 -10.386  1.00  0.00    -0.380 N 
ATOM     30  H32 UNL     1       4.129   0.633 -10.119  1.00  0.00     0.158 HD
ATOM     31  H31 UNL     1       3.172   1.822  -9.652  1.00  0.00     0.158 HD
ENDBRANCH  26  29
ENDBRANCH  19  23
ENDBRANCH  15  16
ENDBRANCH  14  15
ENDBRANCH  13  14
ENDBRANCH   5  13
BRANCH   4  32
HETATM   32  O1  UNL     1       0.860   6.863 -22.533  1.00  0.00    -0.355 OA
HETATM   33  C12 UNL     1       0.073   6.108 -23.401  1.00  0.00     0.210 C 
ENDBRANCH   4  32
BRANCH   1  34
HETATM   34  C7  UNL     1      -0.991  10.654 -20.470  1.00  0.00     0.100 C 
HETATM   35  N2  UNL     1      -2.230  10.916 -20.865  1.00  0.00    -0.389 N 
HETATM   36  C6  UNL     1      -2.434  12.376 -20.816  1.00  0.00     0.124 C 
HETATM   37  C29 UNL     1      -3.229  10.242 -21.455  1.00  0.00     0.124 C 
HETATM   38  C5  UNL     1      -3.766  12.783 -21.335  1.00  0.00     0.055 C 
HETATM   39  C4  UNL     1      -4.876  11.991 -20.680  1.00  0.00     0.225 C 
HETATM   40  C30 UNL     1      -4.581  10.545 -20.762  1.00  0.00     0.055 C 
BRANCH  39  41
HETATM   41  N1  UNL     1      -6.103  12.411 -21.365  1.00  0.00     0.088 N 
HETATM   42  C3  UNL     1      -5.748  13.135 -22.572  1.00  0.00     0.310 C 
BRANCH  41  43
HETATM   43  C2  UNL     1      -7.038  11.354 -21.547  1.00  0.00     0.268 C 
HETATM   44  C1  UNL     1      -8.289  11.820 -22.242  1.00  0.00     0.037 C 
ENDBRANCH  41  43
ENDBRANCH  39  41
ENDBRANCH   1  34
TORSDOF 10
ENDMDL
