MODEL 1
REMARK VINA RESULT: -8.255807696      0.000      0.000
REMARK  11 active torsions:
REMARK  status: ('A' for Active; 'I' for Inactive)
REMARK    1  A    between atoms: C2_2  and  C3_3 
REMARK    2  A    between atoms: C3_3  and  C4_4 
REMARK    3  A    between atoms: N1_6  and  C6_7 
REMARK    4  A    between atoms: C9_12  and  N3_13 
REMARK    5  A    between atoms: N6_29  and  C21_30 
REMARK    6  A    between atoms: C21_30  and  C22_31 
REMARK    7  A    between atoms: C24_33  and  O2_34 
REMARK    8  A    between atoms: O2_34  and  C25_35 
REMARK    9  A    between atoms: C28_38  and  N7_39 
REMARK   10  A    between atoms: N7_39  and  N8_41 
REMARK   11  A    between atoms: N8_41  and  N9_42 
ROOT
HETATM    1  C4  UNL     1       2.144   6.022 -16.945  1.00  0.00     0.127 C 
HETATM    2  C5  UNL     1       1.363   7.141 -17.522  1.00  0.00     0.107 C 
HETATM    3  N1  UNL     1      -0.029   7.150 -17.570  1.00  0.00    -0.195 N 
HETATM    4  C18 UNL     1      -0.907   6.968 -16.421  1.00  0.00     0.151 C 
HETATM    5  C19 UNL     1      -0.149   7.148 -15.141  1.00  0.00     0.065 C 
HETATM    6  C20 UNL     1       0.896   6.132 -14.841  1.00  0.00     0.066 C 
HETATM    7  N6  UNL     1       2.101   6.268 -15.455  1.00  0.00    -0.360 N 
ENDROOT
BRANCH   3   8
HETATM    8  C6  UNL     1      -0.644   7.552 -18.782  1.00  0.00     0.685 A 
HETATM    9  N2  UNL     1      -1.710   8.451 -18.832  1.00  0.00    -0.190 N 
HETATM   10  C7  UNL     1      -2.113   9.039 -19.955  1.00  0.00     0.065 A 
ATOM     11  H2  UNL     1      -2.203   8.668 -17.966  1.00  0.00     0.184 HD
HETATM   12  C8  UNL     1      -3.084   9.917 -20.159  1.00  0.00     0.060 A 
HETATM   13  C16 UNL     1      -1.406   8.729 -21.147  1.00  0.00     0.033 A 
HETATM   14  C9  UNL     1      -3.579  10.604 -21.164  1.00  0.00     0.032 A 
HETATM   15  C14 UNL     1      -2.809  10.312 -22.358  1.00  0.00     0.030 A 
HETATM   16  C15 UNL     1      -1.701   9.377 -22.373  1.00  0.00     0.019 A 
HETATM   17  C17 UNL     1      -0.427   7.854 -21.061  1.00  0.00     0.144 A 
HETATM   18  N4  UNL     1       0.092   7.248 -22.256  1.00  0.00    -0.081 NA
HETATM   19  N5  UNL     1      -0.025   7.261 -19.957  1.00  0.00    -0.178 N 
ATOM     20  H5  UNL     1       0.743   6.590 -19.983  1.00  0.00     0.185 HD
BRANCH  14  21
HETATM   21  N3  UNL     1      -4.674  11.481 -21.309  1.00  0.00    -0.377 N 
HETATM   22  C10 UNL     1      -4.383  12.897 -21.617  1.00  0.00     0.149 C 
HETATM   23  C11 UNL     1      -5.340  13.267 -22.762  1.00  0.00     0.187 C 
HETATM   24  O1  UNL     1      -6.594  13.290 -22.152  1.00  0.00    -0.388 OA
HETATM   25  C12 UNL     1      -7.046  12.070 -21.717  1.00  0.00     0.187 C 
HETATM   26  C13 UNL     1      -6.055  11.071 -21.259  1.00  0.00     0.149 C 
ENDBRANCH  14  21
ENDBRANCH   3   8
BRANCH   1  27
HETATM   27  C3  UNL     1       1.731   4.669 -17.288  1.00  0.00     0.031 C 
BRANCH  27  28
HETATM   28  C2  UNL     1       2.835   3.635 -17.054  1.00  0.00    -0.002 C 
HETATM   29  C1  UNL     1       2.341   2.809 -15.831  1.00  0.00     0.005 C 
ENDBRANCH  27  28
ENDBRANCH   1  27
BRANCH   7  30
HETATM   30  C21 UNL     1       3.272   6.835 -15.074  1.00  0.00     0.105 C 
BRANCH  30  31
HETATM   31  C22 UNL     1       3.581   8.229 -14.872  1.00  0.00     0.021 A 
HETATM   32  C23 UNL     1       3.320   9.097 -13.855  1.00  0.00     0.055 A 
HETATM   33  C24 UNL     1       3.888  10.329 -13.742  1.00  0.00     0.099 A 
HETATM   34  C28 UNL     1       4.795  10.814 -14.707  1.00  0.00     0.099 A 
HETATM   35  C29 UNL     1       5.073   9.980 -15.772  1.00  0.00     0.078 A 
HETATM   36  C30 UNL     1       4.504   8.751 -15.846  1.00  0.00     0.130 A 
HETATM   37  F1  UNL     1       4.905   7.912 -16.833  1.00  0.00    -0.205 F 
BRANCH  33  38
HETATM   38  O2  UNL     1       3.716  11.174 -12.712  1.00  0.00    -0.344 OA
BRANCH  38  39
HETATM   39  C25 UNL     1       2.609  11.891 -12.264  1.00  0.00     0.120 C 
HETATM   40  C26 UNL     1       1.971  11.079 -11.170  1.00  0.00     0.040 C 
HETATM   41  C27 UNL     1       1.567  11.823 -13.459  1.00  0.00     0.040 C 
ENDBRANCH  38  39
ENDBRANCH  33  38
BRANCH  34  42
HETATM   42  N7  UNL     1       5.450  12.046 -14.532  1.00  0.00    -0.214 N 
ATOM     43  H7  UNL     1       5.713  12.318 -13.585  1.00  0.00     0.204 HD
BRANCH  42  44
HETATM   44  N8  UNL     1       5.725  12.816 -15.452  1.00  0.00    -0.243 NA
BRANCH  44  45
HETATM   45  N9  UNL     1       5.834  13.629 -16.367  1.00  0.00    -0.260 N 
ATOM     46  H92 UNL     1       5.247  12.992 -16.906  1.00  0.00     0.193 HD
ATOM     47  H91 UNL     1       6.004  14.380 -17.035  1.00  0.00     0.193 HD
ENDBRANCH  44  45
ENDBRANCH  42  44
ENDBRANCH  34  42
ENDBRANCH  30  31
ENDBRANCH   7  30
TORSDOF 11
ENDMDL
MODEL 2
REMARK VINA RESULT: -8.150770732      2.167      3.262
REMARK  11 active torsions:
REMARK  status: ('A' for Active; 'I' for Inactive)
REMARK    1  A    between atoms: C2_2  and  C3_3 
REMARK    2  A    between atoms: C3_3  and  C4_4 
REMARK    3  A    between atoms: N1_6  and  C6_7 
REMARK    4  A    between atoms: C9_12  and  N3_13 
REMARK    5  A    between atoms: N6_29  and  C21_30 
REMARK    6  A    between atoms: C21_30  and  C22_31 
REMARK    7  A    between atoms: C24_33  and  O2_34 
REMARK    8  A    between atoms: O2_34  and  C25_35 
REMARK    9  A    between atoms: C28_38  and  N7_39 
REMARK   10  A    between atoms: N7_39  and  N8_41 
REMARK   11  A    between atoms: N8_41  and  N9_42 
ROOT
HETATM    1  C4  UNL     1       1.665   8.604 -15.788  1.00  0.00     0.127 C 
HETATM    2  C5  UNL     1       0.338   8.529 -16.442  1.00  0.00     0.107 C 
HETATM    3  N1  UNL     1      -0.056   7.458 -17.240  1.00  0.00    -0.195 N 
HETATM    4  C18 UNL     1      -0.042   6.059 -16.832  1.00  0.00     0.151 C 
HETATM    5  C19 UNL     1       0.084   5.943 -15.343  1.00  0.00     0.065 C 
HETATM    6  C20 UNL     1       1.365   6.409 -14.748  1.00  0.00     0.066 C 
HETATM    7  N6  UNL     1       1.522   7.744 -14.555  1.00  0.00    -0.360 N 
ENDROOT
BRANCH   3   8
HETATM    8  C6  UNL     1      -0.695   7.754 -18.471  1.00  0.00     0.685 A 
HETATM    9  N2  UNL     1      -1.748   8.663 -18.580  1.00  0.00    -0.190 N 
HETATM   10  C7  UNL     1      -2.171   9.149 -19.744  1.00  0.00     0.065 A 
ATOM     11  H2  UNL     1      -2.216   8.969 -17.727  1.00  0.00     0.184 HD
HETATM   12  C8  UNL     1      -3.133  10.020 -20.007  1.00  0.00     0.060 A 
HETATM   13  C16 UNL     1      -1.499   8.715 -20.918  1.00  0.00     0.033 A 
HETATM   14  C9  UNL     1      -3.644  10.618 -21.060  1.00  0.00     0.032 A 
HETATM   15  C14 UNL     1      -2.908  10.202 -22.239  1.00  0.00     0.030 A 
HETATM   16  C15 UNL     1      -1.815   9.250 -22.193  1.00  0.00     0.019 A 
HETATM   17  C17 UNL     1      -0.531   7.836 -20.772  1.00  0.00     0.144 A 
HETATM   18  N4  UNL     1      -0.052   7.112 -21.916  1.00  0.00    -0.081 NA
HETATM   19  N5  UNL     1      -0.111   7.343 -19.627  1.00  0.00    -0.178 N 
ATOM     20  H5  UNL     1       0.647   6.660 -19.608  1.00  0.00     0.185 HD
BRANCH  14  21
HETATM   21  N3  UNL     1      -4.729  11.496 -21.262  1.00  0.00    -0.377 N 
HETATM   22  C10 UNL     1      -4.421  12.907 -21.576  1.00  0.00     0.149 C 
HETATM   23  C11 UNL     1      -5.328  13.265 -22.764  1.00  0.00     0.187 C 
HETATM   24  O1  UNL     1      -6.607  13.300 -22.206  1.00  0.00    -0.388 OA
HETATM   25  C12 UNL     1      -7.080  12.086 -21.776  1.00  0.00     0.187 C 
HETATM   26  C13 UNL     1      -6.112  11.091 -21.264  1.00  0.00     0.149 C 
ENDBRANCH  14  21
ENDBRANCH   3   8
BRANCH   1  27
HETATM   27  C3  UNL     1       2.826   8.230 -16.584  1.00  0.00     0.031 C 
BRANCH  27  28
HETATM   28  C2  UNL     1       3.054   9.164 -17.775  1.00  0.00    -0.002 C 
HETATM   29  C1  UNL     1       3.317  10.556 -17.133  1.00  0.00     0.005 C 
ENDBRANCH  27  28
ENDBRANCH   1  27
BRANCH   7  30
HETATM   30  C21 UNL     1       1.326   8.551 -13.484  1.00  0.00     0.105 C 
BRANCH  30  31
HETATM   31  C22 UNL     1       2.144   9.639 -13.005  1.00  0.00     0.021 A 
HETATM   32  C23 UNL     1       3.270  10.233 -13.491  1.00  0.00     0.055 A 
HETATM   33  C24 UNL     1       3.781  11.401 -13.012  1.00  0.00     0.099 A 
HETATM   34  C28 UNL     1       3.175  12.084 -11.937  1.00  0.00     0.099 A 
HETATM   35  C29 UNL     1       2.043  11.508 -11.395  1.00  0.00     0.078 A 
HETATM   36  C30 UNL     1       1.549  10.353 -11.906  1.00  0.00     0.130 A 
HETATM   37  F1  UNL     1       0.365   9.892 -11.435  1.00  0.00    -0.205 F 
BRANCH  33  38
HETATM   38  O2  UNL     1       4.839  12.054 -13.519  1.00  0.00    -0.344 OA
BRANCH  38  39
HETATM   39  C25 UNL     1       6.184  11.710 -13.636  1.00  0.00     0.120 C 
HETATM   40  C26 UNL     1       6.984  12.865 -13.099  1.00  0.00     0.040 C 
HETATM   41  C27 UNL     1       6.476  11.726 -15.196  1.00  0.00     0.040 C 
ENDBRANCH  38  39
ENDBRANCH  33  38
BRANCH  34  42
HETATM   42  N7  UNL     1       3.652  13.337 -11.514  1.00  0.00    -0.214 N 
ATOM     43  H7  UNL     1       3.753  14.072 -12.214  1.00  0.00     0.204 HD
BRANCH  42  44
HETATM   44  N8  UNL     1       3.956  13.601 -10.351  1.00  0.00    -0.243 NA
BRANCH  44  45
HETATM   45  N9  UNL     1       4.107  13.794  -9.147  1.00  0.00    -0.260 N 
ATOM     46  H92 UNL     1       3.964  12.790  -9.041  1.00  0.00     0.193 HD
ATOM     47  H91 UNL     1       4.251  14.092  -8.183  1.00  0.00     0.193 HD
ENDBRANCH  44  45
ENDBRANCH  42  44
ENDBRANCH  34  42
ENDBRANCH  30  31
ENDBRANCH   7  30
TORSDOF 11
ENDMDL
MODEL 3
REMARK VINA RESULT: -8.134881871      3.217      4.742
REMARK  11 active torsions:
REMARK  status: ('A' for Active; 'I' for Inactive)
REMARK    1  A    between atoms: C2_2  and  C3_3 
REMARK    2  A    between atoms: C3_3  and  C4_4 
REMARK    3  A    between atoms: N1_6  and  C6_7 
REMARK    4  A    between atoms: C9_12  and  N3_13 
REMARK    5  A    between atoms: N6_29  and  C21_30 
REMARK    6  A    between atoms: C21_30  and  C22_31 
REMARK    7  A    between atoms: C24_33  and  O2_34 
REMARK    8  A    between atoms: O2_34  and  C25_35 
REMARK    9  A    between atoms: C28_38  and  N7_39 
REMARK   10  A    between atoms: N7_39  and  N8_41 
REMARK   11  A    between atoms: N8_41  and  N9_42 
ROOT
HETATM    1  C4  UNL     1       2.083  10.955 -15.316  1.00  0.00     0.127 C 
HETATM    2  C5  UNL     1       0.764  10.394 -15.690  1.00  0.00     0.107 C 
HETATM    3  N1  UNL     1       0.595   9.090 -16.148  1.00  0.00    -0.195 N 
HETATM    4  C18 UNL     1       1.041   7.892 -15.448  1.00  0.00     0.151 C 
HETATM    5  C19 UNL     1       1.360   8.203 -14.017  1.00  0.00     0.065 C 
HETATM    6  C20 UNL     1       2.521   9.102 -13.776  1.00  0.00     0.066 C 
HETATM    7  N6  UNL     1       2.323  10.438 -13.916  1.00  0.00    -0.360 N 
ENDROOT
BRANCH   3   8
HETATM    8  C6  UNL     1      -0.235   8.891 -17.280  1.00  0.00     0.685 A 
HETATM    9  N2  UNL     1      -1.232   9.792 -17.659  1.00  0.00    -0.190 N 
HETATM   10  C7  UNL     1      -1.825   9.761 -18.849  1.00  0.00     0.065 A 
ATOM     11  H2  UNL     1      -1.519  10.508 -16.991  1.00  0.00     0.184 HD
HETATM   12  C8  UNL     1      -2.763  10.547 -19.357  1.00  0.00     0.060 A 
HETATM   13  C16 UNL     1      -1.403   8.762 -19.765  1.00  0.00     0.033 A 
HETATM   14  C9  UNL     1      -3.415  10.677 -20.490  1.00  0.00     0.032 A 
HETATM   15  C14 UNL     1      -2.931   9.681 -21.427  1.00  0.00     0.030 A 
HETATM   16  C15 UNL     1      -1.910   8.710 -21.089  1.00  0.00     0.019 A 
HETATM   17  C17 UNL     1      -0.483   7.915 -19.358  1.00  0.00     0.144 A 
HETATM   18  N4  UNL     1      -0.263   6.698 -20.089  1.00  0.00    -0.081 NA
HETATM   19  N5  UNL     1       0.105   7.932 -18.181  1.00  0.00    -0.178 N 
ATOM     20  H5  UNL     1       0.809   7.231 -17.947  1.00  0.00     0.185 HD
BRANCH  14  21
HETATM   21  N3  UNL     1      -4.462  11.513 -20.931  1.00  0.00    -0.377 N 
HETATM   22  C10 UNL     1      -4.121  12.906 -21.292  1.00  0.00     0.149 C 
HETATM   23  C11 UNL     1      -4.824  13.158 -22.636  1.00  0.00     0.187 C 
HETATM   24  O1  UNL     1      -6.178  13.202 -22.300  1.00  0.00    -0.388 OA
HETATM   25  C12 UNL     1      -6.702  12.012 -21.865  1.00  0.00     0.187 C 
HETATM   26  C13 UNL     1      -5.821  11.077 -21.129  1.00  0.00     0.149 C 
ENDBRANCH  14  21
ENDBRANCH   3   8
BRANCH   1  27
HETATM   27  C3  UNL     1       3.205  10.676 -16.201  1.00  0.00     0.031 C 
BRANCH  27  28
HETATM   28  C2  UNL     1       4.149  11.871 -16.354  1.00  0.00    -0.002 C 
HETATM   29  C1  UNL     1       5.312  11.577 -15.364  1.00  0.00     0.005 C 
ENDBRANCH  27  28
ENDBRANCH   1  27
BRANCH   7  30
HETATM   30  C21 UNL     1       2.032  11.426 -13.034  1.00  0.00     0.105 C 
BRANCH  30  31
HETATM   31  C22 UNL     1       2.736  11.805 -11.833  1.00  0.00     0.021 A 
HETATM   32  C23 UNL     1       3.620  12.803 -11.555  1.00  0.00     0.055 A 
HETATM   33  C24 UNL     1       4.013  13.142 -10.296  1.00  0.00     0.099 A 
HETATM   34  C28 UNL     1       3.536  12.449  -9.163  1.00  0.00     0.099 A 
HETATM   35  C29 UNL     1       2.654  11.412  -9.396  1.00  0.00     0.078 A 
HETATM   36  C30 UNL     1       2.268  11.111 -10.661  1.00  0.00     0.130 A 
HETATM   37  F1  UNL     1       1.302  10.177 -10.837  1.00  0.00    -0.205 F 
BRANCH  33  38
HETATM   38  O2  UNL     1       4.818  14.170  -9.982  1.00  0.00    -0.344 OA
BRANCH  38  39
HETATM   39  C25 UNL     1       4.678  15.547 -10.129  1.00  0.00     0.120 C 
HETATM   40  C26 UNL     1       5.628  15.974 -11.215  1.00  0.00     0.040 C 
HETATM   41  C27 UNL     1       5.296  16.165  -8.805  1.00  0.00     0.040 C 
ENDBRANCH  38  39
ENDBRANCH  33  38
BRANCH  34  42
HETATM   42  N7  UNL     1       3.871  12.868  -7.863  1.00  0.00    -0.214 N 
ATOM     43  H7  UNL     1       4.807  12.655  -7.519  1.00  0.00     0.204 HD
BRANCH  42  44
HETATM   44  N8  UNL     1       3.104  13.475  -7.117  1.00  0.00    -0.243 NA
BRANCH  44  45
HETATM   45  N9  UNL     1       2.353  14.213  -6.483  1.00  0.00    -0.260 N 
ATOM     46  H92 UNL     1       1.949  14.459  -7.386  1.00  0.00     0.193 HD
ATOM     47  H91 UNL     1       1.800  14.778  -5.839  1.00  0.00     0.193 HD
ENDBRANCH  44  45
ENDBRANCH  42  44
ENDBRANCH  34  42
ENDBRANCH  30  31
ENDBRANCH   7  30
TORSDOF 11
ENDMDL
MODEL 4
REMARK VINA RESULT: -8.012596782      1.249      1.492
REMARK  11 active torsions:
REMARK  status: ('A' for Active; 'I' for Inactive)
REMARK    1  A    between atoms: C2_2  and  C3_3 
REMARK    2  A    between atoms: C3_3  and  C4_4 
REMARK    3  A    between atoms: N1_6  and  C6_7 
REMARK    4  A    between atoms: C9_12  and  N3_13 
REMARK    5  A    between atoms: N6_29  and  C21_30 
REMARK    6  A    between atoms: C21_30  and  C22_31 
REMARK    7  A    between atoms: C24_33  and  O2_34 
REMARK    8  A    between atoms: O2_34  and  C25_35 
REMARK    9  A    between atoms: C28_38  and  N7_39 
REMARK   10  A    between atoms: N7_39  and  N8_41 
REMARK   11  A    between atoms: N8_41  and  N9_42 
ROOT
HETATM    1  C4  UNL     1       2.117   6.812 -15.874  1.00  0.00     0.127 C 
HETATM    2  C5  UNL     1       1.420   7.796 -16.734  1.00  0.00     0.107 C 
HETATM    3  N1  UNL     1       0.050   8.035 -16.658  1.00  0.00    -0.195 N 
HETATM    4  C18 UNL     1      -0.671   8.401 -15.446  1.00  0.00     0.151 C 
HETATM    5  C19 UNL     1       0.280   8.856 -14.381  1.00  0.00     0.065 C 
HETATM    6  C20 UNL     1       1.211   7.829 -13.840  1.00  0.00     0.066 C 
HETATM    7  N6  UNL     1       2.322   7.539 -14.566  1.00  0.00    -0.360 N 
ENDROOT
BRANCH   3   8
HETATM    8  C6  UNL     1      -0.672   8.116 -17.875  1.00  0.00     0.685 A 
HETATM    9  N2  UNL     1      -1.659   9.074 -18.111  1.00  0.00    -0.190 N 
HETATM   10  C7  UNL     1      -2.146   9.333 -19.322  1.00  0.00     0.065 A 
ATOM     11  H2  UNL     1      -2.024   9.601 -17.318  1.00  0.00     0.184 HD
HETATM   12  C8  UNL     1      -3.059  10.213 -19.705  1.00  0.00     0.060 A 
HETATM   13  C16 UNL     1      -1.616   8.594 -20.413  1.00  0.00     0.033 A 
HETATM   14  C9  UNL     1      -3.614  10.613 -20.827  1.00  0.00     0.032 A 
HETATM   15  C14 UNL     1      -3.021   9.884 -21.931  1.00  0.00     0.030 A 
HETATM   16  C15 UNL     1      -2.004   8.867 -21.749  1.00  0.00     0.019 A 
HETATM   17  C17 UNL     1      -0.709   7.680 -20.142  1.00  0.00     0.144 A 
HETATM   18  N4  UNL     1      -0.390   6.683 -21.126  1.00  0.00    -0.081 NA
HETATM   19  N5  UNL     1      -0.227   7.411 -18.949  1.00  0.00    -0.178 N 
ATOM     20  H5  UNL     1       0.475   6.680 -18.830  1.00  0.00     0.185 HD
BRANCH  14  21
HETATM   21  N3  UNL     1      -4.643  11.524 -21.143  1.00  0.00    -0.377 N 
HETATM   22  C10 UNL     1      -4.258  12.924 -21.423  1.00  0.00     0.149 C 
HETATM   23  C11 UNL     1      -5.023  13.306 -22.701  1.00  0.00     0.187 C 
HETATM   24  O1  UNL     1      -6.351  13.384 -22.282  1.00  0.00    -0.388 OA
HETATM   25  C12 UNL     1      -6.906  12.188 -21.904  1.00  0.00     0.187 C 
HETATM   26  C13 UNL     1      -6.030  11.164 -21.292  1.00  0.00     0.149 C 
ENDBRANCH  14  21
ENDBRANCH   3   8
BRANCH   1  27
HETATM   27  C3  UNL     1       1.479   5.516 -15.685  1.00  0.00     0.031 C 
BRANCH  27  28
HETATM   28  C2  UNL     1       2.413   4.483 -15.051  1.00  0.00    -0.002 C 
HETATM   29  C1  UNL     1       2.018   3.137 -15.722  1.00  0.00     0.005 C 
ENDBRANCH  27  28
ENDBRANCH   1  27
BRANCH   7  30
HETATM   30  C21 UNL     1       3.601   7.984 -14.512  1.00  0.00     0.105 C 
BRANCH  30  31
HETATM   31  C22 UNL     1       4.095   9.338 -14.578  1.00  0.00     0.021 A 
HETATM   32  C23 UNL     1       4.130  10.355 -13.674  1.00  0.00     0.055 A 
HETATM   33  C24 UNL     1       4.841  11.503 -13.847  1.00  0.00     0.099 A 
HETATM   34  C28 UNL     1       5.594  11.734 -15.018  1.00  0.00     0.099 A 
HETATM   35  C29 UNL     1       5.570  10.740 -15.976  1.00  0.00     0.078 A 
HETATM   36  C30 UNL     1       4.866   9.600 -15.765  1.00  0.00     0.130 A 
HETATM   37  F1  UNL     1       4.976   8.596 -16.669  1.00  0.00    -0.205 F 
BRANCH  33  38
HETATM   38  O2  UNL     1       4.963  12.488 -12.943  1.00  0.00    -0.344 OA
BRANCH  38  39
HETATM   39  C25 UNL     1       4.864  12.501 -11.553  1.00  0.00     0.120 C 
HETATM   40  C26 UNL     1       3.477  12.974 -11.214  1.00  0.00     0.040 C 
HETATM   41  C27 UNL     1       5.806  13.690 -11.088  1.00  0.00     0.040 C 
ENDBRANCH  38  39
ENDBRANCH  33  38
BRANCH  34  42
HETATM   42  N7  UNL     1       6.402  12.878 -15.146  1.00  0.00    -0.214 N 
ATOM     43  H7  UNL     1       7.213  12.962 -14.534  1.00  0.00     0.204 HD
BRANCH  42  44
HETATM   44  N8  UNL     1       6.190  13.783 -15.953  1.00  0.00    -0.243 NA
BRANCH  44  45
HETATM   45  N9  UNL     1       5.814  14.635 -16.754  1.00  0.00    -0.260 N 
ATOM     46  H92 UNL     1       6.503  14.237 -17.392  1.00  0.00     0.193 HD
ATOM     47  H91 UNL     1       5.411  15.385 -17.315  1.00  0.00     0.193 HD
ENDBRANCH  44  45
ENDBRANCH  42  44
ENDBRANCH  34  42
ENDBRANCH  30  31
ENDBRANCH   7  30
TORSDOF 11
ENDMDL
MODEL 5
REMARK VINA RESULT: -7.941965523      1.558      2.249
REMARK  11 active torsions:
REMARK  status: ('A' for Active; 'I' for Inactive)
REMARK    1  A    between atoms: C2_2  and  C3_3 
REMARK    2  A    between atoms: C3_3  and  C4_4 
REMARK    3  A    between atoms: N1_6  and  C6_7 
REMARK    4  A    between atoms: C9_12  and  N3_13 
REMARK    5  A    between atoms: N6_29  and  C21_30 
REMARK    6  A    between atoms: C21_30  and  C22_31 
REMARK    7  A    between atoms: C24_33  and  O2_34 
REMARK    8  A    between atoms: O2_34  and  C25_35 
REMARK    9  A    between atoms: C28_38  and  N7_39 
REMARK   10  A    between atoms: N7_39  and  N8_41 
REMARK   11  A    between atoms: N8_41  and  N9_42 
ROOT
HETATM    1  C4  UNL     1       2.122   5.939 -16.909  1.00  0.00     0.127 C 
HETATM    2  C5  UNL     1       1.321   7.070 -17.432  1.00  0.00     0.107 C 
HETATM    3  N1  UNL     1      -0.058   7.003 -17.618  1.00  0.00    -0.195 N 
HETATM    4  C18 UNL     1      -1.024   6.635 -16.592  1.00  0.00     0.151 C 
HETATM    5  C19 UNL     1      -0.402   6.705 -15.230  1.00  0.00     0.065 C 
HETATM    6  C20 UNL     1       0.679   5.724 -14.943  1.00  0.00     0.066 C 
HETATM    7  N6  UNL     1       1.923   6.003 -15.413  1.00  0.00    -0.360 N 
ENDROOT
BRANCH   3   8
HETATM    8  C6  UNL     1      -0.584   7.510 -18.833  1.00  0.00     0.685 A 
HETATM    9  N2  UNL     1      -1.691   8.358 -18.887  1.00  0.00    -0.190 N 
HETATM   10  C7  UNL     1      -2.025   9.049 -19.973  1.00  0.00     0.065 A 
ATOM     11  H2  UNL     1      -2.271   8.453 -18.053  1.00  0.00     0.184 HD
HETATM   12  C8  UNL     1      -3.022   9.897 -20.173  1.00  0.00     0.060 A 
HETATM   13  C16 UNL     1      -1.198   8.908 -21.119  1.00  0.00     0.033 A 
HETATM   14  C9  UNL     1      -3.465  10.669 -21.140  1.00  0.00     0.032 A 
HETATM   15  C14 UNL     1      -2.575  10.550 -22.280  1.00  0.00     0.030 A 
HETATM   16  C15 UNL     1      -1.419   9.676 -22.291  1.00  0.00     0.019 A 
HETATM   17  C17 UNL     1      -0.182   8.076 -21.035  1.00  0.00     0.144 A 
HETATM   18  N4  UNL     1       0.475   7.634 -22.233  1.00  0.00    -0.081 NA
HETATM   19  N5  UNL     1       0.153   7.383 -19.968  1.00  0.00    -0.178 N 
ATOM     20  H5  UNL     1       0.957   6.756 -19.994  1.00  0.00     0.185 HD
BRANCH  14  21
HETATM   21  N3  UNL     1      -4.590  11.504 -21.293  1.00  0.00    -0.377 N 
HETATM   22  C10 UNL     1      -4.350  12.930 -21.605  1.00  0.00     0.149 C 
HETATM   23  C11 UNL     1      -5.315  13.260 -22.755  1.00  0.00     0.187 C 
HETATM   24  O1  UNL     1      -6.572  13.239 -22.151  1.00  0.00    -0.388 OA
HETATM   25  C12 UNL     1      -6.981  12.004 -21.715  1.00  0.00     0.187 C 
HETATM   26  C13 UNL     1      -5.955  11.044 -21.248  1.00  0.00     0.149 C 
ENDBRANCH  14  21
ENDBRANCH   3   8
BRANCH   1  27
HETATM   27  C3  UNL     1       1.838   4.614 -17.443  1.00  0.00     0.031 C 
BRANCH  27  28
HETATM   28  C2  UNL     1       2.792   3.543 -16.908  1.00  0.00    -0.002 C 
HETATM   29  C1  UNL     1       4.176   3.920 -17.509  1.00  0.00     0.005 C 
ENDBRANCH  27  28
ENDBRANCH   1  27
BRANCH   7  30
HETATM   30  C21 UNL     1       3.011   6.588 -14.855  1.00  0.00     0.105 C 
BRANCH  30  31
HETATM   31  C22 UNL     1       3.220   7.973 -14.512  1.00  0.00     0.021 A 
HETATM   32  C23 UNL     1       3.825   9.007 -15.162  1.00  0.00     0.055 A 
HETATM   33  C24 UNL     1       3.730  10.309 -14.774  1.00  0.00     0.099 A 
HETATM   34  C28 UNL     1       2.996  10.685 -13.630  1.00  0.00     0.099 A 
HETATM   35  C29 UNL     1       2.384   9.669 -12.923  1.00  0.00     0.078 A 
HETATM   36  C30 UNL     1       2.482   8.384 -13.345  1.00  0.00     0.130 A 
HETATM   37  F1  UNL     1       1.759   7.435 -12.702  1.00  0.00    -0.205 F 
BRANCH  33  38
HETATM   38  O2  UNL     1       4.245  11.357 -15.436  1.00  0.00    -0.344 OA
BRANCH  38  39
HETATM   39  C25 UNL     1       5.516  11.611 -15.946  1.00  0.00     0.120 C 
HETATM   40  C26 UNL     1       6.368  12.075 -14.796  1.00  0.00     0.040 C 
HETATM   41  C27 UNL     1       5.344  12.903 -16.850  1.00  0.00     0.040 C 
ENDBRANCH  38  39
ENDBRANCH  33  38
BRANCH  34  42
HETATM   42  N7  UNL     1       2.824  12.040 -13.293  1.00  0.00    -0.214 N 
ATOM     43  H7  UNL     1       2.230  12.610 -13.894  1.00  0.00     0.204 HD
BRANCH  42  44
HETATM   44  N8  UNL     1       3.345  12.578 -12.317  1.00  0.00    -0.243 NA
BRANCH  44  45
HETATM   45  N9  UNL     1       4.016  13.085 -11.422  1.00  0.00    -0.260 N 
ATOM     46  H92 UNL     1       4.783  12.508 -11.767  1.00  0.00     0.193 HD
ATOM     47  H91 UNL     1       4.454  13.579 -10.644  1.00  0.00     0.193 HD
ENDBRANCH  44  45
ENDBRANCH  42  44
ENDBRANCH  34  42
ENDBRANCH  30  31
ENDBRANCH   7  30
TORSDOF 11
ENDMDL
