MODEL 1
REMARK VINA RESULT: -11.403444043      0.000      0.000
REMARK  13 active torsions:
REMARK  status: ('A' for Active; 'I' for Inactive)
REMARK    1  A    between atoms: N1_1  and  N2_4 
REMARK       I    between atoms: N2_4  and  C1_5 
REMARK       I    between atoms: C1_5  and  N3_6 
REMARK       I    between atoms: C1_5  and  N4_10 
REMARK    2  A    between atoms: N4_10  and  C2_12 
REMARK    3  A    between atoms: C4_16  and  N6_17 
REMARK       I    between atoms: N6_17  and  C5_19 
REMARK    4  A    between atoms: C5_19  and  C6_21 
REMARK    5  A    between atoms: C6_21  and  C7_22 
REMARK    6  A    between atoms: C9_26  and  N8_27 
REMARK    7  A    between atoms: N8_27  and  C10_29 
REMARK    8  A    between atoms: C10_29  and  O2_30 
REMARK    9  A    between atoms: C10_29  and  S1_32 
REMARK   10  A    between atoms: S1_32  and  N9_33 
REMARK   11  A    between atoms: N10_35  and  C11_37 
REMARK   12  A    between atoms: N13_42  and  C12_43 
REMARK   13  A    between atoms: C12_43  and  O3_44 
ROOT
HETATM    1  C7  UNL     1      18.768  -1.683  -0.593  1.00  0.00     0.033 A 
HETATM    2  C8  UNL     1      18.126  -2.054   0.600  1.00  0.00     0.115 A 
HETATM    3  N7  UNL     1      18.572  -3.040   1.356  1.00  0.00    -0.349 N 
ATOM      4  H7  UNL     1      18.064  -3.265   2.211  1.00  0.00     0.167 HD
HETATM    5  C9  UNL     1      19.698  -3.784   1.040  1.00  0.00     0.123 A 
HETATM    6  C14 UNL     1      20.315  -3.414  -0.127  1.00  0.00     0.136 A 
HETATM    7  N15 UNL     1      19.840  -2.388  -0.899  1.00  0.00    -0.364 N 
ATOM      8  H15 UNL     1      20.341  -2.157  -1.757  1.00  0.00     0.165 HD
ENDROOT
BRANCH   1   9
HETATM    9  C6  UNL     1      18.215  -0.550  -1.378  1.00  0.00     0.161 C 
BRANCH   9  10
HETATM   10  C5  UNL     1      18.705   0.773  -0.844  1.00  0.00     0.227 C 
HETATM   11  N6  UNL     1      18.670   1.053   0.533  1.00  0.00    -0.323 N 
ATOM     12  H6  UNL     1      18.301   0.305   1.120  1.00  0.00     0.169 HD
HETATM   13  O1  UNL     1      19.136   1.585  -1.673  1.00  0.00    -0.273 OA
BRANCH  11  14
HETATM   14  C4  UNL     1      19.066   2.206   1.216  1.00  0.00     0.093 A 
HETATM   15  C3  UNL     1      18.453   3.431   1.098  1.00  0.00     0.139 A 
HETATM   16  N5  UNL     1      18.880   4.487   1.814  1.00  0.00    -0.200 N 
HETATM   17  C2  UNL     1      19.911   4.414   2.669  1.00  0.00     0.682 A 
ATOM     18  H5  UNL     1      18.400   5.379   1.701  1.00  0.00     0.183 HD
HETATM   19  N17 UNL     1      20.520   3.229   2.797  1.00  0.00    -0.177 N 
HETATM   20  C15 UNL     1      20.137   2.140   2.110  1.00  0.00     0.160 A 
ATOM     21  H17 UNL     1      21.307   3.149   3.442  1.00  0.00     0.185 HD
HETATM   22  N16 UNL     1      20.811   0.893   2.254  1.00  0.00    -0.080 NA
BRANCH  17  23
HETATM   23  N4  UNL     1      20.256   5.473   3.303  1.00  0.00    -0.181 N 
HETATM   24  C1  UNL     1      20.020   6.828   2.922  1.00  0.00     0.410 C 
HETATM   25  N2  UNL     1      21.210   7.607   3.207  1.00  0.00    -0.093 NA
HETATM   26  N3  UNL     1      18.955   7.421   3.750  1.00  0.00    -0.042 N 
ATOM     27  H33 UNL     1      19.186   7.470   4.743  1.00  0.00     0.278 HD
ATOM     28  H32 UNL     1      18.834   8.423   3.606  1.00  0.00     0.278 HD
ATOM     29  H31 UNL     1      18.119   6.873   3.550  1.00  0.00     0.278 HD
ATOM     30  H4  UNL     1      20.757   5.331   4.181  1.00  0.00     0.181 HD
BRANCH  25  31
HETATM   31  N1  UNL     1      21.495   7.482   4.569  1.00  0.00    -0.345 N 
ATOM     32  H12 UNL     1      21.666   8.260   5.206  1.00  0.00     0.172 HD
ATOM     33  H11 UNL     1      21.500   6.490   4.802  1.00  0.00     0.172 HD
ENDBRANCH  25  31
ENDBRANCH  17  23
ENDBRANCH  11  14
ENDBRANCH   9  10
ENDBRANCH   1   9
BRANCH   5  34
HETATM   34  N8  UNL     1      20.072  -4.809   1.919  1.00  0.00    -0.315 N 
ATOM     35  H8  UNL     1      21.016  -5.172   1.782  1.00  0.00     0.170 HD
BRANCH  34  36
HETATM   36  C10 UNL     1      19.362  -5.403   2.938  1.00  0.00     0.203 C 
BRANCH  36  37
HETATM   37  O2  UNL     1      18.840  -6.580   2.660  1.00  0.00    -0.340 OA
ATOM     38  H2  UNL     1      18.655  -7.136   3.409  1.00  0.00     0.220 HD
ENDBRANCH  36  37
BRANCH  36  39
HETATM   39  S1  UNL     1      19.094  -4.742   4.546  1.00  0.00     0.046 SA
BRANCH  39  40
HETATM   40  N9  UNL     1      17.590  -5.366   5.257  1.00  0.00    -0.265 N 
HETATM   41  N10 UNL     1      17.359  -6.603   5.314  1.00  0.00    -0.275 N 
ATOM     42  H10 UNL     1      18.065  -7.238   4.941  1.00  0.00     0.189 HD
ATOM     43  H9  UNL     1      16.901  -4.712   5.626  1.00  0.00     0.195 HD
BRANCH  41  44
HETATM   44  C11 UNL     1      16.195  -7.164   5.857  1.00  0.00     0.180 A 
HETATM   45  N11 UNL     1      15.341  -6.642   6.746  1.00  0.00    -0.267 N 
HETATM   46  N12 UNL     1      14.391  -7.542   6.934  1.00  0.00    -0.235 N 
ATOM     47  H11 UNL     1      15.409  -5.727   7.192  1.00  0.00     0.190 HD
HETATM   48  N13 UNL     1      14.585  -8.616   6.214  1.00  0.00    -0.237 N 
ATOM     49  H12 UNL     1      13.601  -7.414   7.566  1.00  0.00     0.208 HD
HETATM   50  C13 UNL     1      15.697  -8.427   5.526  1.00  0.00     0.183 A 
HETATM   51  N14 UNL     1      16.284  -9.344   4.607  1.00  0.00    -0.077 NA
BRANCH  48  52
HETATM   52  C12 UNL     1      13.713  -9.789   6.188  1.00  0.00     0.316 C 
BRANCH  52  53
HETATM   53  O3  UNL     1      13.661 -10.405   4.956  1.00  0.00    -0.380 OA
ATOM     54  H3  UNL     1      13.155  -9.922   4.313  1.00  0.00     0.211 HD
ENDBRANCH  52  53
ENDBRANCH  48  52
ENDBRANCH  41  44
ENDBRANCH  39  40
ENDBRANCH  36  39
ENDBRANCH  34  36
ENDBRANCH   5  34
TORSDOF 13
ENDMDL
MODEL 2
REMARK VINA RESULT: -11.369856030      0.580      1.125
REMARK  13 active torsions:
REMARK  status: ('A' for Active; 'I' for Inactive)
REMARK    1  A    between atoms: N1_1  and  N2_4 
REMARK       I    between atoms: N2_4  and  C1_5 
REMARK       I    between atoms: C1_5  and  N3_6 
REMARK       I    between atoms: C1_5  and  N4_10 
REMARK    2  A    between atoms: N4_10  and  C2_12 
REMARK    3  A    between atoms: C4_16  and  N6_17 
REMARK       I    between atoms: N6_17  and  C5_19 
REMARK    4  A    between atoms: C5_19  and  C6_21 
REMARK    5  A    between atoms: C6_21  and  C7_22 
REMARK    6  A    between atoms: C9_26  and  N8_27 
REMARK    7  A    between atoms: N8_27  and  C10_29 
REMARK    8  A    between atoms: C10_29  and  O2_30 
REMARK    9  A    between atoms: C10_29  and  S1_32 
REMARK   10  A    between atoms: S1_32  and  N9_33 
REMARK   11  A    between atoms: N10_35  and  C11_37 
REMARK   12  A    between atoms: N13_42  and  C12_43 
REMARK   13  A    between atoms: C12_43  and  O3_44 
ROOT
HETATM    1  C7  UNL     1      18.738  -1.690  -0.486  1.00  0.00     0.033 A 
HETATM    2  C8  UNL     1      18.129  -2.034   0.731  1.00  0.00     0.115 A 
HETATM    3  N7  UNL     1      18.605  -2.994   1.502  1.00  0.00    -0.349 N 
ATOM      4  H7  UNL     1      18.120  -3.202   2.375  1.00  0.00     0.167 HD
HETATM    5  C9  UNL     1      19.732  -3.734   1.181  1.00  0.00     0.123 A 
HETATM    6  C14 UNL     1      20.317  -3.389  -0.011  1.00  0.00     0.136 A 
HETATM    7  N15 UNL     1      19.812  -2.390  -0.799  1.00  0.00    -0.364 N 
ATOM      8  H15 UNL     1      20.290  -2.177  -1.674  1.00  0.00     0.165 HD
ENDROOT
BRANCH   1   9
HETATM    9  C6  UNL     1      18.154  -0.585  -1.289  1.00  0.00     0.161 C 
BRANCH   9  10
HETATM   10  C5  UNL     1      18.608   0.760  -0.777  1.00  0.00     0.227 C 
HETATM   11  N6  UNL     1      18.696   1.015   0.602  1.00  0.00    -0.323 N 
ATOM     12  H6  UNL     1      18.439   0.234   1.206  1.00  0.00     0.169 HD
HETATM   13  O1  UNL     1      18.897   1.612  -1.627  1.00  0.00    -0.273 OA
BRANCH  11  14
HETATM   14  C4  UNL     1      19.084   2.181   1.268  1.00  0.00     0.093 A 
HETATM   15  C3  UNL     1      18.459   3.398   1.136  1.00  0.00     0.139 A 
HETATM   16  N5  UNL     1      18.878   4.468   1.835  1.00  0.00    -0.200 N 
HETATM   17  C2  UNL     1      19.912   4.417   2.688  1.00  0.00     0.682 A 
ATOM     18  H5  UNL     1      18.390   5.354   1.712  1.00  0.00     0.183 HD
HETATM   19  N17 UNL     1      20.533   3.239   2.830  1.00  0.00    -0.177 N 
HETATM   20  C15 UNL     1      20.158   2.138   2.159  1.00  0.00     0.160 A 
ATOM     21  H17 UNL     1      21.322   3.176   3.473  1.00  0.00     0.185 HD
HETATM   22  N16 UNL     1      20.845   0.898   2.319  1.00  0.00    -0.080 NA
BRANCH  17  23
HETATM   23  N4  UNL     1      20.249   5.488   3.306  1.00  0.00    -0.181 N 
HETATM   24  C1  UNL     1      20.017   6.835   2.896  1.00  0.00     0.410 C 
HETATM   25  N2  UNL     1      21.203   7.620   3.180  1.00  0.00    -0.093 NA
HETATM   26  N3  UNL     1      18.943   7.443   3.700  1.00  0.00    -0.042 N 
ATOM     27  H33 UNL     1      19.162   7.510   4.695  1.00  0.00     0.278 HD
ATOM     28  H32 UNL     1      18.822   8.442   3.537  1.00  0.00     0.278 HD
ATOM     29  H31 UNL     1      18.109   6.890   3.501  1.00  0.00     0.278 HD
ATOM     30  H4  UNL     1      20.740   5.363   4.192  1.00  0.00     0.181 HD
BRANCH  25  31
HETATM   31  N1  UNL     1      21.473   7.521   4.548  1.00  0.00    -0.345 N 
ATOM     32  H12 UNL     1      21.366   6.675   5.107  1.00  0.00     0.172 HD
ATOM     33  H11 UNL     1      21.791   8.433   4.876  1.00  0.00     0.172 HD
ENDBRANCH  25  31
ENDBRANCH  17  23
ENDBRANCH  11  14
ENDBRANCH   9  10
ENDBRANCH   1   9
BRANCH   5  34
HETATM   34  N8  UNL     1      20.139  -4.730   2.077  1.00  0.00    -0.315 N 
ATOM     35  H8  UNL     1      21.148  -4.868   2.141  1.00  0.00     0.170 HD
BRANCH  34  36
HETATM   36  C10 UNL     1      19.387  -5.553   2.886  1.00  0.00     0.203 C 
BRANCH  36  37
HETATM   37  O2  UNL     1      18.916  -6.642   2.312  1.00  0.00    -0.340 OA
ATOM     38  H2  UNL     1      17.979  -6.650   2.150  1.00  0.00     0.220 HD
ENDBRANCH  36  37
BRANCH  36  39
HETATM   39  S1  UNL     1      19.004  -5.285   4.581  1.00  0.00     0.046 SA
BRANCH  39  40
HETATM   40  N9  UNL     1      17.613  -6.266   5.091  1.00  0.00    -0.265 N 
HETATM   41  N10 UNL     1      17.410  -7.411   4.607  1.00  0.00    -0.275 N 
ATOM     42  H10 UNL     1      18.071  -7.760   3.913  1.00  0.00     0.189 HD
ATOM     43  H9  UNL     1      16.968  -5.896   5.789  1.00  0.00     0.195 HD
BRANCH  41  44
HETATM   44  C11 UNL     1      16.333  -8.236   4.961  1.00  0.00     0.180 A 
HETATM   45  N11 UNL     1      15.967  -9.415   4.442  1.00  0.00    -0.267 N 
HETATM   46  N12 UNL     1      14.901  -9.811   5.117  1.00  0.00    -0.235 N 
ATOM     47  H11 UNL     1      16.421  -9.911   3.676  1.00  0.00     0.190 HD
HETATM   48  N13 UNL     1      14.561  -8.954   6.043  1.00  0.00    -0.237 N 
ATOM     49  H12 UNL     1      14.403 -10.684   4.937  1.00  0.00     0.208 HD
HETATM   50  C13 UNL     1      15.424  -7.955   5.984  1.00  0.00     0.183 A 
HETATM   51  N14 UNL     1      15.432  -6.799   6.816  1.00  0.00    -0.077 NA
BRANCH  48  52
HETATM   52  C12 UNL     1      13.435  -9.100   6.964  1.00  0.00     0.316 C 
BRANCH  52  53
HETATM   53  O3  UNL     1      12.961 -10.391   7.048  1.00  0.00    -0.380 OA
ATOM     54  H3  UNL     1      13.305 -10.873   7.792  1.00  0.00     0.211 HD
ENDBRANCH  52  53
ENDBRANCH  48  52
ENDBRANCH  41  44
ENDBRANCH  39  40
ENDBRANCH  36  39
ENDBRANCH  34  36
ENDBRANCH   5  34
TORSDOF 13
ENDMDL
MODEL 3
REMARK VINA RESULT: -10.660778143      3.236     13.328
REMARK  13 active torsions:
REMARK  status: ('A' for Active; 'I' for Inactive)
REMARK    1  A    between atoms: N1_1  and  N2_4 
REMARK       I    between atoms: N2_4  and  C1_5 
REMARK       I    between atoms: C1_5  and  N3_6 
REMARK       I    between atoms: C1_5  and  N4_10 
REMARK    2  A    between atoms: N4_10  and  C2_12 
REMARK    3  A    between atoms: C4_16  and  N6_17 
REMARK       I    between atoms: N6_17  and  C5_19 
REMARK    4  A    between atoms: C5_19  and  C6_21 
REMARK    5  A    between atoms: C6_21  and  C7_22 
REMARK    6  A    between atoms: C9_26  and  N8_27 
REMARK    7  A    between atoms: N8_27  and  C10_29 
REMARK    8  A    between atoms: C10_29  and  O2_30 
REMARK    9  A    between atoms: C10_29  and  S1_32 
REMARK   10  A    between atoms: S1_32  and  N9_33 
REMARK   11  A    between atoms: N10_35  and  C11_37 
REMARK   12  A    between atoms: N13_42  and  C12_43 
REMARK   13  A    between atoms: C12_43  and  O3_44 
ROOT
HETATM    1  C7  UNL     1      17.677  -6.106   5.044  1.00  0.00     0.033 A 
HETATM    2  C8  UNL     1      17.785  -4.723   4.828  1.00  0.00     0.115 A 
HETATM    3  N7  UNL     1      18.513  -4.224   3.846  1.00  0.00    -0.349 N 
ATOM      4  H7  UNL     1      18.554  -3.211   3.739  1.00  0.00     0.167 HD
HETATM    5  C9  UNL     1      19.222  -5.013   2.955  1.00  0.00     0.123 A 
HETATM    6  C14 UNL     1      19.110  -6.362   3.176  1.00  0.00     0.136 A 
HETATM    7  N15 UNL     1      18.351  -6.863   4.199  1.00  0.00    -0.364 N 
ATOM      8  H15 UNL     1      18.304  -7.876   4.314  1.00  0.00     0.165 HD
ENDROOT
BRANCH   1   9
HETATM    9  C6  UNL     1      16.824  -6.591   6.159  1.00  0.00     0.161 C 
BRANCH   9  10
HETATM   10  C5  UNL     1      16.463  -8.044   5.977  1.00  0.00     0.227 C 
HETATM   11  N6  UNL     1      15.771  -8.479   4.834  1.00  0.00    -0.323 N 
ATOM     12  H6  UNL     1      15.546  -7.749   4.159  1.00  0.00     0.169 HD
HETATM   13  O1  UNL     1      16.810  -8.822   6.876  1.00  0.00    -0.273 OA
BRANCH  11  14
HETATM   14  C4  UNL     1      15.345  -9.764   4.488  1.00  0.00     0.093 A 
HETATM   15  C3  UNL     1      14.190 -10.352   4.945  1.00  0.00     0.139 A 
HETATM   16  N5  UNL     1      13.838 -11.585   4.540  1.00  0.00    -0.200 N 
HETATM   17  C2  UNL     1      14.575 -12.306   3.682  1.00  0.00     0.682 A 
ATOM     18  H5  UNL     1      12.974 -11.990   4.900  1.00  0.00     0.183 HD
HETATM   19  N17 UNL     1      15.704 -11.748   3.225  1.00  0.00    -0.177 N 
HETATM   20  C15 UNL     1      16.106 -10.521   3.593  1.00  0.00     0.160 A 
ATOM     21  H17 UNL     1      16.282 -12.277   2.571  1.00  0.00     0.185 HD
HETATM   22  N16 UNL     1      17.319  -9.955   3.102  1.00  0.00    -0.080 NA
BRANCH  17  23
HETATM   23  N4  UNL     1      14.168 -13.477   3.357  1.00  0.00    -0.181 N 
HETATM   24  C1  UNL     1      13.345 -13.831   2.247  1.00  0.00     0.410 C 
HETATM   25  N2  UNL     1      12.381 -14.826   2.678  1.00  0.00    -0.093 NA
HETATM   26  N3  UNL     1      14.145 -14.489   1.199  1.00  0.00    -0.042 N 
ATOM     27  H33 UNL     1      14.569 -15.369   1.497  1.00  0.00     0.278 HD
ATOM     28  H32 UNL     1      13.587 -14.877   0.439  1.00  0.00     0.278 HD
ATOM     29  H31 UNL     1      14.823 -13.790   0.895  1.00  0.00     0.278 HD
ATOM     30  H4  UNL     1      14.466 -14.243   3.962  1.00  0.00     0.181 HD
BRANCH  25  31
HETATM   31  N1  UNL     1      13.085 -15.920   3.187  1.00  0.00    -0.345 N 
ATOM     32  H12 UNL     1      13.965 -15.866   3.699  1.00  0.00     0.172 HD
ATOM     33  H11 UNL     1      12.564 -16.767   2.957  1.00  0.00     0.172 HD
ENDBRANCH  25  31
ENDBRANCH  17  23
ENDBRANCH  11  14
ENDBRANCH   9  10
ENDBRANCH   1   9
BRANCH   5  34
HETATM   34  N8  UNL     1      19.962  -4.368   1.955  1.00  0.00    -0.315 N 
ATOM     35  H8  UNL     1      20.947  -4.627   1.912  1.00  0.00     0.170 HD
BRANCH  34  36
HETATM   36  C10 UNL     1      19.563  -3.437   1.022  1.00  0.00     0.203 C 
BRANCH  36  37
HETATM   37  O2  UNL     1      18.272  -3.172   0.995  1.00  0.00    -0.340 OA
ATOM     38  H2  UNL     1      17.767  -3.652   0.348  1.00  0.00     0.220 HD
ENDBRANCH  36  37
BRANCH  36  39
HETATM   39  S1  UNL     1      20.601  -2.587  -0.115  1.00  0.00     0.046 SA
BRANCH  39  40
HETATM   40  N9  UNL     1      20.424  -0.826   0.042  1.00  0.00    -0.265 N 
HETATM   41  N10 UNL     1      19.329  -0.309   0.388  1.00  0.00    -0.275 N 
ATOM     42  H10 UNL     1      18.546  -0.933   0.578  1.00  0.00     0.189 HD
ATOM     43  H9  UNL     1      21.223  -0.223  -0.152  1.00  0.00     0.195 HD
BRANCH  41  44
HETATM   44  C11 UNL     1      19.118   1.070   0.527  1.00  0.00     0.180 A 
HETATM   45  N11 UNL     1      18.242   1.860  -0.107  1.00  0.00    -0.267 N 
HETATM   46  N12 UNL     1      18.411   3.078   0.376  1.00  0.00    -0.235 N 
ATOM     47  H11 UNL     1      17.574   1.576  -0.823  1.00  0.00     0.190 HD
HETATM   48  N13 UNL     1      19.347   3.119   1.288  1.00  0.00    -0.237 N 
ATOM     49  H12 UNL     1      17.874   3.892   0.074  1.00  0.00     0.208 HD
HETATM   50  C13 UNL     1      19.817   1.891   1.416  1.00  0.00     0.183 A 
HETATM   51  N14 UNL     1      20.850   1.473   2.305  1.00  0.00    -0.077 NA
BRANCH  48  52
HETATM   52  C12 UNL     1      19.769   4.312   2.020  1.00  0.00     0.316 C 
BRANCH  52  53
HETATM   53  O3  UNL     1      21.104   4.301   2.361  1.00  0.00    -0.380 OA
ATOM     54  H3  UNL     1      21.347   3.567   2.913  1.00  0.00     0.211 HD
ENDBRANCH  52  53
ENDBRANCH  48  52
ENDBRANCH  41  44
ENDBRANCH  39  40
ENDBRANCH  36  39
ENDBRANCH  34  36
ENDBRANCH   5  34
TORSDOF 13
ENDMDL
MODEL 4
REMARK VINA RESULT: -10.643001780      3.358     13.546
REMARK  13 active torsions:
REMARK  status: ('A' for Active; 'I' for Inactive)
REMARK    1  A    between atoms: N1_1  and  N2_4 
REMARK       I    between atoms: N2_4  and  C1_5 
REMARK       I    between atoms: C1_5  and  N3_6 
REMARK       I    between atoms: C1_5  and  N4_10 
REMARK    2  A    between atoms: N4_10  and  C2_12 
REMARK    3  A    between atoms: C4_16  and  N6_17 
REMARK       I    between atoms: N6_17  and  C5_19 
REMARK    4  A    between atoms: C5_19  and  C6_21 
REMARK    5  A    between atoms: C6_21  and  C7_22 
REMARK    6  A    between atoms: C9_26  and  N8_27 
REMARK    7  A    between atoms: N8_27  and  C10_29 
REMARK    8  A    between atoms: C10_29  and  O2_30 
REMARK    9  A    between atoms: C10_29  and  S1_32 
REMARK   10  A    between atoms: S1_32  and  N9_33 
REMARK   11  A    between atoms: N10_35  and  C11_37 
REMARK   12  A    between atoms: N13_42  and  C12_43 
REMARK   13  A    between atoms: C12_43  and  O3_44 
ROOT
HETATM    1  C7  UNL     1      18.039  -5.884   4.597  1.00  0.00     0.033 A 
HETATM    2  C8  UNL     1      18.062  -4.481   4.529  1.00  0.00     0.115 A 
HETATM    3  N7  UNL     1      18.763  -3.838   3.614  1.00  0.00    -0.349 N 
ATOM      4  H7  UNL     1      18.743  -2.818   3.614  1.00  0.00     0.167 HD
HETATM    5  C9  UNL     1      19.526  -4.483   2.654  1.00  0.00     0.123 A 
HETATM    6  C14 UNL     1      19.497  -5.852   2.731  1.00  0.00     0.136 A 
HETATM    7  N15 UNL     1      18.764  -6.505   3.686  1.00  0.00    -0.364 N 
ATOM      8  H15 UNL     1      18.780  -7.525   3.694  1.00  0.00     0.165 HD
ENDROOT
BRANCH   1   9
HETATM    9  C6  UNL     1      17.211  -6.534   5.645  1.00  0.00     0.161 C 
BRANCH   9  10
HETATM   10  C5  UNL     1      16.987  -7.994   5.333  1.00  0.00     0.227 C 
HETATM   11  N6  UNL     1      15.811  -8.424   4.696  1.00  0.00    -0.323 N 
ATOM     12  H6  UNL     1      15.146  -7.685   4.466  1.00  0.00     0.169 HD
HETATM   13  O1  UNL     1      17.886  -8.779   5.663  1.00  0.00    -0.273 OA
BRANCH  11  14
HETATM   14  C4  UNL     1      15.418  -9.715   4.332  1.00  0.00     0.093 A 
HETATM   15  C3  UNL     1      16.131 -10.538   3.494  1.00  0.00     0.139 A 
HETATM   16  N5  UNL     1      15.697 -11.780   3.215  1.00  0.00    -0.200 N 
HETATM   17  C2  UNL     1      14.563 -12.284   3.725  1.00  0.00     0.682 A 
ATOM     18  H5  UNL     1      16.253 -12.363   2.589  1.00  0.00     0.183 HD
HETATM   19  N17 UNL     1      13.856 -11.496   4.544  1.00  0.00    -0.177 N 
HETATM   20  C15 UNL     1      14.240 -10.248   4.859  1.00  0.00     0.160 A 
ATOM     21  H17 UNL     1      12.990 -11.857   4.945  1.00  0.00     0.185 HD
HETATM   22  N16 UNL     1      13.462  -9.424   5.723  1.00  0.00    -0.080 NA
BRANCH  17  23
HETATM   23  N4  UNL     1      14.220 -13.475   3.398  1.00  0.00    -0.181 N 
HETATM   24  C1  UNL     1      13.452 -13.874   2.264  1.00  0.00     0.410 C 
HETATM   25  N2  UNL     1      12.520 -14.909   2.672  1.00  0.00    -0.093 NA
HETATM   26  N3  UNL     1      14.315 -14.504   1.249  1.00  0.00    -0.042 N 
ATOM     27  H33 UNL     1      14.767 -15.361   1.568  1.00  0.00     0.278 HD
ATOM     28  H32 UNL     1      13.800 -14.922   0.475  1.00  0.00     0.278 HD
ATOM     29  H31 UNL     1      14.970 -13.777   0.961  1.00  0.00     0.278 HD
ATOM     30  H4  UNL     1      14.532 -14.222   4.019  1.00  0.00     0.181 HD
BRANCH  25  31
HETATM   31  N1  UNL     1      13.255 -15.966   3.215  1.00  0.00    -0.345 N 
ATOM     32  H12 UNL     1      14.241 -15.925   3.471  1.00  0.00     0.172 HD
ATOM     33  H11 UNL     1      12.633 -16.770   3.305  1.00  0.00     0.172 HD
ENDBRANCH  25  31
ENDBRANCH  17  23
ENDBRANCH  11  14
ENDBRANCH   9  10
ENDBRANCH   1   9
BRANCH   5  34
HETATM   34  N8  UNL     1      20.230  -3.692   1.737  1.00  0.00    -0.315 N 
ATOM     35  H8  UNL     1      20.794  -4.211   1.063  1.00  0.00     0.170 HD
BRANCH  34  36
HETATM   36  C10 UNL     1      20.278  -2.323   1.605  1.00  0.00     0.203 C 
BRANCH  36  37
HETATM   37  O2  UNL     1      21.032  -1.691   2.482  1.00  0.00    -0.340 OA
ATOM     38  H2  UNL     1      20.624  -0.954   2.922  1.00  0.00     0.220 HD
ENDBRANCH  36  37
BRANCH  36  39
HETATM   39  S1  UNL     1      19.439  -1.360   0.397  1.00  0.00     0.046 SA
BRANCH  39  40
HETATM   40  N9  UNL     1      19.647   0.379   0.699  1.00  0.00    -0.265 N 
HETATM   41  N10 UNL     1      18.655   1.132   0.886  1.00  0.00    -0.275 N 
ATOM     42  H10 UNL     1      17.726   0.712   0.861  1.00  0.00     0.189 HD
ATOM     43  H9  UNL     1      20.587   0.775   0.722  1.00  0.00     0.195 HD
BRANCH  41  44
HETATM   44  C11 UNL     1      18.745   2.510   1.126  1.00  0.00     0.180 A 
HETATM   45  N11 UNL     1      17.936   3.494   0.714  1.00  0.00    -0.267 N 
HETATM   46  N12 UNL     1      18.425   4.619   1.208  1.00  0.00    -0.235 N 
ATOM     47  H11 UNL     1      17.104   3.396   0.133  1.00  0.00     0.190 HD
HETATM   48  N13 UNL     1      19.504   4.414   1.917  1.00  0.00    -0.237 N 
ATOM     49  H12 UNL     1      18.009   5.538   1.055  1.00  0.00     0.208 HD
HETATM   50  C13 UNL     1      19.743   3.115   1.895  1.00  0.00     0.183 A 
HETATM   51  N14 UNL     1      20.822   2.446   2.541  1.00  0.00    -0.077 NA
BRANCH  48  52
HETATM   52  C12 UNL     1      20.278   5.447   2.603  1.00  0.00     0.316 C 
BRANCH  52  53
HETATM   53  O3  UNL     1      19.515   6.513   3.027  1.00  0.00    -0.380 OA
ATOM     54  H3  UNL     1      19.955   7.063   3.665  1.00  0.00     0.211 HD
ENDBRANCH  52  53
ENDBRANCH  48  52
ENDBRANCH  41  44
ENDBRANCH  39  40
ENDBRANCH  36  39
ENDBRANCH  34  36
ENDBRANCH   5  34
TORSDOF 13
ENDMDL
MODEL 5
REMARK VINA RESULT: -10.595031068      3.090      5.045
REMARK  13 active torsions:
REMARK  status: ('A' for Active; 'I' for Inactive)
REMARK    1  A    between atoms: N1_1  and  N2_4 
REMARK       I    between atoms: N2_4  and  C1_5 
REMARK       I    between atoms: C1_5  and  N3_6 
REMARK       I    between atoms: C1_5  and  N4_10 
REMARK    2  A    between atoms: N4_10  and  C2_12 
REMARK    3  A    between atoms: C4_16  and  N6_17 
REMARK       I    between atoms: N6_17  and  C5_19 
REMARK    4  A    between atoms: C5_19  and  C6_21 
REMARK    5  A    between atoms: C6_21  and  C7_22 
REMARK    6  A    between atoms: C9_26  and  N8_27 
REMARK    7  A    between atoms: N8_27  and  C10_29 
REMARK    8  A    between atoms: C10_29  and  O2_30 
REMARK    9  A    between atoms: C10_29  and  S1_32 
REMARK   10  A    between atoms: S1_32  and  N9_33 
REMARK   11  A    between atoms: N10_35  and  C11_37 
REMARK   12  A    between atoms: N13_42  and  C12_43 
REMARK   13  A    between atoms: C12_43  and  O3_44 
ROOT
HETATM    1  C7  UNL     1      18.927  -5.230   3.450  1.00  0.00     0.033 A 
HETATM    2  C8  UNL     1      18.803  -6.618   3.281  1.00  0.00     0.115 A 
HETATM    3  N7  UNL     1      18.075  -7.358   4.096  1.00  0.00    -0.349 N 
ATOM      4  H7  UNL     1      18.023  -8.362   3.924  1.00  0.00     0.167 HD
HETATM    5  C9  UNL     1      17.379  -6.835   5.174  1.00  0.00     0.123 A 
HETATM    6  C14 UNL     1      17.508  -5.479   5.329  1.00  0.00     0.136 A 
HETATM    7  N15 UNL     1      18.267  -4.725   4.475  1.00  0.00    -0.364 N 
ATOM      8  H15 UNL     1      18.325  -3.720   4.640  1.00  0.00     0.165 HD
ENDROOT
BRANCH   1   9
HETATM    9  C6  UNL     1      19.749  -4.462   2.479  1.00  0.00     0.161 C 
BRANCH   9  10
HETATM   10  C5  UNL     1      19.408  -2.993   2.517  1.00  0.00     0.227 C 
HETATM   11  N6  UNL     1      20.400  -2.027   2.751  1.00  0.00    -0.323 N 
ATOM     12  H6  UNL     1      21.343  -2.394   2.883  1.00  0.00     0.169 HD
HETATM   13  O1  UNL     1      18.222  -2.691   2.330  1.00  0.00    -0.273 OA
BRANCH  11  14
HETATM   14  C4  UNL     1      20.287  -0.636   2.829  1.00  0.00     0.093 A 
HETATM   15  C3  UNL     1      20.165   0.071   4.001  1.00  0.00     0.139 A 
HETATM   16  N5  UNL     1      20.089   1.414   3.991  1.00  0.00    -0.200 N 
HETATM   17  C2  UNL     1      20.125   2.134   2.861  1.00  0.00     0.682 A 
ATOM     18  H5  UNL     1      20.000   1.905   4.881  1.00  0.00     0.183 HD
HETATM   19  N17 UNL     1      20.243   1.462   1.708  1.00  0.00    -0.177 N 
HETATM   20  C15 UNL     1      20.324   0.123   1.657  1.00  0.00     0.160 A 
ATOM     21  H17 UNL     1      20.272   1.988   0.835  1.00  0.00     0.185 HD
HETATM   22  N16 UNL     1      20.437  -0.570   0.416  1.00  0.00    -0.080 NA
BRANCH  17  23
HETATM   23  N4  UNL     1      20.036   3.410   2.944  1.00  0.00    -0.181 N 
HETATM   24  C1  UNL     1      20.140   4.357   1.881  1.00  0.00     0.410 C 
HETATM   25  N2  UNL     1      20.918   5.491   2.341  1.00  0.00    -0.093 NA
HETATM   26  N3  UNL     1      18.814   4.903   1.543  1.00  0.00    -0.042 N 
ATOM     27  H33 UNL     1      18.375   5.419   2.306  1.00  0.00     0.278 HD
ATOM     28  H32 UNL     1      18.845   5.676   0.879  1.00  0.00     0.278 HD
ATOM     29  H31 UNL     1      18.266   4.105   1.220  1.00  0.00     0.278 HD
ATOM     30  H4  UNL     1      19.873   3.792   3.875  1.00  0.00     0.181 HD
BRANCH  25  31
HETATM   31  N1  UNL     1      20.285   6.025   3.467  1.00  0.00    -0.345 N 
ATOM     32  H12 UNL     1      20.193   7.020   3.672  1.00  0.00     0.172 HD
ATOM     33  H11 UNL     1      19.938   5.250   4.033  1.00  0.00     0.172 HD
ENDBRANCH  25  31
ENDBRANCH  17  23
ENDBRANCH  11  14
ENDBRANCH   9  10
ENDBRANCH   1   9
BRANCH   5  34
HETATM   34  N8  UNL     1      16.643  -7.722   5.970  1.00  0.00    -0.315 N 
ATOM     35  H8  UNL     1      17.163  -8.532   6.308  1.00  0.00     0.170 HD
BRANCH  34  36
HETATM   36  C10 UNL     1      15.326  -7.668   6.368  1.00  0.00     0.203 C 
BRANCH  36  37
HETATM   37  O2  UNL     1      14.994  -6.629   7.107  1.00  0.00    -0.340 OA
ATOM     38  H2  UNL     1      14.278  -6.099   6.776  1.00  0.00     0.220 HD
ENDBRANCH  36  37
BRANCH  36  39
HETATM   39  S1  UNL     1      14.072  -8.840   5.985  1.00  0.00     0.046 SA
BRANCH  39  40
HETATM   40  N9  UNL     1      14.656 -10.057   4.830  1.00  0.00    -0.265 N 
HETATM   41  N10 UNL     1      13.989 -11.096   4.584  1.00  0.00    -0.275 N 
ATOM     42  H10 UNL     1      13.099 -11.217   5.067  1.00  0.00     0.189 HD
ATOM     43  H9  UNL     1      15.548  -9.912   4.358  1.00  0.00     0.195 HD
BRANCH  41  44
HETATM   44  C11 UNL     1      14.391 -12.098   3.689  1.00  0.00     0.180 A 
HETATM   45  N11 UNL     1      13.741 -13.207   3.315  1.00  0.00    -0.267 N 
HETATM   46  N12 UNL     1      14.517 -13.825   2.442  1.00  0.00    -0.235 N 
ATOM     47  H11 UNL     1      12.825 -13.516   3.641  1.00  0.00     0.190 HD
HETATM   48  N13 UNL     1      15.631 -13.175   2.230  1.00  0.00    -0.237 N 
ATOM     49  H12 UNL     1      14.276 -14.706   1.986  1.00  0.00     0.208 HD
HETATM   50  C13 UNL     1      15.598 -12.091   2.986  1.00  0.00     0.183 A 
HETATM   51  N14 UNL     1      16.609 -11.091   3.068  1.00  0.00    -0.077 NA
BRANCH  48  52
HETATM   52  C12 UNL     1      16.695 -13.587   1.317  1.00  0.00     0.316 C 
BRANCH  52  53
HETATM   53  O3  UNL     1      17.089 -12.592   0.449  1.00  0.00    -0.380 OA
ATOM     54  H3  UNL     1      17.933 -12.756   0.043  1.00  0.00     0.211 HD
ENDBRANCH  52  53
ENDBRANCH  48  52
ENDBRANCH  41  44
ENDBRANCH  39  40
ENDBRANCH  36  39
ENDBRANCH  34  36
ENDBRANCH   5  34
TORSDOF 13
ENDMDL
