MODEL 1
REMARK VINA RESULT: -8.290990856      0.000      0.000
REMARK  15 active torsions:
REMARK  status: ('A' for Active; 'I' for Inactive)
REMARK       I    between atoms: C2_2  and  N1_4 
REMARK    1  A    between atoms: N1_4  and  C3_6 
REMARK    2  A    between atoms: C4_7  and  C5_8 
REMARK    3  A    between atoms: C5_8  and  O2_9 
REMARK    4  A    between atoms: C5_8  and  O3_11 
REMARK    5  A    between atoms: C6_14  and  C7_15 
REMARK    6  A    between atoms: C7_15  and  O5_16 
REMARK    7  A    between atoms: C7_15  and  O6_18 
REMARK    8  A    between atoms: C9_21  and  N2_22 
REMARK    9  A    between atoms: N2_22  and  N3_24 
REMARK   10  A    between atoms: N3_24  and  C10_26 
REMARK   11  A    between atoms: C11_27  and  O7_28 
REMARK   12  A    between atoms: N5_34  and  C14_35 
REMARK   13  A    between atoms: C14_35  and  C15_36 
REMARK   14  A    between atoms: N7_40  and  O9_42 
REMARK   15  A    between atoms: C18_44  and  N8_45 
ROOT
HETATM    1  C15 UNL     1      17.074  -5.248   6.196  1.00  0.00     0.144 C 
HETATM    2  C16 UNL     1      17.161  -5.434   7.634  1.00  0.00     0.060 C 
HETATM    3  N6  UNL     1      17.260  -5.578   8.799  1.00  0.00    -0.197 NA
ENDROOT
BRANCH   1   4
HETATM    4  C14 UNL     1      15.740  -5.533   5.619  1.00  0.00     0.149 C 
BRANCH   4   5
HETATM    5  N5  UNL     1      15.451  -6.896   5.309  1.00  0.00    -0.281 N 
HETATM    6  C13 UNL     1      14.557  -7.616   5.956  1.00  0.00     0.332 A 
HETATM    7  N4  UNL     1      14.308  -8.882   5.601  1.00  0.00    -0.282 N 
HETATM    8  O8  UNL     1      13.890  -7.132   6.952  1.00  0.00    -0.246 OA
HETATM    9  C11 UNL     1      14.948  -9.469   4.587  1.00  0.00     0.178 A 
HETATM   10  C12 UNL     1      13.316  -9.636   6.341  1.00  0.00     0.163 C 
HETATM   11  C10 UNL     1      15.912  -8.742   3.865  1.00  0.00     0.145 A 
HETATM   12  C17 UNL     1      16.146  -7.460   4.246  1.00  0.00     0.164 A 
HETATM   13  N7  UNL     1      16.994  -6.720   3.692  1.00  0.00    -0.251 N 
ATOM     14  H7  UNL     1      17.034  -5.789   4.107  1.00  0.00     0.196 HD
BRANCH   9  15
HETATM   15  O7  UNL     1      14.675 -10.794   4.227  1.00  0.00    -0.344 OA
ATOM     16  H7  UNL     1      14.664 -11.467   4.898  1.00  0.00     0.219 HD
ENDBRANCH   9  15
BRANCH  11  17
HETATM   17  N3  UNL     1      16.571  -9.417   2.782  1.00  0.00    -0.293 N 
ATOM     18  H3  UNL     1      17.590  -9.381   2.746  1.00  0.00     0.187 HD
BRANCH  17  19
HETATM   19  N2  UNL     1      15.920 -10.105   1.796  1.00  0.00    -0.298 N 
ATOM     20  H2  UNL     1      14.930  -9.889   1.692  1.00  0.00     0.187 HD
BRANCH  19  21
HETATM   21  C9  UNL     1      16.369 -10.963   1.003  1.00  0.00     0.079 C 
HETATM   22  C8  UNL     1      17.342 -10.481   0.093  1.00  0.00     0.071 C 
HETATM   23  C6  UNL     1      17.807 -11.054  -1.064  1.00  0.00     0.110 C 
HETATM   24  O4  UNL     1      17.504 -12.231  -1.549  1.00  0.00    -0.307 OA
HETATM   25  C4  UNL     1      16.717 -13.204  -1.079  1.00  0.00     0.137 C 
HETATM   26  C3  UNL     1      16.257 -13.306   0.209  1.00  0.00     0.098 C 
HETATM   27  C18 UNL     1      15.896 -12.247   1.071  1.00  0.00     0.084 C 
BRANCH  23  28
HETATM   28  C7  UNL     1      18.782 -10.230  -1.873  1.00  0.00     0.312 C 
BRANCH  28  29
HETATM   29  O5  UNL     1      19.688 -11.011  -2.544  1.00  0.00    -0.365 OA
ATOM     30  H5  UNL     1      20.135 -10.532  -3.232  1.00  0.00     0.213 HD
ENDBRANCH  28  29
BRANCH  28  31
HETATM   31  O6  UNL     1      18.060  -9.430  -2.781  1.00  0.00    -0.365 OA
ATOM     32  H6  UNL     1      18.458  -8.568  -2.815  1.00  0.00     0.213 HD
ENDBRANCH  28  31
ENDBRANCH  23  28
BRANCH  25  33
HETATM   33  C5  UNL     1      16.311 -14.252  -2.024  1.00  0.00     0.315 C 
BRANCH  33  34
HETATM   34  O2  UNL     1      16.462 -13.757  -3.350  1.00  0.00    -0.365 OA
ATOM     35  H2  UNL     1      16.281 -14.461  -3.961  1.00  0.00     0.213 HD
ENDBRANCH  33  34
BRANCH  33  36
HETATM   36  O3  UNL     1      14.971 -14.614  -1.946  1.00  0.00    -0.365 OA
ATOM     37  H3  UNL     1      14.818 -15.509  -1.666  1.00  0.00     0.213 HD
ENDBRANCH  33  36
ENDBRANCH  25  33
BRANCH  26  38
HETATM   38  N1  UNL     1      16.137 -14.613   0.727  1.00  0.00    -0.323 N 
HETATM   39  C2  UNL     1      17.254 -15.179   1.401  1.00  0.00     0.218 C 
HETATM   40  C1  UNL     1      17.219 -16.564   1.984  1.00  0.00     0.117 C 
HETATM   41  O1  UNL     1      18.315 -14.518   1.524  1.00  0.00    -0.274 OA
ATOM     42  H1  UNL     1      15.269 -15.138   0.621  1.00  0.00     0.169 HD
ENDBRANCH  26  38
BRANCH  27  43
HETATM   43  N8  UNL     1      15.058 -12.532   1.984  1.00  0.00    -0.395 N 
ATOM     44  H82 UNL     1      15.413 -12.900   2.866  1.00  0.00     0.156 HD
ATOM     45  H81 UNL     1      14.077 -12.366   1.759  1.00  0.00     0.156 HD
ENDBRANCH  27  43
ENDBRANCH  19  21
ENDBRANCH  17  19
ENDBRANCH  11  17
BRANCH  13  46
HETATM   46  O9  UNL     1      17.830  -6.867   2.713  1.00  0.00    -0.288 OA
ATOM     47  H9  UNL     1      18.768  -6.753   2.613  1.00  0.00     0.244 HD
ENDBRANCH  13  46
ENDBRANCH   4   5
ENDBRANCH   1   4
TORSDOF 15
ENDMDL
MODEL 2
REMARK VINA RESULT: -8.148253247      2.447      3.518
REMARK  15 active torsions:
REMARK  status: ('A' for Active; 'I' for Inactive)
REMARK       I    between atoms: C2_2  and  N1_4 
REMARK    1  A    between atoms: N1_4  and  C3_6 
REMARK    2  A    between atoms: C4_7  and  C5_8 
REMARK    3  A    between atoms: C5_8  and  O2_9 
REMARK    4  A    between atoms: C5_8  and  O3_11 
REMARK    5  A    between atoms: C6_14  and  C7_15 
REMARK    6  A    between atoms: C7_15  and  O5_16 
REMARK    7  A    between atoms: C7_15  and  O6_18 
REMARK    8  A    between atoms: C9_21  and  N2_22 
REMARK    9  A    between atoms: N2_22  and  N3_24 
REMARK   10  A    between atoms: N3_24  and  C10_26 
REMARK   11  A    between atoms: C11_27  and  O7_28 
REMARK   12  A    between atoms: N5_34  and  C14_35 
REMARK   13  A    between atoms: C14_35  and  C15_36 
REMARK   14  A    between atoms: N7_40  and  O9_42 
REMARK   15  A    between atoms: C18_44  and  N8_45 
ROOT
HETATM    1  C15 UNL     1      17.120  -5.048   6.435  1.00  0.00     0.144 C 
HETATM    2  C16 UNL     1      17.285  -5.353   7.845  1.00  0.00     0.060 C 
HETATM    3  N6  UNL     1      17.447  -5.592   8.987  1.00  0.00    -0.197 NA
ENDROOT
BRANCH   1   4
HETATM    4  C14 UNL     1      15.766  -5.325   5.900  1.00  0.00     0.149 C 
BRANCH   4   5
HETATM    5  N5  UNL     1      15.510  -6.658   5.460  1.00  0.00    -0.281 N 
HETATM    6  C13 UNL     1      14.632  -7.458   6.030  1.00  0.00     0.332 A 
HETATM    7  N4  UNL     1      14.414  -8.690   5.555  1.00  0.00    -0.282 N 
HETATM    8  O8  UNL     1      13.954  -7.089   7.066  1.00  0.00    -0.246 OA
HETATM    9  C11 UNL     1      15.069  -9.161   4.491  1.00  0.00     0.178 A 
HETATM   10  C12 UNL     1      13.440  -9.535   6.216  1.00  0.00     0.163 C 
HETATM   11  C10 UNL     1      16.017  -8.345   3.846  1.00  0.00     0.145 A 
HETATM   12  C17 UNL     1      16.220  -7.101   4.349  1.00  0.00     0.164 A 
HETATM   13  N7  UNL     1      17.050  -6.291   3.872  1.00  0.00    -0.251 N 
ATOM     14  H7  UNL     1      17.068  -5.404   4.375  1.00  0.00     0.196 HD
BRANCH   9  15
HETATM   15  O7  UNL     1      14.828 -10.451   4.005  1.00  0.00    -0.344 OA
ATOM     16  H7  UNL     1      14.887 -11.192   4.597  1.00  0.00     0.219 HD
ENDBRANCH   9  15
BRANCH  11  17
HETATM   17  N3  UNL     1      16.693  -8.898   2.705  1.00  0.00    -0.293 N 
ATOM     18  H3  UNL     1      16.845  -8.290   1.900  1.00  0.00     0.187 HD
BRANCH  17  19
HETATM   19  N2  UNL     1      17.144 -10.186   2.628  1.00  0.00    -0.298 N 
ATOM     20  H2  UNL     1      16.538 -10.888   3.052  1.00  0.00     0.187 HD
BRANCH  19  21
HETATM   21  C9  UNL     1      18.196 -10.625   2.112  1.00  0.00     0.079 C 
HETATM   22  C8  UNL     1      19.335 -10.585   2.955  1.00  0.00     0.071 C 
HETATM   23  C6  UNL     1      20.661 -10.704   2.626  1.00  0.00     0.110 C 
HETATM   24  O4  UNL     1      21.172 -10.964   1.449  1.00  0.00    -0.307 OA
HETATM   25  C4  UNL     1      20.592 -11.215   0.272  1.00  0.00     0.137 C 
HETATM   26  C3  UNL     1      19.276 -11.552   0.085  1.00  0.00     0.098 C 
HETATM   27  C18 UNL     1      18.165 -11.086   0.822  1.00  0.00     0.084 C 
BRANCH  23  28
HETATM   28  C7  UNL     1      21.649 -10.511   3.754  1.00  0.00     0.312 C 
BRANCH  28  29
HETATM   29  O5  UNL     1      22.708  -9.722   3.385  1.00  0.00    -0.365 OA
ATOM     30  H5  UNL     1      22.450  -8.818   3.246  1.00  0.00     0.213 HD
ENDBRANCH  28  29
BRANCH  28  31
HETATM   31  O6  UNL     1      20.979  -9.946   4.856  1.00  0.00    -0.365 OA
ATOM     32  H6  UNL     1      20.048 -10.116   4.771  1.00  0.00     0.213 HD
ENDBRANCH  28  31
ENDBRANCH  23  28
BRANCH  25  33
HETATM   33  C5  UNL     1      21.439 -11.121  -0.925  1.00  0.00     0.315 C 
BRANCH  33  34
HETATM   34  O2  UNL     1      20.731 -10.406  -1.931  1.00  0.00    -0.365 OA
ATOM     35  H2  UNL     1      19.960 -10.012  -1.540  1.00  0.00     0.213 HD
ENDBRANCH  33  34
BRANCH  33  36
HETATM   36  O3  UNL     1      21.736 -12.343  -1.520  1.00  0.00    -0.365 OA
ATOM     37  H3  UNL     1      22.519 -12.340  -2.058  1.00  0.00     0.213 HD
ENDBRANCH  33  36
ENDBRANCH  25  33
BRANCH  26  38
HETATM   38  N1  UNL     1      19.007 -12.468  -0.953  1.00  0.00    -0.323 N 
HETATM   39  C2  UNL     1      18.959 -13.854  -0.637  1.00  0.00     0.218 C 
HETATM   40  C1  UNL     1      18.680 -14.903  -1.678  1.00  0.00     0.117 C 
HETATM   41  O1  UNL     1      19.152 -14.237   0.543  1.00  0.00    -0.274 OA
ATOM     42  H1  UNL     1      18.851 -12.144  -1.908  1.00  0.00     0.169 HD
ENDBRANCH  26  38
BRANCH  27  43
HETATM   43  N8  UNL     1      17.047 -11.104   0.217  1.00  0.00    -0.395 N 
ATOM     44  H82 UNL     1      16.482 -10.254   0.221  1.00  0.00     0.156 HD
ATOM     45  H81 UNL     1      16.796 -11.984  -0.234  1.00  0.00     0.156 HD
ENDBRANCH  27  43
ENDBRANCH  19  21
ENDBRANCH  17  19
ENDBRANCH  11  17
BRANCH  13  46
HETATM   46  O9  UNL     1      17.890  -6.323   2.886  1.00  0.00    -0.288 OA
ATOM     47  H9  UNL     1      18.760  -6.686   2.761  1.00  0.00     0.244 HD
ENDBRANCH  13  46
ENDBRANCH   4   5
ENDBRANCH   1   4
TORSDOF 15
ENDMDL
MODEL 3
REMARK VINA RESULT: -8.055884831      0.932      1.014
REMARK  15 active torsions:
REMARK  status: ('A' for Active; 'I' for Inactive)
REMARK       I    between atoms: C2_2  and  N1_4 
REMARK    1  A    between atoms: N1_4  and  C3_6 
REMARK    2  A    between atoms: C4_7  and  C5_8 
REMARK    3  A    between atoms: C5_8  and  O2_9 
REMARK    4  A    between atoms: C5_8  and  O3_11 
REMARK    5  A    between atoms: C6_14  and  C7_15 
REMARK    6  A    between atoms: C7_15  and  O5_16 
REMARK    7  A    between atoms: C7_15  and  O6_18 
REMARK    8  A    between atoms: C9_21  and  N2_22 
REMARK    9  A    between atoms: N2_22  and  N3_24 
REMARK   10  A    between atoms: N3_24  and  C10_26 
REMARK   11  A    between atoms: C11_27  and  O7_28 
REMARK   12  A    between atoms: N5_34  and  C14_35 
REMARK   13  A    between atoms: C14_35  and  C15_36 
REMARK   14  A    between atoms: N7_40  and  O9_42 
REMARK   15  A    between atoms: C18_44  and  N8_45 
ROOT
HETATM    1  C15 UNL     1      17.090  -5.200   6.190  1.00  0.00     0.144 C 
HETATM    2  C16 UNL     1      17.187  -5.404   7.625  1.00  0.00     0.060 C 
HETATM    3  N6  UNL     1      17.294  -5.561   8.787  1.00  0.00    -0.197 NA
ENDROOT
BRANCH   1   4
HETATM    4  C14 UNL     1      15.753  -5.483   5.618  1.00  0.00     0.149 C 
BRANCH   4   5
HETATM    5  N5  UNL     1      15.458  -6.847   5.316  1.00  0.00    -0.281 N 
HETATM    6  C13 UNL     1      14.555  -7.557   5.961  1.00  0.00     0.332 A 
HETATM    7  N4  UNL     1      14.302  -8.824   5.613  1.00  0.00    -0.282 N 
HETATM    8  O8  UNL     1      13.884  -7.063   6.949  1.00  0.00    -0.246 OA
HETATM    9  C11 UNL     1      14.946  -9.422   4.608  1.00  0.00     0.178 A 
HETATM   10  C12 UNL     1      13.300  -9.568   6.351  1.00  0.00     0.163 C 
HETATM   11  C10 UNL     1      15.920  -8.706   3.888  1.00  0.00     0.145 A 
HETATM   12  C17 UNL     1      16.158  -7.423   4.261  1.00  0.00     0.164 A 
HETATM   13  N7  UNL     1      17.014  -6.691   3.709  1.00  0.00    -0.251 N 
ATOM     14  H7  UNL     1      17.057  -5.758   4.118  1.00  0.00     0.196 HD
BRANCH   9  15
HETATM   15  O7  UNL     1      14.668 -10.748   4.256  1.00  0.00    -0.344 OA
ATOM     16  H7  UNL     1      15.338 -11.412   4.370  1.00  0.00     0.219 HD
ENDBRANCH   9  15
BRANCH  11  17
HETATM   17  N3  UNL     1      16.583  -9.392   2.815  1.00  0.00    -0.293 N 
ATOM     18  H3  UNL     1      17.602  -9.376   2.795  1.00  0.00     0.187 HD
BRANCH  17  19
HETATM   19  N2  UNL     1      15.934 -10.067   1.817  1.00  0.00    -0.298 N 
ATOM     20  H2  UNL     1      14.949  -9.834   1.701  1.00  0.00     0.187 HD
BRANCH  19  21
HETATM   21  C9  UNL     1      16.379 -10.928   1.028  1.00  0.00     0.079 C 
HETATM   22  C8  UNL     1      17.320 -10.444   0.085  1.00  0.00     0.071 C 
HETATM   23  C6  UNL     1      17.766 -11.028  -1.073  1.00  0.00     0.110 C 
HETATM   24  O4  UNL     1      17.475 -12.219  -1.531  1.00  0.00    -0.307 OA
HETATM   25  C4  UNL     1      16.720 -13.198  -1.024  1.00  0.00     0.137 C 
HETATM   26  C3  UNL     1      16.295 -13.287   0.276  1.00  0.00     0.098 C 
HETATM   27  C18 UNL     1      15.935 -12.221   1.130  1.00  0.00     0.084 C 
BRANCH  23  28
HETATM   28  C7  UNL     1      18.704 -10.199  -1.921  1.00  0.00     0.312 C 
BRANCH  28  29
HETATM   29  O5  UNL     1      19.575 -10.976  -2.641  1.00  0.00    -0.365 OA
ATOM     30  H5  UNL     1      20.466 -10.650  -2.598  1.00  0.00     0.213 HD
ENDBRANCH  28  29
BRANCH  28  31
HETATM   31  O6  UNL     1      17.942  -9.389  -2.786  1.00  0.00    -0.365 OA
ATOM     32  H6  UNL     1      18.346  -8.531  -2.840  1.00  0.00     0.213 HD
ENDBRANCH  28  31
ENDBRANCH  23  28
BRANCH  25  33
HETATM   33  C5  UNL     1      16.312 -14.271  -1.941  1.00  0.00     0.315 C 
BRANCH  33  34
HETATM   34  O2  UNL     1      17.424 -14.625  -2.755  1.00  0.00    -0.365 OA
ATOM     35  H2  UNL     1      17.764 -15.462  -2.460  1.00  0.00     0.213 HD
ENDBRANCH  33  34
BRANCH  33  36
HETATM   36  O3  UNL     1      15.324 -13.909  -2.851  1.00  0.00    -0.365 OA
ATOM     37  H3  UNL     1      14.621 -13.387  -2.484  1.00  0.00     0.213 HD
ENDBRANCH  33  36
ENDBRANCH  25  33
BRANCH  26  38
HETATM   38  N1  UNL     1      16.214 -14.587   0.819  1.00  0.00    -0.323 N 
HETATM   39  C2  UNL     1      14.935 -15.202   0.916  1.00  0.00     0.218 C 
HETATM   40  C1  UNL     1      14.752 -16.583   1.481  1.00  0.00     0.117 C 
HETATM   41  O1  UNL     1      13.912 -14.590   0.521  1.00  0.00    -0.274 OA
ATOM     42  H1  UNL     1      17.053 -15.073   1.136  1.00  0.00     0.169 HD
ENDBRANCH  26  38
BRANCH  27  43
HETATM   43  N8  UNL     1      15.126 -12.506   2.069  1.00  0.00    -0.395 N 
ATOM     44  H82 UNL     1      14.498 -13.299   1.940  1.00  0.00     0.156 HD
ATOM     45  H81 UNL     1      15.169 -11.908   2.893  1.00  0.00     0.156 HD
ENDBRANCH  27  43
ENDBRANCH  19  21
ENDBRANCH  17  19
ENDBRANCH  11  17
BRANCH  13  46
HETATM   46  O9  UNL     1      17.856  -6.849   2.736  1.00  0.00    -0.288 OA
ATOM     47  H9  UNL     1      18.668  -6.427   2.481  1.00  0.00     0.244 HD
ENDBRANCH  13  46
ENDBRANCH   4   5
ENDBRANCH   1   4
TORSDOF 15
ENDMDL
MODEL 4
REMARK VINA RESULT: -7.978431297      1.004      1.073
REMARK  15 active torsions:
REMARK  status: ('A' for Active; 'I' for Inactive)
REMARK       I    between atoms: C2_2  and  N1_4 
REMARK    1  A    between atoms: N1_4  and  C3_6 
REMARK    2  A    between atoms: C4_7  and  C5_8 
REMARK    3  A    between atoms: C5_8  and  O2_9 
REMARK    4  A    between atoms: C5_8  and  O3_11 
REMARK    5  A    between atoms: C6_14  and  C7_15 
REMARK    6  A    between atoms: C7_15  and  O5_16 
REMARK    7  A    between atoms: C7_15  and  O6_18 
REMARK    8  A    between atoms: C9_21  and  N2_22 
REMARK    9  A    between atoms: N2_22  and  N3_24 
REMARK   10  A    between atoms: N3_24  and  C10_26 
REMARK   11  A    between atoms: C11_27  and  O7_28 
REMARK   12  A    between atoms: N5_34  and  C14_35 
REMARK   13  A    between atoms: C14_35  and  C15_36 
REMARK   14  A    between atoms: N7_40  and  O9_42 
REMARK   15  A    between atoms: C18_44  and  N8_45 
ROOT
HETATM    1  C15 UNL     1      16.973  -5.236   6.313  1.00  0.00     0.144 C 
HETATM    2  C16 UNL     1      17.195  -5.398   7.739  1.00  0.00     0.060 C 
HETATM    3  N6  UNL     1      17.402  -5.520   8.892  1.00  0.00    -0.197 NA
ENDROOT
BRANCH   1   4
HETATM    4  C14 UNL     1      15.606  -5.584   5.859  1.00  0.00     0.149 C 
BRANCH   4   5
HETATM    5  N5  UNL     1      15.399  -6.922   5.409  1.00  0.00    -0.281 N 
HETATM    6  C13 UNL     1      14.541  -7.754   5.964  1.00  0.00     0.332 A 
HETATM    7  N4  UNL     1      14.370  -8.989   5.480  1.00  0.00    -0.282 N 
HETATM    8  O8  UNL     1      13.837  -7.412   6.992  1.00  0.00    -0.246 OA
HETATM    9  C11 UNL     1      15.054  -9.433   4.422  1.00  0.00     0.178 A 
HETATM   10  C12 UNL     1      13.415  -9.869   6.123  1.00  0.00     0.163 C 
HETATM   11  C10 UNL     1      15.983  -8.583   3.794  1.00  0.00     0.145 A 
HETATM   12  C17 UNL     1      16.138  -7.336   4.306  1.00  0.00     0.164 A 
HETATM   13  N7  UNL     1      16.948  -6.497   3.844  1.00  0.00    -0.251 N 
ATOM     14  H7  UNL     1      16.930  -5.612   4.351  1.00  0.00     0.196 HD
BRANCH   9  15
HETATM   15  O7  UNL     1      14.861 -10.728   3.926  1.00  0.00    -0.344 OA
ATOM     16  H7  UNL     1      15.455 -11.068   3.267  1.00  0.00     0.219 HD
ENDBRANCH   9  15
BRANCH  11  17
HETATM   17  N3  UNL     1      16.691  -9.107   2.659  1.00  0.00    -0.293 N 
ATOM     18  H3  UNL     1      16.714  -8.544   1.809  1.00  0.00     0.187 HD
BRANCH  17  19
HETATM   19  N2  UNL     1      17.338 -10.312   2.646  1.00  0.00    -0.298 N 
ATOM     20  H2  UNL     1      17.614 -10.670   3.560  1.00  0.00     0.187 HD
BRANCH  19  21
HETATM   21  C9  UNL     1      17.639 -11.036   1.672  1.00  0.00     0.079 C 
HETATM   22  C8  UNL     1      18.347 -10.378   0.637  1.00  0.00     0.071 C 
HETATM   23  C6  UNL     1      18.564 -10.780  -0.657  1.00  0.00     0.110 C 
HETATM   24  O4  UNL     1      18.225 -11.918  -1.207  1.00  0.00    -0.307 OA
HETATM   25  C4  UNL     1      17.624 -12.999  -0.700  1.00  0.00     0.137 C 
HETATM   26  C3  UNL     1      17.480 -13.280   0.635  1.00  0.00     0.098 C 
HETATM   27  C18 UNL     1      17.269 -12.356   1.682  1.00  0.00     0.084 C 
BRANCH  23  28
HETATM   28  C7  UNL     1      19.278  -9.793  -1.553  1.00  0.00     0.312 C 
BRANCH  28  29
HETATM   29  O5  UNL     1      20.568 -10.175  -1.819  1.00  0.00    -0.365 OA
ATOM     30  H5  UNL     1      20.989  -9.600  -2.448  1.00  0.00     0.213 HD
ENDBRANCH  28  29
BRANCH  28  31
HETATM   31  O6  UNL     1      18.551  -9.658  -2.752  1.00  0.00    -0.365 OA
ATOM     32  H6  UNL     1      18.405  -8.734  -2.920  1.00  0.00     0.213 HD
ENDBRANCH  28  31
ENDBRANCH  23  28
BRANCH  25  33
HETATM   33  C5  UNL     1      17.072 -13.968  -1.655  1.00  0.00     0.315 C 
BRANCH  33  34
HETATM   34  O2  UNL     1      18.142 -14.722  -2.214  1.00  0.00    -0.365 OA
ATOM     35  H2  UNL     1      18.843 -14.776  -1.575  1.00  0.00     0.213 HD
ENDBRANCH  33  34
BRANCH  33  36
HETATM   36  O3  UNL     1      16.443 -13.400  -2.757  1.00  0.00    -0.365 OA
ATOM     37  H3  UNL     1      16.217 -14.015  -3.444  1.00  0.00     0.213 HD
ENDBRANCH  33  36
ENDBRANCH  25  33
BRANCH  26  38
HETATM   38  N1  UNL     1      17.557 -14.641   0.998  1.00  0.00    -0.323 N 
HETATM   39  C2  UNL     1      18.835 -15.191   1.296  1.00  0.00     0.218 C 
HETATM   40  C1  UNL     1      19.015 -16.630   1.691  1.00  0.00     0.117 C 
HETATM   41  O1  UNL     1      19.860 -14.468   1.233  1.00  0.00    -0.274 OA
ATOM     42  H1  UNL     1      16.717 -15.217   1.046  1.00  0.00     0.169 HD
ENDBRANCH  26  38
BRANCH  27  43
HETATM   43  N8  UNL     1      16.682 -12.808   2.715  1.00  0.00    -0.395 N 
ATOM     44  H82 UNL     1      15.702 -13.079   2.633  1.00  0.00     0.156 HD
ATOM     45  H81 UNL     1      17.247 -12.865   3.562  1.00  0.00     0.156 HD
ENDBRANCH  27  43
ENDBRANCH  19  21
ENDBRANCH  17  19
ENDBRANCH  11  17
BRANCH  13  46
HETATM   46  O9  UNL     1      17.802  -6.496   2.869  1.00  0.00    -0.288 OA
ATOM     47  H9  UNL     1      18.659  -6.111   2.733  1.00  0.00     0.244 HD
ENDBRANCH  13  46
ENDBRANCH   4   5
ENDBRANCH   1   4
TORSDOF 15
ENDMDL
MODEL 5
REMARK VINA RESULT: -7.975244028      0.917      1.314
REMARK  15 active torsions:
REMARK  status: ('A' for Active; 'I' for Inactive)
REMARK       I    between atoms: C2_2  and  N1_4 
REMARK    1  A    between atoms: N1_4  and  C3_6 
REMARK    2  A    between atoms: C4_7  and  C5_8 
REMARK    3  A    between atoms: C5_8  and  O2_9 
REMARK    4  A    between atoms: C5_8  and  O3_11 
REMARK    5  A    between atoms: C6_14  and  C7_15 
REMARK    6  A    between atoms: C7_15  and  O5_16 
REMARK    7  A    between atoms: C7_15  and  O6_18 
REMARK    8  A    between atoms: C9_21  and  N2_22 
REMARK    9  A    between atoms: N2_22  and  N3_24 
REMARK   10  A    between atoms: N3_24  and  C10_26 
REMARK   11  A    between atoms: C11_27  and  O7_28 
REMARK   12  A    between atoms: N5_34  and  C14_35 
REMARK   13  A    between atoms: C14_35  and  C15_36 
REMARK   14  A    between atoms: N7_40  and  O9_42 
REMARK   15  A    between atoms: C18_44  and  N8_45 
ROOT
HETATM    1  C15 UNL     1      15.219  -4.742   4.867  1.00  0.00     0.144 C 
HETATM    2  C16 UNL     1      16.138  -4.045   3.984  1.00  0.00     0.060 C 
HETATM    3  N6  UNL     1      16.862  -3.464   3.259  1.00  0.00    -0.197 NA
ENDROOT
BRANCH   1   4
HETATM    4  C14 UNL     1      15.831  -5.840   5.651  1.00  0.00     0.149 C 
BRANCH   4   5
HETATM    5  N5  UNL     1      15.440  -7.169   5.309  1.00  0.00    -0.281 N 
HETATM    6  C13 UNL     1      14.449  -7.810   5.893  1.00  0.00     0.332 A 
HETATM    7  N4  UNL     1      14.109  -9.046   5.510  1.00  0.00    -0.282 N 
HETATM    8  O8  UNL     1      13.771  -7.275   6.855  1.00  0.00    -0.246 OA
HETATM    9  C11 UNL     1      14.753  -9.682   4.527  1.00  0.00     0.178 A 
HETATM   10  C12 UNL     1      13.012  -9.713   6.182  1.00  0.00     0.163 C 
HETATM   11  C10 UNL     1      15.819  -9.040   3.872  1.00  0.00     0.145 A 
HETATM   12  C17 UNL     1      16.144  -7.787   4.281  1.00  0.00     0.164 A 
HETATM   13  N7  UNL     1      17.086  -7.122   3.786  1.00  0.00    -0.251 N 
ATOM     14  H7  UNL     1      17.184  -6.201   4.214  1.00  0.00     0.196 HD
BRANCH   9  15
HETATM   15  O7  UNL     1      14.384 -10.974   4.137  1.00  0.00    -0.344 OA
ATOM     16  H7  UNL     1      14.865 -11.720   4.476  1.00  0.00     0.219 HD
ENDBRANCH   9  15
BRANCH  11  17
HETATM   17  N3  UNL     1      16.478  -9.764   2.821  1.00  0.00    -0.293 N 
ATOM     18  H3  UNL     1      17.497  -9.803   2.833  1.00  0.00     0.187 HD
BRANCH  17  19
HETATM   19  N2  UNL     1      15.826 -10.405   1.804  1.00  0.00    -0.298 N 
ATOM     20  H2  UNL     1      14.834 -10.188   1.715  1.00  0.00     0.187 HD
BRANCH  19  21
HETATM   21  C9  UNL     1      16.275 -11.220   0.967  1.00  0.00     0.079 C 
HETATM   22  C8  UNL     1      17.276 -10.702   0.110  1.00  0.00     0.071 C 
HETATM   23  C6  UNL     1      17.754 -11.211  -1.071  1.00  0.00     0.110 C 
HETATM   24  O4  UNL     1      17.440 -12.348  -1.636  1.00  0.00    -0.307 OA
HETATM   25  C4  UNL     1      16.625 -13.332  -1.244  1.00  0.00     0.137 C 
HETATM   26  C3  UNL     1      16.136 -13.506   0.025  1.00  0.00     0.098 C 
HETATM   27  C18 UNL     1      15.777 -12.496   0.945  1.00  0.00     0.084 C 
BRANCH  23  28
HETATM   28  C7  UNL     1      18.762 -10.357  -1.807  1.00  0.00     0.312 C 
BRANCH  28  29
HETATM   29  O5  UNL     1      19.730 -11.111  -2.420  1.00  0.00    -0.365 OA
ATOM     30  H5  UNL     1      19.929 -11.903  -1.934  1.00  0.00     0.213 HD
ENDBRANCH  28  29
BRANCH  28  31
HETATM   31  O6  UNL     1      18.085  -9.567  -2.757  1.00  0.00    -0.365 OA
ATOM     32  H6  UNL     1      18.613  -9.513  -3.545  1.00  0.00     0.213 HD
ENDBRANCH  28  31
ENDBRANCH  23  28
BRANCH  25  33
HETATM   33  C5  UNL     1      16.220 -14.311  -2.262  1.00  0.00     0.315 C 
BRANCH  33  34
HETATM   34  O2  UNL     1      16.290 -13.695  -3.543  1.00  0.00    -0.365 OA
ATOM     35  H2  UNL     1      15.833 -14.243  -4.170  1.00  0.00     0.213 HD
ENDBRANCH  33  34
BRANCH  33  36
HETATM   36  O3  UNL     1      14.900 -14.738  -2.160  1.00  0.00    -0.365 OA
ATOM     37  H3  UNL     1      14.788 -15.578  -1.732  1.00  0.00     0.213 HD
ENDBRANCH  33  36
ENDBRANCH  25  33
BRANCH  26  38
HETATM   38  N1  UNL     1      15.980 -14.840   0.457  1.00  0.00    -0.323 N 
HETATM   39  C2  UNL     1      17.092 -15.490   1.061  1.00  0.00     0.218 C 
HETATM   40  C1  UNL     1      17.019 -16.909   1.551  1.00  0.00     0.117 C 
HETATM   41  O1  UNL     1      18.179 -14.877   1.200  1.00  0.00    -0.274 OA
ATOM     42  H1  UNL     1      15.091 -15.326   0.339  1.00  0.00     0.169 HD
ENDBRANCH  26  38
BRANCH  27  43
HETATM   43  N8  UNL     1      14.914 -12.821   1.821  1.00  0.00    -0.395 N 
ATOM     44  H82 UNL     1      15.154 -13.559   2.483  1.00  0.00     0.156 HD
ATOM     45  H81 UNL     1      14.033 -12.308   1.794  1.00  0.00     0.156 HD
ENDBRANCH  27  43
ENDBRANCH  19  21
ENDBRANCH  17  19
ENDBRANCH  11  17
BRANCH  13  46
HETATM   46  O9  UNL     1      17.961  -7.337   2.855  1.00  0.00    -0.288 OA
ATOM     47  H9  UNL     1      17.954  -7.284   1.907  1.00  0.00     0.244 HD
ENDBRANCH  13  46
ENDBRANCH   4   5
ENDBRANCH   1   4
TORSDOF 15
ENDMDL
