MODEL 1
REMARK VINA RESULT: -6.902278736      0.000      0.000
REMARK  7 active torsions:
REMARK  status: ('A' for Active; 'I' for Inactive)
REMARK    1  A    between atoms: C2_2  and  C3_3 
REMARK    2  A    between atoms: C3_3  and  C4_4 
REMARK    3  A    between atoms: C4_4  and  C5_6 
REMARK    4  A    between atoms: C5_6  and  N1_7 
REMARK    5  A    between atoms: C5_6  and  C16_20 
REMARK       I    between atoms: N1_7  and  C6_9 
REMARK    6  A    between atoms: C6_9  and  C7_11 
REMARK    7  A    between atoms: C12_16  and  C13_17 
ROOT
HETATM    1  N1  UNL     1       2.018  26.227   6.533  1.00  0.00    -0.347 N 
ATOM      2  H1  UNL     1       2.775  26.145   7.211  1.00  0.00     0.163 HD
HETATM    3  C6  UNL     1       0.708  25.887   6.949  1.00  0.00     0.227 C 
HETATM    4  O2  UNL     1      -0.211  25.999   6.093  1.00  0.00    -0.273 OA
ENDROOT
BRANCH   1   5
HETATM    5  C5  UNL     1       2.339  26.684   5.206  1.00  0.00     0.187 C 
BRANCH   5   6
HETATM    6  C4  UNL     1       1.758  27.987   4.876  1.00  0.00     0.154 C 
HETATM    7  O1  UNL     1       2.098  28.932   5.612  1.00  0.00    -0.295 OA
BRANCH   6   8
HETATM    8  C3  UNL     1       0.827  28.314   3.793  1.00  0.00     0.107 C 
BRANCH   8   9
HETATM    9  C2  UNL     1       0.856  27.326   2.688  1.00  0.00    -0.029 C 
HETATM   10  C1  UNL     1       0.482  27.686   1.468  1.00  0.00     0.007 C 
ENDBRANCH   8   9
ENDBRANCH   6   8
ENDBRANCH   5   6
BRANCH   5  11
HETATM   11  C16 UNL     1       3.845  26.801   5.111  1.00  0.00     0.255 C 
HETATM   12  C17 UNL     1       4.514  25.478   4.781  1.00  0.00     0.073 C 
HETATM   13  C18 UNL     1       4.517  25.893   3.325  1.00  0.00     0.221 C 
HETATM   14  C19 UNL     1       5.850  25.620   2.700  1.00  0.00     0.043 C 
HETATM   15  N2  UNL     1       4.327  27.262   3.798  1.00  0.00     0.095 N 
HETATM   16  C20 UNL     1       5.636  27.892   3.944  1.00  0.00     0.310 C 
ENDBRANCH   5  11
ENDBRANCH   1   5
BRANCH   3  17
HETATM   17  C7  UNL     1       0.359  25.419   8.291  1.00  0.00     0.046 C 
HETATM   18  C8  UNL     1       0.173  23.969   8.513  1.00  0.00     0.020 C 
HETATM   19  C9  UNL     1      -1.190  23.784   9.054  1.00  0.00     0.002 C 
HETATM   20  C10 UNL     1      -1.470  25.076   9.801  1.00  0.00     0.006 C 
HETATM   21  C11 UNL     1      -0.862  26.098   8.903  1.00  0.00     0.011 C 
HETATM   22  C12 UNL     1       0.009  27.164   9.464  1.00  0.00     0.014 C 
HETATM   23  C15 UNL     1       1.146  26.107   9.438  1.00  0.00     0.028 C 
BRANCH  22  24
HETATM   24  C13 UNL     1      -0.153  27.648  10.821  1.00  0.00    -0.032 C 
HETATM   25  C14 UNL     1      -0.247  28.908  11.143  1.00  0.00     0.007 C 
ENDBRANCH  22  24
ENDBRANCH   3  17
TORSDOF 7
ENDMDL
MODEL 2
REMARK VINA RESULT: -6.802946633      0.849      2.423
REMARK  7 active torsions:
REMARK  status: ('A' for Active; 'I' for Inactive)
REMARK    1  A    between atoms: C2_2  and  C3_3 
REMARK    2  A    between atoms: C3_3  and  C4_4 
REMARK    3  A    between atoms: C4_4  and  C5_6 
REMARK    4  A    between atoms: C5_6  and  N1_7 
REMARK    5  A    between atoms: C5_6  and  C16_20 
REMARK       I    between atoms: N1_7  and  C6_9 
REMARK    6  A    between atoms: C6_9  and  C7_11 
REMARK    7  A    between atoms: C12_16  and  C13_17 
ROOT
HETATM    1  N1  UNL     1       1.965  26.180   6.779  1.00  0.00    -0.347 N 
ATOM      2  H1  UNL     1       2.751  26.101   7.423  1.00  0.00     0.163 HD
HETATM    3  C6  UNL     1       0.658  26.006   7.295  1.00  0.00     0.227 C 
HETATM    4  O2  UNL     1      -0.298  26.111   6.479  1.00  0.00    -0.273 OA
ENDROOT
BRANCH   1   5
HETATM    5  C5  UNL     1       2.244  26.464   5.396  1.00  0.00     0.187 C 
BRANCH   5   6
HETATM    6  C4  UNL     1       1.590  27.677   4.902  1.00  0.00     0.154 C 
HETATM    7  O1  UNL     1       1.935  28.740   5.452  1.00  0.00    -0.295 OA
BRANCH   6   8
HETATM    8  C3  UNL     1       0.581  27.795   3.845  1.00  0.00     0.107 C 
BRANCH   8   9
HETATM    9  C2  UNL     1       1.136  27.575   2.488  1.00  0.00    -0.029 C 
HETATM   10  C1  UNL     1       0.333  27.585   1.434  1.00  0.00     0.007 C 
ENDBRANCH   8   9
ENDBRANCH   6   8
ENDBRANCH   5   6
BRANCH   5  11
HETATM   11  C16 UNL     1       3.740  26.643   5.255  1.00  0.00     0.255 C 
HETATM   12  C17 UNL     1       4.452  25.352   4.892  1.00  0.00     0.073 C 
HETATM   13  C18 UNL     1       4.391  25.778   3.440  1.00  0.00     0.221 C 
HETATM   14  C19 UNL     1       5.714  25.565   2.772  1.00  0.00     0.043 C 
HETATM   15  N2  UNL     1       4.161  27.134   3.931  1.00  0.00     0.095 N 
HETATM   16  C20 UNL     1       5.448  27.816   4.043  1.00  0.00     0.310 C 
ENDBRANCH   5  11
ENDBRANCH   1   5
BRANCH   3  17
HETATM   17  C7  UNL     1       0.351  25.715   8.696  1.00  0.00     0.046 C 
HETATM   18  C8  UNL     1       0.804  26.664   9.736  1.00  0.00     0.020 C 
HETATM   19  C9  UNL     1       1.648  25.902  10.681  1.00  0.00     0.002 C 
HETATM   20  C10 UNL     1       1.090  24.491  10.620  1.00  0.00     0.006 C 
HETATM   21  C11 UNL     1       0.791  24.333   9.169  1.00  0.00     0.011 C 
HETATM   22  C12 UNL     1      -0.512  23.766   8.731  1.00  0.00     0.014 C 
HETATM   23  C15 UNL     1      -1.088  25.192   8.946  1.00  0.00     0.028 C 
BRANCH  22  24
HETATM   24  C13 UNL     1      -1.253  22.829   9.552  1.00  0.00    -0.032 C 
HETATM   25  C14 UNL     1      -1.991  21.865   9.079  1.00  0.00     0.007 C 
ENDBRANCH  22  24
ENDBRANCH   3  17
TORSDOF 7
ENDMDL
MODEL 3
REMARK VINA RESULT: -6.752056635      2.055      7.028
REMARK  7 active torsions:
REMARK  status: ('A' for Active; 'I' for Inactive)
REMARK    1  A    between atoms: C2_2  and  C3_3 
REMARK    2  A    between atoms: C3_3  and  C4_4 
REMARK    3  A    between atoms: C4_4  and  C5_6 
REMARK    4  A    between atoms: C5_6  and  N1_7 
REMARK    5  A    between atoms: C5_6  and  C16_20 
REMARK       I    between atoms: N1_7  and  C6_9 
REMARK    6  A    between atoms: C6_9  and  C7_11 
REMARK    7  A    between atoms: C12_16  and  C13_17 
ROOT
HETATM    1  N1  UNL     1       3.716  27.112   3.321  1.00  0.00    -0.347 N 
ATOM      2  H1  UNL     1       3.926  27.968   2.808  1.00  0.00     0.163 HD
HETATM    3  C6  UNL     1       4.776  26.212   3.585  1.00  0.00     0.227 C 
HETATM    4  O2  UNL     1       4.490  25.163   4.222  1.00  0.00    -0.273 OA
ENDROOT
BRANCH   1   5
HETATM    5  C5  UNL     1       2.356  26.887   3.738  1.00  0.00     0.187 C 
BRANCH   5   6
HETATM    6  C4  UNL     1       2.160  27.000   5.185  1.00  0.00     0.154 C 
HETATM    7  O1  UNL     1       2.183  28.158   5.645  1.00  0.00    -0.295 OA
BRANCH   6   8
HETATM    8  C3  UNL     1       1.943  25.924   6.155  1.00  0.00     0.107 C 
BRANCH   8   9
HETATM    9  C2  UNL     1       0.647  26.039   6.867  1.00  0.00    -0.029 C 
HETATM   10  C1  UNL     1       0.452  25.377   7.998  1.00  0.00     0.007 C 
ENDBRANCH   8   9
ENDBRANCH   6   8
ENDBRANCH   5   6
BRANCH   5  11
HETATM   11  C16 UNL     1       1.488  27.925   3.061  1.00  0.00     0.255 C 
HETATM   12  C17 UNL     1       1.365  27.698   1.565  1.00  0.00     0.073 C 
HETATM   13  C18 UNL     1       0.066  26.965   1.828  1.00  0.00     0.221 C 
HETATM   14  C19 UNL     1      -0.995  27.414   0.872  1.00  0.00     0.043 C 
HETATM   15  N2  UNL     1       0.046  27.633   3.127  1.00  0.00     0.095 N 
HETATM   16  C20 UNL     1      -0.717  28.872   3.004  1.00  0.00     0.310 C 
ENDBRANCH   5  11
ENDBRANCH   1   5
BRANCH   3  17
HETATM   17  C7  UNL     1       6.164  26.420   3.168  1.00  0.00     0.046 C 
HETATM   18  C8  UNL     1       6.630  25.798   1.910  1.00  0.00     0.020 C 
HETATM   19  C9  UNL     1       7.788  24.945   2.251  1.00  0.00     0.002 C 
HETATM   20  C10 UNL     1       8.406  25.627   3.460  1.00  0.00     0.006 C 
HETATM   21  C11 UNL     1       7.205  26.063   4.225  1.00  0.00     0.011 C 
HETATM   22  C12 UNL     1       7.126  27.444   4.771  1.00  0.00     0.014 C 
HETATM   23  C15 UNL     1       6.679  27.872   3.347  1.00  0.00     0.028 C 
BRANCH  22  24
HETATM   24  C13 UNL     1       8.314  28.190   5.138  1.00  0.00    -0.032 C 
HETATM   25  C14 UNL     1       8.941  28.057   6.272  1.00  0.00     0.007 C 
ENDBRANCH  22  24
ENDBRANCH   3  17
TORSDOF 7
ENDMDL
MODEL 4
REMARK VINA RESULT: -6.515813156      1.360      2.078
REMARK  7 active torsions:
REMARK  status: ('A' for Active; 'I' for Inactive)
REMARK    1  A    between atoms: C2_2  and  C3_3 
REMARK    2  A    between atoms: C3_3  and  C4_4 
REMARK    3  A    between atoms: C4_4  and  C5_6 
REMARK    4  A    between atoms: C5_6  and  N1_7 
REMARK    5  A    between atoms: C5_6  and  C16_20 
REMARK       I    between atoms: N1_7  and  C6_9 
REMARK    6  A    between atoms: C6_9  and  C7_11 
REMARK    7  A    between atoms: C12_16  and  C13_17 
ROOT
HETATM    1  N1  UNL     1       0.670  26.922   6.670  1.00  0.00    -0.347 N 
ATOM      2  H1  UNL     1       0.589  27.873   7.029  1.00  0.00     0.163 HD
HETATM    3  C6  UNL     1       0.298  25.852   7.519  1.00  0.00     0.227 C 
HETATM    4  O2  UNL     1       0.406  24.686   7.051  1.00  0.00    -0.273 OA
ENDROOT
BRANCH   1   5
HETATM    5  C5  UNL     1       1.156  26.741   5.327  1.00  0.00     0.187 C 
BRANCH   5   6
HETATM    6  C4  UNL     1       0.453  27.556   4.334  1.00  0.00     0.154 C 
HETATM    7  O1  UNL     1       0.447  28.783   4.547  1.00  0.00    -0.295 OA
BRANCH   6   8
HETATM    8  C3  UNL     1      -0.243  27.107   3.125  1.00  0.00     0.107 C 
BRANCH   8   9
HETATM    9  C2  UNL     1       0.407  27.572   1.876  1.00  0.00    -0.029 C 
HETATM   10  C1  UNL     1      -0.271  27.574   0.738  1.00  0.00     0.007 C 
ENDBRANCH   8   9
ENDBRANCH   6   8
ENDBRANCH   5   6
BRANCH   5  11
HETATM   11  C16 UNL     1       2.618  27.132   5.309  1.00  0.00     0.255 C 
HETATM   12  C17 UNL     1       3.545  25.934   5.408  1.00  0.00     0.073 C 
HETATM   13  C18 UNL     1       3.652  25.949   3.897  1.00  0.00     0.221 C 
HETATM   14  C19 UNL     1       5.079  25.800   3.468  1.00  0.00     0.043 C 
HETATM   15  N2  UNL     1       3.169  27.326   3.957  1.00  0.00     0.095 N 
HETATM   16  C20 UNL     1       4.319  28.224   4.014  1.00  0.00     0.310 C 
ENDBRANCH   5  11
ENDBRANCH   1   5
BRANCH   3  17
HETATM   17  C7  UNL     1      -0.196  26.013   8.888  1.00  0.00     0.046 C 
HETATM   18  C8  UNL     1      -1.579  26.493   9.093  1.00  0.00     0.020 C 
HETATM   19  C9  UNL     1      -1.496  27.714   9.921  1.00  0.00     0.002 C 
HETATM   20  C10 UNL     1      -0.246  27.510  10.759  1.00  0.00     0.006 C 
HETATM   21  C11 UNL     1       0.686  26.876   9.784  1.00  0.00     0.011 C 
HETATM   22  C12 UNL     1       1.472  25.675  10.172  1.00  0.00     0.014 C 
HETATM   23  C15 UNL     1       0.190  24.860   9.851  1.00  0.00     0.028 C 
BRANCH  22  24
HETATM   24  C13 UNL     1       1.858  25.426  11.547  1.00  0.00    -0.032 C 
HETATM   25  C14 UNL     1       2.949  25.881  12.096  1.00  0.00     0.007 C 
ENDBRANCH  22  24
ENDBRANCH   3  17
TORSDOF 7
ENDMDL
MODEL 5
REMARK VINA RESULT: -6.478823710      2.200      7.212
REMARK  7 active torsions:
REMARK  status: ('A' for Active; 'I' for Inactive)
REMARK    1  A    between atoms: C2_2  and  C3_3 
REMARK    2  A    between atoms: C3_3  and  C4_4 
REMARK    3  A    between atoms: C4_4  and  C5_6 
REMARK    4  A    between atoms: C5_6  and  N1_7 
REMARK    5  A    between atoms: C5_6  and  C16_20 
REMARK       I    between atoms: N1_7  and  C6_9 
REMARK    6  A    between atoms: C6_9  and  C7_11 
REMARK    7  A    between atoms: C12_16  and  C13_17 
ROOT
HETATM    1  N1  UNL     1      -0.187  27.587   7.316  1.00  0.00    -0.347 N 
ATOM      2  H1  UNL     1      -0.121  28.600   7.420  1.00  0.00     0.163 HD
HETATM    3  C6  UNL     1       0.131  27.022   6.057  1.00  0.00     0.227 C 
HETATM    4  O2  UNL     1       0.043  25.769   5.954  1.00  0.00    -0.273 OA
ENDROOT
BRANCH   1   5
HETATM    5  C5  UNL     1      -0.597  26.811   8.457  1.00  0.00     0.187 C 
BRANCH   5   6
HETATM    6  C4  UNL     1       0.518  26.195   9.179  1.00  0.00     0.154 C 
HETATM    7  O1  UNL     1       1.264  26.980   9.794  1.00  0.00    -0.295 OA
BRANCH   6   8
HETATM    8  C3  UNL     1       0.865  24.774   9.264  1.00  0.00     0.107 C 
BRANCH   8   9
HETATM    9  C2  UNL     1      -0.302  23.881   9.063  1.00  0.00    -0.029 C 
HETATM   10  C1  UNL     1      -0.208  22.842   8.245  1.00  0.00     0.007 C 
ENDBRANCH   8   9
ENDBRANCH   6   8
ENDBRANCH   5   6
BRANCH   5  11
HETATM   11  C16 UNL     1      -1.320  27.739   9.409  1.00  0.00     0.255 C 
HETATM   12  C17 UNL     1      -2.616  28.277   8.829  1.00  0.00     0.073 C 
HETATM   13  C18 UNL     1      -3.349  27.167   9.553  1.00  0.00     0.221 C 
HETATM   14  C19 UNL     1      -4.564  27.702  10.246  1.00  0.00     0.043 C 
HETATM   15  N2  UNL     1      -2.163  27.043  10.396  1.00  0.00     0.095 N 
HETATM   16  C20 UNL     1      -2.339  27.884  11.577  1.00  0.00     0.310 C 
ENDBRANCH   5  11
ENDBRANCH   1   5
BRANCH   3  17
HETATM   17  C7  UNL     1       0.547  27.792   4.884  1.00  0.00     0.046 C 
HETATM   18  C8  UNL     1      -0.493  28.353   3.995  1.00  0.00     0.020 C 
HETATM   19  C9  UNL     1      -0.239  27.822   2.639  1.00  0.00     0.002 C 
HETATM   20  C10 UNL     1       1.264  27.601   2.605  1.00  0.00     0.006 C 
HETATM   21  C11 UNL     1       1.537  27.074   3.971  1.00  0.00     0.011 C 
HETATM   22  C12 UNL     1       2.668  27.614   4.770  1.00  0.00     0.014 C 
HETATM   23  C15 UNL     1       1.714  28.780   5.143  1.00  0.00     0.028 C 
BRANCH  22  24
HETATM   24  C13 UNL     1       3.856  28.158   4.141  1.00  0.00    -0.032 C 
HETATM   25  C14 UNL     1       5.018  27.569   4.136  1.00  0.00     0.007 C 
ENDBRANCH  22  24
ENDBRANCH   3  17
TORSDOF 7
ENDMDL
