MODEL 1
REMARK VINA RESULT: -7.229479037      0.000      0.000
REMARK  7 active torsions:
REMARK  status: ('A' for Active; 'I' for Inactive)
REMARK    1  A    between atoms: C2_2  and  C3_3 
REMARK    2  A    between atoms: C3_3  and  C4_4 
REMARK    3  A    between atoms: C4_4  and  N1_5 
REMARK    4  A    between atoms: N1_5  and  C5_7 
REMARK    5  A    between atoms: C7_11  and  C8_12 
REMARK    6  A    between atoms: C8_12  and  C9_13 
REMARK    7  A    between atoms: C9_13  and  N3_14 
REMARK       I    between atoms: N3_14  and  C10_16 
ROOT
HETATM    1  C5  UNL     1       0.706  26.786   7.572  1.00  0.00     0.124 A 
HETATM    2  N2  UNL     1       1.634  26.528   6.641  1.00  0.00    -0.339 N 
ATOM      3  H2  UNL     1       2.504  26.074   6.917  1.00  0.00     0.167 HD
HETATM    4  C6  UNL     1       1.443  26.857   5.344  1.00  0.00     0.067 A 
HETATM    5  C7  UNL     1       2.421  26.582   4.389  1.00  0.00    -0.027 A 
HETATM    6  C12 UNL     1       2.163  26.943   3.084  1.00  0.00     0.017 A 
HETATM    7  C13 UNL     1       0.996  27.558   2.682  1.00  0.00    -0.053 A 
HETATM    8  C14 UNL     1       0.739  27.939   1.275  1.00  0.00     0.049 C 
HETATM    9  C15 UNL     1       0.030  27.831   3.626  1.00  0.00    -0.027 A 
HETATM   10  C16 UNL     1      -1.234  28.485   3.257  1.00  0.00     0.051 C 
HETATM   11  C17 UNL     1       0.278  27.470   4.955  1.00  0.00     0.066 A 
HETATM   12  N4  UNL     1      -0.678  27.742   5.875  1.00  0.00    -0.355 N 
ATOM     13  H4  UNL     1      -1.548  28.196   5.599  1.00  0.00     0.166 HD
HETATM   14  C18 UNL     1      -0.458  27.400   7.172  1.00  0.00     0.050 A 
HETATM   15  C19 UNL     1      -1.530  27.715   8.149  1.00  0.00     0.072 C 
ENDROOT
BRANCH   5  16
HETATM   16  C8  UNL     1       3.678  25.922   4.804  1.00  0.00     0.060 C 
BRANCH  16  17
HETATM   17  C9  UNL     1       4.893  26.730   4.335  1.00  0.00     0.127 C 
BRANCH  17  18
HETATM   18  N3  UNL     1       5.716  25.910   3.476  1.00  0.00    -0.361 N 
HETATM   19  C10 UNL     1       7.008  26.345   3.115  1.00  0.00     0.213 C 
HETATM   20  C11 UNL     1       7.877  25.534   2.238  1.00  0.00     0.117 C 
HETATM   21  O1  UNL     1       7.424  27.444   3.550  1.00  0.00    -0.274 OA
ATOM     22  H3  UNL     1       5.363  25.017   3.131  1.00  0.00     0.162 HD
ENDBRANCH  17  18
ENDBRANCH  16  17
ENDBRANCH   5  16
BRANCH   1  23
HETATM   23  N1  UNL     1       0.914  26.461   8.798  1.00  0.00    -0.374 N 
ATOM     24  H1  UNL     1       1.140  27.208   9.456  1.00  0.00     0.161 HD
BRANCH  23  25
HETATM   25  C4  UNL     1       0.850  25.125   9.303  1.00  0.00     0.125 C 
BRANCH  25  26
HETATM   26  C3  UNL     1       0.707  25.149  10.828  1.00  0.00     0.046 C 
BRANCH  26  27
HETATM   27  C2  UNL     1       1.988  24.897  11.510  1.00  0.00    -0.035 C 
HETATM   28  C1  UNL     1       2.839  25.899  11.775  1.00  0.00     0.007 C 
ENDBRANCH  26  27
ENDBRANCH  25  26
ENDBRANCH  23  25
ENDBRANCH   1  23
TORSDOF 7
ENDMDL
MODEL 2
REMARK VINA RESULT: -7.148452431      0.874      1.463
REMARK  7 active torsions:
REMARK  status: ('A' for Active; 'I' for Inactive)
REMARK    1  A    between atoms: C2_2  and  C3_3 
REMARK    2  A    between atoms: C3_3  and  C4_4 
REMARK    3  A    between atoms: C4_4  and  N1_5 
REMARK    4  A    between atoms: N1_5  and  C5_7 
REMARK    5  A    between atoms: C7_11  and  C8_12 
REMARK    6  A    between atoms: C8_12  and  C9_13 
REMARK    7  A    between atoms: C9_13  and  N3_14 
REMARK       I    between atoms: N3_14  and  C10_16 
ROOT
HETATM    1  C5  UNL     1       0.594  26.798   7.688  1.00  0.00     0.124 A 
HETATM    2  N2  UNL     1       1.535  26.513   6.777  1.00  0.00    -0.339 N 
ATOM      3  H2  UNL     1       2.389  26.039   7.073  1.00  0.00     0.167 HD
HETATM    4  C6  UNL     1       1.377  26.839   5.475  1.00  0.00     0.067 A 
HETATM    5  C7  UNL     1       2.367  26.535   4.541  1.00  0.00    -0.027 A 
HETATM    6  C12 UNL     1       2.144  26.895   3.229  1.00  0.00     0.017 A 
HETATM    7  C13 UNL     1       1.000  27.535   2.801  1.00  0.00    -0.053 A 
HETATM    8  C14 UNL     1       0.780  27.913   1.387  1.00  0.00     0.049 C 
HETATM    9  C15 UNL     1       0.022  27.835   3.724  1.00  0.00    -0.027 A 
HETATM   10  C16 UNL     1      -1.218  28.516   3.326  1.00  0.00     0.051 C 
HETATM   11  C17 UNL     1       0.235  27.476   5.059  1.00  0.00     0.066 A 
HETATM   12  N4  UNL     1      -0.732  27.775   5.958  1.00  0.00    -0.355 N 
ATOM     13  H4  UNL     1      -1.586  28.248   5.663  1.00  0.00     0.166 HD
HETATM   14  C18 UNL     1      -0.547  27.436   7.262  1.00  0.00     0.050 A 
HETATM   15  C19 UNL     1      -1.630  27.781   8.215  1.00  0.00     0.072 C 
ENDROOT
BRANCH   5  16
HETATM   16  C8  UNL     1       3.601  25.849   4.985  1.00  0.00     0.060 C 
BRANCH  16  17
HETATM   17  C9  UNL     1       4.842  26.646   4.571  1.00  0.00     0.127 C 
BRANCH  17  18
HETATM   18  N3  UNL     1       5.607  25.884   3.610  1.00  0.00    -0.361 N 
HETATM   19  C10 UNL     1       6.889  26.326   3.222  1.00  0.00     0.213 C 
HETATM   20  C11 UNL     1       7.700  25.574   2.242  1.00  0.00     0.117 C 
HETATM   21  O1  UNL     1       7.346  27.380   3.721  1.00  0.00    -0.274 OA
ATOM     22  H3  UNL     1       5.220  25.027   3.214  1.00  0.00     0.162 HD
ENDBRANCH  17  18
ENDBRANCH  16  17
ENDBRANCH   5  16
BRANCH   1  23
HETATM   23  N1  UNL     1       0.770  26.475   8.920  1.00  0.00    -0.374 N 
ATOM     24  H1  UNL     1       0.820  27.228   9.606  1.00  0.00     0.161 HD
BRANCH  23  25
HETATM   25  C4  UNL     1       0.902  25.132   9.393  1.00  0.00     0.125 C 
BRANCH  25  26
HETATM   26  C3  UNL     1      -0.450  24.623   9.902  1.00  0.00     0.046 C 
BRANCH  26  27
HETATM   27  C2  UNL     1      -1.026  23.597   9.016  1.00  0.00    -0.035 C 
HETATM   28  C1  UNL     1      -0.242  22.828   8.246  1.00  0.00     0.007 C 
ENDBRANCH  26  27
ENDBRANCH  25  26
ENDBRANCH  23  25
ENDBRANCH   1  23
TORSDOF 7
ENDMDL
MODEL 3
REMARK VINA RESULT: -7.111289398      1.053      1.067
REMARK  7 active torsions:
REMARK  status: ('A' for Active; 'I' for Inactive)
REMARK    1  A    between atoms: C2_2  and  C3_3 
REMARK    2  A    between atoms: C3_3  and  C4_4 
REMARK    3  A    between atoms: C4_4  and  N1_5 
REMARK    4  A    between atoms: N1_5  and  C5_7 
REMARK    5  A    between atoms: C7_11  and  C8_12 
REMARK    6  A    between atoms: C8_12  and  C9_13 
REMARK    7  A    between atoms: C9_13  and  N3_14 
REMARK       I    between atoms: N3_14  and  C10_16 
ROOT
HETATM    1  C5  UNL     1       0.245  27.020   7.944  1.00  0.00     0.124 A 
HETATM    2  N2  UNL     1       1.198  26.643   7.080  1.00  0.00    -0.339 N 
ATOM      3  H2  UNL     1       2.008  26.128   7.424  1.00  0.00     0.167 HD
HETATM    4  C6  UNL     1       1.110  26.932   5.762  1.00  0.00     0.067 A 
HETATM    5  C7  UNL     1       2.111  26.532   4.878  1.00  0.00    -0.027 A 
HETATM    6  C12 UNL     1       1.960  26.858   3.547  1.00  0.00     0.017 A 
HETATM    7  C13 UNL     1       0.876  27.553   3.054  1.00  0.00    -0.053 A 
HETATM    8  C14 UNL     1       0.732  27.894   1.620  1.00  0.00     0.049 C 
HETATM    9  C15 UNL     1      -0.114  27.948   3.927  1.00  0.00    -0.027 A 
HETATM   10  C16 UNL     1      -1.292  28.692   3.460  1.00  0.00     0.051 C 
HETATM   11  C17 UNL     1       0.027  27.625   5.282  1.00  0.00     0.066 A 
HETATM   12  N4  UNL     1      -0.951  28.017   6.132  1.00  0.00    -0.355 N 
ATOM     13  H4  UNL     1      -1.761  28.533   5.788  1.00  0.00     0.166 HD
HETATM   14  C18 UNL     1      -0.835  27.714   7.452  1.00  0.00     0.050 A 
HETATM   15  C19 UNL     1      -1.928  28.162   8.351  1.00  0.00     0.072 C 
ENDROOT
BRANCH   5  16
HETATM   16  C8  UNL     1       3.280  25.786   5.392  1.00  0.00     0.060 C 
BRANCH  16  17
HETATM   17  C9  UNL     1       4.277  25.499   4.264  1.00  0.00     0.127 C 
BRANCH  17  18
HETATM   18  N3  UNL     1       5.607  25.876   4.688  1.00  0.00    -0.361 N 
HETATM   19  C10 UNL     1       6.133  27.131   4.320  1.00  0.00     0.213 C 
HETATM   20  C11 UNL     1       7.488  27.550   4.733  1.00  0.00     0.117 C 
HETATM   21  O1  UNL     1       5.432  27.906   3.627  1.00  0.00    -0.274 OA
ATOM     22  H3  UNL     1       6.164  25.234   5.252  1.00  0.00     0.162 HD
ENDBRANCH  17  18
ENDBRANCH  16  17
ENDBRANCH   5  16
BRANCH   1  23
HETATM   23  N1  UNL     1       0.355  26.731   9.191  1.00  0.00    -0.374 N 
ATOM     24  H1  UNL     1       0.747  27.441   9.811  1.00  0.00     0.161 HD
BRANCH  23  25
HETATM   25  C4  UNL     1      -0.035  25.483   9.770  1.00  0.00     0.125 C 
BRANCH  25  26
HETATM   26  C3  UNL     1       1.206  24.708  10.225  1.00  0.00     0.046 C 
BRANCH  26  27
HETATM   27  C2  UNL     1       1.670  25.134  11.556  1.00  0.00    -0.035 C 
HETATM   28  C1  UNL     1       2.805  25.833  11.703  1.00  0.00     0.007 C 
ENDBRANCH  26  27
ENDBRANCH  25  26
ENDBRANCH  23  25
ENDBRANCH   1  23
TORSDOF 7
ENDMDL
MODEL 4
REMARK VINA RESULT: -6.734727799      2.418      6.021
REMARK  7 active torsions:
REMARK  status: ('A' for Active; 'I' for Inactive)
REMARK    1  A    between atoms: C2_2  and  C3_3 
REMARK    2  A    between atoms: C3_3  and  C4_4 
REMARK    3  A    between atoms: C4_4  and  N1_5 
REMARK    4  A    between atoms: N1_5  and  C5_7 
REMARK    5  A    between atoms: C7_11  and  C8_12 
REMARK    6  A    between atoms: C8_12  and  C9_13 
REMARK    7  A    between atoms: C9_13  and  N3_14 
REMARK       I    between atoms: N3_14  and  C10_16 
ROOT
HETATM    1  C5  UNL     1       3.708  26.990   4.713  1.00  0.00     0.124 A 
HETATM    2  N2  UNL     1       2.559  27.366   5.290  1.00  0.00    -0.339 N 
ATOM      3  H2  UNL     1       2.510  27.435   6.307  1.00  0.00     0.167 HD
HETATM    4  C6  UNL     1       1.462  27.655   4.555  1.00  0.00     0.067 A 
HETATM    5  C7  UNL     1       0.274  28.044   5.173  1.00  0.00    -0.027 A 
HETATM    6  C12 UNL     1      -0.807  28.325   4.366  1.00  0.00     0.017 A 
HETATM    7  C13 UNL     1      -0.771  28.240   2.990  1.00  0.00    -0.053 A 
HETATM    8  C14 UNL     1      -1.944  28.545   2.140  1.00  0.00     0.049 C 
HETATM    9  C15 UNL     1       0.403  27.855   2.379  1.00  0.00    -0.027 A 
HETATM   10  C16 UNL     1       0.502  27.747   0.917  1.00  0.00     0.051 C 
HETATM   11  C17 UNL     1       1.509  27.567   3.186  1.00  0.00     0.066 A 
HETATM   12  N4  UNL     1       2.658  27.190   2.577  1.00  0.00    -0.355 N 
ATOM     13  H4  UNL     1       2.707  27.120   1.560  1.00  0.00     0.166 HD
HETATM   14  C18 UNL     1       3.746  26.905   3.341  1.00  0.00     0.050 A 
HETATM   15  C19 UNL     1       4.985  26.495   2.635  1.00  0.00     0.072 C 
ENDROOT
BRANCH   5  16
HETATM   16  C8  UNL     1       0.218  28.140   6.648  1.00  0.00     0.060 C 
BRANCH  16  17
HETATM   17  C9  UNL     1      -0.272  26.823   7.258  1.00  0.00     0.127 C 
BRANCH  17  18
HETATM   18  N3  UNL     1       0.393  26.598   8.521  1.00  0.00    -0.361 N 
HETATM   19  C10 UNL     1       0.560  25.284   9.005  1.00  0.00     0.213 C 
HETATM   20  C11 UNL     1       1.233  25.015  10.292  1.00  0.00     0.117 C 
HETATM   21  O1  UNL     1       0.126  24.325   8.324  1.00  0.00    -0.274 OA
ATOM     22  H3  UNL     1       0.741  27.390   9.063  1.00  0.00     0.162 HD
ENDBRANCH  17  18
ENDBRANCH  16  17
ENDBRANCH   5  16
BRANCH   1  23
HETATM   23  N1  UNL     1       4.736  26.722   5.437  1.00  0.00    -0.374 N 
ATOM     24  H1  UNL     1       5.074  27.447   6.070  1.00  0.00     0.161 HD
BRANCH  23  25
HETATM   25  C4  UNL     1       5.439  25.477   5.416  1.00  0.00     0.125 C 
BRANCH  25  26
HETATM   26  C3  UNL     1       6.844  25.660   5.998  1.00  0.00     0.046 C 
BRANCH  26  27
HETATM   27  C2  UNL     1       7.721  26.428   5.099  1.00  0.00    -0.035 C 
HETATM   28  C1  UNL     1       8.354  25.835   4.076  1.00  0.00     0.007 C 
ENDBRANCH  26  27
ENDBRANCH  25  26
ENDBRANCH  23  25
ENDBRANCH   1  23
TORSDOF 7
ENDMDL
MODEL 5
REMARK VINA RESULT: -6.607387374      2.701      6.563
REMARK  7 active torsions:
REMARK  status: ('A' for Active; 'I' for Inactive)
REMARK    1  A    between atoms: C2_2  and  C3_3 
REMARK    2  A    between atoms: C3_3  and  C4_4 
REMARK    3  A    between atoms: C4_4  and  N1_5 
REMARK    4  A    between atoms: N1_5  and  C5_7 
REMARK    5  A    between atoms: C7_11  and  C8_12 
REMARK    6  A    between atoms: C8_12  and  C9_13 
REMARK    7  A    between atoms: C9_13  and  N3_14 
REMARK       I    between atoms: N3_14  and  C10_16 
ROOT
HETATM    1  C5  UNL     1       4.576  25.757   4.795  1.00  0.00     0.124 A 
HETATM    2  N2  UNL     1       3.469  25.890   5.539  1.00  0.00    -0.339 N 
ATOM      3  H2  UNL     1       3.478  25.574   6.508  1.00  0.00     0.167 HD
HETATM    4  C6  UNL     1       2.340  26.434   5.032  1.00  0.00     0.067 A 
HETATM    5  C7  UNL     1       1.197  26.565   5.820  1.00  0.00    -0.027 A 
HETATM    6  C12 UNL     1       0.080  27.128   5.242  1.00  0.00     0.017 A 
HETATM    7  C13 UNL     1       0.039  27.564   3.935  1.00  0.00    -0.053 A 
HETATM    8  C14 UNL     1      -1.172  28.167   3.332  1.00  0.00     0.049 C 
HETATM    9  C15 UNL     1       1.168  27.436   3.155  1.00  0.00    -0.027 A 
HETATM   10  C16 UNL     1       1.184  27.882   1.755  1.00  0.00     0.051 C 
HETATM   11  C17 UNL     1       2.310  26.865   3.729  1.00  0.00     0.066 A 
HETATM   12  N4  UNL     1       3.414  26.743   2.955  1.00  0.00    -0.355 N 
ATOM     13  H4  UNL     1       3.405  27.059   1.985  1.00  0.00     0.166 HD
HETATM   14  C18 UNL     1       4.535  26.191   3.491  1.00  0.00     0.050 A 
HETATM   15  C19 UNL     1       5.724  26.075   2.610  1.00  0.00     0.072 C 
ENDROOT
BRANCH   5  16
HETATM   16  C8  UNL     1       1.225  26.101   7.224  1.00  0.00     0.060 C 
BRANCH  16  17
HETATM   17  C9  UNL     1      -0.083  26.457   7.938  1.00  0.00     0.127 C 
BRANCH  17  18
HETATM   18  N3  UNL     1       0.131  27.597   8.800  1.00  0.00    -0.361 N 
HETATM   19  C10 UNL     1       0.250  27.413  10.193  1.00  0.00     0.213 C 
HETATM   20  C11 UNL     1       0.468  28.554  11.105  1.00  0.00     0.117 C 
HETATM   21  O1  UNL     1       0.169  26.254  10.663  1.00  0.00    -0.274 OA
ATOM     22  H3  UNL     1       0.195  28.534   8.401  1.00  0.00     0.162 HD
ENDBRANCH  17  18
ENDBRANCH  16  17
ENDBRANCH   5  16
BRANCH   1  23
HETATM   23  N1  UNL     1       5.636  25.237   5.303  1.00  0.00    -0.374 N 
ATOM     24  H1  UNL     1       5.774  24.232   5.190  1.00  0.00     0.161 HD
BRANCH  23  25
HETATM   25  C4  UNL     1       6.634  25.970   6.018  1.00  0.00     0.125 C 
BRANCH  25  26
HETATM   26  C3  UNL     1       7.883  26.136   5.147  1.00  0.00     0.046 C 
BRANCH  26  27
HETATM   27  C2  UNL     1       8.280  27.548   5.010  1.00  0.00    -0.035 C 
HETATM   28  C1  UNL     1       8.674  28.045   3.829  1.00  0.00     0.007 C 
ENDBRANCH  26  27
ENDBRANCH  25  26
ENDBRANCH  23  25
ENDBRANCH   1  23
TORSDOF 7
ENDMDL
