MODEL 1
REMARK VINA RESULT: -6.480783117      0.000      0.000
REMARK  5 active torsions:
REMARK  status: ('A' for Active; 'I' for Inactive)
REMARK    1  A    between atoms: C2_2  and  C3_3 
REMARK       I    between atoms: C3_3  and  N1_5 
REMARK    2  A    between atoms: N1_5  and  C4_7 
REMARK    3  A    between atoms: N3_17  and  C13_18 
REMARK    4  A    between atoms: C13_18  and  C14_19 
REMARK    5  A    between atoms: C14_19  and  N4_20 
ROOT
HETATM    1  C4  UNL     1       2.030  -2.791   2.521  1.00  0.00     0.122 C 
HETATM    2  C5  UNL     1       1.047  -1.746   2.899  1.00  0.00     0.091 C 
HETATM    3  N2  UNL     1       0.278  -0.927   3.176  1.00  0.00    -0.195 NA
HETATM    4  C6  UNL     1       1.271  -4.097   2.557  1.00  0.00     0.046 C 
HETATM    5  C7  UNL     1       0.525  -4.376   1.278  1.00  0.00     0.004 C 
HETATM    6  C8  UNL     1       1.636  -4.566   0.236  1.00  0.00     0.000 C 
HETATM    7  C9  UNL     1       2.242  -3.210   0.028  1.00  0.00     0.004 C 
HETATM    8  C10 UNL     1       2.722  -2.521   1.250  1.00  0.00     0.046 C 
ENDROOT
BRANCH   1   9
HETATM    9  N1  UNL     1       3.008  -2.829   3.602  1.00  0.00    -0.338 N 
HETATM   10  C3  UNL     1       4.055  -3.744   3.673  1.00  0.00     0.229 C 
HETATM   11  O1  UNL     1       4.205  -4.604   2.780  1.00  0.00    -0.273 OA
ATOM     12  H1  UNL     1       2.919  -2.144   4.353  1.00  0.00     0.164 HD
BRANCH  10  13
HETATM   13  C2  UNL     1       5.007  -3.722   4.803  1.00  0.00     0.065 C 
HETATM   14  C1  UNL     1       4.425  -4.477   5.988  1.00  0.00     0.027 C 
HETATM   15  C11 UNL     1       5.230  -2.257   5.184  1.00  0.00     0.051 C 
HETATM   16  C12 UNL     1       6.590  -2.415   5.898  1.00  0.00     0.273 C 
HETATM   17  N3  UNL     1       7.345  -3.207   4.914  1.00  0.00     0.091 N 
HETATM   18  C19 UNL     1       6.385  -4.199   4.461  1.00  0.00     0.291 C 
BRANCH  17  19
HETATM   19  C13 UNL     1       8.453  -3.805   5.630  1.00  0.00     0.302 C 
BRANCH  19  20
HETATM   20  C14 UNL     1       9.717  -3.578   4.822  1.00  0.00     0.302 C 
BRANCH  20  21
HETATM   21  N4  UNL     1      10.793  -4.449   5.129  1.00  0.00     0.094 N 
HETATM   22  C15 UNL     1      12.091  -4.013   4.661  1.00  0.00     0.298 C 
HETATM   23  C16 UNL     1      13.095  -4.671   5.617  1.00  0.00     0.198 C 
HETATM   24  O2  UNL     1      12.718  -5.989   5.824  1.00  0.00    -0.388 OA
HETATM   25  C17 UNL     1      11.955  -6.506   4.802  1.00  0.00     0.198 C 
HETATM   26  C18 UNL     1      10.601  -5.808   4.669  1.00  0.00     0.298 C 
ENDBRANCH  20  21
ENDBRANCH  19  20
ENDBRANCH  17  19
ENDBRANCH  10  13
ENDBRANCH   1   9
TORSDOF 5
ENDMDL
MODEL 2
REMARK VINA RESULT: -6.440024837      1.258      1.508
REMARK  5 active torsions:
REMARK  status: ('A' for Active; 'I' for Inactive)
REMARK    1  A    between atoms: C2_2  and  C3_3 
REMARK       I    between atoms: C3_3  and  N1_5 
REMARK    2  A    between atoms: N1_5  and  C4_7 
REMARK    3  A    between atoms: N3_17  and  C13_18 
REMARK    4  A    between atoms: C13_18  and  C14_19 
REMARK    5  A    between atoms: C14_19  and  N4_20 
ROOT
HETATM    1  C4  UNL     1       2.577  -3.940   1.761  1.00  0.00     0.122 C 
HETATM    2  C5  UNL     1       1.354  -4.432   2.443  1.00  0.00     0.091 C 
HETATM    3  N2  UNL     1       0.391  -4.803   2.966  1.00  0.00    -0.195 NA
HETATM    4  C6  UNL     1       2.792  -4.870   0.590  1.00  0.00     0.046 C 
HETATM    5  C7  UNL     1       1.991  -4.478  -0.624  1.00  0.00     0.004 C 
HETATM    6  C8  UNL     1       2.592  -3.130  -1.044  1.00  0.00     0.000 C 
HETATM    7  C9  UNL     1       2.179  -2.148   0.011  1.00  0.00     0.004 C 
HETATM    8  C10 UNL     1       2.523  -2.512   1.406  1.00  0.00     0.046 C 
ENDROOT
BRANCH   1   9
HETATM    9  N1  UNL     1       3.673  -4.163   2.697  1.00  0.00    -0.338 N 
HETATM   10  C3  UNL     1       3.843  -3.449   3.880  1.00  0.00     0.229 C 
HETATM   11  O1  UNL     1       3.036  -2.552   4.200  1.00  0.00    -0.273 OA
ATOM     12  H1  UNL     1       4.356  -4.885   2.471  1.00  0.00     0.164 HD
BRANCH  10  13
HETATM   13  C2  UNL     1       4.982  -3.730   4.778  1.00  0.00     0.065 C 
HETATM   14  C1  UNL     1       4.503  -4.496   6.002  1.00  0.00     0.027 C 
HETATM   15  C11 UNL     1       5.566  -2.383   5.210  1.00  0.00     0.051 C 
HETATM   16  C12 UNL     1       6.979  -2.865   5.603  1.00  0.00     0.273 C 
HETATM   17  N3  UNL     1       7.351  -3.665   4.424  1.00  0.00     0.091 N 
HETATM   18  C19 UNL     1       6.142  -4.408   4.115  1.00  0.00     0.291 C 
BRANCH  17  19
HETATM   19  C13 UNL     1       8.434  -4.532   4.841  1.00  0.00     0.302 C 
BRANCH  19  20
HETATM   20  C14 UNL     1       9.719  -3.724   4.825  1.00  0.00     0.302 C 
BRANCH  20  21
HETATM   21  N4  UNL     1      10.893  -4.453   5.145  1.00  0.00     0.094 N 
HETATM   22  C15 UNL     1      12.123  -3.903   4.619  1.00  0.00     0.298 C 
HETATM   23  C16 UNL     1      13.215  -4.393   5.577  1.00  0.00     0.198 C 
HETATM   24  O2  UNL     1      12.993  -5.732   5.861  1.00  0.00    -0.388 OA
HETATM   25  C17 UNL     1      12.270  -6.384   4.889  1.00  0.00     0.198 C 
HETATM   26  C18 UNL     1      10.843  -5.847   4.760  1.00  0.00     0.298 C 
ENDBRANCH  20  21
ENDBRANCH  19  20
ENDBRANCH  17  19
ENDBRANCH  10  13
ENDBRANCH   1   9
TORSDOF 5
ENDMDL
MODEL 3
REMARK VINA RESULT: -6.297625802      1.710      2.196
REMARK  5 active torsions:
REMARK  status: ('A' for Active; 'I' for Inactive)
REMARK    1  A    between atoms: C2_2  and  C3_3 
REMARK       I    between atoms: C3_3  and  N1_5 
REMARK    2  A    between atoms: N1_5  and  C4_7 
REMARK    3  A    between atoms: N3_17  and  C13_18 
REMARK    4  A    between atoms: C13_18  and  C14_19 
REMARK    5  A    between atoms: C14_19  and  N4_20 
ROOT
HETATM    1  C4  UNL     1       1.644  -1.764   4.666  1.00  0.00     0.122 C 
HETATM    2  C5  UNL     1       1.959  -0.321   4.809  1.00  0.00     0.091 C 
HETATM    3  N2  UNL     1       2.196   0.807   4.905  1.00  0.00    -0.195 NA
HETATM    4  C6  UNL     1       0.472  -2.019   5.586  1.00  0.00     0.046 C 
HETATM    5  C7  UNL     1      -0.853  -1.695   4.949  1.00  0.00     0.004 C 
HETATM    6  C8  UNL     1      -0.980  -2.722   3.815  1.00  0.00     0.000 C 
HETATM    7  C9  UNL     1       0.036  -2.328   2.786  1.00  0.00     0.004 C 
HETATM    8  C10 UNL     1       1.430  -2.189   3.272  1.00  0.00     0.046 C 
ENDROOT
BRANCH   1   9
HETATM    9  N1  UNL     1       2.789  -2.480   5.216  1.00  0.00    -0.338 N 
HETATM   10  C3  UNL     1       4.074  -2.418   4.685  1.00  0.00     0.229 C 
HETATM   11  O1  UNL     1       4.308  -1.724   3.674  1.00  0.00    -0.273 OA
ATOM     12  H1  UNL     1       2.640  -3.061   6.041  1.00  0.00     0.164 HD
BRANCH  10  13
HETATM   13  C2  UNL     1       5.186  -3.175   5.297  1.00  0.00     0.065 C 
HETATM   14  C1  UNL     1       4.637  -4.316   6.140  1.00  0.00     0.027 C 
HETATM   15  C11 UNL     1       5.962  -2.203   6.189  1.00  0.00     0.051 C 
HETATM   16  C12 UNL     1       7.304  -2.964   6.237  1.00  0.00     0.273 C 
HETATM   17  N3  UNL     1       7.531  -3.244   4.810  1.00  0.00     0.091 N 
HETATM   18  C19 UNL     1       6.223  -3.648   4.325  1.00  0.00     0.291 C 
BRANCH  17  19
HETATM   19  C13 UNL     1       8.494  -4.324   4.751  1.00  0.00     0.302 C 
BRANCH  19  20
HETATM   20  C14 UNL     1       9.885  -3.723   4.830  1.00  0.00     0.302 C 
BRANCH  20  21
HETATM   21  N4  UNL     1      10.924  -4.643   5.127  1.00  0.00     0.094 N 
HETATM   22  C15 UNL     1      12.242  -4.251   4.677  1.00  0.00     0.298 C 
HETATM   23  C16 UNL     1      13.210  -4.967   5.627  1.00  0.00     0.198 C 
HETATM   24  O2  UNL     1      12.779  -6.272   5.805  1.00  0.00    -0.388 OA
HETATM   25  C17 UNL     1      12.004  -6.738   4.767  1.00  0.00     0.198 C 
HETATM   26  C18 UNL     1      10.680  -5.983   4.639  1.00  0.00     0.298 C 
ENDBRANCH  20  21
ENDBRANCH  19  20
ENDBRANCH  17  19
ENDBRANCH  10  13
ENDBRANCH   1   9
TORSDOF 5
ENDMDL
MODEL 4
REMARK VINA RESULT: -6.259730582      1.754      2.959
REMARK  5 active torsions:
REMARK  status: ('A' for Active; 'I' for Inactive)
REMARK    1  A    between atoms: C2_2  and  C3_3 
REMARK       I    between atoms: C3_3  and  N1_5 
REMARK    2  A    between atoms: N1_5  and  C4_7 
REMARK    3  A    between atoms: N3_17  and  C13_18 
REMARK    4  A    between atoms: C13_18  and  C14_19 
REMARK    5  A    between atoms: C14_19  and  N4_20 
ROOT
HETATM    1  C4  UNL     1       1.674  -1.757   4.759  1.00  0.00     0.122 C 
HETATM    2  C5  UNL     1       1.527  -2.156   3.337  1.00  0.00     0.091 C 
HETATM    3  N2  UNL     1       1.395  -2.466   2.230  1.00  0.00    -0.195 NA
HETATM    4  C6  UNL     1       2.046  -0.293   4.734  1.00  0.00     0.046 C 
HETATM    5  C7  UNL     1       0.848   0.615   4.632  1.00  0.00     0.004 C 
HETATM    6  C8  UNL     1       0.103   0.394   5.956  1.00  0.00     0.000 C 
HETATM    7  C9  UNL     1      -0.468  -0.990   5.882  1.00  0.00     0.004 C 
HETATM    8  C10 UNL     1       0.499  -2.075   5.587  1.00  0.00     0.046 C 
ENDROOT
BRANCH   1   9
HETATM    9  N1  UNL     1       2.830  -2.489   5.262  1.00  0.00    -0.338 N 
HETATM   10  C3  UNL     1       4.113  -2.378   4.732  1.00  0.00     0.229 C 
HETATM   11  O1  UNL     1       4.334  -1.621   3.765  1.00  0.00    -0.273 OA
ATOM     12  H1  UNL     1       2.690  -3.121   6.050  1.00  0.00     0.164 HD
BRANCH  10  13
HETATM   13  C2  UNL     1       5.236  -3.155   5.295  1.00  0.00     0.065 C 
HETATM   14  C1  UNL     1       4.704  -4.328   6.106  1.00  0.00     0.027 C 
HETATM   15  C11 UNL     1       6.029  -2.216   6.207  1.00  0.00     0.051 C 
HETATM   16  C12 UNL     1       7.371  -2.978   6.202  1.00  0.00     0.273 C 
HETATM   17  N3  UNL     1       7.572  -3.204   4.761  1.00  0.00     0.091 N 
HETATM   18  C19 UNL     1       6.254  -3.591   4.287  1.00  0.00     0.291 C 
BRANCH  17  19
HETATM   19  C13 UNL     1       8.533  -4.281   4.644  1.00  0.00     0.302 C 
BRANCH  19  20
HETATM   20  C14 UNL     1       9.925  -3.689   4.778  1.00  0.00     0.302 C 
BRANCH  20  21
HETATM   21  N4  UNL     1      10.943  -4.615   5.121  1.00  0.00     0.094 N 
HETATM   22  C15 UNL     1      12.279  -4.243   4.707  1.00  0.00     0.298 C 
HETATM   23  C16 UNL     1      13.209  -4.955   5.696  1.00  0.00     0.198 C 
HETATM   24  O2  UNL     1      12.759  -6.253   5.880  1.00  0.00    -0.388 OA
HETATM   25  C17 UNL     1      12.012  -6.727   4.825  1.00  0.00     0.198 C 
HETATM   26  C18 UNL     1      10.701  -5.960   4.645  1.00  0.00     0.298 C 
ENDBRANCH  20  21
ENDBRANCH  19  20
ENDBRANCH  17  19
ENDBRANCH  10  13
ENDBRANCH   1   9
TORSDOF 5
ENDMDL
MODEL 5
REMARK VINA RESULT: -6.253516861      1.525      2.045
REMARK  5 active torsions:
REMARK  status: ('A' for Active; 'I' for Inactive)
REMARK    1  A    between atoms: C2_2  and  C3_3 
REMARK       I    between atoms: C3_3  and  N1_5 
REMARK    2  A    between atoms: N1_5  and  C4_7 
REMARK    3  A    between atoms: N3_17  and  C13_18 
REMARK    4  A    between atoms: C13_18  and  C14_19 
REMARK    5  A    between atoms: C14_19  and  N4_20 
ROOT
HETATM    1  C4  UNL     1       2.804  -4.385   1.658  1.00  0.00     0.122 C 
HETATM    2  C5  UNL     1       1.673  -5.175   2.206  1.00  0.00     0.091 C 
HETATM    3  N2  UNL     1       0.781  -5.780   2.624  1.00  0.00    -0.195 NA
HETATM    4  C6  UNL     1       3.392  -5.229   0.551  1.00  0.00     0.046 C 
HETATM    5  C7  UNL     1       2.672  -5.058  -0.761  1.00  0.00     0.004 C 
HETATM    6  C8  UNL     1       2.955  -3.600  -1.151  1.00  0.00     0.000 C 
HETATM    7  C9  UNL     1       2.178  -2.757  -0.184  1.00  0.00     0.004 C 
HETATM    8  C10 UNL     1       2.431  -3.019   1.253  1.00  0.00     0.046 C 
ENDROOT
BRANCH   1   9
HETATM    9  N1  UNL     1       3.797  -4.316   2.724  1.00  0.00    -0.338 N 
HETATM   10  C3  UNL     1       3.614  -3.618   3.914  1.00  0.00     0.229 C 
HETATM   11  O1  UNL     1       2.553  -2.994   4.126  1.00  0.00    -0.273 OA
ATOM     12  H1  UNL     1       4.679  -4.810   2.588  1.00  0.00     0.164 HD
BRANCH  10  13
HETATM   13  C2  UNL     1       4.670  -3.592   4.948  1.00  0.00     0.065 C 
HETATM   14  C1  UNL     1       4.182  -4.294   6.206  1.00  0.00     0.027 C 
HETATM   15  C11 UNL     1       4.967  -2.124   5.260  1.00  0.00     0.051 C 
HETATM   16  C12 UNL     1       6.384  -2.301   5.847  1.00  0.00     0.273 C 
HETATM   17  N3  UNL     1       7.020  -3.144   4.822  1.00  0.00     0.091 N 
HETATM   18  C19 UNL     1       5.996  -4.120   4.493  1.00  0.00     0.291 C 
BRANCH  17  19
HETATM   19  C13 UNL     1       8.175  -3.754   5.450  1.00  0.00     0.302 C 
BRANCH  19  20
HETATM   20  C14 UNL     1       8.705  -4.831   4.521  1.00  0.00     0.302 C 
BRANCH  20  21
HETATM   21  N4  UNL     1      10.115  -4.986   4.521  1.00  0.00     0.094 N 
HETATM   22  C15 UNL     1      10.625  -5.982   5.438  1.00  0.00     0.298 C 
HETATM   23  C16 UNL     1      11.955  -6.437   4.825  1.00  0.00     0.198 C 
HETATM   24  O2  UNL     1      12.650  -5.320   4.385  1.00  0.00    -0.388 OA
HETATM   25  C17 UNL     1      12.292  -4.162   5.038  1.00  0.00     0.198 C 
HETATM   26  C18 UNL     1      10.842  -3.760   4.765  1.00  0.00     0.298 C 
ENDBRANCH  20  21
ENDBRANCH  19  20
ENDBRANCH  17  19
ENDBRANCH  10  13
ENDBRANCH   1   9
TORSDOF 5
ENDMDL
