MODEL 1
REMARK VINA RESULT: -10.543054418      0.000      0.000
REMARK  6 active torsions:
REMARK  status: ('A' for Active; 'I' for Inactive)
REMARK    1  A    between atoms: C2_2  and  C4_4 
REMARK    2  A    between atoms: C4_4  and  C5_5 
REMARK    3  A    between atoms: C5_5  and  O1_6 
REMARK    4  A    between atoms: O1_6  and  C6_7 
REMARK    5  A    between atoms: C6_7  and  C7_8 
REMARK    6  A    between atoms: C15_16  and  O2_17 
ROOT
HETATM    1  C7  UNL     1       6.158  -0.536  12.975  1.00  0.00     0.152 A 
HETATM    2  C8  UNL     1       5.665   0.781  12.471  1.00  0.00     0.014 C 
HETATM    3  C9  UNL     1       5.467   1.962  13.064  1.00  0.00    -0.020 C 
HETATM    4  C10 UNL     1       5.719   2.261  14.494  1.00  0.00     0.041 C 
HETATM    5  C11 UNL     1       4.627   1.682  15.314  1.00  0.00     0.038 C 
HETATM    6  C12 UNL     1       4.718   1.855  16.757  1.00  0.00    -0.022 C 
HETATM    7  C13 UNL     1       5.744   2.111  17.535  1.00  0.00    -0.072 C 
HETATM    8  C14 UNL     1       5.292   2.190  18.950  1.00  0.00     0.066 C 
HETATM    9  C15 UNL     1       6.185   1.533  19.934  1.00  0.00     0.122 C 
HETATM   10  C16 UNL     1       7.573   1.262  19.522  1.00  0.00     0.033 C 
HETATM   11  C17 UNL     1       7.869   1.215  18.073  1.00  0.00     0.016 C 
HETATM   12  C18 UNL     1       7.146   2.318  17.275  1.00  0.00    -0.015 C 
HETATM   13  C19 UNL     1       7.524   3.665  17.924  1.00  0.00     0.020 C 
HETATM   14  C20 UNL     1       7.694   2.337  15.926  1.00  0.00     0.024 C 
HETATM   15  C21 UNL     1       7.859   3.752  15.344  1.00  0.00     0.014 C 
HETATM   16  C22 UNL     1       6.995   1.542  14.868  1.00  0.00     0.137 C 
HETATM   17  O3  UNL     1       6.690   0.265  15.199  1.00  0.00    -0.351 OA
HETATM   18  C23 UNL     1       6.722  -0.683  14.217  1.00  0.00     0.302 A 
HETATM   19  O4  UNL     1       7.580  -0.581  13.136  1.00  0.00    -0.336 OA
ENDROOT
BRANCH   1  20
HETATM   20  C6  UNL     1       5.708  -1.729  12.161  1.00  0.00     0.215 C 
BRANCH  20  21
HETATM   21  O1  UNL     1       4.852  -2.606  12.700  1.00  0.00    -0.388 OA
BRANCH  21  22
HETATM   22  C5  UNL     1       3.518  -2.502  12.641  1.00  0.00     0.168 C 
BRANCH  22  23
HETATM   23  C4  UNL     1       2.918  -2.069  13.995  1.00  0.00     0.030 C 
BRANCH  23  24
HETATM   24  C2  UNL     1       2.402  -0.653  13.882  1.00  0.00    -0.021 C 
HETATM   25  C1  UNL     1       2.135  -0.340  12.445  1.00  0.00     0.009 C 
HETATM   26  C3  UNL     1       1.139  -0.450  14.684  1.00  0.00     0.009 C 
ENDBRANCH  23  24
ENDBRANCH  22  23
ENDBRANCH  21  22
ENDBRANCH  20  21
ENDBRANCH   1  20
BRANCH   9  27
HETATM   27  O2  UNL     1       5.592   0.357  20.447  1.00  0.00    -0.395 OA
ATOM     28  H2  UNL     1       6.224  -0.156  20.937  1.00  0.00     0.210 HD
ENDBRANCH   9  27
TORSDOF 6
ENDMDL
MODEL 2
REMARK VINA RESULT: -9.578932668      2.039      6.372
REMARK  6 active torsions:
REMARK  status: ('A' for Active; 'I' for Inactive)
REMARK    1  A    between atoms: C2_2  and  C4_4 
REMARK    2  A    between atoms: C4_4  and  C5_5 
REMARK    3  A    between atoms: C5_5  and  O1_6 
REMARK    4  A    between atoms: O1_6  and  C6_7 
REMARK    5  A    between atoms: C6_7  and  C7_8 
REMARK    6  A    between atoms: C15_16  and  O2_17 
ROOT
HETATM    1  C7  UNL     1       6.795   3.761  15.389  1.00  0.00     0.152 A 
HETATM    2  C8  UNL     1       7.818   2.753  15.798  1.00  0.00     0.014 C 
HETATM    3  C9  UNL     1       7.853   1.419  15.733  1.00  0.00    -0.020 C 
HETATM    4  C10 UNL     1       6.781   0.555  15.184  1.00  0.00     0.041 C 
HETATM    5  C11 UNL     1       5.674   0.464  16.168  1.00  0.00     0.038 C 
HETATM    6  C12 UNL     1       4.514  -0.329  15.789  1.00  0.00    -0.022 C 
HETATM    7  C13 UNL     1       4.068  -0.704  14.612  1.00  0.00    -0.072 C 
HETATM    8  C14 UNL     1       2.829  -1.511  14.779  1.00  0.00     0.066 C 
HETATM    9  C15 UNL     1       1.749  -1.214  13.808  1.00  0.00     0.122 C 
HETATM   10  C16 UNL     1       2.121  -0.515  12.566  1.00  0.00     0.033 C 
HETATM   11  C17 UNL     1       3.389   0.248  12.553  1.00  0.00     0.016 C 
HETATM   12  C18 UNL     1       4.540  -0.485  13.269  1.00  0.00    -0.015 C 
HETATM   13  C19 UNL     1       4.667  -1.875  12.612  1.00  0.00     0.020 C 
HETATM   14  C20 UNL     1       5.779   0.225  12.983  1.00  0.00     0.024 C 
HETATM   15  C21 UNL     1       6.985  -0.702  12.754  1.00  0.00     0.014 C 
HETATM   16  C22 UNL     1       6.241   1.260  13.961  1.00  0.00     0.137 C 
HETATM   17  O3  UNL     1       5.304   2.154  14.356  1.00  0.00    -0.351 OA
HETATM   18  C23 UNL     1       5.703   3.432  14.626  1.00  0.00     0.302 A 
HETATM   19  O4  UNL     1       6.781   4.008  13.979  1.00  0.00    -0.336 OA
ENDROOT
BRANCH   1  20
HETATM   20  C6  UNL     1       6.879   5.079  16.128  1.00  0.00     0.215 C 
BRANCH  20  21
HETATM   21  O1  UNL     1       6.562   5.123  17.428  1.00  0.00    -0.388 OA
BRANCH  21  22
HETATM   22  C5  UNL     1       7.437   4.970  18.430  1.00  0.00     0.168 C 
BRANCH  22  23
HETATM   23  C4  UNL     1       6.875   4.068  19.548  1.00  0.00     0.030 C 
BRANCH  23  24
HETATM   24  C2  UNL     1       6.545   2.709  18.974  1.00  0.00    -0.021 C 
HETATM   25  C1  UNL     1       7.579   1.724  19.416  1.00  0.00     0.009 C 
HETATM   26  C3  UNL     1       5.179   2.233  19.406  1.00  0.00     0.009 C 
ENDBRANCH  23  24
ENDBRANCH  22  23
ENDBRANCH  21  22
ENDBRANCH  20  21
ENDBRANCH   1  20
BRANCH   9  27
HETATM   27  O2  UNL     1       0.673  -0.548  14.437  1.00  0.00    -0.395 OA
ATOM     28  H2  UNL     1       0.043  -1.170  14.781  1.00  0.00     0.210 HD
ENDBRANCH   9  27
TORSDOF 6
ENDMDL
MODEL 3
REMARK VINA RESULT: -8.921885005      3.395      8.125
REMARK  6 active torsions:
REMARK  status: ('A' for Active; 'I' for Inactive)
REMARK    1  A    between atoms: C2_2  and  C4_4 
REMARK    2  A    between atoms: C4_4  and  C5_5 
REMARK    3  A    between atoms: C5_5  and  O1_6 
REMARK    4  A    between atoms: O1_6  and  C6_7 
REMARK    5  A    between atoms: C6_7  and  C7_8 
REMARK    6  A    between atoms: C15_16  and  O2_17 
ROOT
HETATM    1  C7  UNL     1       8.508   4.438  16.515  1.00  0.00     0.152 A 
HETATM    2  C8  UNL     1       7.177   5.112  16.576  1.00  0.00     0.014 C 
HETATM    3  C9  UNL     1       5.973   4.788  16.093  1.00  0.00    -0.020 C 
HETATM    4  C10 UNL     1       5.658   3.568  15.314  1.00  0.00     0.041 C 
HETATM    5  C11 UNL     1       6.156   3.731  13.926  1.00  0.00     0.038 C 
HETATM    6  C12 UNL     1       5.956   2.614  13.013  1.00  0.00    -0.022 C 
HETATM    7  C13 UNL     1       5.742   1.339  13.240  1.00  0.00    -0.072 C 
HETATM    8  C14 UNL     1       5.606   0.616  11.947  1.00  0.00     0.066 C 
HETATM    9  C15 UNL     1       6.291  -0.698  11.886  1.00  0.00     0.122 C 
HETATM   10  C16 UNL     1       6.650  -1.341  13.161  1.00  0.00     0.033 C 
HETATM   11  C17 UNL     1       6.745  -0.487  14.366  1.00  0.00     0.016 C 
HETATM   12  C18 UNL     1       5.621   0.564  14.449  1.00  0.00    -0.015 C 
HETATM   13  C19 UNL     1       4.283  -0.198  14.355  1.00  0.00     0.020 C 
HETATM   14  C20 UNL     1       5.662   1.171  15.772  1.00  0.00     0.024 C 
HETATM   15  C21 UNL     1       4.272   1.449  16.369  1.00  0.00     0.014 C 
HETATM   16  C22 UNL     1       6.439   2.439  15.943  1.00  0.00     0.137 C 
HETATM   17  O3  UNL     1       7.689   2.435  15.424  1.00  0.00    -0.351 OA
HETATM   18  C23 UNL     1       8.660   3.150  16.066  1.00  0.00     0.302 A 
HETATM   19  O4  UNL     1       8.630   3.347  17.435  1.00  0.00    -0.336 OA
ENDROOT
BRANCH   1  20
HETATM   20  C6  UNL     1       9.691   5.366  16.678  1.00  0.00     0.215 C 
BRANCH  20  21
HETATM   21  O1  UNL     1       9.493   6.607  17.140  1.00  0.00    -0.388 OA
BRANCH  21  22
HETATM   22  C5  UNL     1      10.091   7.121  18.223  1.00  0.00     0.168 C 
BRANCH  22  23
HETATM   23  C4  UNL     1      11.473   7.716  17.884  1.00  0.00     0.030 C 
BRANCH  23  24
HETATM   24  C2  UNL     1      12.184   8.088  19.165  1.00  0.00    -0.021 C 
HETATM   25  C1  UNL     1      12.433   9.562  19.178  1.00  0.00     0.009 C 
HETATM   26  C3  UNL     1      11.381   7.703  20.384  1.00  0.00     0.009 C 
ENDBRANCH  23  24
ENDBRANCH  22  23
ENDBRANCH  21  22
ENDBRANCH  20  21
ENDBRANCH   1  20
BRANCH   9  27
HETATM   27  O2  UNL     1       7.421  -0.638  11.037  1.00  0.00    -0.395 OA
ATOM     28  H2  UNL     1       8.160  -1.093  11.423  1.00  0.00     0.210 HD
ENDBRANCH   9  27
TORSDOF 6
ENDMDL
MODEL 4
REMARK VINA RESULT: -8.811242839      1.615      6.739
REMARK  6 active torsions:
REMARK  status: ('A' for Active; 'I' for Inactive)
REMARK    1  A    between atoms: C2_2  and  C4_4 
REMARK    2  A    between atoms: C4_4  and  C5_5 
REMARK    3  A    between atoms: C5_5  and  O1_6 
REMARK    4  A    between atoms: O1_6  and  C6_7 
REMARK    5  A    between atoms: C6_7  and  C7_8 
REMARK    6  A    between atoms: C15_16  and  O2_17 
ROOT
HETATM    1  C7  UNL     1       5.717   1.396  18.252  1.00  0.00     0.152 A 
HETATM    2  C8  UNL     1       4.555   2.292  17.975  1.00  0.00     0.014 C 
HETATM    3  C9  UNL     1       3.819   2.510  16.881  1.00  0.00    -0.020 C 
HETATM    4  C10 UNL     1       4.007   1.845  15.570  1.00  0.00     0.041 C 
HETATM    5  C11 UNL     1       5.179   2.440  14.883  1.00  0.00     0.038 C 
HETATM    6  C12 UNL     1       5.534   1.893  13.581  1.00  0.00    -0.022 C 
HETATM    7  C13 UNL     1       5.257   0.736  13.024  1.00  0.00    -0.072 C 
HETATM    8  C14 UNL     1       5.866   0.675  11.668  1.00  0.00     0.066 C 
HETATM    9  C15 UNL     1       6.501  -0.619  11.321  1.00  0.00     0.122 C 
HETATM   10  C16 UNL     1       6.118  -1.801  12.112  1.00  0.00     0.033 C 
HETATM   11  C17 UNL     1       5.521  -1.579  13.447  1.00  0.00     0.016 C 
HETATM   12  C18 UNL     1       4.512  -0.414  13.469  1.00  0.00    -0.015 C 
HETATM   13  C19 UNL     1       3.460  -0.708  12.380  1.00  0.00     0.020 C 
HETATM   14  C20 UNL     1       3.811  -0.444  14.745  1.00  0.00     0.024 C 
HETATM   15  C21 UNL     1       2.315  -0.102  14.637  1.00  0.00     0.014 C 
HETATM   16  C22 UNL     1       4.340   0.400  15.862  1.00  0.00     0.137 C 
HETATM   17  O3  UNL     1       5.671   0.302  16.091  1.00  0.00    -0.351 OA
HETATM   18  C23 UNL     1       6.117   0.419  17.377  1.00  0.00     0.302 A 
HETATM   19  O4  UNL     1       5.339   0.030  18.452  1.00  0.00    -0.336 OA
ENDROOT
BRANCH   1  20
HETATM   20  C6  UNL     1       6.599   1.846  19.397  1.00  0.00     0.215 C 
BRANCH  20  21
HETATM   21  O1  UNL     1       7.313   2.971  19.272  1.00  0.00    -0.388 OA
BRANCH  21  22
HETATM   22  C5  UNL     1       6.873   4.192  19.600  1.00  0.00     0.168 C 
BRANCH  22  23
HETATM   23  C4  UNL     1       7.318   5.255  18.575  1.00  0.00     0.030 C 
BRANCH  23  24
HETATM   24  C2  UNL     1       7.155   4.701  17.179  1.00  0.00    -0.021 C 
HETATM   25  C1  UNL     1       6.231   5.584  16.404  1.00  0.00     0.009 C 
HETATM   26  C3  UNL     1       8.477   4.600  16.457  1.00  0.00     0.009 C 
ENDBRANCH  23  24
ENDBRANCH  22  23
ENDBRANCH  21  22
ENDBRANCH  20  21
ENDBRANCH   1  20
BRANCH   9  27
HETATM   27  O2  UNL     1       7.910  -0.496  11.283  1.00  0.00    -0.395 OA
ATOM     28  H2  UNL     1       8.257  -0.304  12.146  1.00  0.00     0.210 HD
ENDBRANCH   9  27
TORSDOF 6
ENDMDL
MODEL 5
REMARK VINA RESULT: -8.782551759      2.128      4.201
REMARK  6 active torsions:
REMARK  status: ('A' for Active; 'I' for Inactive)
REMARK    1  A    between atoms: C2_2  and  C4_4 
REMARK    2  A    between atoms: C4_4  and  C5_5 
REMARK    3  A    between atoms: C5_5  and  O1_6 
REMARK    4  A    between atoms: O1_6  and  C6_7 
REMARK    5  A    between atoms: C6_7  and  C7_8 
REMARK    6  A    between atoms: C15_16  and  O2_17 
ROOT
HETATM    1  C7  UNL     1       2.490  -0.726  14.930  1.00  0.00     0.152 A 
HETATM    2  C8  UNL     1       3.299  -1.584  15.846  1.00  0.00     0.014 C 
HETATM    3  C9  UNL     1       4.399  -1.353  16.569  1.00  0.00    -0.020 C 
HETATM    4  C10 UNL     1       5.134  -0.068  16.632  1.00  0.00     0.041 C 
HETATM    5  C11 UNL     1       5.930   0.101  15.391  1.00  0.00     0.038 C 
HETATM    6  C12 UNL     1       6.706   1.327  15.262  1.00  0.00    -0.022 C 
HETATM    7  C13 UNL     1       6.584   2.494  15.851  1.00  0.00    -0.072 C 
HETATM    8  C14 UNL     1       7.642   3.416  15.359  1.00  0.00     0.066 C 
HETATM    9  C15 UNL     1       7.193   4.803  15.089  1.00  0.00     0.122 C 
HETATM   10  C16 UNL     1       5.932   5.244  15.707  1.00  0.00     0.033 C 
HETATM   11  C17 UNL     1       4.975   4.205  16.149  1.00  0.00     0.016 C 
HETATM   12  C18 UNL     1       5.662   3.006  16.832  1.00  0.00    -0.015 C 
HETATM   13  C19 UNL     1       6.513   3.573  17.988  1.00  0.00     0.020 C 
HETATM   14  C20 UNL     1       4.630   2.179  17.441  1.00  0.00     0.024 C 
HETATM   15  C21 UNL     1       5.030   1.598  18.808  1.00  0.00     0.014 C 
HETATM   16  C22 UNL     1       4.092   1.026  16.652  1.00  0.00     0.137 C 
HETATM   17  O3  UNL     1       3.734   1.305  15.377  1.00  0.00    -0.351 OA
HETATM   18  C23 UNL     1       2.674   0.631  14.840  1.00  0.00     0.302 A 
HETATM   19  O4  UNL     1       1.627   0.182  15.624  1.00  0.00    -0.336 OA
ENDROOT
BRANCH   1  20
HETATM   20  C6  UNL     1       1.689  -1.488  13.897  1.00  0.00     0.215 C 
BRANCH  20  21
HETATM   21  O1  UNL     1       2.301  -2.407  13.140  1.00  0.00    -0.388 OA
BRANCH  21  22
HETATM   22  C5  UNL     1       3.070  -2.129  12.079  1.00  0.00     0.168 C 
BRANCH  22  23
HETATM   23  C4  UNL     1       4.555  -2.444  12.351  1.00  0.00     0.030 C 
BRANCH  23  24
HETATM   24  C2  UNL     1       5.384  -1.210  12.083  1.00  0.00    -0.021 C 
HETATM   25  C1  UNL     1       6.290  -1.468  10.922  1.00  0.00     0.009 C 
HETATM   26  C3  UNL     1       4.520  -0.007  11.788  1.00  0.00     0.009 C 
ENDBRANCH  23  24
ENDBRANCH  22  23
ENDBRANCH  21  22
ENDBRANCH  20  21
ENDBRANCH   1  20
BRANCH   9  27
HETATM   27  O2  UNL     1       7.171   5.064  13.699  1.00  0.00    -0.395 OA
ATOM     28  H2  UNL     1       8.035   4.955  13.320  1.00  0.00     0.210 HD
ENDBRANCH   9  27
TORSDOF 6
ENDMDL
