MODEL 1
REMARK VINA RESULT: -9.686259773      0.000      0.000
REMARK  13 active torsions:
REMARK  status: ('A' for Active; 'I' for Inactive)
REMARK    1  A    between atoms: N1_1  and  C1_4 
REMARK    2  A    between atoms: C2_7  and  S1_8 
REMARK    3  A    between atoms: S1_8  and  C3_9 
REMARK    4  A    between atoms: C3_9  and  C4_10 
REMARK    5  A    between atoms: C4_10  and  N3_11 
REMARK    6  A    between atoms: C5_12  and  C6_13 
REMARK    7  A    between atoms: C8_22  and  O1_23 
REMARK    8  A    between atoms: C9_25  and  N8_26 
REMARK    9  A    between atoms: N8_26  and  C10_28 
REMARK   10  A    between atoms: C10_28  and  O2_29 
REMARK   11  A    between atoms: C10_28  and  C11_31 
REMARK       I    between atoms: C11_31  and  N9_33 
REMARK   12  A    between atoms: N9_33  and  N10_35 
REMARK   13  A    between atoms: N13_48  and  O6_49 
ROOT
HETATM    1  N3  UNL     1      17.751  -7.571   4.361  1.00  0.00    -0.327 N 
HETATM    2  C5  UNL     1      17.080  -7.268   5.475  1.00  0.00     0.085 A 
HETATM    3  C7  UNL     1      15.974  -8.076   5.513  1.00  0.00     0.074 A 
HETATM    4  C8  UNL     1      15.992  -8.898   4.362  1.00  0.00     0.112 A 
HETATM    5  C9  UNL     1      17.118  -8.567   3.648  1.00  0.00     0.140 A 
ENDROOT
BRANCH   1   6
HETATM    6  C4  UNL     1      18.981  -6.918   3.985  1.00  0.00     0.141 C 
BRANCH   6   7
HETATM    7  C3  UNL     1      18.683  -5.616   3.280  1.00  0.00     0.102 C 
BRANCH   7   8
HETATM    8  S1  UNL     1      19.054  -4.187   4.322  1.00  0.00    -0.092 SA
BRANCH   8   9
HETATM    9  C2  UNL     1      19.503  -2.813   3.291  1.00  0.00     0.147 A 
HETATM   10  N2  UNL     1      19.795  -2.983   1.989  1.00  0.00    -0.322 N 
HETATM   11  C1  UNL     1      20.139  -1.937   1.197  1.00  0.00     0.120 A 
ATOM     12  H2  UNL     1      19.756  -3.920   1.589  1.00  0.00     0.169 HD
HETATM   13  C13 UNL     1      20.202  -0.659   1.702  1.00  0.00     0.122 A 
HETATM   14  C12 UNL     1      19.903  -0.496   3.037  1.00  0.00     0.159 A 
HETATM   15  C14 UNL     1      20.547   0.443   0.942  1.00  0.00     0.267 A 
HETATM   16  N11 UNL     1      19.567  -1.552   3.786  1.00  0.00    -0.320 N 
HETATM   17  N13 UNL     1      19.953   0.745   3.575  1.00  0.00    -0.154 N 
ATOM     18  H11 UNL     1      19.351  -1.402   4.771  1.00  0.00     0.169 HD
HETATM   19  C15 UNL     1      20.288   1.827   2.842  1.00  0.00     0.355 A 
HETATM   20  N12 UNL     1      20.581   1.668   1.539  1.00  0.00    -0.273 N 
HETATM   21  O5  UNL     1      20.322   2.958   3.382  1.00  0.00    -0.244 OA
ATOM     22  H12 UNL     1      20.836   2.485   0.983  1.00  0.00     0.173 HD
HETATM   23  O4  UNL     1      20.817   0.297  -0.262  1.00  0.00    -0.267 OA
BRANCH  11  24
HETATM   24  N1  UNL     1      20.421  -2.084  -0.056  1.00  0.00    -0.384 N 
ATOM     25  H12 UNL     1      21.065  -2.837  -0.297  1.00  0.00     0.157 HD
ATOM     26  H11 UNL     1      20.024  -1.481  -0.778  1.00  0.00     0.157 HD
ENDBRANCH  11  24
BRANCH  17  27
HETATM   27  O6  UNL     1      19.644   0.842   4.909  1.00  0.00    -0.277 OA
ATOM     28  H6  UNL     1      19.669   1.715   5.284  1.00  0.00     0.245 HD
ENDBRANCH  17  27
ENDBRANCH   8   9
ENDBRANCH   7   8
ENDBRANCH   6   7
ENDBRANCH   1   6
BRANCH   2  29
HETATM   29  C6  UNL     1      17.412  -6.261   6.507  1.00  0.00     0.161 A 
HETATM   30  N4  UNL     1      18.375  -6.184   7.397  1.00  0.00    -0.265 N 
HETATM   31  N5  UNL     1      18.258  -5.078   8.116  1.00  0.00    -0.005 NA
ATOM     32  H4  UNL     1      19.111  -6.880   7.518  1.00  0.00     0.186 HD
HETATM   33  N6  UNL     1      17.181  -4.417   7.674  1.00  0.00    -0.225 N 
HETATM   34  N7  UNL     1      16.670  -5.129   6.705  1.00  0.00    -0.270 N 
ATOM     35  H6  UNL     1      16.827  -3.527   8.026  1.00  0.00     0.205 HD
ATOM     36  H7  UNL     1      15.837  -4.877   6.171  1.00  0.00     0.190 HD
ENDBRANCH   2  29
BRANCH   5  37
HETATM   37  N8  UNL     1      17.663  -9.071   2.445  1.00  0.00    -0.340 N 
ATOM     38  H8  UNL     1      17.694  -8.421   1.659  1.00  0.00     0.164 HD
BRANCH  37  39
HETATM   39  C10 UNL     1      18.173 -10.372   2.200  1.00  0.00     0.315 C 
BRANCH  39  40
HETATM   40  O2  UNL     1      18.999 -10.303   0.992  1.00  0.00    -0.368 OA
ATOM     41  H2  UNL     1      18.660 -10.942   0.377  1.00  0.00     0.212 HD
ENDBRANCH  39  40
BRANCH  39  42
HETATM   42  C11 UNL     1      17.168 -11.407   1.865  1.00  0.00     0.284 C 
HETATM   43  O3  UNL     1      17.072 -11.817   0.647  1.00  0.00    -0.267 OA
HETATM   44  N9  UNL     1      16.286 -11.997   2.784  1.00  0.00    -0.273 N 
ATOM     45  H9  UNL     1      16.315 -11.711   3.763  1.00  0.00     0.189 HD
BRANCH  44  46
HETATM   46  N10 UNL     1      15.347 -12.993   2.367  1.00  0.00    -0.342 N 
ATOM     47 2H10 UNL     1      15.542 -13.519   1.515  1.00  0.00     0.176 HD
ATOM     48 1H10 UNL     1      14.502 -13.175   2.907  1.00  0.00     0.176 HD
ENDBRANCH  44  46
ENDBRANCH  39  42
ENDBRANCH  37  39
ENDBRANCH   5  37
BRANCH   4  49
HETATM   49  O1  UNL     1      15.021  -9.828   4.087  1.00  0.00    -0.357 OA
ATOM     50  H1  UNL     1      15.026 -10.370   3.308  1.00  0.00     0.218 HD
ENDBRANCH   4  49
TORSDOF 13
ENDMDL
MODEL 2
REMARK VINA RESULT: -9.610396024      1.241      1.610
REMARK  13 active torsions:
REMARK  status: ('A' for Active; 'I' for Inactive)
REMARK    1  A    between atoms: N1_1  and  C1_4 
REMARK    2  A    between atoms: C2_7  and  S1_8 
REMARK    3  A    between atoms: S1_8  and  C3_9 
REMARK    4  A    between atoms: C3_9  and  C4_10 
REMARK    5  A    between atoms: C4_10  and  N3_11 
REMARK    6  A    between atoms: C5_12  and  C6_13 
REMARK    7  A    between atoms: C8_22  and  O1_23 
REMARK    8  A    between atoms: C9_25  and  N8_26 
REMARK    9  A    between atoms: N8_26  and  C10_28 
REMARK   10  A    between atoms: C10_28  and  O2_29 
REMARK   11  A    between atoms: C10_28  and  C11_31 
REMARK       I    between atoms: C11_31  and  N9_33 
REMARK   12  A    between atoms: N9_33  and  N10_35 
REMARK   13  A    between atoms: N13_48  and  O6_49 
ROOT
HETATM    1  N3  UNL     1      17.966  -7.686   4.180  1.00  0.00    -0.327 N 
HETATM    2  C5  UNL     1      17.186  -7.454   5.239  1.00  0.00     0.085 A 
HETATM    3  C7  UNL     1      16.164  -8.367   5.195  1.00  0.00     0.074 A 
HETATM    4  C8  UNL     1      16.350  -9.178   4.051  1.00  0.00     0.112 A 
HETATM    5  C9  UNL     1      17.489  -8.735   3.424  1.00  0.00     0.140 A 
ENDROOT
BRANCH   1   6
HETATM    6  C4  UNL     1      19.151  -6.914   3.897  1.00  0.00     0.141 C 
BRANCH   6   7
HETATM    7  C3  UNL     1      18.778  -5.622   3.208  1.00  0.00     0.102 C 
BRANCH   7   8
HETATM    8  S1  UNL     1      19.077  -4.187   4.264  1.00  0.00    -0.092 SA
BRANCH   8   9
HETATM    9  C2  UNL     1      19.523  -2.798   3.251  1.00  0.00     0.147 A 
HETATM   10  N2  UNL     1      19.818  -2.953   1.948  1.00  0.00    -0.322 N 
HETATM   11  C1  UNL     1      20.160  -1.896   1.169  1.00  0.00     0.120 A 
ATOM     12  H2  UNL     1      19.785  -3.885   1.536  1.00  0.00     0.169 HD
HETATM   13  C13 UNL     1      20.216  -0.623   1.688  1.00  0.00     0.122 A 
HETATM   14  C12 UNL     1      19.913  -0.477   3.025  1.00  0.00     0.159 A 
HETATM   15  C14 UNL     1      20.558   0.488   0.943  1.00  0.00     0.267 A 
HETATM   16  N11 UNL     1      19.580  -1.543   3.760  1.00  0.00    -0.320 N 
HETATM   17  N13 UNL     1      19.956   0.758   3.577  1.00  0.00    -0.154 N 
ATOM     18  H11 UNL     1      19.360  -1.406   4.747  1.00  0.00     0.169 HD
HETATM   19  C15 UNL     1      20.289   1.850   2.857  1.00  0.00     0.355 A 
HETATM   20  N12 UNL     1      20.586   1.707   1.553  1.00  0.00    -0.273 N 
HETATM   21  O5  UNL     1      20.317   2.974   3.411  1.00  0.00    -0.244 OA
ATOM     22  H12 UNL     1      20.838   2.531   1.008  1.00  0.00     0.173 HD
HETATM   23  O4  UNL     1      20.833   0.358  -0.263  1.00  0.00    -0.267 OA
BRANCH  11  24
HETATM   24  N1  UNL     1      20.446  -2.027  -0.085  1.00  0.00    -0.384 N 
ATOM     25  H12 UNL     1      20.214  -1.242  -0.695  1.00  0.00     0.157 HD
ATOM     26  H11 UNL     1      20.882  -2.870  -0.460  1.00  0.00     0.157 HD
ENDBRANCH  11  24
BRANCH  17  27
HETATM   27  O6  UNL     1      19.643   0.838   4.911  1.00  0.00    -0.277 OA
ATOM     28  H6  UNL     1      18.778   0.532   5.159  1.00  0.00     0.245 HD
ENDBRANCH  17  27
ENDBRANCH   8   9
ENDBRANCH   7   8
ENDBRANCH   6   7
ENDBRANCH   1   6
BRANCH   2  29
HETATM   29  C6  UNL     1      17.338  -6.425   6.291  1.00  0.00     0.161 A 
HETATM   30  N4  UNL     1      18.205  -6.271   7.266  1.00  0.00    -0.265 N 
HETATM   31  N5  UNL     1      17.933  -5.179   7.963  1.00  0.00    -0.005 NA
ATOM     32  H4  UNL     1      18.980  -6.905   7.459  1.00  0.00     0.186 HD
HETATM   33  N6  UNL     1      16.851  -4.607   7.419  1.00  0.00    -0.225 N 
HETATM   34  N7  UNL     1      16.492  -5.357   6.411  1.00  0.00    -0.270 N 
ATOM     35  H6  UNL     1      16.395  -3.749   7.732  1.00  0.00     0.205 HD
ATOM     36  H7  UNL     1      15.694  -5.173   5.802  1.00  0.00     0.190 HD
ENDBRANCH   2  29
BRANCH   5  37
HETATM   37  N8  UNL     1      18.171  -9.177   2.267  1.00  0.00    -0.340 N 
ATOM     38  H8  UNL     1      18.820  -8.513   1.847  1.00  0.00     0.164 HD
BRANCH  37  39
HETATM   39  C10 UNL     1      18.060 -10.436   1.621  1.00  0.00     0.315 C 
BRANCH  39  40
HETATM   40  O2  UNL     1      18.066 -11.468   2.661  1.00  0.00    -0.368 OA
ATOM     41  H2  UNL     1      18.973 -11.691   2.835  1.00  0.00     0.212 HD
ENDBRANCH  39  40
BRANCH  39  42
HETATM   42  C11 UNL     1      19.196 -10.820   0.753  1.00  0.00     0.284 C 
HETATM   43  O3  UNL     1      20.173 -11.492   1.259  1.00  0.00    -0.267 OA
HETATM   44  N9  UNL     1      19.307 -10.507  -0.611  1.00  0.00    -0.273 N 
ATOM     45  H9  UNL     1      18.564  -9.976  -1.066  1.00  0.00     0.189 HD
BRANCH  44  46
HETATM   46  N10 UNL     1      20.445 -10.924  -1.371  1.00  0.00    -0.342 N 
ATOM     47 2H10 UNL     1      21.353 -10.513  -1.153  1.00  0.00     0.176 HD
ATOM     48 1H10 UNL     1      20.354 -11.616  -2.115  1.00  0.00     0.176 HD
ENDBRANCH  44  46
ENDBRANCH  39  42
ENDBRANCH  37  39
ENDBRANCH   5  37
BRANCH   4  49
HETATM   49  O1  UNL     1      15.498 -10.197   3.705  1.00  0.00    -0.357 OA
ATOM     50  H1  UNL     1      14.683 -10.372   4.162  1.00  0.00     0.218 HD
ENDBRANCH   4  49
TORSDOF 13
ENDMDL
MODEL 3
REMARK VINA RESULT: -9.468585756      2.345      8.797
REMARK  13 active torsions:
REMARK  status: ('A' for Active; 'I' for Inactive)
REMARK    1  A    between atoms: N1_1  and  C1_4 
REMARK    2  A    between atoms: C2_7  and  S1_8 
REMARK    3  A    between atoms: S1_8  and  C3_9 
REMARK    4  A    between atoms: C3_9  and  C4_10 
REMARK    5  A    between atoms: C4_10  and  N3_11 
REMARK    6  A    between atoms: C5_12  and  C6_13 
REMARK    7  A    between atoms: C8_22  and  O1_23 
REMARK    8  A    between atoms: C9_25  and  N8_26 
REMARK    9  A    between atoms: N8_26  and  C10_28 
REMARK   10  A    between atoms: C10_28  and  O2_29 
REMARK   11  A    between atoms: C10_28  and  C11_31 
REMARK       I    between atoms: C11_31  and  N9_33 
REMARK   12  A    between atoms: N9_33  and  N10_35 
REMARK   13  A    between atoms: N13_48  and  O6_49 
ROOT
HETATM    1  N3  UNL     1      19.227  -3.590   2.645  1.00  0.00    -0.327 N 
HETATM    2  C5  UNL     1      19.052  -3.235   3.920  1.00  0.00     0.085 A 
HETATM    3  C7  UNL     1      19.812  -2.115   4.135  1.00  0.00     0.074 A 
HETATM    4  C8  UNL     1      20.470  -1.792   2.925  1.00  0.00     0.112 A 
HETATM    5  C9  UNL     1      20.089  -2.732   1.997  1.00  0.00     0.140 A 
ENDROOT
BRANCH   1   6
HETATM    6  C4  UNL     1      18.576  -4.735   2.055  1.00  0.00     0.141 C 
BRANCH   6   7
HETATM    7  C3  UNL     1      19.498  -5.932   2.091  1.00  0.00     0.102 C 
BRANCH   7   8
HETATM    8  S1  UNL     1      19.522  -6.712   3.721  1.00  0.00    -0.092 SA
BRANCH   8   9
HETATM    9  C2  UNL     1      18.145  -7.825   3.857  1.00  0.00     0.147 A 
HETATM   10  N2  UNL     1      18.013  -8.875   3.026  1.00  0.00    -0.322 N 
HETATM   11  C1  UNL     1      16.964  -9.729   3.125  1.00  0.00     0.120 A 
ATOM     12  H2  UNL     1      18.717  -9.032   2.306  1.00  0.00     0.169 HD
HETATM   13  C13 UNL     1      15.993  -9.549   4.084  1.00  0.00     0.122 A 
HETATM   14  C12 UNL     1      16.138  -8.469   4.928  1.00  0.00     0.159 A 
HETATM   15  C14 UNL     1      14.904 -10.386   4.230  1.00  0.00     0.267 A 
HETATM   16  N11 UNL     1      17.187  -7.650   4.800  1.00  0.00    -0.320 N 
HETATM   17  N13 UNL     1      15.206  -8.255   5.886  1.00  0.00    -0.154 N 
ATOM     18  H11 UNL     1      17.269  -6.859   5.438  1.00  0.00     0.169 HD
HETATM   19  C15 UNL     1      14.138  -9.066   6.037  1.00  0.00     0.355 A 
HETATM   20  N12 UNL     1      13.996 -10.119   5.212  1.00  0.00    -0.273 N 
HETATM   21  O5  UNL     1      13.300  -8.828   6.937  1.00  0.00    -0.244 OA
ATOM     22  H12 UNL     1      13.190 -10.733   5.324  1.00  0.00     0.173 HD
HETATM   23  O4  UNL     1      14.772 -11.359   3.468  1.00  0.00    -0.267 OA
BRANCH  11  24
HETATM   24  N1  UNL     1      16.822 -10.743   2.336  1.00  0.00    -0.384 N 
ATOM     25  H12 UNL     1      16.877 -10.557   1.334  1.00  0.00     0.157 HD
ATOM     26  H11 UNL     1      16.663 -11.688   2.686  1.00  0.00     0.157 HD
ENDBRANCH  11  24
BRANCH  17  27
HETATM   27  O6  UNL     1      15.407  -7.164   6.695  1.00  0.00    -0.277 OA
ATOM     28  H6  UNL     1      14.683  -6.922   7.261  1.00  0.00     0.245 HD
ENDBRANCH  17  27
ENDBRANCH   8   9
ENDBRANCH   7   8
ENDBRANCH   6   7
ENDBRANCH   1   6
BRANCH   2  29
HETATM   29  C6  UNL     1      18.217  -3.886   4.954  1.00  0.00     0.161 A 
HETATM   30  N4  UNL     1      16.919  -4.030   5.088  1.00  0.00    -0.265 N 
HETATM   31  N5  UNL     1      16.635  -4.696   6.196  1.00  0.00    -0.005 NA
ATOM     32  H4  UNL     1      16.225  -3.678   4.428  1.00  0.00     0.186 HD
HETATM   33  N6  UNL     1      17.792  -4.993   6.800  1.00  0.00    -0.225 N 
HETATM   34  N7  UNL     1      18.747  -4.505   6.054  1.00  0.00    -0.270 N 
ATOM     35  H6  UNL     1      17.907  -5.502   7.677  1.00  0.00     0.205 HD
ATOM     36  H7  UNL     1      19.743  -4.575   6.260  1.00  0.00     0.190 HD
ENDBRANCH   2  29
BRANCH   5  37
HETATM   37  N8  UNL     1      20.401  -2.897   0.628  1.00  0.00    -0.340 N 
ATOM     38  H8  UNL     1      20.741  -3.819   0.353  1.00  0.00     0.164 HD
BRANCH  37  39
HETATM   39  C10 UNL     1      20.299  -1.934  -0.408  1.00  0.00     0.315 C 
BRANCH  39  40
HETATM   40  O2  UNL     1      20.873  -0.683   0.094  1.00  0.00    -0.368 OA
ATOM     41  H2  UNL     1      20.686  -0.006  -0.546  1.00  0.00     0.212 HD
ENDBRANCH  39  40
BRANCH  39  42
HETATM   42  C11 UNL     1      18.923  -1.545  -0.796  1.00  0.00     0.284 C 
HETATM   43  O3  UNL     1      18.106  -1.140   0.114  1.00  0.00    -0.267 OA
HETATM   44  N9  UNL     1      18.418  -1.581  -2.105  1.00  0.00    -0.273 N 
ATOM     45  H9  UNL     1      19.019  -1.894  -2.868  1.00  0.00     0.189 HD
BRANCH  44  46
HETATM   46  N10 UNL     1      17.072  -1.184  -2.384  1.00  0.00    -0.342 N 
ATOM     47 2H10 UNL     1      16.439  -1.866  -2.802  1.00  0.00     0.176 HD
ATOM     48 1H10 UNL     1      16.750  -0.239  -2.171  1.00  0.00     0.176 HD
ENDBRANCH  44  46
ENDBRANCH  39  42
ENDBRANCH  37  39
ENDBRANCH   5  37
BRANCH   4  49
HETATM   49  O1  UNL     1      21.316  -0.721   2.792  1.00  0.00    -0.357 OA
ATOM     50  H1  UNL     1      21.144   0.010   2.209  1.00  0.00     0.218 HD
ENDBRANCH   4  49
TORSDOF 13
ENDMDL
MODEL 4
REMARK VINA RESULT: -9.282947007      2.179      9.290
REMARK  13 active torsions:
REMARK  status: ('A' for Active; 'I' for Inactive)
REMARK    1  A    between atoms: N1_1  and  C1_4 
REMARK    2  A    between atoms: C2_7  and  S1_8 
REMARK    3  A    between atoms: S1_8  and  C3_9 
REMARK    4  A    between atoms: C3_9  and  C4_10 
REMARK    5  A    between atoms: C4_10  and  N3_11 
REMARK    6  A    between atoms: C5_12  and  C6_13 
REMARK    7  A    between atoms: C8_22  and  O1_23 
REMARK    8  A    between atoms: C9_25  and  N8_26 
REMARK    9  A    between atoms: N8_26  and  C10_28 
REMARK   10  A    between atoms: C10_28  and  O2_29 
REMARK   11  A    between atoms: C10_28  and  C11_31 
REMARK       I    between atoms: C11_31  and  N9_33 
REMARK   12  A    between atoms: N9_33  and  N10_35 
REMARK   13  A    between atoms: N13_48  and  O6_49 
ROOT
HETATM    1  N3  UNL     1      19.089  -4.114   2.956  1.00  0.00    -0.327 N 
HETATM    2  C5  UNL     1      18.950  -3.607   4.183  1.00  0.00     0.085 A 
HETATM    3  C7  UNL     1      19.694  -2.457   4.232  1.00  0.00     0.074 A 
HETATM    4  C8  UNL     1      20.304  -2.276   2.969  1.00  0.00     0.112 A 
HETATM    5  C9  UNL     1      19.912  -3.329   2.177  1.00  0.00     0.140 A 
ENDROOT
BRANCH   1   6
HETATM    6  C4  UNL     1      18.441  -5.333   2.534  1.00  0.00     0.141 C 
BRANCH   6   7
HETATM    7  C3  UNL     1      19.383  -6.503   2.695  1.00  0.00     0.102 C 
BRANCH   7   8
HETATM    8  S1  UNL     1      19.276  -7.227   4.347  1.00  0.00    -0.092 SA
BRANCH   8   9
HETATM    9  C2  UNL     1      17.700  -8.023   4.536  1.00  0.00     0.147 A 
HETATM   10  N2  UNL     1      16.760  -7.522   5.358  1.00  0.00    -0.322 N 
HETATM   11  C1  UNL     1      15.554  -8.125   5.506  1.00  0.00     0.120 A 
ATOM     12  H2  UNL     1      16.958  -6.669   5.880  1.00  0.00     0.169 HD
HETATM   13  C13 UNL     1      15.251  -9.278   4.819  1.00  0.00     0.122 A 
HETATM   14  C12 UNL     1      16.222  -9.784   3.982  1.00  0.00     0.159 A 
HETATM   15  C14 UNL     1      14.041  -9.935   4.933  1.00  0.00     0.267 A 
HETATM   16  N11 UNL     1      17.398  -9.159   3.861  1.00  0.00    -0.320 N 
HETATM   17  N13 UNL     1      15.964 -10.916   3.287  1.00  0.00    -0.154 N 
ATOM     18  H11 UNL     1      18.099  -9.556   3.235  1.00  0.00     0.169 HD
HETATM   19  C15 UNL     1      14.786 -11.565   3.390  1.00  0.00     0.355 A 
HETATM   20  N12 UNL     1      13.839 -11.072   4.208  1.00  0.00    -0.273 N 
HETATM   21  O5  UNL     1      14.593 -12.611   2.728  1.00  0.00    -0.244 OA
ATOM     22  H12 UNL     1      12.948 -11.562   4.288  1.00  0.00     0.173 HD
HETATM   23  O4  UNL     1      13.164  -9.480   5.688  1.00  0.00    -0.267 OA
BRANCH  11  24
HETATM   24  N1  UNL     1      14.640  -7.656   6.291  1.00  0.00    -0.384 N 
ATOM     25  H12 UNL     1      13.696  -7.588   5.908  1.00  0.00     0.157 HD
ATOM     26  H11 UNL     1      14.840  -7.364   7.248  1.00  0.00     0.157 HD
ENDBRANCH  11  24
BRANCH  17  27
HETATM   27  O6  UNL     1      16.971 -11.369   2.470  1.00  0.00    -0.277 OA
ATOM     28  H6  UNL     1      17.334 -12.221   2.683  1.00  0.00     0.245 HD
ENDBRANCH  17  27
ENDBRANCH   8   9
ENDBRANCH   7   8
ENDBRANCH   6   7
ENDBRANCH   1   6
BRANCH   2  29
HETATM   29  C6  UNL     1      18.163  -4.138   5.318  1.00  0.00     0.161 A 
HETATM   30  N4  UNL     1      16.871  -4.231   5.539  1.00  0.00    -0.265 N 
HETATM   31  N5  UNL     1      16.639  -4.787   6.717  1.00  0.00    -0.005 NA
ATOM     32  H4  UNL     1      16.148  -3.917   4.892  1.00  0.00     0.186 HD
HETATM   33  N6  UNL     1      17.822  -5.064   7.278  1.00  0.00    -0.225 N 
HETATM   34  N7  UNL     1      18.742  -4.673   6.436  1.00  0.00    -0.270 N 
ATOM     35  H6  UNL     1      17.977  -5.497   8.189  1.00  0.00     0.205 HD
ATOM     36  H7  UNL     1      19.747  -4.755   6.590  1.00  0.00     0.190 HD
ENDBRANCH   2  29
BRANCH   5  37
HETATM   37  N8  UNL     1      20.181  -3.657   0.829  1.00  0.00    -0.340 N 
ATOM     38  H8  UNL     1      20.650  -4.548   0.669  1.00  0.00     0.164 HD
BRANCH  37  39
HETATM   39  C10 UNL     1      19.877  -2.893  -0.328  1.00  0.00     0.315 C 
BRANCH  39  40
HETATM   40  O2  UNL     1      20.988  -3.058  -1.269  1.00  0.00    -0.368 OA
ATOM     41  H2  UNL     1      20.647  -2.906  -2.143  1.00  0.00     0.212 HD
ENDBRANCH  39  40
BRANCH  39  42
HETATM   42  C11 UNL     1      19.809  -1.426  -0.135  1.00  0.00     0.284 C 
HETATM   43  O3  UNL     1      18.657  -0.866   0.003  1.00  0.00    -0.267 OA
HETATM   44  N9  UNL     1      20.920  -0.570  -0.089  1.00  0.00    -0.273 N 
ATOM     45  H9  UNL     1      21.858  -0.957  -0.194  1.00  0.00     0.189 HD
BRANCH  44  46
HETATM   46  N10 UNL     1      20.754   0.838   0.103  1.00  0.00    -0.342 N 
ATOM     47 2H10 UNL     1      20.393   1.169   0.998  1.00  0.00     0.176 HD
ATOM     48 1H10 UNL     1      20.991   1.499  -0.638  1.00  0.00     0.176 HD
ENDBRANCH  44  46
ENDBRANCH  39  42
ENDBRANCH  37  39
ENDBRANCH   5  37
BRANCH   4  49
HETATM   49  O1  UNL     1      21.125  -1.216   2.675  1.00  0.00    -0.357 OA
ATOM     50  H1  UNL     1      21.125  -0.776   1.833  1.00  0.00     0.218 HD
ENDBRANCH   4  49
TORSDOF 13
ENDMDL
MODEL 5
REMARK VINA RESULT: -9.262272973      2.228      9.631
REMARK  13 active torsions:
REMARK  status: ('A' for Active; 'I' for Inactive)
REMARK    1  A    between atoms: N1_1  and  C1_4 
REMARK    2  A    between atoms: C2_7  and  S1_8 
REMARK    3  A    between atoms: S1_8  and  C3_9 
REMARK    4  A    between atoms: C3_9  and  C4_10 
REMARK    5  A    between atoms: C4_10  and  N3_11 
REMARK    6  A    between atoms: C5_12  and  C6_13 
REMARK    7  A    between atoms: C8_22  and  O1_23 
REMARK    8  A    between atoms: C9_25  and  N8_26 
REMARK    9  A    between atoms: N8_26  and  C10_28 
REMARK   10  A    between atoms: C10_28  and  O2_29 
REMARK   11  A    between atoms: C10_28  and  C11_31 
REMARK       I    between atoms: C11_31  and  N9_33 
REMARK   12  A    between atoms: N9_33  and  N10_35 
REMARK   13  A    between atoms: N13_48  and  O6_49 
ROOT
HETATM    1  N3  UNL     1      19.080  -4.377   3.089  1.00  0.00    -0.327 N 
HETATM    2  C5  UNL     1      18.988  -3.890   4.328  1.00  0.00     0.085 A 
HETATM    3  C7  UNL     1      19.693  -2.715   4.355  1.00  0.00     0.074 A 
HETATM    4  C8  UNL     1      20.230  -2.497   3.064  1.00  0.00     0.112 A 
HETATM    5  C9  UNL     1      19.834  -3.554   2.280  1.00  0.00     0.140 A 
ENDROOT
BRANCH   1   6
HETATM    6  C4  UNL     1      18.455  -5.613   2.684  1.00  0.00     0.141 C 
BRANCH   6   7
HETATM    7  C3  UNL     1      18.888  -6.736   3.595  1.00  0.00     0.102 C 
BRANCH   7   8
HETATM    8  S1  UNL     1      17.490  -7.755   4.117  1.00  0.00    -0.092 SA
BRANCH   8   9
HETATM    9  C2  UNL     1      17.475  -9.257   3.169  1.00  0.00     0.147 A 
HETATM   10  N2  UNL     1      18.428  -9.514   2.255  1.00  0.00    -0.322 N 
HETATM   11  C1  UNL     1      18.422 -10.659   1.528  1.00  0.00     0.120 A 
ATOM     12  H2  UNL     1      19.172  -8.833   2.106  1.00  0.00     0.169 HD
HETATM   13  C13 UNL     1      17.434 -11.601   1.700  1.00  0.00     0.122 A 
HETATM   14  C12 UNL     1      16.462 -11.326   2.637  1.00  0.00     0.159 A 
HETATM   15  C14 UNL     1      17.377 -12.783   0.987  1.00  0.00     0.267 A 
HETATM   16  N11 UNL     1      16.503 -10.186   3.335  1.00  0.00    -0.320 N 
HETATM   17  N13 UNL     1      15.471 -12.226   2.839  1.00  0.00    -0.154 N 
ATOM     18  H11 UNL     1      15.770 -10.009   4.023  1.00  0.00     0.169 HD
HETATM   19  C15 UNL     1      15.407 -13.383   2.148  1.00  0.00     0.355 A 
HETATM   20  N12 UNL     1      16.355 -13.651   1.232  1.00  0.00    -0.273 N 
HETATM   21  O5  UNL     1      14.470 -14.187   2.368  1.00  0.00    -0.244 OA
ATOM     22  H12 UNL     1      16.308 -14.525   0.709  1.00  0.00     0.173 HD
HETATM   23  O4  UNL     1      18.253 -13.032   0.141  1.00  0.00    -0.267 OA
BRANCH  11  24
HETATM   24  N1  UNL     1      19.331 -10.922   0.647  1.00  0.00    -0.384 N 
ATOM     25  H12 UNL     1      19.900 -10.139   0.325  1.00  0.00     0.157 HD
ATOM     26  H11 UNL     1      19.481 -11.864   0.283  1.00  0.00     0.157 HD
ENDBRANCH  11  24
BRANCH  17  27
HETATM   27  O6  UNL     1      14.534 -11.895   3.786  1.00  0.00    -0.277 OA
ATOM     28  H6  UNL     1      14.776 -11.206   4.394  1.00  0.00     0.245 HD
ENDBRANCH  17  27
ENDBRANCH   8   9
ENDBRANCH   7   8
ENDBRANCH   6   7
ENDBRANCH   1   6
BRANCH   2  29
HETATM   29  C6  UNL     1      18.280  -4.462   5.495  1.00  0.00     0.161 A 
HETATM   30  N4  UNL     1      18.695  -5.125   6.550  1.00  0.00    -0.265 N 
HETATM   31  N5  UNL     1      17.676  -5.436   7.335  1.00  0.00    -0.005 NA
ATOM     32  H4  UNL     1      19.668  -5.368   6.737  1.00  0.00     0.186 HD
HETATM   33  N6  UNL     1      16.562  -4.956   6.768  1.00  0.00    -0.225 N 
HETATM   34  N7  UNL     1      16.925  -4.369   5.659  1.00  0.00    -0.270 N 
ATOM     35  H6  UNL     1      15.612  -5.034   7.132  1.00  0.00     0.205 HD
ATOM     36  H7  UNL     1      16.289  -3.907   5.008  1.00  0.00     0.190 HD
ENDBRANCH   2  29
BRANCH   5  37
HETATM   37  N8  UNL     1      20.045  -3.856   0.915  1.00  0.00    -0.340 N 
ATOM     38  H8  UNL     1      20.425  -4.780   0.713  1.00  0.00     0.164 HD
BRANCH  37  39
HETATM   39  C10 UNL     1      19.789  -3.026  -0.208  1.00  0.00     0.315 C 
BRANCH  39  40
HETATM   40  O2  UNL     1      20.878  -3.233  -1.166  1.00  0.00    -0.368 OA
ATOM     41  H2  UNL     1      20.667  -2.739  -1.949  1.00  0.00     0.212 HD
ENDBRANCH  39  40
BRANCH  39  42
HETATM   42  C11 UNL     1      19.829  -1.567   0.043  1.00  0.00     0.284 C 
HETATM   43  O3  UNL     1      18.754  -0.968   0.424  1.00  0.00    -0.267 OA
HETATM   44  N9  UNL     1      20.967  -0.759  -0.101  1.00  0.00    -0.273 N 
ATOM     45  H9  UNL     1      21.847  -1.178  -0.401  1.00  0.00     0.189 HD
BRANCH  44  46
HETATM   46  N10 UNL     1      20.909   0.646   0.167  1.00  0.00    -0.342 N 
ATOM     47 2H10 UNL     1      20.099   1.014   0.665  1.00  0.00     0.176 HD
ATOM     48 1H10 UNL     1      21.661   1.267  -0.134  1.00  0.00     0.176 HD
ENDBRANCH  44  46
ENDBRANCH  39  42
ENDBRANCH  37  39
ENDBRANCH   5  37
BRANCH   4  49
HETATM   49  O1  UNL     1      20.997  -1.405   2.743  1.00  0.00    -0.357 OA
ATOM     50  H1  UNL     1      21.592  -1.387   2.003  1.00  0.00     0.218 HD
ENDBRANCH   4  49
TORSDOF 13
ENDMDL
