MODEL 1
REMARK VINA RESULT: -8.760119695      0.000      0.000
REMARK  10 active torsions:
REMARK  status: ('A' for Active; 'I' for Inactive)
REMARK    1  A    between atoms: C14_15  and  O2_16 
REMARK    2  A    between atoms: C15_18  and  N1_19 
REMARK    3  A    between atoms: N1_19  and  C16_21 
REMARK    4  A    between atoms: C16_21  and  C17_22 
REMARK    5  A    between atoms: C17_22  and  O3_23 
REMARK    6  A    between atoms: C17_22  and  C18_25 
REMARK    7  A    between atoms: C18_25  and  C19_26 
REMARK    8  A    between atoms: C19_26  and  N2_27 
REMARK    9  A    between atoms: C27_37  and  O4_38 
REMARK   10  A    between atoms: C27_37  and  C28_40 
ROOT
HETATM    1  C1  UNL     1      12.696  33.974  71.799  1.00  0.00     0.010 C 
HETATM    2  C2  UNL     1      13.239  35.199  72.540  1.00  0.00    -0.015 C 
HETATM    3  C3  UNL     1      12.291  36.308  72.335  1.00  0.00     0.014 C 
HETATM    4  C4  UNL     1      11.377  36.623  73.524  1.00  0.00     0.031 C 
HETATM    5  C5  UNL     1      12.264  36.668  74.751  1.00  0.00    -0.010 C 
HETATM    6  C6  UNL     1      11.821  37.512  75.851  1.00  0.00     0.063 C 
HETATM    7  O1  UNL     1      11.220  38.677  75.444  1.00  0.00    -0.343 OA
HETATM    8  C7  UNL     1      10.260  38.582  74.482  1.00  0.00     0.071 C 
HETATM    9  C8  UNL     1       9.787  40.027  74.227  1.00  0.00     0.047 C 
HETATM   10  C9  UNL     1       9.015  37.864  74.973  1.00  0.00     0.039 C 
HETATM   11  C10 UNL     1       8.984  38.188  76.470  1.00  0.00     0.009 C 
HETATM   12  C11 UNL     1       9.661  37.066  77.150  1.00  0.00     0.008 C 
HETATM   13  C12 UNL     1       9.383  37.049  78.610  1.00  0.00     0.021 C 
HETATM   14  C13 UNL     1       8.005  37.460  79.015  1.00  0.00     0.013 C 
HETATM   15  C14 UNL     1      10.380  38.106  79.117  1.00  0.00     0.168 C 
HETATM   16  C15 UNL     1      11.486  38.007  78.203  1.00  0.00     0.026 C 
HETATM   17  C23 UNL     1      11.122  36.993  77.057  1.00  0.00     0.096 C 
HETATM   18  C24 UNL     1      10.703  37.922  73.220  1.00  0.00    -0.009 C 
HETATM   19  C25 UNL     1      11.530  38.914  72.457  1.00  0.00     0.018 C 
HETATM   20  C26 UNL     1       9.495  37.608  72.342  1.00  0.00     0.018 C 
HETATM   21  C27 UNL     1      12.741  35.307  75.022  1.00  0.00     0.097 C 
HETATM   22  C29 UNL     1      13.709  34.906  73.903  1.00  0.00     0.048 C 
ENDROOT
BRANCH  16  23
HETATM   23  N1  UNL     1      12.819  37.922  78.559  1.00  0.00    -0.371 N 
ATOM     24  H1  UNL     1      13.238  36.992  78.573  1.00  0.00     0.164 HD
BRANCH  23  25
HETATM   25  C16 UNL     1      13.633  38.982  78.895  1.00  0.00     0.092 C 
BRANCH  25  26
HETATM   26  C17 UNL     1      15.102  38.939  78.941  1.00  0.00     0.158 C 
BRANCH  26  27
HETATM   27  O3  UNL     1      15.760  38.713  77.759  1.00  0.00    -0.390 OA
ATOM     28  H3  UNL     1      16.536  39.233  77.588  1.00  0.00     0.210 HD
ENDBRANCH  26  27
BRANCH  26  29
HETATM   29  C18 UNL     1      15.543  40.310  79.496  1.00  0.00     0.057 C 
BRANCH  29  30
HETATM   30  C19 UNL     1      14.390  41.203  79.814  1.00  0.00     0.132 C 
BRANCH  30  31
HETATM   31  N2  UNL     1      14.597  41.671  81.195  1.00  0.00    -0.352 N 
HETATM   32  C20 UNL     1      15.711  42.276  81.666  1.00  0.00     0.108 A 
HETATM   33  C21 UNL     1      15.572  42.578  82.995  1.00  0.00     0.106 A 
HETATM   34  N3  UNL     1      14.328  42.130  83.312  1.00  0.00    -0.361 N 
HETATM   35  C22 UNL     1      13.748  41.584  82.213  1.00  0.00     0.182 A 
ATOM     36  H3  UNL     1      13.897  42.195  84.234  1.00  0.00     0.166 HD
ENDBRANCH  30  31
ENDBRANCH  29  30
ENDBRANCH  26  29
ENDBRANCH  25  26
ENDBRANCH  23  25
ENDBRANCH  16  23
BRANCH  15  37
HETATM   37  O2  UNL     1      10.597  37.929  80.474  1.00  0.00    -0.389 OA
ATOM     38  H2  UNL     1      11.488  38.181  80.691  1.00  0.00     0.210 HD
ENDBRANCH  15  37
BRANCH  21  39
HETATM   39  O4  UNL     1      13.546  35.359  76.175  1.00  0.00    -0.384 OA
ATOM     40  H4  UNL     1      14.153  34.629  76.135  1.00  0.00     0.211 HD
ENDBRANCH  21  39
BRANCH  21  41
HETATM   41  C28 UNL     1      11.729  34.205  75.096  1.00  0.00     0.157 C 
HETATM   42 CL1  UNL     1      12.535  32.595  75.138  1.00  0.00    -0.127 Cl
ENDBRANCH  21  41
TORSDOF 10
ENDMDL
MODEL 2
REMARK VINA RESULT: -7.831795434      1.111      1.403
REMARK  10 active torsions:
REMARK  status: ('A' for Active; 'I' for Inactive)
REMARK    1  A    between atoms: C14_15  and  O2_16 
REMARK    2  A    between atoms: C15_18  and  N1_19 
REMARK    3  A    between atoms: N1_19  and  C16_21 
REMARK    4  A    between atoms: C16_21  and  C17_22 
REMARK    5  A    between atoms: C17_22  and  O3_23 
REMARK    6  A    between atoms: C17_22  and  C18_25 
REMARK    7  A    between atoms: C18_25  and  C19_26 
REMARK    8  A    between atoms: C19_26  and  N2_27 
REMARK    9  A    between atoms: C27_37  and  O4_38 
REMARK   10  A    between atoms: C27_37  and  C28_40 
ROOT
HETATM    1  C1  UNL     1      14.577  34.293  71.176  1.00  0.00     0.010 C 
HETATM    2  C2  UNL     1      14.802  35.544  72.029  1.00  0.00    -0.015 C 
HETATM    3  C3  UNL     1      13.763  36.527  71.675  1.00  0.00     0.014 C 
HETATM    4  C4  UNL     1      12.616  36.664  72.681  1.00  0.00     0.031 C 
HETATM    5  C5  UNL     1      13.252  36.770  74.052  1.00  0.00    -0.010 C 
HETATM    6  C6  UNL     1      12.506  37.498  75.068  1.00  0.00     0.063 C 
HETATM    7  O1  UNL     1      11.833  38.591  74.581  1.00  0.00    -0.343 OA
HETATM    8  C7  UNL     1      11.086  38.414  73.455  1.00  0.00     0.071 C 
HETATM    9  C8  UNL     1      10.472  39.794  73.147  1.00  0.00     0.047 C 
HETATM   10  C9  UNL     1       9.883  37.516  73.694  1.00  0.00     0.039 C 
HETATM   11  C10 UNL     1       9.538  37.766  75.165  1.00  0.00     0.009 C 
HETATM   12  C11 UNL     1      10.229  36.713  75.936  1.00  0.00     0.008 C 
HETATM   13  C12 UNL     1       9.697  36.594  77.318  1.00  0.00     0.021 C 
HETATM   14  C13 UNL     1       8.226  36.801  77.470  1.00  0.00     0.013 C 
HETATM   15  C14 UNL     1      10.431  37.749  78.022  1.00  0.00     0.168 C 
HETATM   16  C15 UNL     1      11.687  37.837  77.327  1.00  0.00     0.026 C 
HETATM   17  C23 UNL     1      11.679  36.837  76.113  1.00  0.00     0.096 C 
HETATM   18  C24 UNL     1      11.835  37.876  72.285  1.00  0.00    -0.009 C 
HETATM   19  C25 UNL     1      12.642  39.002  71.708  1.00  0.00     0.018 C 
HETATM   20  C26 UNL     1      10.860  37.446  71.192  1.00  0.00     0.018 C 
HETATM   21  C27 UNL     1      13.855  35.473  74.378  1.00  0.00     0.097 C 
HETATM   22  C29 UNL     1      15.055  35.255  73.450  1.00  0.00     0.048 C 
ENDROOT
BRANCH  16  23
HETATM   23  N1  UNL     1      12.933  37.913  77.921  1.00  0.00    -0.371 N 
ATOM     24  H1  UNL     1      13.588  37.157  77.723  1.00  0.00     0.164 HD
BRANCH  23  25
HETATM   25  C16 UNL     1      13.368  38.917  78.757  1.00  0.00     0.092 C 
BRANCH  25  26
HETATM   26  C17 UNL     1      14.769  39.155  79.137  1.00  0.00     0.158 C 
BRANCH  26  27
HETATM   27  O3  UNL     1      15.719  38.991  78.161  1.00  0.00    -0.390 OA
ATOM     28  H3  UNL     1      16.127  39.776  77.817  1.00  0.00     0.210 HD
ENDBRANCH  26  27
BRANCH  26  29
HETATM   29  C18 UNL     1      14.825  40.613  79.639  1.00  0.00     0.057 C 
BRANCH  29  30
HETATM   30  C19 UNL     1      13.493  41.125  80.078  1.00  0.00     0.132 C 
BRANCH  30  31
HETATM   31  N2  UNL     1      13.638  41.494  81.497  1.00  0.00    -0.352 N 
HETATM   32  C20 UNL     1      12.674  41.396  82.441  1.00  0.00     0.108 A 
HETATM   33  C21 UNL     1      13.141  41.827  83.655  1.00  0.00     0.106 A 
HETATM   34  N3  UNL     1      14.428  42.192  83.408  1.00  0.00    -0.361 N 
HETATM   35  C22 UNL     1      14.716  41.984  82.098  1.00  0.00     0.182 A 
ATOM     36  H3  UNL     1      15.077  42.564  84.101  1.00  0.00     0.166 HD
ENDBRANCH  30  31
ENDBRANCH  29  30
ENDBRANCH  26  29
ENDBRANCH  25  26
ENDBRANCH  23  25
ENDBRANCH  16  23
BRANCH  15  37
HETATM   37  O2  UNL     1      10.422  37.540  79.392  1.00  0.00    -0.389 OA
ATOM     38  H2  UNL     1      10.784  38.300  79.834  1.00  0.00     0.210 HD
ENDBRANCH  15  37
BRANCH  21  39
HETATM   39  O4  UNL     1      14.424  35.578  75.661  1.00  0.00    -0.384 OA
ATOM     40  H4  UNL     1      14.620  34.698  75.962  1.00  0.00     0.211 HD
ENDBRANCH  21  39
BRANCH  21  41
HETATM   41  C28 UNL     1      13.008  34.246  74.241  1.00  0.00     0.157 C 
HETATM   42 CL1  UNL     1      12.997  33.299  75.774  1.00  0.00    -0.127 Cl
ENDBRANCH  21  41
TORSDOF 10
ENDMDL
MODEL 3
REMARK VINA RESULT: -7.379795848      3.874      7.455
REMARK  10 active torsions:
REMARK  status: ('A' for Active; 'I' for Inactive)
REMARK    1  A    between atoms: C14_15  and  O2_16 
REMARK    2  A    between atoms: C15_18  and  N1_19 
REMARK    3  A    between atoms: N1_19  and  C16_21 
REMARK    4  A    between atoms: C16_21  and  C17_22 
REMARK    5  A    between atoms: C17_22  and  O3_23 
REMARK    6  A    between atoms: C17_22  and  C18_25 
REMARK    7  A    between atoms: C18_25  and  C19_26 
REMARK    8  A    between atoms: C19_26  and  N2_27 
REMARK    9  A    between atoms: C27_37  and  O4_38 
REMARK   10  A    between atoms: C27_37  and  C28_40 
ROOT
HETATM    1  C1  UNL     1      12.114  39.061  79.863  1.00  0.00     0.010 C 
HETATM    2  C2  UNL     1      12.121  37.700  79.162  1.00  0.00    -0.015 C 
HETATM    3  C3  UNL     1      11.045  37.703  78.155  1.00  0.00     0.014 C 
HETATM    4  C4  UNL     1      11.501  37.886  76.704  1.00  0.00     0.031 C 
HETATM    5  C5  UNL     1      12.665  36.940  76.493  1.00  0.00    -0.010 C 
HETATM    6  C6  UNL     1      12.882  36.457  75.137  1.00  0.00     0.063 C 
HETATM    7  O1  UNL     1      11.720  36.219  74.445  1.00  0.00    -0.343 OA
HETATM    8  C7  UNL     1      10.766  37.191  74.473  1.00  0.00     0.071 C 
HETATM    9  C8  UNL     1       9.594  36.643  73.634  1.00  0.00     0.047 C 
HETATM   10  C9  UNL     1      11.196  38.448  73.736  1.00  0.00     0.039 C 
HETATM   11  C10 UNL     1      12.135  37.919  72.648  1.00  0.00     0.009 C 
HETATM   12  C11 UNL     1      13.501  38.012  73.201  1.00  0.00     0.008 C 
HETATM   13  C12 UNL     1      14.540  37.894  72.144  1.00  0.00     0.021 C 
HETATM   14  C13 UNL     1      14.209  38.526  70.832  1.00  0.00     0.013 C 
HETATM   15  C14 UNL     1      14.600  36.368  71.953  1.00  0.00     0.168 C 
HETATM   16  C15 UNL     1      14.284  35.843  73.254  1.00  0.00     0.026 C 
HETATM   17  C23 UNL     1      13.897  37.028  74.213  1.00  0.00     0.096 C 
HETATM   18  C24 UNL     1      10.319  37.589  75.839  1.00  0.00    -0.009 C 
HETATM   19  C25 UNL     1       9.402  36.516  76.346  1.00  0.00     0.018 C 
HETATM   20  C26 UNL     1       9.484  38.865  75.764  1.00  0.00     0.018 C 
HETATM   21  C27 UNL     1      13.800  37.427  77.284  1.00  0.00     0.097 C 
HETATM   22  C29 UNL     1      13.464  37.244  78.769  1.00  0.00     0.048 C 
ENDROOT
BRANCH  16  23
HETATM   23  N1  UNL     1      14.990  34.856  73.918  1.00  0.00    -0.371 N 
ATOM     24  H1  UNL     1      15.550  35.146  74.720  1.00  0.00     0.164 HD
BRANCH  23  25
HETATM   25  C16 UNL     1      15.006  33.518  73.592  1.00  0.00     0.092 C 
BRANCH  25  26
HETATM   26  C17 UNL     1      16.037  32.858  72.777  1.00  0.00     0.158 C 
BRANCH  26  27
HETATM   27  O3  UNL     1      16.005  33.084  71.424  1.00  0.00    -0.390 OA
ATOM     28  H3  UNL     1      15.855  33.977  71.137  1.00  0.00     0.210 HD
ENDBRANCH  26  27
BRANCH  26  29
HETATM   29  C18 UNL     1      17.389  33.358  73.328  1.00  0.00     0.057 C 
BRANCH  29  30
HETATM   30  C19 UNL     1      18.314  33.826  72.253  1.00  0.00     0.132 C 
BRANCH  30  31
HETATM   31  N2  UNL     1      18.965  35.043  72.768  1.00  0.00    -0.352 N 
HETATM   32  C20 UNL     1      20.158  35.533  72.360  1.00  0.00     0.108 A 
HETATM   33  C21 UNL     1      20.471  36.677  73.046  1.00  0.00     0.106 A 
HETATM   34  N3  UNL     1      19.419  36.860  73.888  1.00  0.00    -0.361 N 
HETATM   35  C22 UNL     1      18.514  35.864  73.709  1.00  0.00     0.182 A 
ATOM     36  H3  UNL     1      19.324  37.628  74.553  1.00  0.00     0.166 HD
ENDBRANCH  30  31
ENDBRANCH  29  30
ENDBRANCH  26  29
ENDBRANCH  25  26
ENDBRANCH  23  25
ENDBRANCH  16  23
BRANCH  15  37
HETATM   37  O2  UNL     1      15.798  36.021  71.349  1.00  0.00    -0.389 OA
ATOM     38  H2  UNL     1      15.679  35.229  70.836  1.00  0.00     0.210 HD
ENDBRANCH  15  37
BRANCH  21  39
HETATM   39  O4  UNL     1      14.880  36.552  77.064  1.00  0.00    -0.384 OA
ATOM     40  H4  UNL     1      15.154  36.213  77.909  1.00  0.00     0.211 HD
ENDBRANCH  21  39
BRANCH  21  41
HETATM   41  C28 UNL     1      14.204  38.861  77.134  1.00  0.00     0.157 C 
HETATM   42 CL1  UNL     1      15.295  39.366  78.475  1.00  0.00    -0.127 Cl
ENDBRANCH  21  41
TORSDOF 10
ENDMDL
MODEL 4
REMARK VINA RESULT: -7.359260369      4.255      7.537
REMARK  10 active torsions:
REMARK  status: ('A' for Active; 'I' for Inactive)
REMARK    1  A    between atoms: C14_15  and  O2_16 
REMARK    2  A    between atoms: C15_18  and  N1_19 
REMARK    3  A    between atoms: N1_19  and  C16_21 
REMARK    4  A    between atoms: C16_21  and  C17_22 
REMARK    5  A    between atoms: C17_22  and  O3_23 
REMARK    6  A    between atoms: C17_22  and  C18_25 
REMARK    7  A    between atoms: C18_25  and  C19_26 
REMARK    8  A    between atoms: C19_26  and  N2_27 
REMARK    9  A    between atoms: C27_37  and  O4_38 
REMARK   10  A    between atoms: C27_37  and  C28_40 
ROOT
HETATM    1  C1  UNL     1      12.099  39.104  79.897  1.00  0.00     0.010 C 
HETATM    2  C2  UNL     1      12.130  37.737  79.208  1.00  0.00    -0.015 C 
HETATM    3  C3  UNL     1      11.052  37.711  78.204  1.00  0.00     0.014 C 
HETATM    4  C4  UNL     1      11.502  37.890  76.750  1.00  0.00     0.031 C 
HETATM    5  C5  UNL     1      12.682  36.964  76.545  1.00  0.00    -0.010 C 
HETATM    6  C6  UNL     1      12.905  36.472  75.192  1.00  0.00     0.063 C 
HETATM    7  O1  UNL     1      11.747  36.207  74.505  1.00  0.00    -0.343 OA
HETATM    8  C7  UNL     1      10.775  37.161  74.527  1.00  0.00     0.071 C 
HETATM    9  C8  UNL     1       9.612  36.583  73.695  1.00  0.00     0.047 C 
HETATM   10  C9  UNL     1      11.179  38.419  73.778  1.00  0.00     0.039 C 
HETATM   11  C10 UNL     1      12.126  37.898  72.692  1.00  0.00     0.009 C 
HETATM   12  C11 UNL     1      13.491  38.022  73.241  1.00  0.00     0.008 C 
HETATM   13  C12 UNL     1      14.530  37.913  72.183  1.00  0.00     0.021 C 
HETATM   14  C13 UNL     1      14.184  38.527  70.866  1.00  0.00     0.013 C 
HETATM   15  C14 UNL     1      14.618  36.387  72.006  1.00  0.00     0.168 C 
HETATM   16  C15 UNL     1      14.315  35.868  73.312  1.00  0.00     0.026 C 
HETATM   17  C23 UNL     1      13.908  37.055  74.261  1.00  0.00     0.096 C 
HETATM   18  C24 UNL     1      10.324  37.563  75.890  1.00  0.00    -0.009 C 
HETATM   19  C25 UNL     1       9.428  36.477  76.409  1.00  0.00     0.018 C 
HETATM   20  C26 UNL     1       9.464  38.821  75.806  1.00  0.00     0.018 C 
HETATM   21  C27 UNL     1      13.810  37.479  77.329  1.00  0.00     0.097 C 
HETATM   22  C29 UNL     1      13.481  37.303  78.816  1.00  0.00     0.048 C 
ENDROOT
BRANCH  16  23
HETATM   23  N1  UNL     1      15.041  34.901  73.983  1.00  0.00    -0.371 N 
ATOM     24  H1  UNL     1      15.287  35.095  74.953  1.00  0.00     0.164 HD
BRANCH  23  25
HETATM   25  C16 UNL     1      15.462  33.700  73.457  1.00  0.00     0.092 C 
BRANCH  25  26
HETATM   26  C17 UNL     1      16.856  33.361  73.131  1.00  0.00     0.158 C 
BRANCH  26  27
HETATM   27  O3  UNL     1      17.224  33.423  71.811  1.00  0.00    -0.390 OA
ATOM     28  H3  UNL     1      17.998  32.936  71.553  1.00  0.00     0.210 HD
ENDBRANCH  26  27
BRANCH  26  29
HETATM   29  C18 UNL     1      17.725  34.354  73.932  1.00  0.00     0.057 C 
BRANCH  29  30
HETATM   30  C19 UNL     1      18.924  34.818  73.171  1.00  0.00     0.132 C 
BRANCH  30  31
HETATM   31  N2  UNL     1      20.098  34.413  73.962  1.00  0.00    -0.352 N 
HETATM   32  C20 UNL     1      21.098  35.230  74.366  1.00  0.00     0.108 A 
HETATM   33  C21 UNL     1      22.036  34.531  75.080  1.00  0.00     0.106 A 
HETATM   34  N3  UNL     1      21.564  33.255  75.090  1.00  0.00    -0.361 N 
HETATM   35  C22 UNL     1      20.391  33.198  74.411  1.00  0.00     0.182 A 
ATOM     36  H3  UNL     1      22.023  32.463  75.540  1.00  0.00     0.166 HD
ENDBRANCH  30  31
ENDBRANCH  29  30
ENDBRANCH  26  29
ENDBRANCH  25  26
ENDBRANCH  23  25
ENDBRANCH  16  23
BRANCH  15  37
HETATM   37  O2  UNL     1      15.821  36.057  71.402  1.00  0.00    -0.389 OA
ATOM     38  H2  UNL     1      15.859  35.118  71.258  1.00  0.00     0.210 HD
ENDBRANCH  15  37
BRANCH  21  39
HETATM   39  O4  UNL     1      14.906  36.622  77.114  1.00  0.00    -0.384 OA
ATOM     40  H4  UNL     1      15.064  36.586  76.177  1.00  0.00     0.211 HD
ENDBRANCH  21  39
BRANCH  21  41
HETATM   41  C28 UNL     1      14.186  38.919  77.164  1.00  0.00     0.157 C 
HETATM   42 CL1  UNL     1      15.275  39.455  78.496  1.00  0.00    -0.127 Cl
ENDBRANCH  21  41
TORSDOF 10
ENDMDL
MODEL 5
REMARK VINA RESULT: -7.316851091      4.055      7.326
REMARK  10 active torsions:
REMARK  status: ('A' for Active; 'I' for Inactive)
REMARK    1  A    between atoms: C14_15  and  O2_16 
REMARK    2  A    between atoms: C15_18  and  N1_19 
REMARK    3  A    between atoms: N1_19  and  C16_21 
REMARK    4  A    between atoms: C16_21  and  C17_22 
REMARK    5  A    between atoms: C17_22  and  O3_23 
REMARK    6  A    between atoms: C17_22  and  C18_25 
REMARK    7  A    between atoms: C18_25  and  C19_26 
REMARK    8  A    between atoms: C19_26  and  N2_27 
REMARK    9  A    between atoms: C27_37  and  O4_38 
REMARK   10  A    between atoms: C27_37  and  C28_40 
ROOT
HETATM    1  C1  UNL     1      11.932  39.021  79.307  1.00  0.00     0.010 C 
HETATM    2  C2  UNL     1      11.683  37.716  78.545  1.00  0.00    -0.015 C 
HETATM    3  C3  UNL     1      10.658  37.979  77.521  1.00  0.00     0.014 C 
HETATM    4  C4  UNL     1      11.180  38.125  76.088  1.00  0.00     0.031 C 
HETATM    5  C5  UNL     1      12.134  36.971  75.855  1.00  0.00    -0.010 C 
HETATM    6  C6  UNL     1      12.285  36.510  74.483  1.00  0.00     0.063 C 
HETATM    7  O1  UNL     1      11.119  36.541  73.760  1.00  0.00    -0.343 OA
HETATM    8  C7  UNL     1      10.380  37.685  73.814  1.00  0.00     0.071 C 
HETATM    9  C8  UNL     1       9.145  37.421  72.930  1.00  0.00     0.047 C 
HETATM   10  C9  UNL     1      11.075  38.857  73.143  1.00  0.00     0.039 C 
HETATM   11  C10 UNL     1      11.917  38.193  72.049  1.00  0.00     0.009 C 
HETATM   12  C11 UNL     1      13.258  37.984  72.631  1.00  0.00     0.008 C 
HETATM   13  C12 UNL     1      14.280  37.700  71.589  1.00  0.00     0.021 C 
HETATM   14  C13 UNL     1      14.119  38.439  70.301  1.00  0.00     0.013 C 
HETATM   15  C14 UNL     1      14.035  36.203  71.330  1.00  0.00     0.168 C 
HETATM   16  C15 UNL     1      13.584  35.701  72.600  1.00  0.00     0.026 C 
HETATM   17  C23 UNL     1      13.419  36.900  73.604  1.00  0.00     0.096 C 
HETATM   18  C24 UNL     1       9.987  38.110  75.188  1.00  0.00    -0.009 C 
HETATM   19  C25 UNL     1       8.858  37.225  75.629  1.00  0.00     0.018 C 
HETATM   20  C26 UNL     1       9.429  39.530  75.156  1.00  0.00     0.018 C 
HETATM   21  C27 UNL     1      13.322  37.185  76.688  1.00  0.00     0.097 C 
HETATM   22  C29 UNL     1      12.916  37.014  78.157  1.00  0.00     0.048 C 
ENDROOT
BRANCH  16  23
HETATM   23  N1  UNL     1      14.059  34.565  73.231  1.00  0.00    -0.371 N 
ATOM     24  H1  UNL     1      13.516  33.709  73.116  1.00  0.00     0.164 HD
BRANCH  23  25
HETATM   25  C16 UNL     1      15.198  34.487  74.001  1.00  0.00     0.092 C 
BRANCH  25  26
HETATM   26  C17 UNL     1      16.417  35.283  73.790  1.00  0.00     0.158 C 
BRANCH  26  27
HETATM   27  O3  UNL     1      16.706  36.245  74.725  1.00  0.00    -0.390 OA
ATOM     28  H3  UNL     1      16.988  37.093  74.401  1.00  0.00     0.210 HD
ENDBRANCH  26  27
BRANCH  26  29
HETATM   29  C18 UNL     1      17.578  34.267  73.755  1.00  0.00     0.057 C 
BRANCH  29  30
HETATM   30  C19 UNL     1      18.801  34.808  73.090  1.00  0.00     0.132 C 
BRANCH  30  31
HETATM   31  N2  UNL     1      19.946  34.362  73.900  1.00  0.00    -0.352 N 
HETATM   32  C20 UNL     1      20.981  35.135  74.299  1.00  0.00     0.108 A 
HETATM   33  C21 UNL     1      21.876  34.404  75.036  1.00  0.00     0.106 A 
HETATM   34  N3  UNL     1      21.341  33.154  75.066  1.00  0.00    -0.361 N 
HETATM   35  C22 UNL     1      20.173  33.142  74.376  1.00  0.00     0.182 A 
ATOM     36  H3  UNL     1      21.755  32.349  75.536  1.00  0.00     0.166 HD
ENDBRANCH  30  31
ENDBRANCH  29  30
ENDBRANCH  26  29
ENDBRANCH  25  26
ENDBRANCH  23  25
ENDBRANCH  16  23
BRANCH  15  37
HETATM   37  O2  UNL     1      15.154  35.645  70.732  1.00  0.00    -0.389 OA
ATOM     38  H2  UNL     1      15.377  36.136  69.950  1.00  0.00     0.210 HD
ENDBRANCH  15  37
BRANCH  21  39
HETATM   39  O4  UNL     1      14.209  36.118  76.448  1.00  0.00    -0.384 OA
ATOM     40  H4  UNL     1      14.927  36.195  77.066  1.00  0.00     0.211 HD
ENDBRANCH  21  39
BRANCH  21  41
HETATM   41  C28 UNL     1      14.011  38.512  76.610  1.00  0.00     0.157 C 
HETATM   42 CL1  UNL     1      15.233  38.680  77.923  1.00  0.00    -0.127 Cl
ENDBRANCH  21  41
TORSDOF 10
ENDMDL
