MODEL 1
REMARK VINA RESULT: -8.138686807      0.000      0.000
REMARK  10 active torsions:
REMARK  status: ('A' for Active; 'I' for Inactive)
REMARK    1  A    between atoms: C2_2  and  C3_3 
REMARK    2  A    between atoms: C3_3  and  N1_4 
REMARK    3  A    between atoms: C3_3  and  C13_23 
REMARK    4  A    between atoms: N1_4  and  C4_6 
REMARK    5  A    between atoms: C5_9  and  N3_10 
REMARK    6  A    between atoms: N3_10  and  N4_12 
REMARK    7  A    between atoms: C14_26  and  S1_27 
REMARK    8  A    between atoms: C16_31  and  C17_32 
REMARK    9  A    between atoms: C17_32  and  O2_34 
REMARK   10  A    between atoms: O2_34  and  C18_35 
ROOT
HETATM    1  C13 UNL     1      -2.232 -10.872  -5.640  1.00  0.00     0.067 A 
HETATM    2  N6  UNL     1      -2.983 -10.136  -4.775  1.00  0.00    -0.336 N 
ATOM      3  H6  UNL     1      -3.982 -10.261  -4.610  1.00  0.00     0.168 HD
HETATM    4  C14 UNL     1      -2.201  -9.214  -4.170  1.00  0.00     0.144 A 
HETATM    5  N7  UNL     1      -0.963  -9.373  -4.653  1.00  0.00    -0.330 N 
ATOM      6  H7  UNL     1      -0.150  -8.819  -4.385  1.00  0.00     0.168 HD
HETATM    7  C16 UNL     1      -0.960 -10.400  -5.569  1.00  0.00     0.135 A 
ENDROOT
BRANCH   1   8
HETATM    8  C3  UNL     1      -2.758 -11.954  -6.459  1.00  0.00     0.135 C 
BRANCH   8   9
HETATM    9  C2  UNL     1      -2.908 -11.431  -7.904  1.00  0.00     0.027 C 
HETATM   10  C1  UNL     1      -3.818 -10.213  -7.934  1.00  0.00     0.007 C 
ENDBRANCH   8   9
BRANCH   8  11
HETATM   11  N1  UNL     1      -2.008 -13.142  -6.560  1.00  0.00    -0.364 N 
ATOM     12  H1  UNL     1      -1.089 -13.172  -6.119  1.00  0.00     0.162 HD
BRANCH  11  13
HETATM   13  C4  UNL     1      -2.418 -14.185  -7.174  1.00  0.00     0.141 A 
HETATM   14  N2  UNL     1      -3.631 -14.737  -7.079  1.00  0.00    -0.174 N 
HETATM   15  C5  UNL     1      -4.022 -15.845  -7.769  1.00  0.00     0.698 A 
ATOM     16  H2  UNL     1      -4.308 -14.302  -6.451  1.00  0.00     0.186 HD
HETATM   17  N5  UNL     1      -3.194 -16.472  -8.610  1.00  0.00    -0.199 N 
HETATM   18  C11 UNL     1      -1.964 -15.963  -8.746  1.00  0.00     0.134 A 
ATOM     19  H5  UNL     1      -3.487 -17.301  -9.127  1.00  0.00     0.183 HD
HETATM   20  C12 UNL     1      -1.545 -14.849  -8.063  1.00  0.00     0.094 A 
HETATM   21 CL1  UNL     1       0.060 -14.185  -8.240  1.00  0.00    -0.079 Cl
BRANCH  15  22
HETATM   22  N3  UNL     1      -5.212 -16.308  -7.615  1.00  0.00    -0.134 N 
ATOM     23  H3  UNL     1      -5.423 -16.895  -6.807  1.00  0.00     0.205 HD
BRANCH  22  24
HETATM   24  N4  UNL     1      -6.218 -16.019  -8.538  1.00  0.00    -0.314 N 
HETATM   25  C6  UNL     1      -6.203 -14.879  -9.417  1.00  0.00     0.143 C 
HETATM   26  C7  UNL     1      -7.325 -15.075 -10.435  1.00  0.00     0.021 C 
HETATM   27  C8  UNL     1      -8.656 -15.165  -9.753  1.00  0.00     0.003 C 
HETATM   28  C9  UNL     1      -8.667 -16.209  -8.672  1.00  0.00     0.021 C 
HETATM   29  C10 UNL     1      -7.338 -16.927  -8.603  1.00  0.00     0.143 C 
ENDBRANCH  22  24
ENDBRANCH  15  22
ENDBRANCH  11  13
ENDBRANCH   8  11
ENDBRANCH   1   8
BRANCH   7  30
HETATM   30  C17 UNL     1       0.216 -10.859  -6.262  1.00  0.00     0.312 C 
HETATM   31  O1  UNL     1       0.722 -11.968  -5.849  1.00  0.00    -0.258 OA
BRANCH  30  32
HETATM   32  O2  UNL     1       0.876 -10.291  -7.299  1.00  0.00    -0.311 OA
BRANCH  32  33
HETATM   33  C18 UNL     1       1.715  -9.185  -7.283  1.00  0.00     0.136 C 
HETATM   34  C19 UNL     1       2.869  -9.329  -8.286  1.00  0.00     0.065 C 
HETATM   35  C20 UNL     1       3.751  -8.133  -8.185  1.00  0.00     0.189 C 
HETATM   36  C21 UNL     1       4.134  -7.842  -6.759  1.00  0.00     0.035 C 
HETATM   37  N8  UNL     1       2.993  -6.965  -8.594  1.00  0.00    -0.067 N 
HETATM   38  C22 UNL     1       3.043  -6.928  -6.289  1.00  0.00     0.035 C 
HETATM   39  C23 UNL     1       2.100  -6.785  -7.460  1.00  0.00     0.189 C 
HETATM   40  C24 UNL     1       1.025  -7.864  -7.440  1.00  0.00     0.065 C 
ATOM     41  H82 UNL     1       3.552  -6.149  -8.842  1.00  0.00     0.278 HD
ATOM     42  H81 UNL     1       2.533  -7.041  -9.501  1.00  0.00     0.278 HD
ENDBRANCH  32  33
ENDBRANCH  30  32
ENDBRANCH   7  30
BRANCH   4  43
HETATM   43  S1  UNL     1      -2.701  -7.994  -2.946  1.00  0.00    -0.098 SA
HETATM   44  C15 UNL     1      -4.455  -8.251  -2.590  1.00  0.00     0.099 C 
ENDBRANCH   4  43
TORSDOF 10
ENDMDL
MODEL 2
REMARK VINA RESULT: -7.873887511      3.319      8.160
REMARK  10 active torsions:
REMARK  status: ('A' for Active; 'I' for Inactive)
REMARK    1  A    between atoms: C2_2  and  C3_3 
REMARK    2  A    between atoms: C3_3  and  N1_4 
REMARK    3  A    between atoms: C3_3  and  C13_23 
REMARK    4  A    between atoms: N1_4  and  C4_6 
REMARK    5  A    between atoms: C5_9  and  N3_10 
REMARK    6  A    between atoms: N3_10  and  N4_12 
REMARK    7  A    between atoms: C14_26  and  S1_27 
REMARK    8  A    between atoms: C16_31  and  C17_32 
REMARK    9  A    between atoms: C17_32  and  O2_34 
REMARK   10  A    between atoms: O2_34  and  C18_35 
ROOT
HETATM    1  C13 UNL     1      -3.083 -14.866  -7.775  1.00  0.00     0.067 A 
HETATM    2  N6  UNL     1      -4.287 -14.628  -8.362  1.00  0.00    -0.336 N 
ATOM      3  H6  UNL     1      -4.546 -13.771  -8.849  1.00  0.00     0.168 HD
HETATM    4  C14 UNL     1      -5.088 -15.706  -8.199  1.00  0.00     0.144 A 
HETATM    5  N7  UNL     1      -4.387 -16.616  -7.514  1.00  0.00    -0.330 N 
ATOM      6  H7  UNL     1      -4.727 -17.537  -7.238  1.00  0.00     0.168 HD
HETATM    7  C16 UNL     1      -3.136 -16.115  -7.240  1.00  0.00     0.135 A 
ENDROOT
BRANCH   1   8
HETATM    8  C3  UNL     1      -1.981 -13.915  -7.761  1.00  0.00     0.135 C 
BRANCH   8   9
HETATM    9  C2  UNL     1      -1.099 -14.187  -9.000  1.00  0.00     0.027 C 
HETATM   10  C1  UNL     1      -1.666 -13.478 -10.219  1.00  0.00     0.007 C 
ENDBRANCH   8   9
BRANCH   8  11
HETATM   11  N1  UNL     1      -2.283 -12.541  -7.803  1.00  0.00    -0.364 N 
ATOM     12  H1  UNL     1      -2.989 -12.222  -8.466  1.00  0.00     0.162 HD
BRANCH  11  13
HETATM   13  C4  UNL     1      -1.720 -11.671  -7.054  1.00  0.00     0.141 A 
HETATM   14  N2  UNL     1      -0.446 -11.272  -7.119  1.00  0.00    -0.174 N 
HETATM   15  C5  UNL     1       0.100 -10.328  -6.303  1.00  0.00     0.698 A 
ATOM     16  H2  UNL     1       0.154 -11.701  -7.824  1.00  0.00     0.186 HD
HETATM   17  N5  UNL     1      -0.621  -9.722  -5.356  1.00  0.00    -0.199 N 
HETATM   18  C11 UNL     1      -1.905 -10.082  -5.244  1.00  0.00     0.134 A 
ATOM     19  H5  UNL     1      -0.211  -9.015  -4.745  1.00  0.00     0.183 HD
HETATM   20  C12 UNL     1      -2.480 -11.029  -6.052  1.00  0.00     0.094 A 
HETATM   21 CL1  UNL     1      -4.156 -11.498  -5.907  1.00  0.00    -0.079 Cl
BRANCH  15  22
HETATM   22  N3  UNL     1       1.338 -10.006  -6.437  1.00  0.00    -0.134 N 
ATOM     23  H3  UNL     1       2.032 -10.398  -5.799  1.00  0.00     0.205 HD
BRANCH  22  24
HETATM   24  N4  UNL     1       1.745  -9.127  -7.442  1.00  0.00    -0.314 N 
HETATM   25  C6  UNL     1       2.763  -9.429  -8.413  1.00  0.00     0.143 C 
HETATM   26  C7  UNL     1       2.714  -8.336  -9.479  1.00  0.00     0.021 C 
HETATM   27  C8  UNL     1       2.977  -6.989  -8.877  1.00  0.00     0.003 C 
HETATM   28  C9  UNL     1       2.070  -6.704  -7.714  1.00  0.00     0.021 C 
HETATM   29  C10 UNL     1       1.094  -7.841  -7.500  1.00  0.00     0.143 C 
ENDBRANCH  22  24
ENDBRANCH  15  22
ENDBRANCH  11  13
ENDBRANCH   8  11
ENDBRANCH   1   8
BRANCH   7  30
HETATM   30  C17 UNL     1      -2.109 -16.844  -6.540  1.00  0.00     0.312 C 
HETATM   31  O1  UNL     1      -2.460 -17.393  -5.430  1.00  0.00    -0.258 OA
BRANCH  30  32
HETATM   32  O2  UNL     1      -0.814 -17.041  -6.882  1.00  0.00    -0.311 OA
BRANCH  32  33
HETATM   33  C18 UNL     1       0.270 -16.199  -6.670  1.00  0.00     0.136 C 
HETATM   34  C19 UNL     1       0.599 -16.056  -5.178  1.00  0.00     0.065 C 
HETATM   35  C20 UNL     1       1.738 -15.110  -5.021  1.00  0.00     0.189 C 
HETATM   36  C21 UNL     1       1.508 -13.832  -5.783  1.00  0.00     0.035 C 
HETATM   37  N8  UNL     1       2.911 -15.690  -5.648  1.00  0.00    -0.067 N 
HETATM   38  C22 UNL     1       2.093 -14.124  -7.131  1.00  0.00     0.035 C 
HETATM   39  C23 UNL     1       2.586 -15.550  -7.059  1.00  0.00     0.189 C 
HETATM   40  C24 UNL     1       1.495 -16.534  -7.464  1.00  0.00     0.065 C 
ATOM     41  H82 UNL     1       3.802 -15.283  -5.364  1.00  0.00     0.278 HD
ATOM     42  H81 UNL     1       3.141 -16.637  -5.347  1.00  0.00     0.278 HD
ENDBRANCH  32  33
ENDBRANCH  30  32
ENDBRANCH   7  30
BRANCH   4  43
HETATM   43  S1  UNL     1      -6.779 -15.905  -8.783  1.00  0.00    -0.098 SA
HETATM   44  C15 UNL     1      -6.934 -15.021 -10.352  1.00  0.00     0.099 C 
ENDBRANCH   4  43
TORSDOF 10
ENDMDL
MODEL 3
REMARK VINA RESULT: -7.840852816      0.880      1.142
REMARK  10 active torsions:
REMARK  status: ('A' for Active; 'I' for Inactive)
REMARK    1  A    between atoms: C2_2  and  C3_3 
REMARK    2  A    between atoms: C3_3  and  N1_4 
REMARK    3  A    between atoms: C3_3  and  C13_23 
REMARK    4  A    between atoms: N1_4  and  C4_6 
REMARK    5  A    between atoms: C5_9  and  N3_10 
REMARK    6  A    between atoms: N3_10  and  N4_12 
REMARK    7  A    between atoms: C14_26  and  S1_27 
REMARK    8  A    between atoms: C16_31  and  C17_32 
REMARK    9  A    between atoms: C17_32  and  O2_34 
REMARK   10  A    between atoms: O2_34  and  C18_35 
ROOT
HETATM    1  C13 UNL     1      -2.179 -10.974  -5.717  1.00  0.00     0.067 A 
HETATM    2  N6  UNL     1      -2.961 -10.278  -4.847  1.00  0.00    -0.336 N 
ATOM      3  H6  UNL     1      -3.953 -10.446  -4.684  1.00  0.00     0.168 HD
HETATM    4  C14 UNL     1      -2.218  -9.330  -4.233  1.00  0.00     0.144 A 
HETATM    5  N7  UNL     1      -0.975  -9.432  -4.716  1.00  0.00    -0.330 N 
ATOM      6  H7  UNL     1      -0.185  -8.847  -4.441  1.00  0.00     0.168 HD
HETATM    7  C16 UNL     1      -0.927 -10.449  -5.640  1.00  0.00     0.135 A 
ENDROOT
BRANCH   1   8
HETATM    8  C3  UNL     1      -2.658 -12.070  -6.547  1.00  0.00     0.135 C 
BRANCH   8   9
HETATM    9  C2  UNL     1      -2.880 -11.526  -7.976  1.00  0.00     0.027 C 
HETATM   10  C1  UNL     1      -3.786 -10.306  -7.942  1.00  0.00     0.007 C 
ENDBRANCH   8   9
BRANCH   8  11
HETATM   11  N1  UNL     1      -1.838 -13.205  -6.694  1.00  0.00    -0.364 N 
ATOM     12  H1  UNL     1      -0.827 -13.073  -6.699  1.00  0.00     0.162 HD
BRANCH  11  13
HETATM   13  C4  UNL     1      -2.294 -14.392  -6.822  1.00  0.00     0.141 A 
HETATM   14  N2  UNL     1      -3.553 -14.733  -7.108  1.00  0.00    -0.174 N 
HETATM   15  C5  UNL     1      -3.983 -16.019  -7.248  1.00  0.00     0.698 A 
ATOM     16  H2  UNL     1      -4.236 -13.985  -7.230  1.00  0.00     0.186 HD
HETATM   17  N5  UNL     1      -3.150 -17.053  -7.104  1.00  0.00    -0.199 N 
HETATM   18  C11 UNL     1      -1.874 -16.772  -6.816  1.00  0.00     0.134 A 
ATOM     19  H5  UNL     1      -3.473 -18.016  -7.208  1.00  0.00     0.183 HD
HETATM   20  C12 UNL     1      -1.415 -15.488  -6.670  1.00  0.00     0.094 A 
HETATM   21 CL1  UNL     1       0.250 -15.120  -6.296  1.00  0.00    -0.079 Cl
BRANCH  15  22
HETATM   22  N3  UNL     1      -5.217 -16.254  -7.523  1.00  0.00    -0.134 N 
ATOM     23  H3  UNL     1      -5.813 -16.698  -6.825  1.00  0.00     0.205 HD
BRANCH  22  24
HETATM   24  N4  UNL     1      -5.752 -15.909  -8.766  1.00  0.00    -0.314 N 
HETATM   25  C6  UNL     1      -7.095 -15.430  -8.961  1.00  0.00     0.143 C 
HETATM   26  C7  UNL     1      -7.191 -14.917 -10.397  1.00  0.00     0.021 C 
HETATM   27  C8  UNL     1      -6.901 -16.014 -11.377  1.00  0.00     0.003 C 
HETATM   28  C9  UNL     1      -5.592 -16.694 -11.092  1.00  0.00     0.021 C 
HETATM   29  C10 UNL     1      -4.893 -16.046  -9.917  1.00  0.00     0.143 C 
ENDBRANCH  22  24
ENDBRANCH  15  22
ENDBRANCH  11  13
ENDBRANCH   8  11
ENDBRANCH   1   8
BRANCH   7  30
HETATM   30  C17 UNL     1       0.267 -10.852  -6.336  1.00  0.00     0.312 C 
HETATM   31  O1  UNL     1       0.820 -11.942  -5.931  1.00  0.00    -0.258 OA
BRANCH  30  32
HETATM   32  O2  UNL     1       0.904 -10.249  -7.368  1.00  0.00    -0.311 OA
BRANCH  32  33
HETATM   33  C18 UNL     1       1.749  -9.147  -7.332  1.00  0.00     0.136 C 
HETATM   34  C19 UNL     1       2.896  -9.275  -8.344  1.00  0.00     0.065 C 
HETATM   35  C20 UNL     1       3.785  -8.087  -8.222  1.00  0.00     0.189 C 
HETATM   36  C21 UNL     1       4.177  -7.829  -6.792  1.00  0.00     0.035 C 
HETATM   37  N8  UNL     1       3.031  -6.906  -8.601  1.00  0.00    -0.067 N 
HETATM   38  C22 UNL     1       3.094  -6.920  -6.295  1.00  0.00     0.035 C 
HETATM   39  C23 UNL     1       2.145  -6.746  -7.457  1.00  0.00     0.189 C 
HETATM   40  C24 UNL     1       1.065  -7.820  -7.456  1.00  0.00     0.065 C 
ATOM     41  H82 UNL     1       3.593  -6.087  -8.833  1.00  0.00     0.278 HD
ATOM     42  H81 UNL     1       2.566  -6.959  -9.506  1.00  0.00     0.278 HD
ENDBRANCH  32  33
ENDBRANCH  30  32
ENDBRANCH   7  30
BRANCH   4  43
HETATM   43  S1  UNL     1      -2.771  -8.143  -2.998  1.00  0.00    -0.098 SA
HETATM   44  C15 UNL     1      -4.547  -8.379  -2.756  1.00  0.00     0.099 C 
ENDBRANCH   4  43
TORSDOF 10
ENDMDL
MODEL 4
REMARK VINA RESULT: -7.833014280      1.051      1.140
REMARK  10 active torsions:
REMARK  status: ('A' for Active; 'I' for Inactive)
REMARK    1  A    between atoms: C2_2  and  C3_3 
REMARK    2  A    between atoms: C3_3  and  N1_4 
REMARK    3  A    between atoms: C3_3  and  C13_23 
REMARK    4  A    between atoms: N1_4  and  C4_6 
REMARK    5  A    between atoms: C5_9  and  N3_10 
REMARK    6  A    between atoms: N3_10  and  N4_12 
REMARK    7  A    between atoms: C14_26  and  S1_27 
REMARK    8  A    between atoms: C16_31  and  C17_32 
REMARK    9  A    between atoms: C17_32  and  O2_34 
REMARK   10  A    between atoms: O2_34  and  C18_35 
ROOT
HETATM    1  C13 UNL     1      -2.545 -10.610  -5.453  1.00  0.00     0.067 A 
HETATM    2  N6  UNL     1      -3.433 -10.271  -4.479  1.00  0.00    -0.336 N 
ATOM      3  H6  UNL     1      -4.327 -10.731  -4.310  1.00  0.00     0.168 HD
HETATM    4  C14 UNL     1      -2.946  -9.227  -3.770  1.00  0.00     0.144 A 
HETATM    5  N7  UNL     1      -1.757  -8.915  -4.297  1.00  0.00    -0.330 N 
ATOM      6  H7  UNL     1      -1.146  -8.166  -3.973  1.00  0.00     0.168 HD
HETATM    7  C16 UNL     1      -1.487  -9.764  -5.345  1.00  0.00     0.135 A 
ENDROOT
BRANCH   1   8
HETATM    8  C3  UNL     1      -2.752 -11.695  -6.402  1.00  0.00     0.135 C 
BRANCH   8   9
HETATM    9  C2  UNL     1      -2.807 -11.085  -7.820  1.00  0.00     0.027 C 
HETATM   10  C1  UNL     1      -4.004 -10.157  -7.950  1.00  0.00     0.007 C 
ENDBRANCH   8   9
BRANCH   8  11
HETATM   11  N1  UNL     1      -1.790 -12.721  -6.466  1.00  0.00    -0.364 N 
ATOM     12  H1  UNL     1      -0.819 -12.485  -6.263  1.00  0.00     0.162 HD
BRANCH  11  13
HETATM   13  C4  UNL     1      -2.069 -13.932  -6.763  1.00  0.00     0.141 A 
HETATM   14  N2  UNL     1      -3.290 -14.461  -6.876  1.00  0.00    -0.174 N 
HETATM   15  C5  UNL     1      -3.531 -15.760  -7.210  1.00  0.00     0.698 A 
ATOM     16  H2  UNL     1      -4.092 -13.856  -6.700  1.00  0.00     0.186 HD
HETATM   17  N5  UNL     1      -2.534 -16.615  -7.455  1.00  0.00    -0.199 N 
HETATM   18  C11 UNL     1      -1.287 -16.140  -7.357  1.00  0.00     0.134 A 
ATOM     19  H5  UNL     1      -2.716 -17.587  -7.705  1.00  0.00     0.183 HD
HETATM   20  C12 UNL     1      -1.016 -14.838  -7.022  1.00  0.00     0.094 A 
HETATM   21 CL1  UNL     1       0.611 -14.218  -6.894  1.00  0.00    -0.079 Cl
BRANCH  15  22
HETATM   22  N3  UNL     1      -4.743 -16.184  -7.295  1.00  0.00    -0.134 N 
ATOM     23  H3  UNL     1      -5.171 -16.647  -6.494  1.00  0.00     0.205 HD
BRANCH  22  24
HETATM   24  N4  UNL     1      -5.479 -16.018  -8.470  1.00  0.00    -0.314 N 
HETATM   25  C6  UNL     1      -4.935 -15.500  -9.697  1.00  0.00     0.143 C 
HETATM   26  C7  UNL     1      -5.974 -15.733 -10.790  1.00  0.00     0.021 C 
HETATM   27  C8  UNL     1      -7.256 -15.024 -10.470  1.00  0.00     0.003 C 
HETATM   28  C9  UNL     1      -7.767 -15.374  -9.101  1.00  0.00     0.021 C 
HETATM   29  C10 UNL     1      -6.872 -16.395  -8.436  1.00  0.00     0.143 C 
ENDBRANCH  22  24
ENDBRANCH  15  22
ENDBRANCH  11  13
ENDBRANCH   8  11
ENDBRANCH   1   8
BRANCH   7  30
HETATM   30  C17 UNL     1      -0.274  -9.729  -6.121  1.00  0.00     0.312 C 
HETATM   31  O1  UNL     1       0.569 -10.676  -5.901  1.00  0.00    -0.258 OA
BRANCH  30  32
HETATM   32  O2  UNL     1       0.116  -8.836  -7.062  1.00  0.00    -0.311 OA
BRANCH  32  33
HETATM   33  C18 UNL     1       1.282  -8.083  -7.103  1.00  0.00     0.136 C 
HETATM   34  C19 UNL     1       1.784  -7.885  -8.540  1.00  0.00     0.065 C 
HETATM   35  C20 UNL     1       3.055  -7.110  -8.507  1.00  0.00     0.189 C 
HETATM   36  C21 UNL     1       4.038  -7.694  -7.527  1.00  0.00     0.035 C 
HETATM   37  N8  UNL     1       2.775  -5.787  -7.983  1.00  0.00    -0.067 N 
HETATM   38  C22 UNL     1       3.712  -6.984  -6.248  1.00  0.00     0.035 C 
HETATM   39  C23 UNL     1       2.553  -6.072  -6.573  1.00  0.00     0.189 C 
HETATM   40  C24 UNL     1       1.218  -6.779  -6.368  1.00  0.00     0.065 C 
ATOM     41  H82 UNL     1       3.487  -5.083  -8.177  1.00  0.00     0.278 HD
ATOM     42  H81 UNL     1       2.020  -5.285  -8.449  1.00  0.00     0.278 HD
ENDBRANCH  32  33
ENDBRANCH  30  32
ENDBRANCH   7  30
BRANCH   4  43
HETATM   43  S1  UNL     1      -3.727  -8.396  -2.378  1.00  0.00    -0.098 SA
HETATM   44  C15 UNL     1      -3.353  -6.631  -2.503  1.00  0.00     0.099 C 
ENDBRANCH   4  43
TORSDOF 10
ENDMDL
MODEL 5
REMARK VINA RESULT: -7.801268621      1.328      1.823
REMARK  10 active torsions:
REMARK  status: ('A' for Active; 'I' for Inactive)
REMARK    1  A    between atoms: C2_2  and  C3_3 
REMARK    2  A    between atoms: C3_3  and  N1_4 
REMARK    3  A    between atoms: C3_3  and  C13_23 
REMARK    4  A    between atoms: N1_4  and  C4_6 
REMARK    5  A    between atoms: C5_9  and  N3_10 
REMARK    6  A    between atoms: N3_10  and  N4_12 
REMARK    7  A    between atoms: C14_26  and  S1_27 
REMARK    8  A    between atoms: C16_31  and  C17_32 
REMARK    9  A    between atoms: C17_32  and  O2_34 
REMARK   10  A    between atoms: O2_34  and  C18_35 
ROOT
HETATM    1  C13 UNL     1      -1.513 -11.476  -6.438  1.00  0.00     0.067 A 
HETATM    2  N6  UNL     1      -2.533 -11.014  -5.663  1.00  0.00    -0.336 N 
ATOM      3  H6  UNL     1      -3.485 -11.379  -5.664  1.00  0.00     0.168 HD
HETATM    4  C14 UNL     1      -2.087  -9.997  -4.891  1.00  0.00     0.144 A 
HETATM    5  N7  UNL     1      -0.792  -9.823  -5.181  1.00  0.00    -0.330 N 
ATOM      6  H7  UNL     1      -0.181  -9.125  -4.757  1.00  0.00     0.168 HD
HETATM    7  C16 UNL     1      -0.415 -10.734  -6.141  1.00  0.00     0.135 A 
ENDROOT
BRANCH   1   8
HETATM    8  C3  UNL     1      -1.644 -12.571  -7.389  1.00  0.00     0.135 C 
BRANCH   8   9
HETATM    9  C2  UNL     1      -1.526 -13.899  -6.608  1.00  0.00     0.027 C 
HETATM   10  C1  UNL     1      -0.194 -14.569  -6.903  1.00  0.00     0.007 C 
ENDBRANCH   8   9
BRANCH   8  11
HETATM   11  N1  UNL     1      -2.835 -12.671  -8.134  1.00  0.00    -0.364 N 
ATOM     12  H1  UNL     1      -3.339 -11.813  -8.356  1.00  0.00     0.162 HD
BRANCH  11  13
HETATM   13  C4  UNL     1      -3.317 -13.780  -8.547  1.00  0.00     0.141 A 
HETATM   14  N2  UNL     1      -4.280 -14.496  -7.960  1.00  0.00    -0.174 N 
HETATM   15  C5  UNL     1      -4.769 -15.668  -8.453  1.00  0.00     0.698 A 
ATOM     16  H2  UNL     1      -4.675 -14.142  -7.087  1.00  0.00     0.186 HD
HETATM   17  N5  UNL     1      -4.304 -16.195  -9.589  1.00  0.00    -0.199 N 
HETATM   18  C11 UNL     1      -3.337 -15.522 -10.222  1.00  0.00     0.134 A 
ATOM     19  H5  UNL     1      -4.670 -17.073  -9.958  1.00  0.00     0.183 HD
HETATM   20  C12 UNL     1      -2.827 -14.340  -9.748  1.00  0.00     0.094 A 
HETATM   21 CL1  UNL     1      -1.566 -13.460 -10.574  1.00  0.00    -0.079 Cl
BRANCH  15  22
HETATM   22  N3  UNL     1      -5.698 -16.291  -7.819  1.00  0.00    -0.134 N 
ATOM     23  H3  UNL     1      -5.529 -16.612  -6.865  1.00  0.00     0.205 HD
BRANCH  22  24
HETATM   24  N4  UNL     1      -6.936 -16.533  -8.418  1.00  0.00    -0.314 N 
HETATM   25  C6  UNL     1      -7.366 -17.825  -8.885  1.00  0.00     0.143 C 
HETATM   26  C7  UNL     1      -8.853 -17.717  -9.216  1.00  0.00     0.021 C 
HETATM   27  C8  UNL     1      -9.091 -16.692 -10.283  1.00  0.00     0.003 C 
HETATM   28  C9  UNL     1      -8.477 -15.364  -9.937  1.00  0.00     0.021 C 
HETATM   29  C10 UNL     1      -7.828 -15.410  -8.571  1.00  0.00     0.143 C 
ENDBRANCH  22  24
ENDBRANCH  15  22
ENDBRANCH  11  13
ENDBRANCH   8  11
ENDBRANCH   1   8
BRANCH   7  30
HETATM   30  C17 UNL     1       0.922 -10.847  -6.665  1.00  0.00     0.312 C 
HETATM   31  O1  UNL     1       1.647 -11.791  -6.175  1.00  0.00    -0.258 OA
BRANCH  30  32
HETATM   32  O2  UNL     1       1.538 -10.098  -7.611  1.00  0.00    -0.311 OA
BRANCH  32  33
HETATM   33  C18 UNL     1       2.181  -8.877  -7.458  1.00  0.00     0.136 C 
HETATM   34  C19 UNL     1       3.217  -8.635  -8.564  1.00  0.00     0.065 C 
HETATM   35  C20 UNL     1       3.898  -7.334  -8.316  1.00  0.00     0.189 C 
HETATM   36  C21 UNL     1       4.392  -7.226  -6.898  1.00  0.00     0.035 C 
HETATM   37  N8  UNL     1       2.916  -6.271  -8.430  1.00  0.00    -0.067 N 
HETATM   38  C22 UNL     1       3.230  -6.621  -6.172  1.00  0.00     0.035 C 
HETATM   39  C23 UNL     1       2.145  -6.453  -7.210  1.00  0.00     0.189 C 
HETATM   40  C24 UNL     1       1.271  -7.698  -7.303  1.00  0.00     0.065 C 
ATOM     41  H82 UNL     1       3.302  -5.336  -8.566  1.00  0.00     0.278 HD
ATOM     42  H81 UNL     1       2.372  -6.273  -9.292  1.00  0.00     0.278 HD
ENDBRANCH  32  33
ENDBRANCH  30  32
ENDBRANCH   7  30
BRANCH   4  43
HETATM   43  S1  UNL     1      -3.031  -9.041  -3.694  1.00  0.00    -0.098 SA
HETATM   44  C15 UNL     1      -4.765  -9.536  -3.832  1.00  0.00     0.099 C 
ENDBRANCH   4  43
TORSDOF 10
ENDMDL
