MODEL 1
REMARK VINA RESULT: -8.635755066      0.000      0.000
REMARK  12 active torsions:
REMARK  status: ('A' for Active; 'I' for Inactive)
REMARK    1  A    between atoms: C1_2  and  S2_4 
REMARK    2  A    between atoms: S2_4  and  C2_5 
REMARK    3  A    between atoms: C2_5  and  C3_6 
REMARK    4  A    between atoms: C3_6  and  O1_7 
REMARK    5  A    between atoms: C4_10  and  C5_11 
REMARK    6  A    between atoms: C5_11  and  O3_12 
REMARK    7  A    between atoms: C6_14  and  O4_15 
REMARK    8  A    between atoms: C7_17  and  O5_18 
REMARK    9  A    between atoms: O5_18  and  C8_19 
REMARK   10  A    between atoms: C8_19  and  C9_21 
REMARK   11  A    between atoms: C9_21  and  C10_22 
REMARK   12  A    between atoms: C19_34  and  O7_35 
ROOT
HETATM    1  C2  UNL     1      11.849  -8.551  -3.213  1.00  0.00     0.165 C 
HETATM    2  O2  UNL     1      10.760  -8.020  -3.811  1.00  0.00    -0.354 OA
HETATM    3  C4  UNL     1       9.851  -7.332  -3.134  1.00  0.00     0.178 C 
HETATM    4  C6  UNL     1      10.314  -6.581  -1.918  1.00  0.00     0.181 C 
HETATM    5  C7  UNL     1      10.996  -7.608  -1.032  1.00  0.00     0.195 C 
HETATM    6  C19 UNL     1      12.186  -8.080  -1.841  1.00  0.00     0.198 C 
ENDROOT
BRANCH   5   7
HETATM    7  O5  UNL     1      11.443  -6.917   0.115  1.00  0.00    -0.310 OA
BRANCH   7   8
HETATM    8  C8  UNL     1      11.568  -7.590   1.311  1.00  0.00     0.261 C 
HETATM    9  O6  UNL     1      10.836  -8.591   1.516  1.00  0.00    -0.265 OA
BRANCH   8  10
HETATM   10  C9  UNL     1      12.563  -7.100   2.306  1.00  0.00     0.144 C 
BRANCH  10  11
HETATM   11  C10 UNL     1      12.903  -8.218   3.244  1.00  0.00     0.198 A 
HETATM   12  C11 UNL     1      12.319  -8.159   4.616  1.00  0.00     0.072 A 
HETATM   13  C12 UNL     1      13.701  -7.948   5.169  1.00  0.00     0.129 A 
HETATM   14  C13 UNL     1      13.930  -6.560   5.697  1.00  0.00     0.043 C 
HETATM   15  C18 UNL     1      14.240  -9.027   6.035  1.00  0.00     0.043 C 
HETATM   16  N2  UNL     1      14.213  -8.093   3.806  1.00  0.00    -0.061 N 
HETATM   17  C14 UNL     1      15.066  -6.507   6.662  1.00  0.00    -0.012 C 
HETATM   18  C15 UNL     1      14.690  -7.412   7.845  1.00  0.00     0.009 C 
HETATM   19  C17 UNL     1      16.148  -7.525   6.342  1.00  0.00     0.009 C 
HETATM   20  C16 UNL     1      15.266  -8.558   7.012  1.00  0.00    -0.012 C 
ATOM     21  H22 UNL     1      14.899  -8.825   3.616  1.00  0.00     0.278 HD
ATOM     22  H21 UNL     1      14.837  -7.375   3.438  1.00  0.00     0.278 HD
ENDBRANCH  10  11
ENDBRANCH   8  10
ENDBRANCH   7   8
ENDBRANCH   5   7
BRANCH   4  23
HETATM   23  O4  UNL     1       9.238  -5.996  -1.282  1.00  0.00    -0.390 OA
ATOM     24  H4  UNL     1       9.382  -5.062  -1.190  1.00  0.00     0.210 HD
ENDBRANCH   4  23
BRANCH   6  25
HETATM   25  O7  UNL     1      13.107  -7.031  -1.818  1.00  0.00    -0.389 OA
ATOM     26  H7  UNL     1      12.726  -6.193  -1.581  1.00  0.00     0.210 HD
ENDBRANCH   6  25
BRANCH   3  27
HETATM   27  C5  UNL     1       9.138  -6.350  -4.043  1.00  0.00     0.198 C 
BRANCH  27  28
HETATM   28  O3  UNL     1       7.800  -6.315  -3.652  1.00  0.00    -0.398 OA
ATOM     29  H3  UNL     1       7.422  -5.519  -4.007  1.00  0.00     0.209 HD
ENDBRANCH  27  28
ENDBRANCH   3  27
BRANCH   1  30
HETATM   30  S2  UNL     1      11.546 -10.344  -3.087  1.00  0.00    -0.060 SA
BRANCH  30  31
HETATM   31  C1  UNL     1      10.773 -11.030  -4.506  1.00  0.00     0.152 C 
HETATM   32  N1  UNL     1      11.467 -11.170  -5.727  1.00  0.00    -0.082 NA
HETATM   33  S1  UNL     1       9.220 -11.512  -4.406  1.00  0.00    -0.056 SA
ENDBRANCH  30  31
ENDBRANCH   1  30
BRANCH   1  34
HETATM   34  C3  UNL     1      13.013  -8.418  -4.184  1.00  0.00     0.216 C 
BRANCH  34  35
HETATM   35  O1  UNL     1      12.634  -8.119  -5.460  1.00  0.00    -0.397 OA
ATOM     36  H1  UNL     1      13.050  -7.341  -5.811  1.00  0.00     0.209 HD
ENDBRANCH  34  35
ENDBRANCH   1  34
TORSDOF 12
ENDMDL
MODEL 2
REMARK VINA RESULT: -8.514896700      1.064      1.076
REMARK  12 active torsions:
REMARK  status: ('A' for Active; 'I' for Inactive)
REMARK    1  A    between atoms: C1_2  and  S2_4 
REMARK    2  A    between atoms: S2_4  and  C2_5 
REMARK    3  A    between atoms: C2_5  and  C3_6 
REMARK    4  A    between atoms: C3_6  and  O1_7 
REMARK    5  A    between atoms: C4_10  and  C5_11 
REMARK    6  A    between atoms: C5_11  and  O3_12 
REMARK    7  A    between atoms: C6_14  and  O4_15 
REMARK    8  A    between atoms: C7_17  and  O5_18 
REMARK    9  A    between atoms: O5_18  and  C8_19 
REMARK   10  A    between atoms: C8_19  and  C9_21 
REMARK   11  A    between atoms: C9_21  and  C10_22 
REMARK   12  A    between atoms: C19_34  and  O7_35 
ROOT
HETATM    1  C2  UNL     1      11.199  -8.903  -3.310  1.00  0.00     0.165 C 
HETATM    2  O2  UNL     1      10.178  -8.145  -3.767  1.00  0.00    -0.354 OA
HETATM    3  C4  UNL     1       9.568  -7.250  -3.002  1.00  0.00     0.178 C 
HETATM    4  C6  UNL     1      10.378  -6.602  -1.915  1.00  0.00     0.181 C 
HETATM    5  C7  UNL     1      10.942  -7.741  -1.084  1.00  0.00     0.195 C 
HETATM    6  C19 UNL     1      11.849  -8.494  -2.034  1.00  0.00     0.198 C 
ENDROOT
BRANCH   5   7
HETATM    7  O5  UNL     1      11.710  -7.149  -0.058  1.00  0.00    -0.310 OA
BRANCH   7   8
HETATM    8  C8  UNL     1      11.585  -7.602   1.236  1.00  0.00     0.261 C 
HETATM    9  O6  UNL     1      11.217  -8.789   1.424  1.00  0.00    -0.265 OA
BRANCH   8  10
HETATM   10  C9  UNL     1      11.890  -6.665   2.354  1.00  0.00     0.144 C 
BRANCH  10  11
HETATM   11  C10 UNL     1      11.809  -7.412   3.651  1.00  0.00     0.198 A 
HETATM   12  C11 UNL     1      11.883  -6.610   4.907  1.00  0.00     0.072 A 
HETATM   13  C12 UNL     1      13.214  -7.245   5.204  1.00  0.00     0.129 A 
HETATM   14  C13 UNL     1      14.373  -6.298   5.067  1.00  0.00     0.043 C 
HETATM   15  C18 UNL     1      13.277  -8.119   6.403  1.00  0.00     0.043 C 
HETATM   16  N2  UNL     1      13.039  -8.056   3.999  1.00  0.00    -0.061 N 
HETATM   17  C14 UNL     1      15.571  -6.766   5.823  1.00  0.00    -0.012 C 
HETATM   18  C15 UNL     1      15.172  -6.819   7.304  1.00  0.00     0.009 C 
HETATM   19  C17 UNL     1      15.664  -8.281   5.885  1.00  0.00     0.009 C 
HETATM   20  C16 UNL     1      14.641  -8.221   7.001  1.00  0.00    -0.012 C 
ATOM     21  H22 UNL     1      13.052  -9.072   4.087  1.00  0.00     0.278 HD
ATOM     22  H21 UNL     1      13.792  -8.079   3.310  1.00  0.00     0.278 HD
ENDBRANCH  10  11
ENDBRANCH   8  10
ENDBRANCH   7   8
ENDBRANCH   5   7
BRANCH   4  23
HETATM   23  O4  UNL     1       9.578  -5.769  -1.160  1.00  0.00    -0.390 OA
ATOM     24  H4  UNL     1       8.743  -5.638  -1.593  1.00  0.00     0.210 HD
ENDBRANCH   4  23
BRANCH   6  25
HETATM   25  O7  UNL     1      12.975  -7.688  -2.210  1.00  0.00    -0.389 OA
ATOM     26  H7  UNL     1      13.738  -7.988  -1.730  1.00  0.00     0.210 HD
ENDBRANCH   6  25
BRANCH   3  27
HETATM   27  C5  UNL     1       8.962  -6.149  -3.849  1.00  0.00     0.198 C 
BRANCH  27  28
HETATM   28  O3  UNL     1       7.600  -6.099  -3.556  1.00  0.00    -0.398 OA
ATOM     29  H3  UNL     1       7.144  -6.571  -4.243  1.00  0.00     0.209 HD
ENDBRANCH  27  28
ENDBRANCH   3  27
BRANCH   1  30
HETATM   30  S2  UNL     1      10.522 -10.573  -3.037  1.00  0.00    -0.060 SA
BRANCH  30  31
HETATM   31  C1  UNL     1      11.503 -11.853  -3.730  1.00  0.00     0.152 C 
HETATM   32  N1  UNL     1      12.708 -12.267  -3.123  1.00  0.00    -0.082 NA
HETATM   33  S1  UNL     1      11.007 -12.576  -5.103  1.00  0.00    -0.056 SA
ENDBRANCH  30  31
ENDBRANCH   1  30
BRANCH   1  34
HETATM   34  C3  UNL     1      12.193  -9.065  -4.452  1.00  0.00     0.216 C 
BRANCH  34  35
HETATM   35  O1  UNL     1      12.411  -7.919  -5.158  1.00  0.00    -0.397 OA
ATOM     36  H1  UNL     1      12.633  -7.171  -4.617  1.00  0.00     0.209 HD
ENDBRANCH  34  35
ENDBRANCH   1  34
TORSDOF 12
ENDMDL
MODEL 3
REMARK VINA RESULT: -8.501363976      1.122      1.122
REMARK  12 active torsions:
REMARK  status: ('A' for Active; 'I' for Inactive)
REMARK    1  A    between atoms: C1_2  and  S2_4 
REMARK    2  A    between atoms: S2_4  and  C2_5 
REMARK    3  A    between atoms: C2_5  and  C3_6 
REMARK    4  A    between atoms: C3_6  and  O1_7 
REMARK    5  A    between atoms: C4_10  and  C5_11 
REMARK    6  A    between atoms: C5_11  and  O3_12 
REMARK    7  A    between atoms: C6_14  and  O4_15 
REMARK    8  A    between atoms: C7_17  and  O5_18 
REMARK    9  A    between atoms: O5_18  and  C8_19 
REMARK   10  A    between atoms: C8_19  and  C9_21 
REMARK   11  A    between atoms: C9_21  and  C10_22 
REMARK   12  A    between atoms: C19_34  and  O7_35 
ROOT
HETATM    1  C2  UNL     1      11.700  -8.231  -3.386  1.00  0.00     0.165 C 
HETATM    2  O2  UNL     1      10.627  -7.603  -3.916  1.00  0.00    -0.354 OA
HETATM    3  C4  UNL     1       9.784  -6.900  -3.172  1.00  0.00     0.178 C 
HETATM    4  C6  UNL     1      10.331  -6.248  -1.934  1.00  0.00     0.181 C 
HETATM    5  C7  UNL     1      10.976  -7.361  -1.129  1.00  0.00     0.195 C 
HETATM    6  C19 UNL     1      12.108  -7.857  -2.003  1.00  0.00     0.198 C 
ENDROOT
BRANCH   5   7
HETATM    7  O5  UNL     1      11.500  -6.763   0.038  1.00  0.00    -0.310 OA
BRANCH   7   8
HETATM    8  C8  UNL     1      11.609  -7.503   1.194  1.00  0.00     0.261 C 
HETATM    9  O6  UNL     1      10.930  -8.556   1.299  1.00  0.00    -0.265 OA
BRANCH   8  10
HETATM   10  C9  UNL     1      12.526  -7.024   2.266  1.00  0.00     0.144 C 
BRANCH  10  11
HETATM   11  C10 UNL     1      12.839  -8.165   3.185  1.00  0.00     0.198 A 
HETATM   12  C11 UNL     1      12.248  -8.121   4.555  1.00  0.00     0.072 A 
HETATM   13  C12 UNL     1      13.631  -7.946   5.119  1.00  0.00     0.129 A 
HETATM   14  C13 UNL     1      13.884  -6.573   5.674  1.00  0.00     0.043 C 
HETATM   15  C18 UNL     1      14.144  -9.052   5.967  1.00  0.00     0.043 C 
HETATM   16  N2  UNL     1      14.148  -8.076   3.756  1.00  0.00    -0.061 N 
HETATM   17  C14 UNL     1      15.015  -6.561   6.646  1.00  0.00    -0.012 C 
HETATM   18  C15 UNL     1      14.615  -7.480   7.809  1.00  0.00     0.009 C 
HETATM   19  C17 UNL     1      16.079  -7.593   6.312  1.00  0.00     0.009 C 
HETATM   20  C16 UNL     1      15.173  -8.622   6.958  1.00  0.00    -0.012 C 
ATOM     21  H22 UNL     1      14.820  -8.817   3.555  1.00  0.00     0.278 HD
ATOM     22  H21 UNL     1      14.788  -7.364   3.404  1.00  0.00     0.278 HD
ENDBRANCH  10  11
ENDBRANCH   8  10
ENDBRANCH   7   8
ENDBRANCH   5   7
BRANCH   4  23
HETATM   23  O4  UNL     1       9.313  -5.635  -1.231  1.00  0.00    -0.390 OA
ATOM     24  H4  UNL     1       9.091  -6.150  -0.463  1.00  0.00     0.210 HD
ENDBRANCH   4  23
BRANCH   6  25
HETATM   25  O7  UNL     1      13.092  -6.868  -1.956  1.00  0.00    -0.389 OA
ATOM     26  H7  UNL     1      13.412  -6.688  -1.080  1.00  0.00     0.210 HD
ENDBRANCH   6  25
BRANCH   3  27
HETATM   27  C5  UNL     1       9.105  -5.829  -4.002  1.00  0.00     0.198 C 
BRANCH  27  28
HETATM   28  O3  UNL     1       7.744  -5.870  -3.702  1.00  0.00    -0.398 OA
ATOM     29  H3  UNL     1       7.363  -5.053  -4.004  1.00  0.00     0.209 HD
ENDBRANCH  27  28
ENDBRANCH   3  27
BRANCH   1  30
HETATM   30  S2  UNL     1      11.291 -10.007  -3.345  1.00  0.00    -0.060 SA
BRANCH  30  31
HETATM   31  C1  UNL     1       9.714 -10.351  -2.656  1.00  0.00     0.152 C 
HETATM   32  N1  UNL     1       9.531 -10.473  -1.262  1.00  0.00    -0.082 NA
HETATM   33  S1  UNL     1       8.438 -10.533  -3.651  1.00  0.00    -0.056 SA
ENDBRANCH  30  31
ENDBRANCH   1  30
BRANCH   1  34
HETATM   34  C3  UNL     1      12.839  -8.113  -4.388  1.00  0.00     0.216 C 
BRANCH  34  35
HETATM   35  O1  UNL     1      13.984  -8.742  -3.997  1.00  0.00    -0.397 OA
ATOM     36  H1  UNL     1      14.745  -8.174  -3.976  1.00  0.00     0.209 HD
ENDBRANCH  34  35
ENDBRANCH   1  34
TORSDOF 12
ENDMDL
MODEL 4
REMARK VINA RESULT: -8.235138553      4.938      7.389
REMARK  12 active torsions:
REMARK  status: ('A' for Active; 'I' for Inactive)
REMARK    1  A    between atoms: C1_2  and  S2_4 
REMARK    2  A    between atoms: S2_4  and  C2_5 
REMARK    3  A    between atoms: C2_5  and  C3_6 
REMARK    4  A    between atoms: C3_6  and  O1_7 
REMARK    5  A    between atoms: C4_10  and  C5_11 
REMARK    6  A    between atoms: C5_11  and  O3_12 
REMARK    7  A    between atoms: C6_14  and  O4_15 
REMARK    8  A    between atoms: C7_17  and  O5_18 
REMARK    9  A    between atoms: O5_18  and  C8_19 
REMARK   10  A    between atoms: C8_19  and  C9_21 
REMARK   11  A    between atoms: C9_21  and  C10_22 
REMARK   12  A    between atoms: C19_34  and  O7_35 
ROOT
HETATM    1  C2  UNL     1       7.769 -11.500  -4.398  1.00  0.00     0.165 C 
HETATM    2  O2  UNL     1       6.793 -12.137  -3.714  1.00  0.00    -0.354 OA
HETATM    3  C4  UNL     1       6.673 -12.032  -2.398  1.00  0.00     0.178 C 
HETATM    4  C6  UNL     1       7.142 -10.756  -1.759  1.00  0.00     0.181 C 
HETATM    5  C7  UNL     1       8.585 -10.581  -2.193  1.00  0.00     0.195 C 
HETATM    6  C19 UNL     1       8.514 -10.418  -3.697  1.00  0.00     0.198 C 
ENDROOT
BRANCH   5   7
HETATM    7  O5  UNL     1       9.041  -9.381  -1.604  1.00  0.00    -0.310 OA
BRANCH   7   8
HETATM    8  C8  UNL     1      10.147  -9.401  -0.784  1.00  0.00     0.261 C 
HETATM    9  O6  UNL     1      10.271 -10.346   0.035  1.00  0.00    -0.265 OA
BRANCH   8  10
HETATM   10  C9  UNL     1      11.146  -8.302  -0.904  1.00  0.00     0.144 C 
BRANCH  10  11
HETATM   11  C10 UNL     1      11.443  -8.071  -2.355  1.00  0.00     0.198 A 
HETATM   12  C11 UNL     1      12.251  -6.866  -2.703  1.00  0.00     0.072 A 
HETATM   13  C12 UNL     1      11.041  -6.279  -3.376  1.00  0.00     0.129 A 
HETATM   14  C13 UNL     1      10.451  -5.112  -2.636  1.00  0.00     0.043 C 
HETATM   15  C18 UNL     1      11.129  -6.090  -4.846  1.00  0.00     0.043 C 
HETATM   16  N2  UNL     1      10.332  -7.521  -3.069  1.00  0.00    -0.061 N 
HETATM   17  C14 UNL     1       9.612  -4.254  -3.522  1.00  0.00    -0.012 C 
HETATM   18  C15 UNL     1      10.535  -3.706  -4.619  1.00  0.00     0.009 C 
HETATM   19  C17 UNL     1       8.925  -5.048  -4.620  1.00  0.00     0.009 C 
HETATM   20  C16 UNL     1      10.243  -5.007  -5.367  1.00  0.00    -0.012 C 
ATOM     21  H22 UNL     1       9.931  -8.058  -3.838  1.00  0.00     0.278 HD
ATOM     22  H21 UNL     1       9.427  -7.466  -2.600  1.00  0.00     0.278 HD
ENDBRANCH  10  11
ENDBRANCH   8  10
ENDBRANCH   7   8
ENDBRANCH   5   7
BRANCH   4  23
HETATM   23  O4  UNL     1       7.031 -10.844  -0.386  1.00  0.00    -0.390 OA
ATOM     24  H4  UNL     1       7.638 -10.243   0.030  1.00  0.00     0.210 HD
ENDBRANCH   4  23
BRANCH   6  25
HETATM   25  O7  UNL     1       7.995  -9.142  -3.922  1.00  0.00    -0.389 OA
ATOM     26  H7  UNL     1       7.512  -8.790  -3.183  1.00  0.00     0.210 HD
ENDBRANCH   6  25
BRANCH   3  27
HETATM   27  C5  UNL     1       5.236 -12.265  -1.973  1.00  0.00     0.198 C 
BRANCH  27  28
HETATM   28  O3  UNL     1       4.529 -12.673  -3.103  1.00  0.00    -0.398 OA
ATOM     29  H3  UNL     1       4.848 -13.537  -3.341  1.00  0.00     0.209 HD
ENDBRANCH  27  28
ENDBRANCH   3  27
BRANCH   1  30
HETATM   30  S2  UNL     1       8.997 -12.770  -4.849  1.00  0.00    -0.060 SA
BRANCH  30  31
HETATM   31  C1  UNL     1      10.646 -12.169  -4.896  1.00  0.00     0.152 C 
HETATM   32  N1  UNL     1      11.140 -11.461  -6.013  1.00  0.00    -0.082 NA
HETATM   33  S1  UNL     1      11.623 -12.437  -3.621  1.00  0.00    -0.056 SA
ENDBRANCH  30  31
ENDBRANCH   1  30
BRANCH   1  34
HETATM   34  C3  UNL     1       7.174 -11.043  -5.722  1.00  0.00     0.216 C 
BRANCH  34  35
HETATM   35  O1  UNL     1       6.003 -10.358  -5.592  1.00  0.00    -0.397 OA
ATOM     36  H1  UNL     1       6.116  -9.421  -5.482  1.00  0.00     0.209 HD
ENDBRANCH  34  35
ENDBRANCH   1  34
TORSDOF 12
ENDMDL
MODEL 5
REMARK VINA RESULT: -8.210283325      2.598      3.770
REMARK  12 active torsions:
REMARK  status: ('A' for Active; 'I' for Inactive)
REMARK    1  A    between atoms: C1_2  and  S2_4 
REMARK    2  A    between atoms: S2_4  and  C2_5 
REMARK    3  A    between atoms: C2_5  and  C3_6 
REMARK    4  A    between atoms: C3_6  and  O1_7 
REMARK    5  A    between atoms: C4_10  and  C5_11 
REMARK    6  A    between atoms: C5_11  and  O3_12 
REMARK    7  A    between atoms: C6_14  and  O4_15 
REMARK    8  A    between atoms: C7_17  and  O5_18 
REMARK    9  A    between atoms: O5_18  and  C8_19 
REMARK   10  A    between atoms: C8_19  and  C9_21 
REMARK   11  A    between atoms: C9_21  and  C10_22 
REMARK   12  A    between atoms: C19_34  and  O7_35 
ROOT
HETATM    1  C2  UNL     1      10.515  -7.032  -3.063  1.00  0.00     0.165 C 
HETATM    2  O2  UNL     1      10.885  -8.109  -3.790  1.00  0.00    -0.354 OA
HETATM    3  C4  UNL     1      11.168  -9.276  -3.226  1.00  0.00     0.178 C 
HETATM    4  C6  UNL     1      10.468  -9.611  -1.940  1.00  0.00     0.181 C 
HETATM    5  C7  UNL     1      10.762  -8.459  -0.996  1.00  0.00     0.195 C 
HETATM    6  C19 UNL     1      10.113  -7.256  -1.647  1.00  0.00     0.198 C 
ENDROOT
BRANCH   5   7
HETATM    7  O5  UNL     1      10.106  -8.757   0.219  1.00  0.00    -0.310 OA
BRANCH   7   8
HETATM    8  C8  UNL     1      10.849  -9.002   1.353  1.00  0.00     0.261 C 
HETATM    9  O6  UNL     1      10.701 -10.103   1.941  1.00  0.00    -0.265 OA
BRANCH   8  10
HETATM   10  C9  UNL     1      11.791  -7.952   1.831  1.00  0.00     0.144 C 
BRANCH  10  11
HETATM   11  C10 UNL     1      11.525  -7.682   3.280  1.00  0.00     0.198 A 
HETATM   12  C11 UNL     1      12.216  -6.512   3.896  1.00  0.00     0.072 A 
HETATM   13  C12 UNL     1      13.021  -7.462   4.739  1.00  0.00     0.129 A 
HETATM   14  C13 UNL     1      14.469  -7.535   4.344  1.00  0.00     0.043 C 
HETATM   15  C18 UNL     1      12.789  -7.403   6.205  1.00  0.00     0.043 C 
HETATM   16  N2  UNL     1      12.249  -8.557   4.151  1.00  0.00    -0.061 N 
HETATM   17  C14 UNL     1      15.325  -8.055   5.450  1.00  0.00    -0.012 C 
HETATM   18  C15 UNL     1      15.199  -7.065   6.617  1.00  0.00     0.009 C 
HETATM   19  C17 UNL     1      14.594  -9.053   6.332  1.00  0.00     0.009 C 
HETATM   20  C16 UNL     1      13.956  -7.861   7.016  1.00  0.00    -0.012 C 
ATOM     21  H22 UNL     1      11.725  -9.174   4.771  1.00  0.00     0.278 HD
ATOM     22  H21 UNL     1      12.751  -9.347   3.745  1.00  0.00     0.278 HD
ENDBRANCH  10  11
ENDBRANCH   8  10
ENDBRANCH   7   8
ENDBRANCH   5   7
BRANCH   4  23
HETATM   23  O4  UNL     1      10.937 -10.809  -1.442  1.00  0.00    -0.390 OA
ATOM     24  H4  UNL     1      10.477 -11.033  -0.642  1.00  0.00     0.210 HD
ENDBRANCH   4  23
BRANCH   6  25
HETATM   25  O7  UNL     1       8.738  -7.420  -1.473  1.00  0.00    -0.389 OA
ATOM     26  H7  UNL     1       8.403  -8.240  -1.817  1.00  0.00     0.210 HD
ENDBRANCH   6  25
BRANCH   3  27
HETATM   27  C5  UNL     1      10.923 -10.412  -4.199  1.00  0.00     0.198 C 
BRANCH  27  28
HETATM   28  O3  UNL     1      12.059 -11.221  -4.190  1.00  0.00    -0.398 OA
ATOM     29  H3  UNL     1      12.685 -10.837  -4.793  1.00  0.00     0.209 HD
ENDBRANCH  27  28
ENDBRANCH   3  27
BRANCH   1  30
HETATM   30  S2  UNL     1      11.956  -5.915  -3.024  1.00  0.00    -0.060 SA
BRANCH  30  31
HETATM   31  C1  UNL     1      11.571  -4.289  -2.489  1.00  0.00     0.152 C 
HETATM   32  N1  UNL     1      11.206  -3.279  -3.405  1.00  0.00    -0.082 NA
HETATM   33  S1  UNL     1      11.640  -3.942  -0.898  1.00  0.00    -0.056 SA
ENDBRANCH  30  31
ENDBRANCH   1  30
BRANCH   1  34
HETATM   34  C3  UNL     1       9.460  -6.282  -3.864  1.00  0.00     0.216 C 
BRANCH  34  35
HETATM   35  O1  UNL     1       8.378  -7.043  -4.195  1.00  0.00    -0.397 OA
ATOM     36  H1  UNL     1       8.591  -7.809  -4.714  1.00  0.00     0.209 HD
ENDBRANCH  34  35
ENDBRANCH   1  34
TORSDOF 12
ENDMDL
