MODEL 1
REMARK VINA RESULT: -6.586123123      0.000      0.000
REMARK  5 active torsions:
REMARK  status: ('A' for Active; 'I' for Inactive)
REMARK    1  A    between atoms: C5_6  and  N1_7 
REMARK    2  A    between atoms: C5_6  and  C7_13 
REMARK    3  A    between atoms: N1_7  and  S1_9 
REMARK       I    between atoms: C7_13  and  N2_15 
REMARK    4  A    between atoms: N2_15  and  S2_17 
REMARK    5  A    between atoms: S2_17  and  C8_20 
ROOT
HETATM    1  C1  UNL     1      -2.235 -12.510  11.941  1.00  0.00     0.051 C 
HETATM    2  C2  UNL     1      -1.536 -12.000  10.688  1.00  0.00     0.100 C 
HETATM    3  F1  UNL     1      -0.163 -12.082  10.959  1.00  0.00    -0.243 F 
HETATM    4  C3  UNL     1      -1.881 -10.567  10.529  1.00  0.00     0.046 C 
HETATM    5  C4  UNL     1      -3.043 -10.331   9.563  1.00  0.00     0.045 C 
HETATM    6  C5  UNL     1      -2.621 -10.839   8.268  1.00  0.00     0.122 C 
HETATM    7  C12 UNL     1      -2.080 -12.249   8.241  1.00  0.00     0.045 C 
HETATM    8  C13 UNL     1      -1.884 -12.880   9.552  1.00  0.00     0.046 C 
ENDROOT
BRANCH   6   9
HETATM    9  N1  UNL     1      -3.485 -10.662   7.127  1.00  0.00    -0.301 N 
ATOM     10  H1  UNL     1      -3.226 -10.022   6.375  1.00  0.00     0.173 HD
BRANCH   9  11
HETATM   11  S1  UNL     1      -4.915 -11.519   7.056  1.00  0.00     0.223 S 
HETATM   12  C6  UNL     1      -4.877 -12.790   5.781  1.00  0.00     0.186 C 
HETATM   13  O1  UNL     1      -6.066 -10.604   6.743  1.00  0.00    -0.206 OA
HETATM   14  O2  UNL     1      -5.263 -12.255   8.333  1.00  0.00    -0.206 OA
ENDBRANCH   9  11
ENDBRANCH   6   9
BRANCH   6  15
HETATM   15  C7  UNL     1      -1.414  -9.966   7.820  1.00  0.00     0.260 C 
HETATM   16  O3  UNL     1      -0.288 -10.395   7.770  1.00  0.00    -0.270 OA
HETATM   17  N2  UNL     1      -1.708  -8.614   7.469  1.00  0.00    -0.248 N 
ATOM     18  H2  UNL     1      -2.689  -8.362   7.592  1.00  0.00     0.182 HD
BRANCH  17  19
HETATM   19  S2  UNL     1      -0.760  -7.360   6.895  1.00  0.00     0.271 S 
HETATM   20  O4  UNL     1       0.391  -7.158   7.890  1.00  0.00    -0.200 OA
HETATM   21  O5  UNL     1      -1.606  -6.096   6.907  1.00  0.00    -0.200 OA
BRANCH  19  22
HETATM   22  C8  UNL     1      -0.024  -7.651   5.344  1.00  0.00     0.121 A 
HETATM   23  C9  UNL     1       0.351  -8.905   4.888  1.00  0.00     0.052 A 
HETATM   24  C10 UNL     1       1.005  -8.978   3.716  1.00  0.00     0.019 A 
HETATM   25 BR1  UNL     1       1.681 -10.636   2.920  1.00  0.00    -0.051 Br
HETATM   26  C11 UNL     1       1.253  -7.794   3.070  1.00  0.00     0.070 A 
HETATM   27  S3  UNL     1       0.584  -6.664   4.097  1.00  0.00    -0.087 SA
ENDBRANCH  19  22
ENDBRANCH  17  19
ENDBRANCH   6  15
TORSDOF 5
ENDMDL
MODEL 2
REMARK VINA RESULT: -6.517366064      2.732      6.014
REMARK  5 active torsions:
REMARK  status: ('A' for Active; 'I' for Inactive)
REMARK    1  A    between atoms: C5_6  and  N1_7 
REMARK    2  A    between atoms: C5_6  and  C7_13 
REMARK    3  A    between atoms: N1_7  and  S1_9 
REMARK       I    between atoms: C7_13  and  N2_15 
REMARK    4  A    between atoms: N2_15  and  S2_17 
REMARK    5  A    between atoms: S2_17  and  C8_20 
ROOT
HETATM    1  C1  UNL     1       1.265 -10.627  10.741  1.00  0.00     0.051 C 
HETATM    2  C2  UNL     1      -0.061 -10.839  10.023  1.00  0.00     0.100 C 
HETATM    3  F1  UNL     1      -0.569 -12.050  10.514  1.00  0.00    -0.243 F 
HETATM    4  C3  UNL     1       0.230 -11.023   8.582  1.00  0.00     0.046 C 
HETATM    5  C4  UNL     1       0.074  -9.737   7.767  1.00  0.00     0.045 C 
HETATM    6  C5  UNL     1      -1.314  -9.324   7.899  1.00  0.00     0.122 C 
HETATM    7  C12 UNL     1      -1.859  -9.228   9.304  1.00  0.00     0.045 C 
HETATM    8  C13 UNL     1      -0.974  -9.728  10.364  1.00  0.00     0.046 C 
ENDROOT
BRANCH   6   9
HETATM    9  N1  UNL     1      -1.783  -8.183   7.150  1.00  0.00    -0.301 N 
ATOM     10  H1  UNL     1      -2.754  -8.130   6.842  1.00  0.00     0.173 HD
BRANCH   9  11
HETATM   11  S1  UNL     1      -0.711  -6.954   6.797  1.00  0.00     0.223 S 
HETATM   12  C6  UNL     1       0.135  -7.226   5.231  1.00  0.00     0.186 C 
HETATM   13  O1  UNL     1       0.344  -6.848   7.865  1.00  0.00    -0.206 OA
HETATM   14  O2  UNL     1      -1.351  -5.588   6.664  1.00  0.00    -0.206 OA
ENDBRANCH   9  11
ENDBRANCH   6   9
BRANCH   6  15
HETATM   15  C7  UNL     1      -2.174 -10.440   7.239  1.00  0.00     0.260 C 
HETATM   16  O3  UNL     1      -1.921 -10.895   6.151  1.00  0.00    -0.270 OA
HETATM   17  N2  UNL     1      -3.294 -10.904   7.994  1.00  0.00    -0.248 N 
ATOM     18  H2  UNL     1      -3.425 -10.412   8.878  1.00  0.00     0.182 HD
BRANCH  17  19
HETATM   19  S2  UNL     1      -4.435 -12.095   7.712  1.00  0.00     0.271 S 
HETATM   20  O4  UNL     1      -5.372 -12.134   8.927  1.00  0.00    -0.200 OA
HETATM   21  O5  UNL     1      -3.706 -13.429   7.650  1.00  0.00    -0.200 OA
BRANCH  19  22
HETATM   22  C8  UNL     1      -5.445 -11.826   6.320  1.00  0.00     0.121 A 
HETATM   23  C9  UNL     1      -6.378 -10.806   6.227  1.00  0.00     0.052 A 
HETATM   24  C10 UNL     1      -7.167 -10.772   5.139  1.00  0.00     0.019 A 
HETATM   25 BR1  UNL     1      -8.590  -9.461   4.836  1.00  0.00    -0.051 Br
HETATM   26  C11 UNL     1      -6.984 -11.764   4.211  1.00  0.00     0.070 A 
HETATM   27  S3  UNL     1      -5.756 -12.674   4.877  1.00  0.00    -0.087 SA
ENDBRANCH  19  22
ENDBRANCH  17  19
ENDBRANCH   6  15
TORSDOF 5
ENDMDL
MODEL 3
REMARK VINA RESULT: -6.501764303      3.055      6.430
REMARK  5 active torsions:
REMARK  status: ('A' for Active; 'I' for Inactive)
REMARK    1  A    between atoms: C5_6  and  N1_7 
REMARK    2  A    between atoms: C5_6  and  C7_13 
REMARK    3  A    between atoms: N1_7  and  S1_9 
REMARK       I    between atoms: C7_13  and  N2_15 
REMARK    4  A    between atoms: N2_15  and  S2_17 
REMARK    5  A    between atoms: S2_17  and  C8_20 
ROOT
HETATM    1  C1  UNL     1       0.812 -10.753  10.839  1.00  0.00     0.051 C 
HETATM    2  C2  UNL     1      -0.344 -10.846   9.852  1.00  0.00     0.100 C 
HETATM    3  F1  UNL     1      -0.824 -12.160   9.952  1.00  0.00    -0.243 F 
HETATM    4  C3  UNL     1       0.212 -10.672   8.489  1.00  0.00     0.046 C 
HETATM    5  C4  UNL     1       0.092  -9.239   7.968  1.00  0.00     0.045 C 
HETATM    6  C5  UNL     1      -1.328  -8.929   7.920  1.00  0.00     0.122 C 
HETATM    7  C12 UNL     1      -2.118  -9.190   9.180  1.00  0.00     0.045 C 
HETATM    8  C13 UNL     1      -1.395  -9.887  10.250  1.00  0.00     0.046 C 
ENDROOT
BRANCH   6   9
HETATM    9  N1  UNL     1      -1.754  -7.664   7.370  1.00  0.00    -0.301 N 
ATOM     10  H1  UNL     1      -2.743  -7.418   7.344  1.00  0.00     0.173 HD
BRANCH   9  11
HETATM   11  S1  UNL     1      -0.602  -6.613   6.777  1.00  0.00     0.223 S 
HETATM   12  C6  UNL     1       0.146  -7.221   5.256  1.00  0.00     0.186 C 
HETATM   13  O1  UNL     1       0.506  -6.423   7.777  1.00  0.00    -0.206 OA
HETATM   14  O2  UNL     1      -1.133  -5.238   6.430  1.00  0.00    -0.206 OA
ENDBRANCH   9  11
ENDBRANCH   6   9
BRANCH   6  15
HETATM   15  C7  UNL     1      -1.958  -9.893   6.875  1.00  0.00     0.260 C 
HETATM   16  O3  UNL     1      -1.387 -10.216   5.864  1.00  0.00    -0.270 OA
HETATM   17  N2  UNL     1      -3.266 -10.382   7.175  1.00  0.00    -0.248 N 
ATOM     18  H2  UNL     1      -3.658 -10.003   8.037  1.00  0.00     0.182 HD
BRANCH  17  19
HETATM   19  S2  UNL     1      -4.283 -11.454   6.389  1.00  0.00     0.271 S 
HETATM   20  O4  UNL     1      -3.422 -12.616   5.875  1.00  0.00    -0.200 OA
HETATM   21  O5  UNL     1      -4.862 -10.738   5.177  1.00  0.00    -0.200 OA
BRANCH  19  22
HETATM   22  C8  UNL     1      -5.517 -12.161   7.393  1.00  0.00     0.121 A 
HETATM   23  C9  UNL     1      -5.277 -12.712   8.641  1.00  0.00     0.052 A 
HETATM   24  C10 UNL     1      -6.299 -13.320   9.267  1.00  0.00     0.019 A 
HETATM   25 BR1  UNL     1      -6.165 -14.219  11.003  1.00  0.00    -0.051 Br
HETATM   26  C11 UNL     1      -7.501 -13.349   8.607  1.00  0.00     0.070 A 
HETATM   27  S3  UNL     1      -7.161 -12.551   7.183  1.00  0.00    -0.087 SA
ENDBRANCH  19  22
ENDBRANCH  17  19
ENDBRANCH   6  15
TORSDOF 5
ENDMDL
MODEL 4
REMARK VINA RESULT: -6.460141608      3.395      5.132
REMARK  5 active torsions:
REMARK  status: ('A' for Active; 'I' for Inactive)
REMARK    1  A    between atoms: C5_6  and  N1_7 
REMARK    2  A    between atoms: C5_6  and  C7_13 
REMARK    3  A    between atoms: N1_7  and  S1_9 
REMARK       I    between atoms: C7_13  and  N2_15 
REMARK    4  A    between atoms: N2_15  and  S2_17 
REMARK    5  A    between atoms: S2_17  and  C8_20 
ROOT
HETATM    1  C1  UNL     1      -2.167 -12.392  11.573  1.00  0.00     0.051 C 
HETATM    2  C2  UNL     1      -1.812 -11.166  10.743  1.00  0.00     0.100 C 
HETATM    3  F1  UNL     1      -3.035 -10.619  10.331  1.00  0.00    -0.243 F 
HETATM    4  C3  UNL     1      -1.096 -11.633   9.532  1.00  0.00     0.046 C 
HETATM    5  C4  UNL     1       0.426 -11.560   9.667  1.00  0.00     0.045 C 
HETATM    6  C5  UNL     1       0.761 -10.161   9.878  1.00  0.00     0.122 C 
HETATM    7  C12 UNL     1       0.014  -9.447  10.980  1.00  0.00     0.045 C 
HETATM    8  C13 UNL     1      -1.083 -10.203  11.595  1.00  0.00     0.046 C 
ENDROOT
BRANCH   6   9
HETATM    9  N1  UNL     1       2.149  -9.771   9.943  1.00  0.00    -0.301 N 
ATOM     10  H1  UNL     1       2.475  -8.935   9.457  1.00  0.00     0.173 HD
BRANCH   9  11
HETATM   11  S1  UNL     1       3.210 -10.710  10.823  1.00  0.00     0.223 S 
HETATM   12  C6  UNL     1       4.573  -9.741  11.492  1.00  0.00     0.186 C 
HETATM   13  O1  UNL     1       3.807 -11.787   9.960  1.00  0.00    -0.206 OA
HETATM   14  O2  UNL     1       2.589 -11.392  12.025  1.00  0.00    -0.206 OA
ENDBRANCH   9  11
ENDBRANCH   6   9
BRANCH   6  15
HETATM   15  C7  UNL     1       0.337  -9.403   8.587  1.00  0.00     0.260 C 
HETATM   16  O3  UNL     1       0.409  -8.203   8.487  1.00  0.00    -0.270 OA
HETATM   17  N2  UNL     1      -0.151 -10.208   7.513  1.00  0.00    -0.248 N 
ATOM     18  H2  UNL     1      -0.202 -11.202   7.736  1.00  0.00     0.182 HD
BRANCH  17  19
HETATM   19  S2  UNL     1      -0.655  -9.840   5.960  1.00  0.00     0.271 S 
HETATM   20  O4  UNL     1      -2.188  -9.762   5.979  1.00  0.00    -0.200 OA
HETATM   21  O5  UNL     1      -0.265 -11.003   5.059  1.00  0.00    -0.200 OA
BRANCH  19  22
HETATM   22  C8  UNL     1      -0.091  -8.310   5.351  1.00  0.00     0.121 A 
HETATM   23  C9  UNL     1      -0.503  -7.082   5.843  1.00  0.00     0.052 A 
HETATM   24  C10 UNL     1      -0.072  -5.976   5.214  1.00  0.00     0.019 A 
HETATM   25 BR1  UNL     1      -0.581  -4.148   5.700  1.00  0.00    -0.051 Br
HETATM   26  C11 UNL     1       0.741  -6.160   4.125  1.00  0.00     0.070 A 
HETATM   27  S3  UNL     1       0.862  -7.820   4.029  1.00  0.00    -0.087 SA
ENDBRANCH  19  22
ENDBRANCH  17  19
ENDBRANCH   6  15
TORSDOF 5
ENDMDL
MODEL 5
REMARK VINA RESULT: -6.411638949      2.631      5.850
REMARK  5 active torsions:
REMARK  status: ('A' for Active; 'I' for Inactive)
REMARK    1  A    between atoms: C5_6  and  N1_7 
REMARK    2  A    between atoms: C5_6  and  C7_13 
REMARK    3  A    between atoms: N1_7  and  S1_9 
REMARK       I    between atoms: C7_13  and  N2_15 
REMARK    4  A    between atoms: N2_15  and  S2_17 
REMARK    5  A    between atoms: S2_17  and  C8_20 
ROOT
HETATM    1  C1  UNL     1       1.594 -11.108  10.907  1.00  0.00     0.051 C 
HETATM    2  C2  UNL     1       0.114 -11.164  10.554  1.00  0.00     0.100 C 
HETATM    3  F1  UNL     1      -0.433 -12.166  11.368  1.00  0.00    -0.243 F 
HETATM    4  C3  UNL     1       0.002 -11.615   9.146  1.00  0.00     0.046 C 
HETATM    5  C4  UNL     1      -0.155 -10.462   8.155  1.00  0.00     0.045 C 
HETATM    6  C5  UNL     1      -1.386  -9.772   8.507  1.00  0.00     0.122 C 
HETATM    7  C12 UNL     1      -1.540  -9.362   9.952  1.00  0.00     0.045 C 
HETATM    8  C13 UNL     1      -0.504  -9.859  10.867  1.00  0.00     0.046 C 
ENDROOT
BRANCH   6   9
HETATM    9  N1  UNL     1      -1.848  -8.688   7.675  1.00  0.00    -0.301 N 
ATOM     10  H1  UNL     1      -2.834  -8.612   7.423  1.00  0.00     0.173 HD
BRANCH   9  11
HETATM   11  S1  UNL     1      -0.745  -7.561   7.132  1.00  0.00     0.223 S 
HETATM   12  C6  UNL     1       0.032  -8.066   5.588  1.00  0.00     0.186 C 
HETATM   13  O1  UNL     1       0.352  -7.364   8.142  1.00  0.00    -0.206 OA
HETATM   14  O2  UNL     1      -1.337  -6.197   6.844  1.00  0.00    -0.206 OA
ENDBRANCH   9  11
ENDBRANCH   6   9
BRANCH   6  15
HETATM   15  C7  UNL     1      -2.544 -10.786   8.280  1.00  0.00     0.260 C 
HETATM   16  O3  UNL     1      -3.381 -11.011   9.118  1.00  0.00    -0.270 OA
HETATM   17  N2  UNL     1      -2.565 -11.450   7.016  1.00  0.00    -0.248 N 
ATOM     18  H2  UNL     1      -1.780 -11.205   6.412  1.00  0.00     0.182 HD
BRANCH  17  19
HETATM   19  S2  UNL     1      -3.623 -12.550   6.331  1.00  0.00     0.271 S 
HETATM   20  O4  UNL     1      -3.779 -13.716   7.317  1.00  0.00    -0.200 OA
HETATM   21  O5  UNL     1      -2.970 -13.098   5.071  1.00  0.00    -0.200 OA
BRANCH  19  22
HETATM   22  C8  UNL     1      -5.225 -11.937   6.035  1.00  0.00     0.121 A 
HETATM   23  C9  UNL     1      -5.624 -11.359   4.841  1.00  0.00     0.052 A 
HETATM   24  C10 UNL     1      -6.859 -10.831   4.779  1.00  0.00     0.019 A 
HETATM   25 BR1  UNL     1      -7.600  -9.912   3.215  1.00  0.00    -0.051 Br
HETATM   26  C11 UNL     1      -7.621 -10.904   5.916  1.00  0.00     0.070 A 
HETATM   27  S3  UNL     1      -6.611 -11.682   6.990  1.00  0.00    -0.087 SA
ENDBRANCH  19  22
ENDBRANCH  17  19
ENDBRANCH   6  15
TORSDOF 5
ENDMDL
