MODEL 1
REMARK VINA RESULT: -6.961245094      0.000      0.000
REMARK  8 active torsions:
REMARK  status: ('A' for Active; 'I' for Inactive)
REMARK    1  A    between atoms: O1_2  and  N1_3 
REMARK    2  A    between atoms: C3_5  and  N2_6 
REMARK    3  A    between atoms: N2_6  and  C4_8 
REMARK    4  A    between atoms: C7_13  and  C8_14 
REMARK    5  A    between atoms: N5_24  and  C14_26 
REMARK    6  A    between atoms: C14_26  and  C15_27 
REMARK    7  A    between atoms: C15_27  and  C16_28 
REMARK    8  A    between atoms: C16_28  and  N6_29 
ROOT
HETATM    1  C4  UNL     1       2.564  -8.268   1.772  1.00  0.00     0.146 A 
HETATM    2  N3  UNL     1       1.941  -7.668   2.570  1.00  0.00    -0.338 N 
ATOM      3  H3  UNL     1       2.057  -6.680   2.343  1.00  0.00     0.167 HD
HETATM    4  C5  UNL     1       1.153  -7.721   3.638  1.00  0.00     0.061 A 
HETATM    5  C6  UNL     1       0.710  -6.625   4.290  1.00  0.00     0.045 A 
HETATM    6  C7  UNL     1      -0.059  -6.747   5.444  1.00  0.00     0.015 A 
HETATM    7  C10 UNL     1      -0.382  -7.968   5.921  1.00  0.00     0.015 A 
HETATM    8  C11 UNL     1       0.065  -9.124   5.249  1.00  0.00     0.032 A 
HETATM    9  C12 UNL     1       0.831  -8.985   4.130  1.00  0.00     0.060 A 
HETATM   10  N4  UNL     1       1.410  -9.951   3.407  1.00  0.00    -0.338 N 
ATOM     11  H4  UNL     1       1.232 -10.911   3.702  1.00  0.00     0.167 HD
HETATM   12  C13 UNL     1       2.171  -9.794   2.373  1.00  0.00     0.146 A 
HETATM   13  N5  UNL     1       2.644 -10.666   1.743  1.00  0.00    -0.373 N 
ATOM     14  H5  UNL     1       3.164 -10.156   1.030  1.00  0.00     0.161 HD
ENDROOT
BRANCH   1  15
HETATM   15  N2  UNL     1       3.261  -8.949   0.889  1.00  0.00    -0.367 N 
ATOM     16  H2  UNL     1       3.294  -9.968   0.865  1.00  0.00     0.161 HD
BRANCH  15  17
HETATM   17  C3  UNL     1       3.982  -8.104  -0.050  1.00  0.00     0.098 C 
HETATM   18  C2  UNL     1       4.401  -8.867  -1.251  1.00  0.00     0.146 C 
HETATM   19  N1  UNL     1       5.482  -8.229  -2.011  1.00  0.00    -0.191 NA
HETATM   20  C23 UNL     1       5.591  -6.877  -1.560  1.00  0.00     0.082 C 
HETATM   21  C22 UNL     1       6.217  -6.929  -0.150  1.00  0.00     0.024 C 
HETATM   22  C24 UNL     1       6.440  -5.975  -2.415  1.00  0.00     0.028 C 
HETATM   23  C21 UNL     1       5.137  -7.475   0.726  1.00  0.00     0.028 C 
BRANCH  19  24
HETATM   24  O1  UNL     1       6.617  -8.908  -1.748  1.00  0.00    -0.308 OA
HETATM   25  C1  UNL     1       6.501 -10.274  -1.934  1.00  0.00     0.229 C 
ENDBRANCH  19  24
ENDBRANCH  15  17
ENDBRANCH   1  15
BRANCH  13  26
HETATM   26  C14 UNL     1       2.902 -11.962   1.411  1.00  0.00     0.123 C 
BRANCH  26  27
HETATM   27  C15 UNL     1       4.405 -12.272   1.316  1.00  0.00     0.050 C 
BRANCH  27  28
HETATM   28  C16 UNL     1       4.940 -12.172   2.751  1.00  0.00     0.274 C 
BRANCH  28  29
HETATM   29  N6  UNL     1       5.952 -11.246   2.975  1.00  0.00     0.092 N 
HETATM   30  C17 UNL     1       7.067 -11.655   3.794  1.00  0.00     0.298 C 
HETATM   31  C18 UNL     1       8.064 -12.449   2.933  1.00  0.00     0.198 C 
HETATM   32  O2  UNL     1       8.644 -11.571   2.059  1.00  0.00    -0.388 OA
HETATM   33  C19 UNL     1       7.940 -10.388   1.850  1.00  0.00     0.198 C 
HETATM   34  C20 UNL     1       6.450 -10.589   1.782  1.00  0.00     0.298 C 
ENDBRANCH  28  29
ENDBRANCH  27  28
ENDBRANCH  26  27
ENDBRANCH  13  26
BRANCH   6  35
HETATM   35  C8  UNL     1      -0.471  -5.523   6.193  1.00  0.00     0.267 C 
HETATM   36  C9  UNL     1      -0.310  -4.310   5.259  1.00  0.00     0.096 C 
HETATM   37  F1  UNL     1       0.364  -5.307   7.295  1.00  0.00    -0.201 F 
HETATM   38  F2  UNL     1      -1.736  -5.600   6.627  1.00  0.00    -0.201 F 
ENDBRANCH   6  35
TORSDOF 8
ENDMDL
MODEL 2
REMARK VINA RESULT: -6.922974338      2.209      3.644
REMARK  8 active torsions:
REMARK  status: ('A' for Active; 'I' for Inactive)
REMARK    1  A    between atoms: O1_2  and  N1_3 
REMARK    2  A    between atoms: C3_5  and  N2_6 
REMARK    3  A    between atoms: N2_6  and  C4_8 
REMARK    4  A    between atoms: C7_13  and  C8_14 
REMARK    5  A    between atoms: N5_24  and  C14_26 
REMARK    6  A    between atoms: C14_26  and  C15_27 
REMARK    7  A    between atoms: C15_27  and  C16_28 
REMARK    8  A    between atoms: C16_28  and  N6_29 
ROOT
HETATM    1  C4  UNL     1       2.217  -7.940   2.367  1.00  0.00     0.146 A 
HETATM    2  N3  UNL     1       1.627  -7.121   2.970  1.00  0.00    -0.338 N 
ATOM      3  H3  UNL     1       1.818  -6.230   2.511  1.00  0.00     0.167 HD
HETATM    4  C5  UNL     1       0.818  -6.854   3.990  1.00  0.00     0.061 A 
HETATM    5  C6  UNL     1       0.446  -5.604   4.336  1.00  0.00     0.045 A 
HETATM    6  C7  UNL     1      -0.350  -5.384   5.457  1.00  0.00     0.015 A 
HETATM    7  C10 UNL     1      -0.770  -6.424   6.208  1.00  0.00     0.015 A 
HETATM    8  C11 UNL     1      -0.397  -7.737   5.858  1.00  0.00     0.032 A 
HETATM    9  C12 UNL     1       0.396  -7.932   4.767  1.00  0.00     0.060 A 
HETATM   10  N4  UNL     1       0.915  -9.084   4.325  1.00  0.00    -0.338 N 
ATOM     11  H4  UNL     1       0.664  -9.926   4.842  1.00  0.00     0.167 HD
HETATM   12  C13 UNL     1       1.704  -9.239   3.311  1.00  0.00     0.146 A 
HETATM   13  N5  UNL     1       2.123 -10.270   2.933  1.00  0.00    -0.373 N 
ATOM     14  H5  UNL     1       2.692  -9.989   2.135  1.00  0.00     0.161 HD
ENDROOT
BRANCH   1  15
HETATM   15  N2  UNL     1       2.879  -8.864   1.704  1.00  0.00    -0.367 N 
ATOM     16  H2  UNL     1       2.537  -9.816   1.577  1.00  0.00     0.161 HD
BRANCH  15  17
HETATM   17  C3  UNL     1       4.146  -8.392   1.170  1.00  0.00     0.098 C 
HETATM   18  C2  UNL     1       3.944  -7.526  -0.018  1.00  0.00     0.146 C 
HETATM   19  N1  UNL     1       5.139  -7.382  -0.856  1.00  0.00    -0.191 NA
HETATM   20  C23 UNL     1       6.260  -7.847  -0.101  1.00  0.00     0.082 C 
HETATM   21  C22 UNL     1       6.138  -9.384  -0.029  1.00  0.00     0.024 C 
HETATM   22  C24 UNL     1       7.611  -7.511  -0.671  1.00  0.00     0.028 C 
HETATM   23  C21 UNL     1       4.996  -9.633   0.902  1.00  0.00     0.028 C 
BRANCH  19  24
HETATM   24  O1  UNL     1       4.959  -8.146  -1.953  1.00  0.00    -0.308 OA
HETATM   25  C1  UNL     1       4.418  -7.457  -3.024  1.00  0.00     0.229 C 
ENDBRANCH  19  24
ENDBRANCH  15  17
ENDBRANCH   1  15
BRANCH  13  26
HETATM   26  C14 UNL     1       2.292 -11.622   2.939  1.00  0.00     0.123 C 
BRANCH  26  27
HETATM   27  C15 UNL     1       2.345 -12.230   1.528  1.00  0.00     0.050 C 
BRANCH  27  28
HETATM   28  C16 UNL     1       0.914 -12.132   0.981  1.00  0.00     0.274 C 
BRANCH  28  29
HETATM   29  N6  UNL     1       0.775 -11.657  -0.318  1.00  0.00     0.092 N 
HETATM   30  C17 UNL     1      -0.327 -10.768  -0.593  1.00  0.00     0.298 C 
HETATM   31  C18 UNL     1       0.059  -9.338  -0.174  1.00  0.00     0.198 C 
HETATM   32  O2  UNL     1       1.020  -8.899  -1.043  1.00  0.00    -0.388 OA
HETATM   33  C19 UNL     1       1.692  -9.899  -1.739  1.00  0.00     0.198 C 
HETATM   34  C20 UNL     1       1.987 -11.112  -0.899  1.00  0.00     0.298 C 
ENDBRANCH  28  29
ENDBRANCH  27  28
ENDBRANCH  26  27
ENDBRANCH  13  26
BRANCH   6  35
HETATM   35  C8  UNL     1      -0.685  -3.987   5.866  1.00  0.00     0.267 C 
HETATM   36  C9  UNL     1       0.115  -3.020   4.975  1.00  0.00     0.096 C 
HETATM   37  F1  UNL     1      -0.295  -3.748   7.188  1.00  0.00    -0.201 F 
HETATM   38  F2  UNL     1      -1.996  -3.731   5.757  1.00  0.00    -0.201 F 
ENDBRANCH   6  35
TORSDOF 8
ENDMDL
MODEL 3
REMARK VINA RESULT: -6.867027387      3.383      5.969
REMARK  8 active torsions:
REMARK  status: ('A' for Active; 'I' for Inactive)
REMARK    1  A    between atoms: O1_2  and  N1_3 
REMARK    2  A    between atoms: C3_5  and  N2_6 
REMARK    3  A    between atoms: N2_6  and  C4_8 
REMARK    4  A    between atoms: C7_13  and  C8_14 
REMARK    5  A    between atoms: N5_24  and  C14_26 
REMARK    6  A    between atoms: C14_26  and  C15_27 
REMARK    7  A    between atoms: C15_27  and  C16_28 
REMARK    8  A    between atoms: C16_28  and  N6_29 
ROOT
HETATM    1  C4  UNL     1       0.764  -8.778   3.864  1.00  0.00     0.146 A 
HETATM    2  N3  UNL     1       0.580  -7.638   4.090  1.00  0.00    -0.338 N 
ATOM      3  H3  UNL     1       1.049  -7.116   3.349  1.00  0.00     0.167 HD
HETATM    4  C5  UNL     1       0.025  -6.736   4.893  1.00  0.00     0.061 A 
HETATM    5  C6  UNL     1       0.181  -5.405   4.735  1.00  0.00     0.045 A 
HETATM    6  C7  UNL     1      -0.371  -4.511   5.649  1.00  0.00     0.015 A 
HETATM    7  C10 UNL     1      -1.081  -4.967   6.703  1.00  0.00     0.015 A 
HETATM    8  C11 UNL     1      -1.260  -6.354   6.879  1.00  0.00     0.032 A 
HETATM    9  C12 UNL     1      -0.699  -7.215   5.984  1.00  0.00     0.060 A 
HETATM   10  N4  UNL     1      -0.691  -8.552   6.025  1.00  0.00    -0.338 N 
ATOM     11  H4  UNL     1      -1.193  -8.989   6.798  1.00  0.00     0.167 HD
HETATM   12  C13 UNL     1      -0.112  -9.349   5.186  1.00  0.00     0.146 A 
HETATM   13  N5  UNL     1      -0.145 -10.523   5.236  1.00  0.00    -0.373 N 
ATOM     14  H5  UNL     1       0.414 -10.787   4.425  1.00  0.00     0.161 HD
ENDROOT
BRANCH   1  15
HETATM   15  N2  UNL     1       0.970 -10.054   3.624  1.00  0.00    -0.367 N 
ATOM     16  H2  UNL     1       0.673 -10.798   4.256  1.00  0.00     0.161 HD
BRANCH  15  17
HETATM   17  C3  UNL     1       1.661 -10.301   2.369  1.00  0.00     0.098 C 
HETATM   18  C2  UNL     1       3.089  -9.909   2.453  1.00  0.00     0.146 C 
HETATM   19  N1  UNL     1       3.727  -9.708   1.147  1.00  0.00    -0.191 NA
HETATM   20  C23 UNL     1       2.873 -10.282   0.154  1.00  0.00     0.082 C 
HETATM   21  C22 UNL     1       1.650  -9.349   0.028  1.00  0.00     0.024 C 
HETATM   22  C24 UNL     1       3.483 -10.440  -1.213  1.00  0.00     0.028 C 
HETATM   23  C21 UNL     1       0.874  -9.566   1.286  1.00  0.00     0.028 C 
BRANCH  19  24
HETATM   24  O1  UNL     1       3.847  -8.379   0.955  1.00  0.00    -0.308 OA
HETATM   25  C1  UNL     1       5.160  -7.947   0.881  1.00  0.00     0.229 C 
ENDBRANCH  19  24
ENDBRANCH  15  17
ENDBRANCH   1  15
BRANCH  13  26
HETATM   26  C14 UNL     1      -0.495 -11.736   5.746  1.00  0.00     0.123 C 
BRANCH  26  27
HETATM   27  C15 UNL     1      -1.704 -11.666   6.694  1.00  0.00     0.050 C 
BRANCH  27  28
HETATM   28  C16 UNL     1      -1.198 -12.179   8.050  1.00  0.00     0.274 C 
BRANCH  28  29
HETATM   29  N6  UNL     1      -1.391 -11.343   9.143  1.00  0.00     0.092 N 
HETATM   30  C17 UNL     1      -0.224 -10.914   9.875  1.00  0.00     0.298 C 
HETATM   31  C18 UNL     1       0.418  -9.719   9.149  1.00  0.00     0.198 C 
HETATM   32  O2  UNL     1      -0.428  -8.652   9.286  1.00  0.00    -0.388 OA
HETATM   33  C19 UNL     1      -1.743  -8.974   9.606  1.00  0.00     0.198 C 
HETATM   34  C20 UNL     1      -2.245 -10.199   8.891  1.00  0.00     0.298 C 
ENDBRANCH  28  29
ENDBRANCH  27  28
ENDBRANCH  26  27
ENDBRANCH  13  26
BRANCH   6  35
HETATM   35  C8  UNL     1      -0.121  -3.047   5.498  1.00  0.00     0.267 C 
HETATM   36  C9  UNL     1      -1.480  -2.338   5.358  1.00  0.00     0.096 C 
HETATM   37  F1  UNL     1       0.604  -2.783   4.330  1.00  0.00    -0.201 F 
HETATM   38  F2  UNL     1       0.553  -2.541   6.540  1.00  0.00    -0.201 F 
ENDBRANCH   6  35
TORSDOF 8
ENDMDL
MODEL 4
REMARK VINA RESULT: -6.778988615      3.790      7.561
REMARK  8 active torsions:
REMARK  status: ('A' for Active; 'I' for Inactive)
REMARK    1  A    between atoms: O1_2  and  N1_3 
REMARK    2  A    between atoms: C3_5  and  N2_6 
REMARK    3  A    between atoms: N2_6  and  C4_8 
REMARK    4  A    between atoms: C7_13  and  C8_14 
REMARK    5  A    between atoms: N5_24  and  C14_26 
REMARK    6  A    between atoms: C14_26  and  C15_27 
REMARK    7  A    between atoms: C15_27  and  C16_28 
REMARK    8  A    between atoms: C16_28  and  N6_29 
ROOT
HETATM    1  C4  UNL     1      -0.624  -9.267   6.219  1.00  0.00     0.146 A 
HETATM    2  N3  UNL     1      -0.560  -8.092   6.253  1.00  0.00    -0.338 N 
ATOM      3  H3  UNL     1      -0.972  -7.806   7.141  1.00  0.00     0.167 HD
HETATM    4  C5  UNL     1      -0.182  -6.978   5.634  1.00  0.00     0.061 A 
HETATM    5  C6  UNL     1      -0.420  -5.742   6.120  1.00  0.00     0.045 A 
HETATM    6  C7  UNL     1      -0.059  -4.611   5.392  1.00  0.00     0.015 A 
HETATM    7  C10 UNL     1       0.546  -4.739   4.192  1.00  0.00     0.015 A 
HETATM    8  C11 UNL     1       0.810  -6.022   3.673  1.00  0.00     0.032 A 
HETATM    9  C12 UNL     1       0.434  -7.118   4.392  1.00  0.00     0.060 A 
HETATM   10  N4  UNL     1       0.526  -8.404   4.034  1.00  0.00    -0.338 N 
ATOM     11  H4  UNL     1       0.959  -8.598   3.132  1.00  0.00     0.167 HD
HETATM   12  C13 UNL     1       0.121  -9.428   4.716  1.00  0.00     0.146 A 
HETATM   13  N5  UNL     1       0.240 -10.549   4.384  1.00  0.00    -0.373 N 
ATOM     14  H5  UNL     1      -0.190 -11.048   5.163  1.00  0.00     0.161 HD
ENDROOT
BRANCH   1  15
HETATM   15  N2  UNL     1      -0.697 -10.579   6.168  1.00  0.00    -0.367 N 
ATOM     16  H2  UNL     1      -0.611 -11.112   5.303  1.00  0.00     0.161 HD
BRANCH  15  17
HETATM   17  C3  UNL     1      -0.913 -11.194   7.467  1.00  0.00     0.098 C 
HETATM   18  C2  UNL     1      -2.081 -10.598   8.161  1.00  0.00     0.146 C 
HETATM   19  N1  UNL     1      -2.096 -10.836   9.608  1.00  0.00    -0.191 NA
HETATM   20  C23 UNL     1      -1.150 -11.870   9.889  1.00  0.00     0.082 C 
HETATM   21  C22 UNL     1       0.251 -11.249   9.710  1.00  0.00     0.024 C 
HETATM   22  C24 UNL     1      -1.226 -12.461  11.271  1.00  0.00     0.028 C 
HETATM   23  C21 UNL     1       0.402 -11.067   8.235  1.00  0.00     0.028 C 
BRANCH  19  24
HETATM   24  O1  UNL     1      -1.732  -9.686  10.211  1.00  0.00    -0.308 OA
HETATM   25  C1  UNL     1      -2.781  -8.806  10.405  1.00  0.00     0.229 C 
ENDBRANCH  19  24
ENDBRANCH  15  17
ENDBRANCH   1  15
BRANCH  13  26
HETATM   26  C14 UNL     1       0.617 -11.571   3.567  1.00  0.00     0.123 C 
BRANCH  26  27
HETATM   27  C15 UNL     1       1.257 -11.089   2.254  1.00  0.00     0.050 C 
BRANCH  27  28
HETATM   28  C16 UNL     1       2.765 -11.015   2.531  1.00  0.00     0.274 C 
BRANCH  28  29
HETATM   29  N6  UNL     1       3.360  -9.765   2.409  1.00  0.00     0.092 N 
HETATM   30  C17 UNL     1       4.797  -9.713   2.299  1.00  0.00     0.298 C 
HETATM   31  C18 UNL     1       5.203  -9.984   0.840  1.00  0.00     0.198 C 
HETATM   32  O2  UNL     1       4.809  -8.905   0.096  1.00  0.00    -0.388 OA
HETATM   33  C19 UNL     1       3.824  -8.112   0.676  1.00  0.00     0.198 C 
HETATM   34  C20 UNL     1       2.771  -8.907   1.399  1.00  0.00     0.298 C 
ENDBRANCH  28  29
ENDBRANCH  27  28
ENDBRANCH  26  27
ENDBRANCH  13  26
BRANCH   6  35
HETATM   35  C8  UNL     1      -0.403  -3.254   5.912  1.00  0.00     0.267 C 
HETATM   36  C9  UNL     1      -1.850  -2.932   5.498  1.00  0.00     0.096 C 
HETATM   37  F1  UNL     1       0.416  -2.277   5.335  1.00  0.00    -0.201 F 
HETATM   38  F2  UNL     1      -0.281  -3.179   7.243  1.00  0.00    -0.201 F 
ENDBRANCH   6  35
TORSDOF 8
ENDMDL
MODEL 5
REMARK VINA RESULT: -6.725593868      1.986      3.669
REMARK  8 active torsions:
REMARK  status: ('A' for Active; 'I' for Inactive)
REMARK    1  A    between atoms: O1_2  and  N1_3 
REMARK    2  A    between atoms: C3_5  and  N2_6 
REMARK    3  A    between atoms: N2_6  and  C4_8 
REMARK    4  A    between atoms: C7_13  and  C8_14 
REMARK    5  A    between atoms: N5_24  and  C14_26 
REMARK    6  A    between atoms: C14_26  and  C15_27 
REMARK    7  A    between atoms: C15_27  and  C16_28 
REMARK    8  A    between atoms: C16_28  and  N6_29 
ROOT
HETATM    1  C4  UNL     1       2.488  -8.259   1.791  1.00  0.00     0.146 A 
HETATM    2  N3  UNL     1       1.871  -7.677   2.606  1.00  0.00    -0.338 N 
ATOM      3  H3  UNL     1       1.981  -6.684   2.398  1.00  0.00     0.167 HD
HETATM    4  C5  UNL     1       1.092  -7.754   3.680  1.00  0.00     0.061 A 
HETATM    5  C6  UNL     1       0.652  -6.674   4.358  1.00  0.00     0.045 A 
HETATM    6  C7  UNL     1      -0.107  -6.822   5.516  1.00  0.00     0.015 A 
HETATM    7  C10 UNL     1      -0.422  -8.053   5.971  1.00  0.00     0.015 A 
HETATM    8  C11 UNL     1       0.024  -9.193   5.272  1.00  0.00     0.032 A 
HETATM    9  C12 UNL     1       0.779  -9.029   4.149  1.00  0.00     0.060 A 
HETATM   10  N4  UNL     1       1.355  -9.979   3.402  1.00  0.00    -0.338 N 
ATOM     11  H4  UNL     1       1.183 -10.945   3.679  1.00  0.00     0.167 HD
HETATM   12  C13 UNL     1       2.106  -9.797   2.364  1.00  0.00     0.146 A 
HETATM   13  N5  UNL     1       2.576 -10.655   1.713  1.00  0.00    -0.373 N 
ATOM     14  H5  UNL     1       3.089 -10.129   1.006  1.00  0.00     0.161 HD
ENDROOT
BRANCH   1  15
HETATM   15  N2  UNL     1       3.180  -8.919   0.888  1.00  0.00    -0.367 N 
ATOM     16  H2  UNL     1       3.197  -9.937   0.828  1.00  0.00     0.161 HD
BRANCH  15  17
HETATM   17  C3  UNL     1       3.921  -8.053  -0.015  1.00  0.00     0.098 C 
HETATM   18  C2  UNL     1       4.150  -8.709  -1.326  1.00  0.00     0.146 C 
HETATM   19  N1  UNL     1       5.236  -8.109  -2.108  1.00  0.00    -0.191 NA
HETATM   20  C23 UNL     1       5.543  -6.841  -1.525  1.00  0.00     0.082 C 
HETATM   21  C22 UNL     1       6.267  -7.129  -0.192  1.00  0.00     0.024 C 
HETATM   22  C24 UNL     1       6.424  -5.942  -2.350  1.00  0.00     0.028 C 
HETATM   23  C21 UNL     1       5.201  -7.652   0.715  1.00  0.00     0.028 C 
BRANCH  19  24
HETATM   24  O1  UNL     1       6.298  -8.935  -2.026  1.00  0.00    -0.308 OA
HETATM   25  C1  UNL     1       5.978 -10.269  -2.208  1.00  0.00     0.229 C 
ENDBRANCH  19  24
ENDBRANCH  15  17
ENDBRANCH   1  15
BRANCH  13  26
HETATM   26  C14 UNL     1       2.836 -11.943   1.352  1.00  0.00     0.123 C 
BRANCH  26  27
HETATM   27  C15 UNL     1       2.471 -12.245  -0.111  1.00  0.00     0.050 C 
BRANCH  27  28
HETATM   28  C16 UNL     1       0.937 -12.235  -0.165  1.00  0.00     0.274 C 
BRANCH  28  29
HETATM   29  N6  UNL     1       0.356 -11.564  -1.235  1.00  0.00     0.092 N 
HETATM   30  C17 UNL     1      -0.748 -10.679  -0.953  1.00  0.00     0.298 C 
HETATM   31  C18 UNL     1      -0.200  -9.323  -0.476  1.00  0.00     0.198 C 
HETATM   32  O2  UNL     1       0.398  -8.720  -1.548  1.00  0.00    -0.388 OA
HETATM   33  C19 UNL     1       0.751  -9.574  -2.589  1.00  0.00     0.198 C 
HETATM   34  C20 UNL     1       1.295 -10.895  -2.115  1.00  0.00     0.298 C 
ENDBRANCH  28  29
ENDBRANCH  27  28
ENDBRANCH  26  27
ENDBRANCH  13  26
BRANCH   6  35
HETATM   35  C8  UNL     1      -0.517  -5.614   6.293  1.00  0.00     0.267 C 
HETATM   36  C9  UNL     1      -0.346  -4.379   5.390  1.00  0.00     0.096 C 
HETATM   37  F1  UNL     1       0.315  -5.429   7.403  1.00  0.00    -0.201 F 
HETATM   38  F2  UNL     1      -1.784  -5.696   6.720  1.00  0.00    -0.201 F 
ENDBRANCH   6  35
TORSDOF 8
ENDMDL
