MODEL 1
REMARK VINA RESULT: -6.380906210      0.000      0.000
REMARK  3 active torsions:
REMARK  status: ('A' for Active; 'I' for Inactive)
REMARK    1  A    between atoms: N1_2  and  N2_3 
REMARK    2  A    between atoms: C4_6  and  C5_7 
REMARK       I    between atoms: C5_7  and  N3_9 
REMARK    3  A    between atoms: N3_9  and  C6_11 
ROOT
HETATM    1  C5  UNL     1      -4.044   2.470  12.363  1.00  0.00     0.223 C 
HETATM    2  O1  UNL     1      -5.207   2.208  11.965  1.00  0.00    -0.273 OA
HETATM    3  N3  UNL     1      -3.809   2.406  13.768  1.00  0.00    -0.356 N 
ATOM      4  H3  UNL     1      -2.875   2.614  14.121  1.00  0.00     0.162 HD
ENDROOT
BRANCH   1   5
HETATM    5  C4  UNL     1      -3.017   2.818  11.382  1.00  0.00     0.093 C 
HETATM    6  C3  UNL     1      -1.908   3.669  11.982  1.00  0.00     0.031 C 
HETATM    7  C2  UNL     1      -0.618   3.185  11.370  1.00  0.00     0.110 C 
HETATM    8  N2  UNL     1      -0.989   2.178  10.406  1.00  0.00    -0.234 NA
HETATM    9  C13 UNL     1      -2.251   1.618  10.874  1.00  0.00     0.123 C 
BRANCH   8  10
HETATM   10  N1  UNL     1      -1.216   2.711   9.135  1.00  0.00    -0.170 NA
HETATM   11  C1  UNL     1      -0.133   3.582   8.705  1.00  0.00     0.152 C 
ENDBRANCH   8  10
ENDBRANCH   1   5
BRANCH   3  12
HETATM   12  C6  UNL     1      -4.853   2.056  14.709  1.00  0.00     0.084 C 
HETATM   13  C7  UNL     1      -5.437   3.377  15.202  1.00  0.00     0.025 C 
HETATM   14  C8  UNL     1      -6.760   3.124  15.877  1.00  0.00     0.002 C 
HETATM   15  C9  UNL     1      -6.438   2.386  17.183  1.00  0.00     0.000 C 
HETATM   16  C10 UNL     1      -6.513   0.894  16.862  1.00  0.00     0.000 C 
HETATM   17  C11 UNL     1      -5.191   0.313  16.494  1.00  0.00     0.002 C 
HETATM   18  C12 UNL     1      -4.249   1.290  15.839  1.00  0.00     0.025 C 
ENDBRANCH   3  12
TORSDOF 3
ENDMDL
MODEL 2
REMARK VINA RESULT: -6.155824738      1.429      1.559
REMARK  3 active torsions:
REMARK  status: ('A' for Active; 'I' for Inactive)
REMARK    1  A    between atoms: N1_2  and  N2_3 
REMARK    2  A    between atoms: C4_6  and  C5_7 
REMARK       I    between atoms: C5_7  and  N3_9 
REMARK    3  A    between atoms: N3_9  and  C6_11 
ROOT
HETATM    1  C5  UNL     1      -4.680   2.609  12.502  1.00  0.00     0.223 C 
HETATM    2  O1  UNL     1      -4.863   1.375  12.348  1.00  0.00    -0.273 OA
HETATM    3  N3  UNL     1      -4.954   3.151  13.792  1.00  0.00    -0.356 N 
ATOM      4  H3  UNL     1      -4.815   4.150  13.948  1.00  0.00     0.162 HD
ENDROOT
BRANCH   1   5
HETATM    5  C4  UNL     1      -4.206   3.405  11.370  1.00  0.00     0.093 C 
HETATM    6  C3  UNL     1      -3.139   4.410  11.776  1.00  0.00     0.031 C 
HETATM    7  C2  UNL     1      -2.122   4.428  10.663  1.00  0.00     0.110 C 
HETATM    8  N2  UNL     1      -2.636   3.550   9.641  1.00  0.00    -0.234 NA
HETATM    9  C13 UNL     1      -3.481   2.582  10.329  1.00  0.00     0.123 C 
BRANCH   8  10
HETATM   10  N1  UNL     1      -3.440   4.219   8.715  1.00  0.00    -0.170 NA
HETATM   11  C1  UNL     1      -2.655   4.986   7.761  1.00  0.00     0.152 C 
ENDBRANCH   8  10
ENDBRANCH   1   5
BRANCH   3  12
HETATM   12  C6  UNL     1      -5.422   2.329  14.890  1.00  0.00     0.084 C 
HETATM   13  C7  UNL     1      -6.285   3.238  15.759  1.00  0.00     0.025 C 
HETATM   14  C8  UNL     1      -7.117   2.400  16.697  1.00  0.00     0.002 C 
HETATM   15  C9  UNL     1      -6.137   1.792  17.707  1.00  0.00     0.000 C 
HETATM   16  C10 UNL     1      -5.723   0.434  17.140  1.00  0.00     0.000 C 
HETATM   17  C11 UNL     1      -4.470   0.502  16.336  1.00  0.00     0.002 C 
HETATM   18  C12 UNL     1      -4.243   1.827  15.655  1.00  0.00     0.025 C 
ENDBRANCH   3  12
TORSDOF 3
ENDMDL
MODEL 3
REMARK VINA RESULT: -5.926505448      3.646      6.676
REMARK  3 active torsions:
REMARK  status: ('A' for Active; 'I' for Inactive)
REMARK    1  A    between atoms: N1_2  and  N2_3 
REMARK    2  A    between atoms: C4_6  and  C5_7 
REMARK       I    between atoms: C5_7  and  N3_9 
REMARK    3  A    between atoms: N3_9  and  C6_11 
ROOT
HETATM    1  C5  UNL     1      -5.540   3.485  13.139  1.00  0.00     0.223 C 
HETATM    2  O1  UNL     1      -5.244   3.222  11.946  1.00  0.00    -0.273 OA
HETATM    3  N3  UNL     1      -5.879   4.837  13.441  1.00  0.00    -0.356 N 
ATOM      4  H3  UNL     1      -6.123   5.082  14.400  1.00  0.00     0.162 HD
ENDROOT
BRANCH   1   5
HETATM    5  C4  UNL     1      -5.520   2.411  14.131  1.00  0.00     0.093 C 
HETATM    6  C3  UNL     1      -4.116   1.886  14.387  1.00  0.00     0.031 C 
HETATM    7  C2  UNL     1      -4.021   1.621  15.869  1.00  0.00     0.110 C 
HETATM    8  N2  UNL     1      -5.332   1.893  16.405  1.00  0.00    -0.234 NA
HETATM    9  C13 UNL     1      -5.939   2.870  15.510  1.00  0.00     0.123 C 
BRANCH   8  10
HETATM   10  N1  UNL     1      -6.154   0.764  16.409  1.00  0.00    -0.170 NA
HETATM   11  C1  UNL     1      -7.464   1.041  16.977  1.00  0.00     0.152 C 
ENDBRANCH   8  10
ENDBRANCH   1   5
BRANCH   3  12
HETATM   12  C6  UNL     1      -5.887   5.874  12.429  1.00  0.00     0.084 C 
HETATM   13  C7  UNL     1      -4.544   6.589  12.546  1.00  0.00     0.025 C 
HETATM   14  C8  UNL     1      -4.302   7.415  11.309  1.00  0.00     0.002 C 
HETATM   15  C9  UNL     1      -5.309   8.570  11.365  1.00  0.00     0.000 C 
HETATM   16  C10 UNL     1      -6.544   8.100  10.597  1.00  0.00     0.000 C 
HETATM   17  C11 UNL     1      -7.574   7.484  11.481  1.00  0.00     0.002 C 
HETATM   18  C12 UNL     1      -7.014   6.813  12.708  1.00  0.00     0.025 C 
ENDBRANCH   3  12
TORSDOF 3
ENDMDL
MODEL 4
REMARK VINA RESULT: -5.847374176      1.855      2.454
REMARK  3 active torsions:
REMARK  status: ('A' for Active; 'I' for Inactive)
REMARK    1  A    between atoms: N1_2  and  N2_3 
REMARK    2  A    between atoms: C4_6  and  C5_7 
REMARK       I    between atoms: C5_7  and  N3_9 
REMARK    3  A    between atoms: N3_9  and  C6_11 
ROOT
HETATM    1  C5  UNL     1      -3.628   3.673  13.177  1.00  0.00     0.223 C 
HETATM    2  O1  UNL     1      -2.701   3.754  14.022  1.00  0.00    -0.273 OA
HETATM    3  N3  UNL     1      -4.852   3.084  13.610  1.00  0.00    -0.356 N 
ATOM      4  H3  UNL     1      -5.622   3.003  12.946  1.00  0.00     0.162 HD
ENDROOT
BRANCH   1   5
HETATM    5  C4  UNL     1      -3.402   4.176  11.823  1.00  0.00     0.093 C 
HETATM    6  C3  UNL     1      -1.956   4.013  11.379  1.00  0.00     0.031 C 
HETATM    7  C2  UNL     1      -1.996   3.611   9.926  1.00  0.00     0.110 C 
HETATM    8  N2  UNL     1      -3.388   3.638   9.546  1.00  0.00    -0.234 NA
HETATM    9  C13 UNL     1      -4.144   3.389  10.766  1.00  0.00     0.123 C 
BRANCH   8  10
HETATM   10  N1  UNL     1      -3.785   4.885   9.057  1.00  0.00    -0.170 NA
HETATM   11  C1  UNL     1      -3.031   5.276   7.876  1.00  0.00     0.152 C 
ENDBRANCH   8  10
ENDBRANCH   1   5
BRANCH   3  12
HETATM   12  C6  UNL     1      -5.038   2.596  14.961  1.00  0.00     0.084 C 
HETATM   13  C7  UNL     1      -4.536   1.156  14.963  1.00  0.00     0.025 C 
HETATM   14  C8  UNL     1      -4.331   0.694  16.383  1.00  0.00     0.002 C 
HETATM   15  C9  UNL     1      -5.730   0.567  16.997  1.00  0.00     0.000 C 
HETATM   16  C10 UNL     1      -6.031   1.911  17.661  1.00  0.00     0.000 C 
HETATM   17  C11 UNL     1      -6.773   2.845  16.768  1.00  0.00     0.002 C 
HETATM   18  C12 UNL     1      -6.491   2.652  15.301  1.00  0.00     0.025 C 
ENDBRANCH   3  12
TORSDOF 3
ENDMDL
MODEL 5
REMARK VINA RESULT: -5.816696923      3.974      5.841
REMARK  3 active torsions:
REMARK  status: ('A' for Active; 'I' for Inactive)
REMARK    1  A    between atoms: N1_2  and  N2_3 
REMARK    2  A    between atoms: C4_6  and  C5_7 
REMARK       I    between atoms: C5_7  and  N3_9 
REMARK    3  A    between atoms: N3_9  and  C6_11 
ROOT
HETATM    1  C5  UNL     1      -4.212   3.827  10.763  1.00  0.00     0.223 C 
HETATM    2  O1  UNL     1      -4.238   4.087   9.534  1.00  0.00    -0.273 OA
HETATM    3  N3  UNL     1      -4.632   4.859  11.654  1.00  0.00    -0.356 N 
ATOM      4  H3  UNL     1      -4.622   4.678  12.658  1.00  0.00     0.162 HD
ENDROOT
BRANCH   1   5
HETATM    5  C4  UNL     1      -3.761   2.508  11.203  1.00  0.00     0.093 C 
HETATM    6  C3  UNL     1      -3.666   2.404  12.717  1.00  0.00     0.031 C 
HETATM    7  C2  UNL     1      -4.159   1.026  13.084  1.00  0.00     0.110 C 
HETATM    8  N2  UNL     1      -4.429   0.356  11.835  1.00  0.00    -0.234 NA
HETATM    9  C13 UNL     1      -4.743   1.406  10.874  1.00  0.00     0.123 C 
BRANCH   8  10
HETATM   10  N1  UNL     1      -3.318  -0.335  11.348  1.00  0.00    -0.170 NA
HETATM   11  C1  UNL     1      -3.491  -1.777  11.427  1.00  0.00     0.152 C 
ENDBRANCH   8  10
ENDBRANCH   1   5
BRANCH   3  12
HETATM   12  C6  UNL     1      -5.073   6.155  11.180  1.00  0.00     0.084 C 
HETATM   13  C7  UNL     1      -3.821   7.022  11.095  1.00  0.00     0.025 C 
HETATM   14  C8  UNL     1      -4.108   8.245  10.262  1.00  0.00     0.002 C 
HETATM   15  C9  UNL     1      -5.066   9.110  11.091  1.00  0.00     0.000 C 
HETATM   16  C10 UNL     1      -6.479   8.706  10.672  1.00  0.00     0.000 C 
HETATM   17  C11 UNL     1      -7.063   7.652  11.548  1.00  0.00     0.002 C 
HETATM   18  C12 UNL     1      -6.047   6.723  12.159  1.00  0.00     0.025 C 
ENDBRANCH   3  12
TORSDOF 3
ENDMDL
