MODEL 1
REMARK VINA RESULT: -5.332634340      0.000      0.000
REMARK  3 active torsions:
REMARK  status: ('A' for Active; 'I' for Inactive)
REMARK    1  A    between atoms: O1_2  and  C2_3 
REMARK    2  A    between atoms: C5_9  and  C6_10 
REMARK    3  A    between atoms: C7_11  and  C8_12 
ROOT
HETATM    1  C2  UNL     1       0.827  14.796  35.617  1.00  0.00     0.122 A 
HETATM    2  C3  UNL     1       1.462  15.944  35.193  1.00  0.00     0.147 A 
HETATM    3  N1  UNL     1       1.749  15.744  33.900  1.00  0.00    -0.306 N 
ATOM      4  H1  UNL     1       2.223  16.415  33.295  1.00  0.00     0.186 HD
HETATM    5  N2  UNL     1       1.322  14.538  33.521  1.00  0.00    -0.286 N 
HETATM    6  C4  UNL     1       1.433  13.922  32.198  1.00  0.00     0.179 C 
HETATM    7  C5  UNL     1       0.737  13.902  34.557  1.00  0.00     0.139 A 
ENDROOT
BRANCH   7   8
HETATM    8  C6  UNL     1       0.144  12.584  34.576  1.00  0.00    -0.038 C 
HETATM    9  C7  UNL     1      -0.334  11.475  34.601  1.00  0.00    -0.055 C 
BRANCH   9  10
HETATM   10  C8  UNL     1      -0.880  10.145  34.632  1.00  0.00     0.146 C 
HETATM   11  N3  UNL     1      -1.503   9.762  35.692  1.00  0.00    -0.401 N 
ATOM     12  H32 UNL     1      -1.598  10.399  36.482  1.00  0.00     0.156 HD
ATOM     13  H31 UNL     1      -1.889   8.818  35.714  1.00  0.00     0.156 HD
ENDBRANCH   9  10
ENDBRANCH   7   8
BRANCH   1  14
HETATM   14  O1  UNL     1       0.326  14.498  36.881  1.00  0.00    -0.352 OA
HETATM   15  C1  UNL     1       1.180  14.295  37.990  1.00  0.00     0.210 C 
ENDBRANCH   1  14
TORSDOF 3
ENDMDL
MODEL 2
REMARK VINA RESULT: -5.051163863      3.354      4.719
REMARK  3 active torsions:
REMARK  status: ('A' for Active; 'I' for Inactive)
REMARK    1  A    between atoms: O1_2  and  C2_3 
REMARK    2  A    between atoms: C5_9  and  C6_10 
REMARK    3  A    between atoms: C7_11  and  C8_12 
ROOT
HETATM    1  C2  UNL     1      -0.187  10.948  33.705  1.00  0.00     0.122 A 
HETATM    2  C3  UNL     1      -0.033  10.737  32.350  1.00  0.00     0.147 A 
HETATM    3  N1  UNL     1       0.563   9.543  32.234  1.00  0.00    -0.306 N 
ATOM      4  H1  UNL     1       0.815   9.098  31.351  1.00  0.00     0.186 HD
HETATM    5  N2  UNL     1       0.778   9.022  33.443  1.00  0.00    -0.286 N 
HETATM    6  C4  UNL     1       1.402   7.739  33.770  1.00  0.00     0.179 C 
HETATM    7  C5  UNL     1       0.327   9.859  34.400  1.00  0.00     0.139 A 
ENDROOT
BRANCH   7   8
HETATM    8  C6  UNL     1       0.364   9.680  35.835  1.00  0.00    -0.038 C 
HETATM    9  C7  UNL     1       0.390   9.551  37.035  1.00  0.00    -0.055 C 
BRANCH   9  10
HETATM   10  C8  UNL     1       0.426   9.422  38.467  1.00  0.00     0.146 C 
HETATM   11  N3  UNL     1      -0.007  10.402  39.182  1.00  0.00    -0.401 N 
ATOM     12  H32 UNL     1      -0.363  11.242  38.728  1.00  0.00     0.156 HD
ATOM     13  H31 UNL     1       0.019  10.310  40.198  1.00  0.00     0.156 HD
ENDBRANCH   9  10
ENDBRANCH   7   8
BRANCH   1  14
HETATM   14  O1  UNL     1      -0.753  12.041  34.354  1.00  0.00    -0.352 OA
HETATM   15  C1  UNL     1      -0.018  13.226  34.593  1.00  0.00     0.210 C 
ENDBRANCH   1  14
TORSDOF 3
ENDMDL
MODEL 3
REMARK VINA RESULT: -5.029801898      3.443      5.132
REMARK  3 active torsions:
REMARK  status: ('A' for Active; 'I' for Inactive)
REMARK    1  A    between atoms: O1_2  and  C2_3 
REMARK    2  A    between atoms: C5_9  and  C6_10 
REMARK    3  A    between atoms: C7_11  and  C8_12 
ROOT
HETATM    1  C2  UNL     1       0.155  11.660  33.295  1.00  0.00     0.122 A 
HETATM    2  C3  UNL     1      -0.409  12.089  34.479  1.00  0.00     0.147 A 
HETATM    3  N1  UNL     1      -0.743  10.977  35.146  1.00  0.00    -0.306 N 
ATOM      4  H1  UNL     1      -1.185  10.956  36.066  1.00  0.00     0.186 HD
HETATM    5  N2  UNL     1      -0.412   9.900  34.431  1.00  0.00    -0.286 N 
HETATM    6  C4  UNL     1      -0.600   8.493  34.787  1.00  0.00     0.179 C 
HETATM    7  C5  UNL     1       0.154  10.270  33.264  1.00  0.00     0.139 A 
ENDROOT
BRANCH   7   8
HETATM    8  C6  UNL     1       0.653   9.422  32.204  1.00  0.00    -0.038 C 
HETATM    9  C7  UNL     1       1.055   8.701  31.323  1.00  0.00    -0.055 C 
BRANCH   9  10
HETATM   10  C8  UNL     1       1.519   7.823  30.283  1.00  0.00     0.146 C 
HETATM   11  N3  UNL     1       1.924   6.645  30.610  1.00  0.00    -0.401 N 
ATOM     12  H32 UNL     1       1.910   6.357  31.588  1.00  0.00     0.156 HD
ATOM     13  H31 UNL     1       2.254   6.022  29.872  1.00  0.00     0.156 HD
ENDBRANCH   9  10
ENDBRANCH   7   8
BRANCH   1  14
HETATM   14  O1  UNL     1       0.667  12.424  32.251  1.00  0.00    -0.352 OA
HETATM   15  C1  UNL     1       1.374  13.626  32.488  1.00  0.00     0.210 C 
ENDBRANCH   1  14
TORSDOF 3
ENDMDL
MODEL 4
REMARK VINA RESULT: -5.013384270      2.912      5.586
REMARK  3 active torsions:
REMARK  status: ('A' for Active; 'I' for Inactive)
REMARK    1  A    between atoms: O1_2  and  C2_3 
REMARK    2  A    between atoms: C5_9  and  C6_10 
REMARK    3  A    between atoms: C7_11  and  C8_12 
ROOT
HETATM    1  C2  UNL     1       0.079   9.074  34.545  1.00  0.00     0.122 A 
HETATM    2  C3  UNL     1      -0.059   7.710  34.387  1.00  0.00     0.147 A 
HETATM    3  N1  UNL     1       0.292   7.454  33.121  1.00  0.00    -0.306 N 
ATOM      4  H1  UNL     1       0.297   6.529  32.691  1.00  0.00     0.186 HD
HETATM    5  N2  UNL     1       0.634   8.587  32.505  1.00  0.00    -0.286 N 
HETATM    6  C4  UNL     1       1.079   8.757  31.121  1.00  0.00     0.179 C 
HETATM    7  C5  UNL     1       0.520   9.632  33.350  1.00  0.00     0.139 A 
ENDROOT
BRANCH   7   8
HETATM    8  C6  UNL     1       0.790  11.028  33.088  1.00  0.00    -0.038 C 
HETATM    9  C7  UNL     1       1.032  12.193  32.883  1.00  0.00    -0.055 C 
BRANCH   9  10
HETATM   10  C8  UNL     1       1.332  13.581  32.660  1.00  0.00     0.146 C 
HETATM   11  N3  UNL     1       1.571  14.329  33.681  1.00  0.00    -0.401 N 
ATOM     12  H32 UNL     1       1.542  13.930  34.619  1.00  0.00     0.156 HD
ATOM     13  H31 UNL     1       1.784  15.314  33.523  1.00  0.00     0.156 HD
ENDBRANCH   9  10
ENDBRANCH   7   8
BRANCH   1  14
HETATM   14  O1  UNL     1      -0.160   9.845  35.679  1.00  0.00    -0.352 OA
HETATM   15  C1  UNL     1       0.410   9.520  36.932  1.00  0.00     0.210 C 
ENDBRANCH   1  14
TORSDOF 3
ENDMDL
MODEL 5
REMARK VINA RESULT: -4.990116137      3.327      6.585
REMARK  3 active torsions:
REMARK  status: ('A' for Active; 'I' for Inactive)
REMARK    1  A    between atoms: O1_2  and  C2_3 
REMARK    2  A    between atoms: C5_9  and  C6_10 
REMARK    3  A    between atoms: C7_11  and  C8_12 
ROOT
HETATM    1  C2  UNL     1       0.771   8.305  32.931  1.00  0.00     0.122 A 
HETATM    2  C3  UNL     1       0.477   7.064  33.456  1.00  0.00     0.147 A 
HETATM    3  N1  UNL     1      -0.336   7.292  34.495  1.00  0.00    -0.306 N 
ATOM      4  H1  UNL     1      -0.733   6.571  35.097  1.00  0.00     0.186 HD
HETATM    5  N2  UNL     1      -0.549   8.603  34.627  1.00  0.00    -0.286 N 
HETATM    6  C4  UNL     1      -1.373   9.282  35.628  1.00  0.00     0.179 C 
HETATM    7  C5  UNL     1       0.119   9.283  33.673  1.00  0.00     0.139 A 
ENDROOT
BRANCH   7   8
HETATM    8  C6  UNL     1       0.160  10.712  33.457  1.00  0.00    -0.038 C 
HETATM    9  C7  UNL     1       0.215  11.905  33.273  1.00  0.00    -0.055 C 
BRANCH   9  10
HETATM   10  C8  UNL     1       0.306  13.324  33.059  1.00  0.00     0.146 C 
HETATM   11  N3  UNL     1       1.473  13.867  33.033  1.00  0.00    -0.401 N 
ATOM     12  H32 UNL     1       2.304  13.291  33.163  1.00  0.00     0.156 HD
ATOM     13  H31 UNL     1       1.537  14.874  32.881  1.00  0.00     0.156 HD
ENDBRANCH   9  10
ENDBRANCH   7   8
BRANCH   1  14
HETATM   14  O1  UNL     1       1.577   8.617  31.840  1.00  0.00    -0.352 OA
HETATM   15  C1  UNL     1       1.260   8.176  30.533  1.00  0.00     0.210 C 
ENDBRANCH   1  14
TORSDOF 3
ENDMDL
