MODEL 1
REMARK VINA RESULT: -5.742126280      0.000      0.000
REMARK  5 active torsions:
REMARK  status: ('A' for Active; 'I' for Inactive)
REMARK    1  A    between atoms: C4_4  and  C5_5 
REMARK    2  A    between atoms: C5_5  and  C6_6 
REMARK    3  A    between atoms: C7_7  and  C8_8 
REMARK    4  A    between atoms: C9_9  and  C10_10 
REMARK    5  A    between atoms: C10_10  and  N1_11 
ROOT
HETATM    1  C1  UNL     1       1.356  16.050  34.982  1.00  0.00     0.027 C 
HETATM    2  C2  UNL     1       1.040  15.025  34.427  1.00  0.00    -0.026 C 
HETATM    3  C3  UNL     1       0.680  13.811  33.801  1.00  0.00    -0.015 C 
HETATM    4  C4  UNL     1       0.377  12.764  33.284  1.00  0.00    -0.080 C 
ENDROOT
BRANCH   4   5
HETATM    5  C5  UNL     1       0.010  11.464  32.671  1.00  0.00     0.189 C 
BRANCH   5   6
HETATM    6  C6  UNL     1      -0.541  10.655  33.787  1.00  0.00    -0.080 C 
HETATM    7  C7  UNL     1      -0.998  10.013  34.701  1.00  0.00    -0.014 C 
BRANCH   7   8
HETATM    8  C8  UNL     1      -1.547   9.278  35.777  1.00  0.00    -0.013 C 
HETATM    9  C9  UNL     1      -2.018   8.669  36.701  1.00  0.00    -0.062 C 
BRANCH   9  10
HETATM   10  C10 UNL     1      -2.585   7.943  37.844  1.00  0.00     0.365 C 
BRANCH  10  11
HETATM   11  N1  UNL     1      -1.708   7.991  38.967  1.00  0.00     0.090 N 
HETATM   12  C11 UNL     1      -1.622   9.273  39.596  1.00  0.00     0.310 C 
HETATM   13  C12 UNL     1      -1.871   6.948  39.932  1.00  0.00     0.310 C 
ENDBRANCH  10  11
ENDBRANCH   9  10
ENDBRANCH   7   8
ENDBRANCH   5   6
ENDBRANCH   4   5
TORSDOF 5
ENDMDL
MODEL 2
REMARK VINA RESULT: -5.577945045      0.759      1.253
REMARK  5 active torsions:
REMARK  status: ('A' for Active; 'I' for Inactive)
REMARK    1  A    between atoms: C4_4  and  C5_5 
REMARK    2  A    between atoms: C5_5  and  C6_6 
REMARK    3  A    between atoms: C7_7  and  C8_8 
REMARK    4  A    between atoms: C9_9  and  C10_10 
REMARK    5  A    between atoms: C10_10  and  N1_11 
ROOT
HETATM    1  C1  UNL     1       1.061  15.510  34.345  1.00  0.00     0.027 C 
HETATM    2  C2  UNL     1       0.789  14.377  34.030  1.00  0.00    -0.026 C 
HETATM    3  C3  UNL     1       0.491  13.041  33.680  1.00  0.00    -0.015 C 
HETATM    4  C4  UNL     1       0.250  11.893  33.395  1.00  0.00    -0.080 C 
ENDROOT
BRANCH   4   5
HETATM    5  C5  UNL     1      -0.029  10.475  33.064  1.00  0.00     0.189 C 
BRANCH   5   6
HETATM    6  C6  UNL     1      -0.654   9.910  34.287  1.00  0.00    -0.080 C 
HETATM    7  C7  UNL     1      -1.163   9.469  35.288  1.00  0.00    -0.014 C 
BRANCH   7   8
HETATM    8  C8  UNL     1      -1.766   8.974  36.467  1.00  0.00    -0.013 C 
HETATM    9  C9  UNL     1      -2.277   8.569  37.479  1.00  0.00    -0.062 C 
BRANCH   9  10
HETATM   10  C10 UNL     1      -2.885   8.090  38.725  1.00  0.00     0.365 C 
BRANCH  10  11
HETATM   11  N1  UNL     1      -2.055   8.385  39.847  1.00  0.00     0.090 N 
HETATM   12  C11 UNL     1      -0.945   7.497  40.010  1.00  0.00     0.310 C 
HETATM   13  C12 UNL     1      -1.655   9.751  39.986  1.00  0.00     0.310 C 
ENDBRANCH  10  11
ENDBRANCH   9  10
ENDBRANCH   7   8
ENDBRANCH   5   6
ENDBRANCH   4   5
TORSDOF 5
ENDMDL
MODEL 3
REMARK VINA RESULT: -5.491374298      4.639      6.032
REMARK  5 active torsions:
REMARK  status: ('A' for Active; 'I' for Inactive)
REMARK    1  A    between atoms: C4_4  and  C5_5 
REMARK    2  A    between atoms: C5_5  and  C6_6 
REMARK    3  A    between atoms: C7_7  and  C8_8 
REMARK    4  A    between atoms: C9_9  and  C10_10 
REMARK    5  A    between atoms: C10_10  and  N1_11 
ROOT
HETATM    1  C1  UNL     1       2.159  16.139  35.099  1.00  0.00     0.027 C 
HETATM    2  C2  UNL     1       1.393  15.257  34.794  1.00  0.00    -0.026 C 
HETATM    3  C3  UNL     1       0.483  14.228  34.462  1.00  0.00    -0.015 C 
HETATM    4  C4  UNL     1      -0.305  13.354  34.195  1.00  0.00    -0.080 C 
ENDROOT
BRANCH   4   5
HETATM    5  C5  UNL     1      -1.288  12.286  33.889  1.00  0.00     0.189 C 
BRANCH   5   6
HETATM    6  C6  UNL     1      -0.524  11.269  33.124  1.00  0.00    -0.080 C 
HETATM    7  C7  UNL     1       0.083  10.430  32.504  1.00  0.00    -0.014 C 
BRANCH   7   8
HETATM    8  C8  UNL     1       0.774   9.435  31.775  1.00  0.00    -0.013 C 
HETATM    9  C9  UNL     1       1.346   8.578  31.153  1.00  0.00    -0.062 C 
BRANCH   9  10
HETATM   10  C10 UNL     1       2.028   7.517  30.403  1.00  0.00     0.365 C 
BRANCH  10  11
HETATM   11  N1  UNL     1       1.087   6.645  29.780  1.00  0.00     0.090 N 
HETATM   12  C11 UNL     1       0.270   5.906  30.693  1.00  0.00     0.310 C 
HETATM   13  C12 UNL     1       0.305   7.217  28.728  1.00  0.00     0.310 C 
ENDBRANCH  10  11
ENDBRANCH   9  10
ENDBRANCH   7   8
ENDBRANCH   5   6
ENDBRANCH   4   5
TORSDOF 5
ENDMDL
MODEL 4
REMARK VINA RESULT: -5.490263641      4.729      6.486
REMARK  5 active torsions:
REMARK  status: ('A' for Active; 'I' for Inactive)
REMARK    1  A    between atoms: C4_4  and  C5_5 
REMARK    2  A    between atoms: C5_5  and  C6_6 
REMARK    3  A    between atoms: C7_7  and  C8_8 
REMARK    4  A    between atoms: C9_9  and  C10_10 
REMARK    5  A    between atoms: C10_10  and  N1_11 
ROOT
HETATM    1  C1  UNL     1       2.110  16.117  35.110  1.00  0.00     0.027 C 
HETATM    2  C2  UNL     1       1.367  15.207  34.832  1.00  0.00    -0.026 C 
HETATM    3  C3  UNL     1       0.476  14.157  34.516  1.00  0.00    -0.015 C 
HETATM    4  C4  UNL     1      -0.301  13.273  34.252  1.00  0.00    -0.080 C 
ENDROOT
BRANCH   4   5
HETATM    5  C5  UNL     1      -1.276  12.201  33.933  1.00  0.00     0.189 C 
BRANCH   5   6
HETATM    6  C6  UNL     1      -0.507  11.202  33.149  1.00  0.00    -0.080 C 
HETATM    7  C7  UNL     1       0.103  10.379  32.510  1.00  0.00    -0.014 C 
BRANCH   7   8
HETATM    8  C8  UNL     1       0.798   9.405  31.757  1.00  0.00    -0.013 C 
HETATM    9  C9  UNL     1       1.374   8.564  31.118  1.00  0.00    -0.062 C 
BRANCH   9  10
HETATM   10  C10 UNL     1       2.066   7.521  30.352  1.00  0.00     0.365 C 
BRANCH  10  11
HETATM   11  N1  UNL     1       1.561   7.445  29.020  1.00  0.00     0.090 N 
HETATM   12  C11 UNL     1       2.400   6.728  28.110  1.00  0.00     0.310 C 
HETATM   13  C12 UNL     1       0.193   7.047  28.892  1.00  0.00     0.310 C 
ENDBRANCH  10  11
ENDBRANCH   9  10
ENDBRANCH   7   8
ENDBRANCH   5   6
ENDBRANCH   4   5
TORSDOF 5
ENDMDL
MODEL 5
REMARK VINA RESULT: -5.439888343      4.730      5.608
REMARK  5 active torsions:
REMARK  status: ('A' for Active; 'I' for Inactive)
REMARK    1  A    between atoms: C4_4  and  C5_5 
REMARK    2  A    between atoms: C5_5  and  C6_6 
REMARK    3  A    between atoms: C7_7  and  C8_8 
REMARK    4  A    between atoms: C9_9  and  C10_10 
REMARK    5  A    between atoms: C10_10  and  N1_11 
ROOT
HETATM    1  C1  UNL     1       0.684  14.966  37.712  1.00  0.00     0.027 C 
HETATM    2  C2  UNL     1       0.813  14.745  36.533  1.00  0.00    -0.026 C 
HETATM    3  C3  UNL     1       0.981  14.464  35.158  1.00  0.00    -0.015 C 
HETATM    4  C4  UNL     1       1.136  14.207  33.990  1.00  0.00    -0.080 C 
ENDROOT
BRANCH   4   5
HETATM    5  C5  UNL     1       1.341  13.871  32.560  1.00  0.00     0.189 C 
BRANCH   5   6
HETATM    6  C6  UNL     1       1.231  12.392  32.494  1.00  0.00    -0.080 C 
HETATM    7  C7  UNL     1       1.123  11.191  32.441  1.00  0.00    -0.014 C 
BRANCH   7   8
HETATM    8  C8  UNL     1       0.974   9.786  32.375  1.00  0.00    -0.013 C 
HETATM    9  C9  UNL     1       0.863   8.590  32.308  1.00  0.00    -0.062 C 
BRANCH   9  10
HETATM   10  C10 UNL     1       0.738   7.131  32.205  1.00  0.00     0.365 C 
BRANCH  10  11
HETATM   11  N1  UNL     1       0.652   6.720  30.842  1.00  0.00     0.090 N 
HETATM   12  C11 UNL     1       1.882   6.815  30.117  1.00  0.00     0.310 C 
HETATM   13  C12 UNL     1       0.004   5.468  30.606  1.00  0.00     0.310 C 
ENDBRANCH  10  11
ENDBRANCH   9  10
ENDBRANCH   7   8
ENDBRANCH   5   6
ENDBRANCH   4   5
TORSDOF 5
ENDMDL
