MODEL 1
REMARK VINA RESULT: -4.893182931      0.000      0.000
REMARK  2 active torsions:
REMARK  status: ('A' for Active; 'I' for Inactive)
REMARK    1  A    between atoms: S1_2  and  C2_3 
REMARK    2  A    between atoms: C2_3  and  C3_4 
ROOT
HETATM    1  C3  UNL     1      -7.330  37.126  23.287  1.00  0.00     0.167 C 
HETATM    2  O1  UNL     1      -8.346  36.498  22.577  1.00  0.00    -0.349 OA
HETATM    3  C4  UNL     1      -9.523  36.684  23.308  1.00  0.00     0.307 C 
HETATM    4  O2  UNL     1      -9.338  36.085  24.537  1.00  0.00    -0.207 OA
HETATM    5  O3  UNL     1      -8.516  36.815  25.241  1.00  0.00    -0.229 OA
HETATM    6  C5  UNL     1      -8.039  37.826  24.406  1.00  0.00     0.203 C 
HETATM    7  C6  UNL     1      -9.355  38.149  23.704  1.00  0.00     0.037 C 
HETATM    8  C7  UNL     1     -10.361  38.590  24.722  1.00  0.00     0.023 C 
HETATM    9  C8  UNL     1      -9.197  39.065  22.544  1.00  0.00     0.023 C 
ENDROOT
BRANCH   1  10
HETATM   10  C2  UNL     1      -6.360  36.163  23.915  1.00  0.00     0.108 C 
BRANCH  10  11
HETATM   11  S1  UNL     1      -4.645  36.478  23.485  1.00  0.00    -0.171 SA
HETATM   12  C1  UNL     1      -4.606  37.355  21.902  1.00  0.00     0.089 C 
ENDBRANCH  10  11
ENDBRANCH   1  10
TORSDOF 2
ENDMDL
MODEL 2
REMARK VINA RESULT: -4.623370756      3.012      4.118
REMARK  2 active torsions:
REMARK  status: ('A' for Active; 'I' for Inactive)
REMARK    1  A    between atoms: S1_2  and  C2_3 
REMARK    2  A    between atoms: C2_3  and  C3_4 
ROOT
HETATM    1  C3  UNL     1      -9.161  38.790  21.961  1.00  0.00     0.167 C 
HETATM    2  O1  UNL     1      -9.956  38.727  20.822  1.00  0.00    -0.349 OA
HETATM    3  C4  UNL     1     -10.544  39.987  20.672  1.00  0.00     0.307 C 
HETATM    4  O2  UNL     1     -11.311  40.214  21.796  1.00  0.00    -0.207 OA
HETATM    5  O3  UNL     1     -10.517  40.455  22.804  1.00  0.00    -0.229 OA
HETATM    6  C5  UNL     1      -9.212  40.232  22.368  1.00  0.00     0.203 C 
HETATM    7  C6  UNL     1      -9.344  40.875  20.990  1.00  0.00     0.037 C 
HETATM    8  C7  UNL     1      -9.721  42.315  21.153  1.00  0.00     0.023 C 
HETATM    9  C8  UNL     1      -8.173  40.632  20.108  1.00  0.00     0.023 C 
ENDROOT
BRANCH   1  10
HETATM   10  C2  UNL     1      -9.706  37.990  23.112  1.00  0.00     0.108 C 
BRANCH  10  11
HETATM   11  S1  UNL     1      -8.747  36.519  23.490  1.00  0.00    -0.171 SA
HETATM   12  C1  UNL     1      -7.776  36.839  24.984  1.00  0.00     0.089 C 
ENDBRANCH  10  11
ENDBRANCH   1  10
TORSDOF 2
ENDMDL
MODEL 3
REMARK VINA RESULT: -4.502042297      4.978      6.099
REMARK  2 active torsions:
REMARK  status: ('A' for Active; 'I' for Inactive)
REMARK    1  A    between atoms: S1_2  and  C2_3 
REMARK    2  A    between atoms: C2_3  and  C3_4 
ROOT
HETATM    1  C3  UNL     1     -11.270  40.525  22.695  1.00  0.00     0.167 C 
HETATM    2  O1  UNL     1     -11.725  40.695  21.393  1.00  0.00    -0.349 OA
HETATM    3  C4  UNL     1     -10.614  41.048  20.621  1.00  0.00     0.307 C 
HETATM    4  O2  UNL     1     -10.126  42.233  21.131  1.00  0.00    -0.207 OA
HETATM    5  O3  UNL     1      -9.540  41.990  22.272  1.00  0.00    -0.229 OA
HETATM    6  C5  UNL     1      -9.781  40.653  22.586  1.00  0.00     0.203 C 
HETATM    7  C6  UNL     1      -9.582  40.076  21.187  1.00  0.00     0.037 C 
HETATM    8  C7  UNL     1      -8.191  40.377  20.722  1.00  0.00     0.023 C 
HETATM    9  C8  UNL     1      -9.984  38.649  21.073  1.00  0.00     0.023 C 
ENDROOT
BRANCH   1  10
HETATM   10  C2  UNL     1     -11.736  41.603  23.634  1.00  0.00     0.108 C 
BRANCH  10  11
HETATM   11  S1  UNL     1     -12.819  41.009  24.938  1.00  0.00    -0.171 SA
HETATM   12  C1  UNL     1     -11.952  39.709  25.852  1.00  0.00     0.089 C 
ENDBRANCH  10  11
ENDBRANCH   1  10
TORSDOF 2
ENDMDL
MODEL 4
REMARK VINA RESULT: -4.435408071      3.581      4.936
REMARK  2 active torsions:
REMARK  status: ('A' for Active; 'I' for Inactive)
REMARK    1  A    between atoms: S1_2  and  C2_3 
REMARK    2  A    between atoms: C2_3  and  C3_4 
ROOT
HETATM    1  C3  UNL     1      -9.737  39.826  22.977  1.00  0.00     0.167 C 
HETATM    2  O1  UNL     1     -10.108  38.981  21.937  1.00  0.00    -0.349 OA
HETATM    3  C4  UNL     1     -10.439  39.800  20.853  1.00  0.00     0.307 C 
HETATM    4  O2  UNL     1     -11.499  40.589  21.249  1.00  0.00    -0.207 OA
HETATM    5  O3  UNL     1     -11.062  41.490  22.086  1.00  0.00    -0.229 OA
HETATM    6  C5  UNL     1      -9.728  41.191  22.360  1.00  0.00     0.203 C 
HETATM    7  C6  UNL     1      -9.307  40.820  20.940  1.00  0.00     0.037 C 
HETATM    8  C7  UNL     1      -9.521  41.996  20.039  1.00  0.00     0.023 C 
HETATM    9  C8  UNL     1      -7.952  40.214  20.864  1.00  0.00     0.023 C 
ENDROOT
BRANCH   1  10
HETATM   10  C2  UNL     1     -10.734  39.859  24.102  1.00  0.00     0.108 C 
BRANCH  10  11
HETATM   11  S1  UNL     1     -10.072  39.302  25.675  1.00  0.00    -0.171 SA
HETATM   12  C1  UNL     1      -8.896  37.963  25.357  1.00  0.00     0.089 C 
ENDBRANCH  10  11
ENDBRANCH   1  10
TORSDOF 2
ENDMDL
MODEL 5
REMARK VINA RESULT: -4.429456664      2.691      4.590
REMARK  2 active torsions:
REMARK  status: ('A' for Active; 'I' for Inactive)
REMARK    1  A    between atoms: S1_2  and  C2_3 
REMARK    2  A    between atoms: C2_3  and  C3_4 
ROOT
HETATM    1  C3  UNL     1      -9.519  38.155  24.732  1.00  0.00     0.167 C 
HETATM    2  O1  UNL     1      -9.828  36.807  24.587  1.00  0.00    -0.349 OA
HETATM    3  C4  UNL     1      -9.125  36.351  23.468  1.00  0.00     0.307 C 
HETATM    4  O2  UNL     1      -9.571  37.078  22.384  1.00  0.00    -0.207 OA
HETATM    5  O3  UNL     1      -9.098  38.292  22.468  1.00  0.00    -0.229 OA
HETATM    6  C5  UNL     1      -8.458  38.403  23.702  1.00  0.00     0.203 C 
HETATM    7  C6  UNL     1      -7.781  37.035  23.706  1.00  0.00     0.037 C 
HETATM    8  C7  UNL     1      -6.867  36.935  22.525  1.00  0.00     0.023 C 
HETATM    9  C8  UNL     1      -7.159  36.687  25.010  1.00  0.00     0.023 C 
ENDROOT
BRANCH   1  10
HETATM   10  C2  UNL     1     -10.669  39.068  24.407  1.00  0.00     0.108 C 
BRANCH  10  11
HETATM   11  S1  UNL     1     -11.517  39.708  25.854  1.00  0.00    -0.171 SA
HETATM   12  C1  UNL     1     -12.870  40.774  25.298  1.00  0.00     0.089 C 
ENDBRANCH  10  11
ENDBRANCH   1  10
TORSDOF 2
ENDMDL
