MODEL 1
REMARK VINA RESULT: -7.371108973      0.000      0.000
REMARK  6 active torsions:
REMARK  status: ('A' for Active; 'I' for Inactive)
REMARK    1  A    between atoms: C2_2  and  O1_3 
REMARK    2  A    between atoms: O1_3  and  C3_4 
REMARK    3  A    between atoms: C3_4  and  C4_6 
REMARK    4  A    between atoms: C9_12  and  C10_13 
REMARK    5  A    between atoms: C12_17  and  C13_18 
REMARK    6  A    between atoms: C17_23  and  N2_24 
ROOT
HETATM    1  C4  UNL     1     -29.803  -3.598  -1.496  1.00  0.00     0.248 C 
HETATM    2  C5  UNL     1     -28.754  -2.723  -0.892  1.00  0.00     0.214 C 
HETATM    3  O3  UNL     1     -29.165  -2.554   0.433  1.00  0.00    -0.350 OA
HETATM    4  C6  UNL     1     -30.548  -2.732   0.426  1.00  0.00     0.193 C 
HETATM    5  C7  UNL     1     -30.951  -3.199   1.793  1.00  0.00     0.071 C 
HETATM    6  C8  UNL     1     -32.431  -3.202   2.029  1.00  0.00     0.017 C 
HETATM    7  C9  UNL     1     -33.127  -1.984   1.474  1.00  0.00     0.047 C 
HETATM    8  C16 UNL     1     -32.767  -1.820   0.037  1.00  0.00     0.049 C 
HETATM    9  C17 UNL     1     -31.288  -1.497  -0.018  1.00  0.00     0.246 C 
HETATM   10  O5  UNL     1     -30.762  -3.737  -0.501  1.00  0.00    -0.336 OA
ENDROOT
BRANCH   9  11
HETATM   11  N2  UNL     1     -30.997  -0.339   0.773  1.00  0.00    -0.070 N 
ATOM     12  H23 UNL     1     -31.007  -0.570   1.767  1.00  0.00     0.274 HD
ATOM     13  H22 UNL     1     -30.019  -0.068   0.671  1.00  0.00     0.274 HD
ATOM     14  H21 UNL     1     -31.612   0.452   0.580  1.00  0.00     0.274 HD
ENDBRANCH   9  11
BRANCH   1  15
HETATM   15  C3  UNL     1     -29.236  -4.950  -1.774  1.00  0.00     0.290 C 
HETATM   16  O2  UNL     1     -29.709  -5.991  -1.227  1.00  0.00    -0.262 OA
BRANCH  15  17
HETATM   17  O1  UNL     1     -28.167  -5.012  -2.658  1.00  0.00    -0.320 OA
BRANCH  17  18
HETATM   18  C2  UNL     1     -26.942  -5.581  -2.196  1.00  0.00     0.174 C 
HETATM   19  C1  UNL     1     -25.899  -4.490  -2.165  1.00  0.00     0.034 C 
ENDBRANCH  17  18
ENDBRANCH  15  17
ENDBRANCH   1  15
BRANCH   7  20
HETATM   20  C10 UNL     1     -34.597  -2.189   1.683  1.00  0.00     0.074 A 
HETATM   21  C11 UNL     1     -35.212  -2.439   2.890  1.00  0.00     0.123 A 
HETATM   22  N1  UNL     1     -36.529  -2.560   2.661  1.00  0.00    -0.347 N 
HETATM   23  C12 UNL     1     -36.709  -2.387   1.344  1.00  0.00     0.128 A 
ATOM     24  H1  UNL     1     -37.253  -2.747   3.355  1.00  0.00     0.167 HD
HETATM   25  O4  UNL     1     -35.547  -2.167   0.787  1.00  0.00    -0.300 OA
BRANCH  23  26
HETATM   26  C13 UNL     1     -38.051  -2.441   0.653  1.00  0.00     0.061 A 
HETATM   27  C14 UNL     1     -38.028  -2.444  -0.846  1.00  0.00     0.013 A 
HETATM   28  C15 UNL     1     -38.474  -3.663  -0.033  1.00  0.00     0.013 A 
ENDBRANCH  23  26
ENDBRANCH   7  20
TORSDOF 6
ENDMDL
MODEL 2
REMARK VINA RESULT: -7.220740930      1.687      2.111
REMARK  6 active torsions:
REMARK  status: ('A' for Active; 'I' for Inactive)
REMARK    1  A    between atoms: C2_2  and  O1_3 
REMARK    2  A    between atoms: O1_3  and  C3_4 
REMARK    3  A    between atoms: C3_4  and  C4_6 
REMARK    4  A    between atoms: C9_12  and  C10_13 
REMARK    5  A    between atoms: C12_17  and  C13_18 
REMARK    6  A    between atoms: C17_23  and  N2_24 
ROOT
HETATM    1  C4  UNL     1     -29.517  -3.951   0.845  1.00  0.00     0.248 C 
HETATM    2  C5  UNL     1     -29.055  -3.640   2.232  1.00  0.00     0.214 C 
HETATM    3  O3  UNL     1     -30.225  -3.647   2.995  1.00  0.00    -0.350 OA
HETATM    4  C6  UNL     1     -31.259  -3.344   2.109  1.00  0.00     0.193 C 
HETATM    5  C7  UNL     1     -32.518  -3.944   2.659  1.00  0.00     0.071 C 
HETATM    6  C8  UNL     1     -33.766  -3.504   1.956  1.00  0.00     0.017 C 
HETATM    7  C9  UNL     1     -33.780  -2.031   1.630  1.00  0.00     0.047 C 
HETATM    8  C16 UNL     1     -32.537  -1.677   0.886  1.00  0.00     0.049 C 
HETATM    9  C17 UNL     1     -31.376  -1.866   1.842  1.00  0.00     0.246 C 
HETATM   10  O5  UNL     1     -30.903  -3.982   0.934  1.00  0.00    -0.336 OA
ENDROOT
BRANCH   9  11
HETATM   11  N2  UNL     1     -31.569  -1.083   3.026  1.00  0.00    -0.070 N 
ATOM     12  H23 UNL     1     -32.375  -1.419   3.553  1.00  0.00     0.274 HD
ATOM     13  H22 UNL     1     -30.832  -1.269   3.706  1.00  0.00     0.274 HD
ATOM     14  H21 UNL     1     -31.648  -0.082   2.845  1.00  0.00     0.274 HD
ENDBRANCH   9  11
BRANCH   1  15
HETATM   15  C3  UNL     1     -29.056  -5.316   0.454  1.00  0.00     0.290 C 
HETATM   16  O2  UNL     1     -28.307  -6.004   1.209  1.00  0.00    -0.262 OA
BRANCH  15  17
HETATM   17  O1  UNL     1     -29.487  -5.794  -0.776  1.00  0.00    -0.320 OA
BRANCH  17  18
HETATM   18  C2  UNL     1     -29.189  -5.025  -1.942  1.00  0.00     0.174 C 
HETATM   19  C1  UNL     1     -27.743  -5.259  -2.303  1.00  0.00     0.034 C 
ENDBRANCH  17  18
ENDBRANCH  15  17
ENDBRANCH   1  15
BRANCH   7  20
HETATM   20  C10 UNL     1     -35.024  -1.772   0.835  1.00  0.00     0.074 A 
HETATM   21  C11 UNL     1     -35.174  -0.808  -0.137  1.00  0.00     0.123 A 
HETATM   22  N1  UNL     1     -36.426  -0.896  -0.611  1.00  0.00    -0.347 N 
HETATM   23  C12 UNL     1     -37.023  -1.892   0.059  1.00  0.00     0.128 A 
ATOM     24  H1  UNL     1     -36.843  -0.317  -1.340  1.00  0.00     0.167 HD
HETATM   25  O4  UNL     1     -36.169  -2.396   0.910  1.00  0.00    -0.300 OA
BRANCH  23  26
HETATM   26  C13 UNL     1     -38.451  -2.332  -0.164  1.00  0.00     0.061 A 
HETATM   27  C14 UNL     1     -38.750  -2.975  -1.484  1.00  0.00     0.013 A 
HETATM   28  C15 UNL     1     -38.788  -3.756  -0.167  1.00  0.00     0.013 A 
ENDBRANCH  23  26
ENDBRANCH   7  20
TORSDOF 6
ENDMDL
MODEL 3
REMARK VINA RESULT: -7.203428921      2.073      2.613
REMARK  6 active torsions:
REMARK  status: ('A' for Active; 'I' for Inactive)
REMARK    1  A    between atoms: C2_2  and  O1_3 
REMARK    2  A    between atoms: O1_3  and  C3_4 
REMARK    3  A    between atoms: C3_4  and  C4_6 
REMARK    4  A    between atoms: C9_12  and  C10_13 
REMARK    5  A    between atoms: C12_17  and  C13_18 
REMARK    6  A    between atoms: C17_23  and  N2_24 
ROOT
HETATM    1  C4  UNL     1     -29.480  -4.175   1.970  1.00  0.00     0.248 C 
HETATM    2  C5  UNL     1     -29.021  -3.477   3.208  1.00  0.00     0.214 C 
HETATM    3  O3  UNL     1     -30.183  -3.319   3.967  1.00  0.00    -0.350 OA
HETATM    4  C6  UNL     1     -31.237  -3.313   3.053  1.00  0.00     0.193 C 
HETATM    5  C7  UNL     1     -32.464  -3.789   3.772  1.00  0.00     0.071 C 
HETATM    6  C8  UNL     1     -33.736  -3.609   3.000  1.00  0.00     0.017 C 
HETATM    7  C9  UNL     1     -33.816  -2.285   2.281  1.00  0.00     0.047 C 
HETATM    8  C16 UNL     1     -32.597  -2.101   1.445  1.00  0.00     0.049 C 
HETATM    9  C17 UNL     1     -31.421  -1.972   2.392  1.00  0.00     0.246 C 
HETATM   10  O5  UNL     1     -30.863  -4.235   2.091  1.00  0.00    -0.336 OA
ENDROOT
BRANCH   9  11
HETATM   11  N2  UNL     1     -31.638  -0.902   3.319  1.00  0.00    -0.070 N 
ATOM     12  H23 UNL     1     -31.836  -1.266   4.251  1.00  0.00     0.274 HD
ATOM     13  H22 UNL     1     -30.767  -0.408   3.510  1.00  0.00     0.274 HD
ATOM     14  H21 UNL     1     -32.366  -0.249   3.025  1.00  0.00     0.274 HD
ENDBRANCH   9  11
BRANCH   1  15
HETATM   15  C3  UNL     1     -28.964  -5.575   1.959  1.00  0.00     0.290 C 
HETATM   16  O2  UNL     1     -29.129  -6.350   2.948  1.00  0.00    -0.262 OA
BRANCH  15  17
HETATM   17  O1  UNL     1     -28.294  -5.988   0.815  1.00  0.00    -0.320 OA
BRANCH  17  18
HETATM   18  C2  UNL     1     -28.829  -5.609  -0.454  1.00  0.00     0.174 C 
HETATM   19  C1  UNL     1     -27.676  -5.280  -1.372  1.00  0.00     0.034 C 
ENDBRANCH  17  18
ENDBRANCH  15  17
ENDBRANCH   1  15
BRANCH   7  20
HETATM   20  C10 UNL     1     -35.077  -2.305   1.471  1.00  0.00     0.074 A 
HETATM   21  C11 UNL     1     -35.299  -1.603   0.307  1.00  0.00     0.123 A 
HETATM   22  N1  UNL     1     -36.542  -1.886  -0.112  1.00  0.00    -0.347 N 
HETATM   23  C12 UNL     1     -37.064  -2.742   0.779  1.00  0.00     0.128 A 
ATOM     24  H1  UNL     1     -37.001  -1.522  -0.946  1.00  0.00     0.167 HD
HETATM   25  O4  UNL     1     -36.174  -2.974   1.708  1.00  0.00    -0.300 OA
BRANCH  23  26
HETATM   26  C13 UNL     1     -38.455  -3.321   0.690  1.00  0.00     0.061 A 
HETATM   27  C14 UNL     1     -39.509  -2.433   0.102  1.00  0.00     0.013 A 
HETATM   28  C15 UNL     1     -39.013  -3.694  -0.611  1.00  0.00     0.013 A 
ENDBRANCH  23  26
ENDBRANCH   7  20
TORSDOF 6
ENDMDL
MODEL 4
REMARK VINA RESULT: -7.134542234      1.648      2.183
REMARK  6 active torsions:
REMARK  status: ('A' for Active; 'I' for Inactive)
REMARK    1  A    between atoms: C2_2  and  O1_3 
REMARK    2  A    between atoms: O1_3  and  C3_4 
REMARK    3  A    between atoms: C3_4  and  C4_6 
REMARK    4  A    between atoms: C9_12  and  C10_13 
REMARK    5  A    between atoms: C12_17  and  C13_18 
REMARK    6  A    between atoms: C17_23  and  N2_24 
ROOT
HETATM    1  C4  UNL     1     -29.744  -3.680  -0.803  1.00  0.00     0.248 C 
HETATM    2  C5  UNL     1     -28.691  -2.727  -0.340  1.00  0.00     0.214 C 
HETATM    3  O3  UNL     1     -28.977  -2.526   1.013  1.00  0.00    -0.350 OA
HETATM    4  C6  UNL     1     -30.342  -2.778   1.154  1.00  0.00     0.193 C 
HETATM    5  C7  UNL     1     -30.579  -3.210   2.570  1.00  0.00     0.071 C 
HETATM    6  C8  UNL     1     -32.026  -3.282   2.955  1.00  0.00     0.017 C 
HETATM    7  C9  UNL     1     -32.842  -2.126   2.431  1.00  0.00     0.047 C 
HETATM    8  C16 UNL     1     -32.637  -2.002   0.960  1.00  0.00     0.049 C 
HETATM    9  C17 UNL     1     -31.191  -1.603   0.743  1.00  0.00     0.246 C 
HETATM   10  O5  UNL     1     -30.589  -3.829   0.289  1.00  0.00    -0.336 OA
ENDROOT
BRANCH   9  11
HETATM   11  N2  UNL     1     -30.890  -0.400   1.460  1.00  0.00    -0.070 N 
ATOM     12  H23 UNL     1     -31.525  -0.282   2.250  1.00  0.00     0.274 HD
ATOM     13  H22 UNL     1     -30.007  -0.491   1.963  1.00  0.00     0.274 HD
ATOM     14  H21 UNL     1     -30.885   0.435   0.873  1.00  0.00     0.274 HD
ENDBRANCH   9  11
BRANCH   1  15
HETATM   15  C3  UNL     1     -29.131  -5.010  -1.089  1.00  0.00     0.290 C 
HETATM   16  O2  UNL     1     -29.818  -5.971  -1.549  1.00  0.00    -0.262 OA
BRANCH  15  17
HETATM   17  O1  UNL     1     -27.774  -5.144  -0.828  1.00  0.00    -0.320 OA
BRANCH  17  18
HETATM   18  C2  UNL     1     -26.916  -5.541  -1.899  1.00  0.00     0.174 C 
HETATM   19  C1  UNL     1     -25.981  -4.395  -2.203  1.00  0.00     0.034 C 
ENDBRANCH  17  18
ENDBRANCH  15  17
ENDBRANCH   1  15
BRANCH   7  20
HETATM   20  C10 UNL     1     -34.269  -2.400   2.796  1.00  0.00     0.074 A 
HETATM   21  C11 UNL     1     -35.348  -2.324   1.943  1.00  0.00     0.123 A 
HETATM   22  N1  UNL     1     -36.448  -2.642   2.644  1.00  0.00    -0.347 N 
HETATM   23  C12 UNL     1     -36.045  -2.905   3.896  1.00  0.00     0.128 A 
ATOM     24  H1  UNL     1     -37.405  -2.676   2.294  1.00  0.00     0.167 HD
HETATM   25  O4  UNL     1     -34.748  -2.755   3.959  1.00  0.00    -0.300 OA
BRANCH  23  26
HETATM   26  C13 UNL     1     -36.968  -3.307   5.021  1.00  0.00     0.061 A 
HETATM   27  C14 UNL     1     -38.055  -2.336   5.369  1.00  0.00     0.013 A 
HETATM   28  C15 UNL     1     -38.348  -3.699   4.734  1.00  0.00     0.013 A 
ENDBRANCH  23  26
ENDBRANCH   7  20
TORSDOF 6
ENDMDL
MODEL 5
REMARK VINA RESULT: -7.115196146      2.593      7.915
REMARK  6 active torsions:
REMARK  status: ('A' for Active; 'I' for Inactive)
REMARK    1  A    between atoms: C2_2  and  O1_3 
REMARK    2  A    between atoms: O1_3  and  C3_4 
REMARK    3  A    between atoms: C3_4  and  C4_6 
REMARK    4  A    between atoms: C9_12  and  C10_13 
REMARK    5  A    between atoms: C12_17  and  C13_18 
REMARK    6  A    between atoms: C17_23  and  N2_24 
ROOT
HETATM    1  C4  UNL     1     -34.477  -3.246   3.569  1.00  0.00     0.248 C 
HETATM    2  C5  UNL     1     -34.064  -2.861   4.952  1.00  0.00     0.214 C 
HETATM    3  O3  UNL     1     -32.780  -2.333   4.796  1.00  0.00    -0.350 OA
HETATM    4  C6  UNL     1     -32.265  -2.922   3.641  1.00  0.00     0.193 C 
HETATM    5  C7  UNL     1     -31.243  -1.984   3.071  1.00  0.00     0.071 C 
HETATM    6  C8  UNL     1     -30.418  -2.573   1.967  1.00  0.00     0.017 C 
HETATM    7  C9  UNL     1     -29.990  -3.995   2.234  1.00  0.00     0.047 C 
HETATM    8  C16 UNL     1     -31.186  -4.818   2.569  1.00  0.00     0.049 C 
HETATM    9  C17 UNL     1     -31.724  -4.306   3.890  1.00  0.00     0.246 C 
HETATM   10  O5  UNL     1     -33.351  -3.015   2.788  1.00  0.00    -0.336 OA
ENDROOT
BRANCH   9  11
HETATM   11  N2  UNL     1     -30.707  -4.350   4.897  1.00  0.00    -0.070 N 
ATOM     12  H23 UNL     1     -29.941  -3.718   4.665  1.00  0.00     0.274 HD
ATOM     13  H22 UNL     1     -31.033  -3.914   5.759  1.00  0.00     0.274 HD
ATOM     14  H21 UNL     1     -30.355  -5.291   5.081  1.00  0.00     0.274 HD
ENDBRANCH   9  11
BRANCH   1  15
HETATM   15  C3  UNL     1     -35.556  -2.333   3.092  1.00  0.00     0.290 C 
HETATM   16  O2  UNL     1     -35.519  -1.087   3.319  1.00  0.00    -0.262 OA
BRANCH  15  17
HETATM   17  O1  UNL     1     -36.602  -2.914   2.387  1.00  0.00    -0.320 OA
BRANCH  17  18
HETATM   18  C2  UNL     1     -36.816  -2.504   1.036  1.00  0.00     0.174 C 
HETATM   19  C1  UNL     1     -38.006  -3.260   0.497  1.00  0.00     0.034 C 
ENDBRANCH  17  18
ENDBRANCH  15  17
ENDBRANCH   1  15
BRANCH   7  20
HETATM   20  C10 UNL     1     -29.282  -4.475   1.004  1.00  0.00     0.074 A 
HETATM   21  C11 UNL     1     -28.989  -5.787   0.702  1.00  0.00     0.123 A 
HETATM   22  N1  UNL     1     -28.355  -5.804  -0.480  1.00  0.00    -0.347 N 
HETATM   23  C12 UNL     1     -28.265  -4.530  -0.888  1.00  0.00     0.128 A 
ATOM     24  H1  UNL     1     -28.008  -6.627  -0.973  1.00  0.00     0.167 HD
HETATM   25  O4  UNL     1     -28.824  -3.762   0.010  1.00  0.00    -0.300 OA
BRANCH  23  26
HETATM   26  C13 UNL     1     -27.619  -4.093  -2.181  1.00  0.00     0.061 A 
HETATM   27  C14 UNL     1     -26.144  -4.333  -2.302  1.00  0.00     0.013 A 
HETATM   28  C15 UNL     1     -27.169  -5.092  -3.151  1.00  0.00     0.013 A 
ENDBRANCH  23  26
ENDBRANCH   7  20
TORSDOF 6
ENDMDL
