MODEL 1
REMARK VINA RESULT: -6.619616848      0.000      0.000
REMARK  4 active torsions:
REMARK  status: ('A' for Active; 'I' for Inactive)
REMARK    1  A    between atoms: N1_1  and  N2_4 
REMARK    2  A    between atoms: N3_6  and  C1_8 
REMARK    3  A    between atoms: C1_8  and  C2_9 
REMARK    4  A    between atoms: C2_9  and  C3_10 
ROOT
HETATM    1  C1  UNL     1      -4.027   1.603  12.700  1.00  0.00     0.212 C 
HETATM    2  O3  UNL     1      -3.902   0.226  12.533  1.00  0.00    -0.314 OA
HETATM    3  C4  UNL     1      -3.551  -0.042  11.246  1.00  0.00     0.320 C 
HETATM    4  F1  UNL     1      -3.493  -1.406  11.091  1.00  0.00    -0.219 F 
HETATM    5  C5  UNL     1      -4.630   0.478  10.321  1.00  0.00     0.144 C 
HETATM    6  S1  UNL     1      -5.178   1.938  11.300  1.00  0.00    -0.102 SA
ENDROOT
BRANCH   1   7
HETATM    7  N3  UNL     1      -2.832   2.321  12.431  1.00  0.00    -0.278 N 
HETATM    8  N2  UNL     1      -2.622   3.492  12.757  1.00  0.00    -0.251 N 
ATOM      9  H2  UNL     1      -2.231   3.408  13.695  1.00  0.00     0.207 HD
ATOM     10  H3  UNL     1      -2.091   1.831  11.930  1.00  0.00     0.186 HD
BRANCH   8  11
HETATM   11  N1  UNL     1      -2.631   4.725  12.557  1.00  0.00    -0.331 N 
ATOM     12  H12 UNL     1      -2.944   4.761  11.586  1.00  0.00     0.178 HD
ATOM     13  H11 UNL     1      -2.495   5.695  12.841  1.00  0.00     0.178 HD
ENDBRANCH   8  11
ENDBRANCH   1   7
BRANCH   1  14
HETATM   14  C2  UNL     1      -4.713   1.972  13.965  1.00  0.00     0.188 C 
BRANCH  14  15
HETATM   15  C3  UNL     1      -4.391   1.056  15.088  1.00  0.00     0.178 C 
HETATM   16  O1  UNL     1      -5.081   0.030  15.353  1.00  0.00    -0.648 OA
HETATM   17  O2  UNL     1      -3.290   1.277  15.929  1.00  0.00    -0.648 OA
ENDBRANCH  14  15
ENDBRANCH   1  14
TORSDOF 4
ENDMDL
MODEL 2
REMARK VINA RESULT: -6.485091186      2.058      2.355
REMARK  4 active torsions:
REMARK  status: ('A' for Active; 'I' for Inactive)
REMARK    1  A    between atoms: N1_1  and  N2_4 
REMARK    2  A    between atoms: N3_6  and  C1_8 
REMARK    3  A    between atoms: C1_8  and  C2_9 
REMARK    4  A    between atoms: C2_9  and  C3_10 
ROOT
HETATM    1  C1  UNL     1      -4.857   2.161  14.811  1.00  0.00     0.212 C 
HETATM    2  O3  UNL     1      -4.953   0.887  14.258  1.00  0.00    -0.314 OA
HETATM    3  C4  UNL     1      -4.140   0.804  13.170  1.00  0.00     0.320 C 
HETATM    4  F1  UNL     1      -4.299  -0.440  12.607  1.00  0.00    -0.219 F 
HETATM    5  C5  UNL     1      -4.581   1.829  12.145  1.00  0.00     0.144 C 
HETATM    6  S1  UNL     1      -5.191   3.140  13.285  1.00  0.00    -0.102 SA
ENDROOT
BRANCH   1   7
HETATM    7  N3  UNL     1      -3.546   2.500  15.237  1.00  0.00    -0.278 N 
HETATM    8  N2  UNL     1      -3.022   3.607  15.100  1.00  0.00    -0.251 N 
ATOM      9  H2  UNL     1      -3.307   4.108  15.941  1.00  0.00     0.207 HD
ATOM     10  H3  UNL     1      -2.995   1.771  15.692  1.00  0.00     0.186 HD
BRANCH   8  11
HETATM   11  N1  UNL     1      -2.330   4.446  14.485  1.00  0.00    -0.331 N 
ATOM     12  H12 UNL     1      -1.557   3.862  14.163  1.00  0.00     0.178 HD
ATOM     13  H11 UNL     1      -2.129   5.385  14.140  1.00  0.00     0.178 HD
ENDBRANCH   8  11
ENDBRANCH   1   7
BRANCH   1  14
HETATM   14  C2  UNL     1      -5.934   2.448  15.793  1.00  0.00     0.188 C 
BRANCH  14  15
HETATM   15  C3  UNL     1      -6.187   1.320  16.723  1.00  0.00     0.178 C 
HETATM   16  O1  UNL     1      -7.264   0.656  16.716  1.00  0.00    -0.648 OA
HETATM   17  O2  UNL     1      -5.236   0.918  17.673  1.00  0.00    -0.648 OA
ENDBRANCH  14  15
ENDBRANCH   1  14
TORSDOF 4
ENDMDL
MODEL 3
REMARK VINA RESULT: -6.184192536      3.302      3.981
REMARK  4 active torsions:
REMARK  status: ('A' for Active; 'I' for Inactive)
REMARK    1  A    between atoms: N1_1  and  N2_4 
REMARK    2  A    between atoms: N3_6  and  C1_8 
REMARK    3  A    between atoms: C1_8  and  C2_9 
REMARK    4  A    between atoms: C2_9  and  C3_10 
ROOT
HETATM    1  C1  UNL     1      -4.486   3.357  14.233  1.00  0.00     0.212 C 
HETATM    2  O3  UNL     1      -4.923   4.168  13.188  1.00  0.00    -0.314 OA
HETATM    3  C4  UNL     1      -5.289   5.382  13.682  1.00  0.00     0.320 C 
HETATM    4  F1  UNL     1      -5.773   6.141  12.644  1.00  0.00    -0.219 F 
HETATM    5  C5  UNL     1      -6.418   5.192  14.674  1.00  0.00     0.144 C 
HETATM    6  S1  UNL     1      -5.947   3.542  15.343  1.00  0.00    -0.102 SA
ENDROOT
BRANCH   1   7
HETATM    7  N3  UNL     1      -3.369   3.882  14.933  1.00  0.00    -0.278 N 
HETATM    8  N2  UNL     1      -2.419   4.470  14.410  1.00  0.00    -0.251 N 
ATOM      9  H2  UNL     1      -2.727   5.442  14.393  1.00  0.00     0.207 HD
ATOM     10  H3  UNL     1      -3.349   3.762  15.946  1.00  0.00     0.186 HD
BRANCH   8  11
HETATM   11  N1  UNL     1      -1.284   4.517  13.890  1.00  0.00    -0.331 N 
ATOM     12  H12 UNL     1      -1.308   3.685  13.299  1.00  0.00     0.178 HD
ATOM     13  H11 UNL     1      -0.365   4.935  13.744  1.00  0.00     0.178 HD
ENDBRANCH   8  11
ENDBRANCH   1   7
BRANCH   1  14
HETATM   14  C2  UNL     1      -4.374   1.927  13.847  1.00  0.00     0.188 C 
BRANCH  14  15
HETATM   15  C3  UNL     1      -4.286   1.016  15.015  1.00  0.00     0.178 C 
HETATM   16  O1  UNL     1      -5.053   0.022  15.167  1.00  0.00    -0.648 OA
HETATM   17  O2  UNL     1      -3.334   1.205  16.028  1.00  0.00    -0.648 OA
ENDBRANCH  14  15
ENDBRANCH   1  14
TORSDOF 4
ENDMDL
MODEL 4
REMARK VINA RESULT: -6.135219365      3.241      4.063
REMARK  4 active torsions:
REMARK  status: ('A' for Active; 'I' for Inactive)
REMARK    1  A    between atoms: N1_1  and  N2_4 
REMARK    2  A    between atoms: N3_6  and  C1_8 
REMARK    3  A    between atoms: C1_8  and  C2_9 
REMARK    4  A    between atoms: C2_9  and  C3_10 
ROOT
HETATM    1  C1  UNL     1      -4.771   2.702  13.468  1.00  0.00     0.212 C 
HETATM    2  O3  UNL     1      -5.647   3.008  14.507  1.00  0.00    -0.314 OA
HETATM    3  C4  UNL     1      -5.987   4.324  14.437  1.00  0.00     0.320 C 
HETATM    4  F1  UNL     1      -6.802   4.614  15.506  1.00  0.00    -0.219 F 
HETATM    5  C5  UNL     1      -4.736   5.166  14.574  1.00  0.00     0.144 C 
HETATM    6  S1  UNL     1      -3.530   4.033  13.765  1.00  0.00    -0.102 SA
ENDROOT
BRANCH   1   7
HETATM    7  N3  UNL     1      -5.316   2.929  12.177  1.00  0.00    -0.278 N 
HETATM    8  N2  UNL     1      -5.497   2.059  11.323  1.00  0.00    -0.251 N 
ATOM      9  H2  UNL     1      -6.432   1.711  11.537  1.00  0.00     0.207 HD
ATOM     10  H3  UNL     1      -5.577   3.886  11.938  1.00  0.00     0.186 HD
BRANCH   8  11
HETATM   11  N1  UNL     1      -5.152   1.373  10.337  1.00  0.00    -0.331 N 
ATOM     12  H12 UNL     1      -4.288   0.956  10.684  1.00  0.00     0.178 HD
ATOM     13  H11 UNL     1      -5.272   1.014   9.390  1.00  0.00     0.178 HD
ENDBRANCH   8  11
ENDBRANCH   1   7
BRANCH   1  14
HETATM   14  C2  UNL     1      -4.097   1.390  13.647  1.00  0.00     0.188 C 
BRANCH  14  15
HETATM   15  C3  UNL     1      -4.211   0.864  15.030  1.00  0.00     0.178 C 
HETATM   16  O1  UNL     1      -5.080   0.009  15.367  1.00  0.00    -0.648 OA
HETATM   17  O2  UNL     1      -3.350   1.287  16.053  1.00  0.00    -0.648 OA
ENDBRANCH  14  15
ENDBRANCH   1  14
TORSDOF 4
ENDMDL
MODEL 5
REMARK VINA RESULT: -6.023569610      1.506      1.771
REMARK  4 active torsions:
REMARK  status: ('A' for Active; 'I' for Inactive)
REMARK    1  A    between atoms: N1_1  and  N2_4 
REMARK    2  A    between atoms: N3_6  and  C1_8 
REMARK    3  A    between atoms: C1_8  and  C2_9 
REMARK    4  A    between atoms: C2_9  and  C3_10 
ROOT
HETATM    1  C1  UNL     1      -4.582   2.378  13.845  1.00  0.00     0.212 C 
HETATM    2  O3  UNL     1      -4.722   1.116  13.273  1.00  0.00    -0.314 OA
HETATM    3  C4  UNL     1      -4.403   1.181  11.952  1.00  0.00     0.320 C 
HETATM    4  F1  UNL     1      -4.608  -0.060  11.398  1.00  0.00    -0.219 F 
HETATM    5  C5  UNL     1      -5.343   2.149  11.264  1.00  0.00     0.144 C 
HETATM    6  S1  UNL     1      -5.618   3.328  12.652  1.00  0.00    -0.102 SA
ENDROOT
BRANCH   1   7
HETATM    7  N3  UNL     1      -3.266   2.903  13.754  1.00  0.00    -0.278 N 
HETATM    8  N2  UNL     1      -2.910   3.999  14.190  1.00  0.00    -0.251 N 
ATOM      9  H2  UNL     1      -2.644   3.794  15.153  1.00  0.00     0.207 HD
ATOM     10  H3  UNL     1      -2.561   2.328  13.292  1.00  0.00     0.186 HD
BRANCH   8  11
HETATM   11  N1  UNL     1      -2.700   5.227  14.089  1.00  0.00    -0.331 N 
ATOM     12  H12 UNL     1      -3.188   5.435  13.217  1.00  0.00     0.178 HD
ATOM     13  H11 UNL     1      -2.309   6.114  14.406  1.00  0.00     0.178 HD
ENDBRANCH   8  11
ENDBRANCH   1   7
BRANCH   1  14
HETATM   14  C2  UNL     1      -5.209   2.478  15.188  1.00  0.00     0.188 C 
BRANCH  14  15
HETATM   15  C3  UNL     1      -4.518   1.657  16.213  1.00  0.00     0.178 C 
HETATM   16  O1  UNL     1      -3.269   1.461  16.204  1.00  0.00    -0.648 OA
HETATM   17  O2  UNL     1      -5.218   1.046  17.264  1.00  0.00    -0.648 OA
ENDBRANCH  14  15
ENDBRANCH   1  14
TORSDOF 4
ENDMDL
