MODEL 1
REMARK VINA RESULT: -6.239674279      0.000      0.000
REMARK  3 active torsions:
REMARK  status: ('A' for Active; 'I' for Inactive)
REMARK    1  A    between atoms: N2_4  and  O1_6 
REMARK    2  A    between atoms: O1_6  and  C3_7 
REMARK    3  A    between atoms: C3_7  and  C4_8 
ROOT
HETATM    1  C4  UNL     1      -4.768   1.823  15.631  1.00  0.00     0.008 C 
HETATM    2  C5  UNL     1      -3.724   2.952  15.643  1.00  0.00     0.020 C 
HETATM    3  C6  UNL     1      -5.999   2.396  15.019  1.00  0.00     0.046 C 
HETATM    4  C7  UNL     1      -6.721   2.897  16.273  1.00  0.00     0.122 C 
HETATM    5  C8  UNL     1      -7.552   1.752  16.784  1.00  0.00     0.034 C 
HETATM    6  C9  UNL     1      -6.436   0.805  17.225  1.00  0.00     0.035 C 
HETATM    7  C10 UNL     1      -5.192   1.620  17.045  1.00  0.00     0.132 C 
HETATM    8  O2  UNL     1      -5.723   2.921  17.278  1.00  0.00    -0.380 OA
ENDROOT
BRANCH   1   9
HETATM    9  C3  UNL     1      -4.159   0.669  14.937  1.00  0.00     0.213 C 
BRANCH   9  10
HETATM   10  O1  UNL     1      -4.823   0.167  13.850  1.00  0.00    -0.279 OA
BRANCH  10  11
HETATM   11  N2  UNL     1      -4.306   0.002  12.638  1.00  0.00    -0.257 N 
HETATM   12  C2  UNL     1      -4.511   0.647  11.573  1.00  0.00     0.109 C 
HETATM   13  C1  UNL     1      -3.780   0.241  10.321  1.00  0.00     0.087 C 
HETATM   14  N1  UNL     1      -5.392   1.744  11.452  1.00  0.00    -0.086 NA
ATOM     15  H2  UNL     1      -3.639  -0.765  12.555  1.00  0.00     0.195 HD
ENDBRANCH  10  11
ENDBRANCH   9  10
ENDBRANCH   1   9
TORSDOF 3
ENDMDL
MODEL 2
REMARK VINA RESULT: -6.228038323      2.412      5.607
REMARK  3 active torsions:
REMARK  status: ('A' for Active; 'I' for Inactive)
REMARK    1  A    between atoms: N2_4  and  O1_6 
REMARK    2  A    between atoms: O1_6  and  C3_7 
REMARK    3  A    between atoms: C3_7  and  C4_8 
ROOT
HETATM    1  C4  UNL     1      -4.400   2.323  11.540  1.00  0.00     0.008 C 
HETATM    2  C5  UNL     1      -4.400   3.483  10.531  1.00  0.00     0.020 C 
HETATM    3  C6  UNL     1      -2.971   2.008  11.818  1.00  0.00     0.046 C 
HETATM    4  C7  UNL     1      -2.714   0.936  10.755  1.00  0.00     0.122 C 
HETATM    5  C8  UNL     1      -3.087  -0.385  11.372  1.00  0.00     0.034 C 
HETATM    6  C9  UNL     1      -4.598  -0.191  11.496  1.00  0.00     0.035 C 
HETATM    7  C10 UNL     1      -4.843   1.110  10.795  1.00  0.00     0.132 C 
HETATM    8  O2  UNL     1      -3.787   1.071   9.841  1.00  0.00    -0.380 OA
ENDROOT
BRANCH   1   9
HETATM    9  C3  UNL     1      -5.222   2.744  12.694  1.00  0.00     0.213 C 
BRANCH   9  10
HETATM   10  O1  UNL     1      -4.600   2.829  13.911  1.00  0.00    -0.279 OA
BRANCH  10  11
HETATM   11  N2  UNL     1      -5.168   2.583  15.086  1.00  0.00    -0.257 N 
HETATM   12  C2  UNL     1      -4.733   1.935  16.078  1.00  0.00     0.109 C 
HETATM   13  C1  UNL     1      -5.597   1.810  17.305  1.00  0.00     0.087 C 
HETATM   14  N1  UNL     1      -3.472   1.300  16.136  1.00  0.00    -0.086 NA
ATOM     15  H2  UNL     1      -6.100   2.980  15.206  1.00  0.00     0.195 HD
ENDBRANCH  10  11
ENDBRANCH   9  10
ENDBRANCH   1   9
TORSDOF 3
ENDMDL
MODEL 3
REMARK VINA RESULT: -6.219416170      2.512      5.482
REMARK  3 active torsions:
REMARK  status: ('A' for Active; 'I' for Inactive)
REMARK    1  A    between atoms: N2_4  and  O1_6 
REMARK    2  A    between atoms: O1_6  and  C3_7 
REMARK    3  A    between atoms: C3_7  and  C4_8 
ROOT
HETATM    1  C4  UNL     1      -4.090   1.042  12.381  1.00  0.00     0.008 C 
HETATM    2  C5  UNL     1      -4.342  -0.373  11.834  1.00  0.00     0.020 C 
HETATM    3  C6  UNL     1      -5.212   1.889  11.888  1.00  0.00     0.046 C 
HETATM    4  C7  UNL     1      -4.609   2.409  10.579  1.00  0.00     0.122 C 
HETATM    5  C8  UNL     1      -3.857   3.667  10.917  1.00  0.00     0.034 C 
HETATM    6  C9  UNL     1      -2.727   3.070  11.757  1.00  0.00     0.035 C 
HETATM    7  C10 UNL     1      -2.932   1.592  11.621  1.00  0.00     0.132 C 
HETATM    8  O2  UNL     1      -3.513   1.550  10.321  1.00  0.00    -0.380 OA
ENDROOT
BRANCH   1   9
HETATM    9  C3  UNL     1      -3.942   0.927  13.847  1.00  0.00     0.213 C 
BRANCH   9  10
HETATM   10  O1  UNL     1      -5.082   0.739  14.581  1.00  0.00    -0.279 OA
BRANCH  10  11
HETATM   11  N2  UNL     1      -5.501   1.521  15.569  1.00  0.00    -0.257 N 
HETATM   12  C2  UNL     1      -5.915   1.219  16.723  1.00  0.00     0.109 C 
HETATM   13  C1  UNL     1      -6.334   2.322  17.660  1.00  0.00     0.087 C 
HETATM   14  N1  UNL     1      -6.022  -0.097  17.223  1.00  0.00    -0.086 NA
ATOM     15  H2  UNL     1      -5.486   2.520  15.364  1.00  0.00     0.195 HD
ENDBRANCH  10  11
ENDBRANCH   9  10
ENDBRANCH   1   9
TORSDOF 3
ENDMDL
MODEL 4
REMARK VINA RESULT: -6.134857074      2.735      5.660
REMARK  3 active torsions:
REMARK  status: ('A' for Active; 'I' for Inactive)
REMARK    1  A    between atoms: N2_4  and  O1_6 
REMARK    2  A    between atoms: O1_6  and  C3_7 
REMARK    3  A    between atoms: C3_7  and  C4_8 
ROOT
HETATM    1  C4  UNL     1      -3.972   1.902  12.077  1.00  0.00     0.008 C 
HETATM    2  C5  UNL     1      -5.361   2.291  11.544  1.00  0.00     0.020 C 
HETATM    3  C6  UNL     1      -3.258   3.178  12.361  1.00  0.00     0.046 C 
HETATM    4  C7  UNL     1      -2.556   3.406  11.019  1.00  0.00     0.122 C 
HETATM    5  C8  UNL     1      -1.233   2.693  11.093  1.00  0.00     0.034 C 
HETATM    6  C9  UNL     1      -1.727   1.246  11.132  1.00  0.00     0.035 C 
HETATM    7  C10 UNL     1      -3.203   1.372  10.914  1.00  0.00     0.132 C 
HETATM    8  O2  UNL     1      -3.227   2.549  10.112  1.00  0.00    -0.380 OA
ENDROOT
BRANCH   1   9
HETATM    9  C3  UNL     1      -4.179   0.990  13.220  1.00  0.00     0.213 C 
BRANCH   9  10
HETATM   10  O1  UNL     1      -4.051   1.518  14.477  1.00  0.00    -0.279 OA
BRANCH  10  11
HETATM   11  N2  UNL     1      -5.035   2.047  15.195  1.00  0.00    -0.257 N 
HETATM   12  C2  UNL     1      -5.769   1.522  16.077  1.00  0.00     0.109 C 
HETATM   13  C1  UNL     1      -6.824   2.363  16.745  1.00  0.00     0.087 C 
HETATM   14  N1  UNL     1      -5.684   0.177  16.502  1.00  0.00    -0.086 NA
ATOM     15  H2  UNL     1      -5.227   3.031  15.005  1.00  0.00     0.195 HD
ENDBRANCH  10  11
ENDBRANCH   9  10
ENDBRANCH   1   9
TORSDOF 3
ENDMDL
MODEL 5
REMARK VINA RESULT: -6.025542093      0.995      1.138
REMARK  3 active torsions:
REMARK  status: ('A' for Active; 'I' for Inactive)
REMARK    1  A    between atoms: N2_4  and  O1_6 
REMARK    2  A    between atoms: O1_6  and  C3_7 
REMARK    3  A    between atoms: C3_7  and  C4_8 
ROOT
HETATM    1  C4  UNL     1      -4.863   1.854  15.627  1.00  0.00     0.008 C 
HETATM    2  C5  UNL     1      -3.738   2.897  15.737  1.00  0.00     0.020 C 
HETATM    3  C6  UNL     1      -6.059   2.578  15.114  1.00  0.00     0.046 C 
HETATM    4  C7  UNL     1      -6.720   2.987  16.434  1.00  0.00     0.122 C 
HETATM    5  C8  UNL     1      -7.625   1.854  16.837  1.00  0.00     0.034 C 
HETATM    6  C9  UNL     1      -6.574   0.786  17.142  1.00  0.00     0.035 C 
HETATM    7  C10 UNL     1      -5.276   1.525  17.021  1.00  0.00     0.132 C 
HETATM    8  O2  UNL     1      -5.705   2.826  17.409  1.00  0.00    -0.380 OA
ENDROOT
BRANCH   1   9
HETATM    9  C3  UNL     1      -4.354   0.744  14.795  1.00  0.00     0.213 C 
BRANCH   9  10
HETATM   10  O1  UNL     1      -4.480   0.868  13.437  1.00  0.00    -0.279 OA
BRANCH  10  11
HETATM   11  N2  UNL     1      -3.539   1.313  12.612  1.00  0.00    -0.257 N 
HETATM   12  C2  UNL     1      -3.124   0.835  11.520  1.00  0.00     0.109 C 
HETATM   13  C1  UNL     1      -2.029   1.554  10.777  1.00  0.00     0.087 C 
HETATM   14  N1  UNL     1      -3.610  -0.348  10.921  1.00  0.00    -0.086 NA
ATOM     15  H2  UNL     1      -3.081   2.176  12.906  1.00  0.00     0.195 HD
ENDBRANCH  10  11
ENDBRANCH   9  10
ENDBRANCH   1   9
TORSDOF 3
ENDMDL
