MODEL 1
REMARK VINA RESULT: -6.075190884      0.000      0.000
REMARK  2 active torsions:
REMARK  status: ('A' for Active; 'I' for Inactive)
REMARK    1  A    between atoms: C5_6  and  C6_7 
REMARK    2  A    between atoms: C6_7  and  C7_8 
ROOT
HETATM    1  F1  UNL     1      -3.242  -0.181   9.424  1.00  0.00    -0.249 F 
HETATM    2  C1  UNL     1      -2.988   0.004  10.778  1.00  0.00     0.174 C 
HETATM    3  C2  UNL     1      -4.239  -0.275  11.550  1.00  0.00     0.070 C 
HETATM    4  C3  UNL     1      -4.924   1.052  11.866  1.00  0.00     0.189 C 
HETATM    5  C4  UNL     1      -4.244   1.603  13.096  1.00  0.00     0.039 C 
HETATM    6  C5  UNL     1      -3.524   2.852  12.560  1.00  0.00     0.018 C 
HETATM    7  C11 UNL     1      -3.342   2.467  11.129  1.00  0.00     0.193 C 
HETATM    8  C12 UNL     1      -2.355   1.320  11.076  1.00  0.00     0.070 C 
HETATM    9  N1  UNL     1      -4.634   1.935  10.776  1.00  0.00    -0.066 N 
ATOM     10  H11 UNL     1      -5.350   2.638  10.595  1.00  0.00     0.278 HD
ATOM     11  H12 UNL     1      -4.679   1.502   9.854  1.00  0.00     0.278 HD
ENDROOT
BRANCH   6  12
HETATM   12  C6  UNL     1      -4.440   4.007  12.783  1.00  0.00     0.011 C 
BRANCH  12  13
HETATM   13  C7  UNL     1      -4.643   4.360  14.218  1.00  0.00    -0.014 C 
HETATM   14  C8  UNL     1      -4.624   5.874  14.399  1.00  0.00     0.005 C 
HETATM   15  C9  UNL     1      -5.943   5.721  15.157  1.00  0.00     0.001 C 
HETATM   16  C10 UNL     1      -6.027   4.256  14.759  1.00  0.00     0.005 C 
ENDBRANCH  12  13
ENDBRANCH   6  12
TORSDOF 2
ENDMDL
MODEL 2
REMARK VINA RESULT: -6.073060783      2.422      3.650
REMARK  2 active torsions:
REMARK  status: ('A' for Active; 'I' for Inactive)
REMARK    1  A    between atoms: C5_6  and  C6_7 
REMARK    2  A    between atoms: C6_7  and  C7_8 
ROOT
HETATM    1  F1  UNL     1      -3.235   2.810  10.731  1.00  0.00    -0.249 F 
HETATM    2  C1  UNL     1      -4.448   3.108  11.339  1.00  0.00     0.174 C 
HETATM    3  C2  UNL     1      -4.411   4.519  11.835  1.00  0.00     0.070 C 
HETATM    4  C3  UNL     1      -4.081   4.504  13.325  1.00  0.00     0.189 C 
HETATM    5  C4  UNL     1      -5.380   4.244  14.049  1.00  0.00     0.039 C 
HETATM    6  C5  UNL     1      -5.164   2.848  14.654  1.00  0.00     0.018 C 
HETATM    7  C11 UNL     1      -4.163   2.289  13.697  1.00  0.00     0.193 C 
HETATM    8  C12 UNL     1      -4.850   2.100  12.360  1.00  0.00     0.070 C 
HETATM    9  N1  UNL     1      -3.228   3.375  13.546  1.00  0.00    -0.066 N 
ATOM     10  H11 UNL     1      -2.570   3.482  14.319  1.00  0.00     0.278 HD
ATOM     11  H12 UNL     1      -2.518   3.230  12.828  1.00  0.00     0.278 HD
ENDROOT
BRANCH   6  12
HETATM   12  C6  UNL     1      -4.655   3.052  16.040  1.00  0.00     0.011 C 
BRANCH  12  13
HETATM   13  C7  UNL     1      -5.469   2.384  17.097  1.00  0.00    -0.014 C 
HETATM   14  C8  UNL     1      -6.843   3.035  17.197  1.00  0.00     0.005 C 
HETATM   15  C9  UNL     1      -7.431   1.628  17.088  1.00  0.00     0.001 C 
HETATM   16  C10 UNL     1      -6.059   1.056  16.770  1.00  0.00     0.005 C 
ENDBRANCH  12  13
ENDBRANCH   6  12
TORSDOF 2
ENDMDL
MODEL 3
REMARK VINA RESULT: -6.028446602      3.481      4.824
REMARK  2 active torsions:
REMARK  status: ('A' for Active; 'I' for Inactive)
REMARK    1  A    between atoms: C5_6  and  C6_7 
REMARK    2  A    between atoms: C6_7  and  C7_8 
ROOT
HETATM    1  F1  UNL     1      -5.142   6.267  11.639  1.00  0.00    -0.249 F 
HETATM    2  C1  UNL     1      -4.581   6.389  12.905  1.00  0.00     0.174 C 
HETATM    3  C2  UNL     1      -3.225   5.757  12.900  1.00  0.00     0.070 C 
HETATM    4  C3  UNL     1      -3.341   4.350  13.482  1.00  0.00     0.189 C 
HETATM    5  C4  UNL     1      -3.305   4.503  14.983  1.00  0.00     0.039 C 
HETATM    6  C5  UNL     1      -4.723   4.087  15.406  1.00  0.00     0.018 C 
HETATM    7  C11 UNL     1      -5.482   4.407  14.160  1.00  0.00     0.193 C 
HETATM    8  C12 UNL     1      -5.485   5.912  13.990  1.00  0.00     0.070 C 
HETATM    9  N1  UNL     1      -4.639   3.862  13.126  1.00  0.00    -0.066 N 
ATOM     10  H11 UNL     1      -4.699   2.850  13.016  1.00  0.00     0.278 HD
ATOM     11  H12 UNL     1      -4.932   4.086  12.175  1.00  0.00     0.278 HD
ENDROOT
BRANCH   6  12
HETATM   12  C6  UNL     1      -4.665   2.636  15.744  1.00  0.00     0.011 C 
BRANCH  12  13
HETATM   13  C7  UNL     1      -5.400   2.267  16.988  1.00  0.00    -0.014 C 
HETATM   14  C8  UNL     1      -6.734   3.002  17.053  1.00  0.00     0.005 C 
HETATM   15  C9  UNL     1      -7.382   1.643  17.314  1.00  0.00     0.001 C 
HETATM   16  C10 UNL     1      -6.068   0.937  17.021  1.00  0.00     0.005 C 
ENDBRANCH  12  13
ENDBRANCH   6  12
TORSDOF 2
ENDMDL
MODEL 4
REMARK VINA RESULT: -5.995926912      3.003      4.798
REMARK  2 active torsions:
REMARK  status: ('A' for Active; 'I' for Inactive)
REMARK    1  A    between atoms: C5_6  and  C6_7 
REMARK    2  A    between atoms: C6_7  and  C7_8 
ROOT
HETATM    1  F1  UNL     1      -2.644   4.028  12.818  1.00  0.00    -0.249 F 
HETATM    2  C1  UNL     1      -4.029   4.112  12.738  1.00  0.00     0.174 C 
HETATM    3  C2  UNL     1      -4.450   5.516  13.039  1.00  0.00     0.070 C 
HETATM    4  C3  UNL     1      -4.891   5.590  14.499  1.00  0.00     0.189 C 
HETATM    5  C4  UNL     1      -6.322   5.113  14.538  1.00  0.00     0.039 C 
HETATM    6  C5  UNL     1      -6.224   3.792  15.317  1.00  0.00     0.018 C 
HETATM    7  C11 UNL     1      -4.812   3.405  15.018  1.00  0.00     0.193 C 
HETATM    8  C12 UNL     1      -4.723   3.069  13.544  1.00  0.00     0.070 C 
HETATM    9  N1  UNL     1      -4.096   4.640  15.218  1.00  0.00    -0.066 N 
ATOM     10  H11 UNL     1      -3.924   4.880  16.194  1.00  0.00     0.278 HD
ATOM     11  H12 UNL     1      -3.114   4.612  14.944  1.00  0.00     0.278 HD
ENDROOT
BRANCH   6  12
HETATM   12  C6  UNL     1      -6.492   4.112  16.748  1.00  0.00     0.011 C 
BRANCH  12  13
HETATM   13  C7  UNL     1      -6.930   2.943  17.565  1.00  0.00    -0.014 C 
HETATM   14  C8  UNL     1      -7.374   1.800  16.660  1.00  0.00     0.005 C 
HETATM   15  C9  UNL     1      -6.439   0.901  17.469  1.00  0.00     0.001 C 
HETATM   16  C10 UNL     1      -5.867   2.109  18.192  1.00  0.00     0.005 C 
ENDBRANCH  12  13
ENDBRANCH   6  12
TORSDOF 2
ENDMDL
MODEL 5
REMARK VINA RESULT: -5.977853921      3.759      5.140
REMARK  2 active torsions:
REMARK  status: ('A' for Active; 'I' for Inactive)
REMARK    1  A    between atoms: C5_6  and  C6_7 
REMARK    2  A    between atoms: C6_7  and  C7_8 
ROOT
HETATM    1  F1  UNL     1      -3.627   7.305  12.813  1.00  0.00    -0.249 F 
HETATM    2  C1  UNL     1      -3.342   6.711  14.037  1.00  0.00     0.174 C 
HETATM    3  C2  UNL     1      -2.494   5.501  13.805  1.00  0.00     0.070 C 
HETATM    4  C3  UNL     1      -3.390   4.266  13.824  1.00  0.00     0.189 C 
HETATM    5  C4  UNL     1      -3.584   3.899  15.275  1.00  0.00     0.039 C 
HETATM    6  C5  UNL     1      -5.077   4.181  15.506  1.00  0.00     0.018 C 
HETATM    7  C11 UNL     1      -5.320   5.223  14.464  1.00  0.00     0.193 C 
HETATM    8  C12 UNL     1      -4.558   6.469  14.863  1.00  0.00     0.070 C 
HETATM    9  N1  UNL     1      -4.662   4.673  13.306  1.00  0.00    -0.066 N 
ATOM     10  H11 UNL     1      -5.183   3.937  12.828  1.00  0.00     0.278 HD
ATOM     11  H12 UNL     1      -4.614   5.301  12.504  1.00  0.00     0.278 HD
ENDROOT
BRANCH   6  12
HETATM   12  C6  UNL     1      -5.799   2.896  15.283  1.00  0.00     0.011 C 
BRANCH  12  13
HETATM   13  C7  UNL     1      -6.685   2.488  16.411  1.00  0.00    -0.014 C 
HETATM   14  C8  UNL     1      -5.977   1.473  17.301  1.00  0.00     0.005 C 
HETATM   15  C9  UNL     1      -6.351   2.364  18.484  1.00  0.00     0.001 C 
HETATM   16  C10 UNL     1      -6.845   3.448  17.539  1.00  0.00     0.005 C 
ENDBRANCH  12  13
ENDBRANCH   6  12
TORSDOF 2
ENDMDL
