MODEL 1
REMARK VINA RESULT: -5.815585185      0.000      0.000
REMARK  3 active torsions:
REMARK  status: ('A' for Active; 'I' for Inactive)
REMARK    1  A    between atoms: N1_2  and  C2_4 
REMARK    2  A    between atoms: C3_8  and  C4_9 
REMARK       I    between atoms: C4_9  and  N3_11 
REMARK    3  A    between atoms: N3_11  and  C5_13 
ROOT
HETATM    1  C2  UNL     1       6.898  14.047  24.770  1.00  0.00     0.113 A 
HETATM    2  S1  UNL     1       8.506  13.855  25.290  1.00  0.00     0.006 SA
HETATM    3  N2  UNL     1       8.727  12.258  24.852  1.00  0.00    -0.319 N 
ATOM      4  H2  UNL     1       9.568  11.693  24.973  1.00  0.00     0.174 HD
HETATM    5  C3  UNL     1       7.572  11.881  24.312  1.00  0.00     0.134 A 
HETATM    6  C9  UNL     1       6.582  12.817  24.257  1.00  0.00     0.114 A 
HETATM    7  N4  UNL     1       5.260  12.553  23.692  1.00  0.00    -0.097 NA
ENDROOT
BRANCH   5   8
HETATM    8  C4  UNL     1       7.419  10.481  23.800  1.00  0.00     0.271 C 
HETATM    9  O1  UNL     1       8.296   9.960  23.070  1.00  0.00    -0.266 OA
HETATM   10  N3  UNL     1       6.283   9.716  24.128  1.00  0.00    -0.348 N 
ATOM     11  H3  UNL     1       5.568  10.138  24.722  1.00  0.00     0.163 HD
BRANCH  10  12
HETATM   12  C5  UNL     1       6.082   8.371  23.666  1.00  0.00     0.022 C 
HETATM   13  C6  UNL     1       7.239   7.466  23.954  1.00  0.00     0.037 C 
HETATM   14  C7  UNL     1       4.866   7.788  24.383  1.00  0.00     0.037 C 
HETATM   15  C8  UNL     1       5.801   8.307  22.180  1.00  0.00     0.037 C 
ENDBRANCH  10  12
ENDBRANCH   5   8
BRANCH   1  16
HETATM   16  N1  UNL     1       6.039  15.207  24.837  1.00  0.00    -0.386 N 
HETATM   17  C1  UNL     1       5.031  15.211  25.858  1.00  0.00     0.147 C 
ATOM     18  H1  UNL     1       6.144  15.988  24.188  1.00  0.00     0.159 HD
ENDBRANCH   1  16
TORSDOF 3
ENDMDL
MODEL 2
REMARK VINA RESULT: -5.798582157      2.631      5.921
REMARK  3 active torsions:
REMARK  status: ('A' for Active; 'I' for Inactive)
REMARK    1  A    between atoms: N1_2  and  C2_4 
REMARK    2  A    between atoms: C3_8  and  C4_9 
REMARK       I    between atoms: C4_9  and  N3_11 
REMARK    3  A    between atoms: N3_11  and  C5_13 
ROOT
HETATM    1  C2  UNL     1       7.102   7.907  23.705  1.00  0.00     0.113 A 
HETATM    2  S1  UNL     1       5.432   7.656  23.913  1.00  0.00     0.006 SA
HETATM    3  N2  UNL     1       4.957   9.245  24.105  1.00  0.00    -0.319 N 
ATOM      4  H2  UNL     1       4.012   9.595  24.262  1.00  0.00     0.174 HD
HETATM    5  C3  UNL     1       6.076   9.959  24.010  1.00  0.00     0.134 A 
HETATM    6  C9  UNL     1       7.231   9.267  23.797  1.00  0.00     0.114 A 
HETATM    7  N4  UNL     1       8.537   9.911  23.669  1.00  0.00    -0.097 NA
ENDROOT
BRANCH   5   8
HETATM    8  C4  UNL     1       6.013  11.451  24.137  1.00  0.00     0.271 C 
HETATM    9  O1  UNL     1       5.243  12.129  23.415  1.00  0.00    -0.266 OA
HETATM   10  N3  UNL     1       6.819  12.127  25.073  1.00  0.00    -0.348 N 
ATOM     11  H3  UNL     1       7.445  11.577  25.662  1.00  0.00     0.163 HD
BRANCH  10  12
HETATM   12  C5  UNL     1       6.802  13.554  25.238  1.00  0.00     0.022 C 
HETATM   13  C6  UNL     1       5.424  14.138  25.206  1.00  0.00     0.037 C 
HETATM   14  C7  UNL     1       7.402  13.891  26.601  1.00  0.00     0.037 C 
HETATM   15  C8  UNL     1       7.633  14.265  24.191  1.00  0.00     0.037 C 
ENDBRANCH  10  12
ENDBRANCH   5   8
BRANCH   1  16
HETATM   16  N1  UNL     1       8.159   6.947  23.484  1.00  0.00    -0.386 N 
HETATM   17  C1  UNL     1       7.765   5.632  23.066  1.00  0.00     0.147 C 
ATOM     18  H1  UNL     1       9.141   7.192  23.619  1.00  0.00     0.159 HD
ENDBRANCH   1  16
TORSDOF 3
ENDMDL
MODEL 3
REMARK VINA RESULT: -5.791941138      2.355      5.373
REMARK  3 active torsions:
REMARK  status: ('A' for Active; 'I' for Inactive)
REMARK    1  A    between atoms: N1_2  and  C2_4 
REMARK    2  A    between atoms: C3_8  and  C4_9 
REMARK       I    between atoms: C4_9  and  N3_11 
REMARK    3  A    between atoms: N3_11  and  C5_13 
ROOT
HETATM    1  C2  UNL     1       5.575   8.722  22.696  1.00  0.00     0.113 A 
HETATM    2  S1  UNL     1       7.031   7.879  22.949  1.00  0.00     0.006 SA
HETATM    3  N2  UNL     1       7.907   9.097  23.683  1.00  0.00    -0.319 N 
ATOM      4  H2  UNL     1       8.868   9.051  24.022  1.00  0.00     0.174 HD
HETATM    5  C3  UNL     1       7.084  10.141  23.729  1.00  0.00     0.134 A 
HETATM    6  C9  UNL     1       5.836   9.965  23.210  1.00  0.00     0.114 A 
HETATM    7  N4  UNL     1       4.821  11.017  23.190  1.00  0.00    -0.097 NA
ENDROOT
BRANCH   5   8
HETATM    8  C4  UNL     1       7.556  11.426  24.338  1.00  0.00     0.271 C 
HETATM    9  O1  UNL     1       8.730  11.548  24.762  1.00  0.00    -0.266 OA
HETATM   10  N3  UNL     1       6.689  12.530  24.448  1.00  0.00    -0.348 N 
ATOM     11  H3  UNL     1       5.734  12.434  24.103  1.00  0.00     0.163 HD
BRANCH  10  12
HETATM   12  C5  UNL     1       7.086  13.786  25.022  1.00  0.00     0.022 C 
HETATM   13  C6  UNL     1       7.507  13.676  26.454  1.00  0.00     0.037 C 
HETATM   14  C7  UNL     1       8.284  14.320  24.240  1.00  0.00     0.037 C 
HETATM   15  C8  UNL     1       5.992  14.829  24.939  1.00  0.00     0.037 C 
ENDBRANCH  10  12
ENDBRANCH   5   8
BRANCH   1  16
HETATM   16  N1  UNL     1       4.343   8.274  22.089  1.00  0.00    -0.386 N 
HETATM   17  C1  UNL     1       3.506   7.416  22.877  1.00  0.00     0.147 C 
ATOM     18  H1  UNL     1       4.079   8.555  21.143  1.00  0.00     0.159 HD
ENDBRANCH   1  16
TORSDOF 3
ENDMDL
MODEL 4
REMARK VINA RESULT: -5.749825745      2.378      5.386
REMARK  3 active torsions:
REMARK  status: ('A' for Active; 'I' for Inactive)
REMARK    1  A    between atoms: N1_2  and  C2_4 
REMARK    2  A    between atoms: C3_8  and  C4_9 
REMARK       I    between atoms: C4_9  and  N3_11 
REMARK    3  A    between atoms: N3_11  and  C5_13 
ROOT
HETATM    1  C2  UNL     1       5.505   8.679  22.628  1.00  0.00     0.113 A 
HETATM    2  S1  UNL     1       6.944   7.809  22.887  1.00  0.00     0.006 SA
HETATM    3  N2  UNL     1       7.845   9.015  23.611  1.00  0.00    -0.319 N 
ATOM      4  H2  UNL     1       8.805   8.952  23.950  1.00  0.00     0.174 HD
HETATM    5  C3  UNL     1       7.043  10.075  23.650  1.00  0.00     0.134 A 
HETATM    6  C9  UNL     1       5.791   9.920  23.133  1.00  0.00     0.114 A 
HETATM    7  N4  UNL     1       4.798  10.992  23.106  1.00  0.00    -0.097 NA
ENDROOT
BRANCH   5   8
HETATM    8  C4  UNL     1       7.541  11.355  24.249  1.00  0.00     0.271 C 
HETATM    9  O1  UNL     1       8.730  11.470  24.633  1.00  0.00    -0.266 OA
HETATM   10  N3  UNL     1       6.683  12.462  24.395  1.00  0.00    -0.348 N 
ATOM     11  H3  UNL     1       5.716  12.371  24.083  1.00  0.00     0.163 HD
BRANCH  10  12
HETATM   12  C5  UNL     1       7.105  13.713  24.962  1.00  0.00     0.022 C 
HETATM   13  C6  UNL     1       8.242  14.345  24.223  1.00  0.00     0.037 C 
HETATM   14  C7  UNL     1       5.933  14.690  24.906  1.00  0.00     0.037 C 
HETATM   15  C8  UNL     1       7.511  13.580  26.414  1.00  0.00     0.037 C 
ENDBRANCH  10  12
ENDBRANCH   5   8
BRANCH   1  16
HETATM   16  N1  UNL     1       4.263   8.251  22.026  1.00  0.00    -0.386 N 
HETATM   17  C1  UNL     1       3.473   7.311  22.767  1.00  0.00     0.147 C 
ATOM     18  H1  UNL     1       3.962   8.602  21.116  1.00  0.00     0.159 HD
ENDBRANCH   1  16
TORSDOF 3
ENDMDL
MODEL 5
REMARK VINA RESULT: -5.710484467      2.602      5.515
REMARK  3 active torsions:
REMARK  status: ('A' for Active; 'I' for Inactive)
REMARK    1  A    between atoms: N1_2  and  C2_4 
REMARK    2  A    between atoms: C3_8  and  C4_9 
REMARK       I    between atoms: C4_9  and  N3_11 
REMARK    3  A    between atoms: N3_11  and  C5_13 
ROOT
HETATM    1  C2  UNL     1       4.340   9.043  22.596  1.00  0.00     0.113 A 
HETATM    2  S1  UNL     1       5.550   8.767  21.432  1.00  0.00     0.006 SA
HETATM    3  N2  UNL     1       6.663   9.900  21.947  1.00  0.00    -0.319 N 
ATOM      4  H2  UNL     1       7.576  10.102  21.538  1.00  0.00     0.174 HD
HETATM    5  C3  UNL     1       6.105  10.483  23.005  1.00  0.00     0.134 A 
HETATM    6  C9  UNL     1       4.868  10.043  23.369  1.00  0.00     0.114 A 
HETATM    7  N4  UNL     1       4.129  10.584  24.509  1.00  0.00    -0.097 NA
ENDROOT
BRANCH   5   8
HETATM    8  C4  UNL     1       6.847  11.566  23.727  1.00  0.00     0.271 C 
HETATM    9  O1  UNL     1       8.068  11.448  23.992  1.00  0.00    -0.266 OA
HETATM   10  N3  UNL     1       6.188  12.745  24.126  1.00  0.00    -0.348 N 
ATOM     11  H3  UNL     1       5.195  12.843  23.912  1.00  0.00     0.163 HD
BRANCH  10  12
HETATM   12  C5  UNL     1       6.847  13.815  24.822  1.00  0.00     0.022 C 
HETATM   13  C6  UNL     1       8.067  14.318  24.116  1.00  0.00     0.037 C 
HETATM   14  C7  UNL     1       5.877  14.989  24.936  1.00  0.00     0.037 C 
HETATM   15  C8  UNL     1       7.251  13.427  26.228  1.00  0.00     0.037 C 
ENDBRANCH  10  12
ENDBRANCH   5   8
BRANCH   1  16
HETATM   16  N1  UNL     1       3.055   8.402  22.762  1.00  0.00    -0.386 N 
HETATM   17  C1  UNL     1       3.065   7.012  23.117  1.00  0.00     0.147 C 
ATOM     18  H1  UNL     1       2.182   8.914  22.633  1.00  0.00     0.159 HD
ENDBRANCH   1  16
TORSDOF 3
ENDMDL
