MODEL 1
REMARK VINA RESULT: -7.671980058      0.000      0.000
REMARK  7 active torsions:
REMARK  status: ('A' for Active; 'I' for Inactive)
REMARK    1  A    between atoms: S1_2  and  C1_4 
REMARK    2  A    between atoms: S1_2  and  N3_21 
REMARK    3  A    between atoms: C4_9  and  N1_10 
REMARK    4  A    between atoms: N1_10  and  C5_12 
REMARK    5  A    between atoms: C5_12  and  C6_13 
REMARK    6  A    between atoms: C6_13  and  C7_14 
REMARK    7  A    between atoms: C7_14  and  N2_15 
ROOT
HETATM    1  C1  UNL     1      16.965  64.781  29.579  1.00  0.00     0.142 A 
HETATM    2  S2  UNL     1      15.397  65.453  29.800  1.00  0.00    -0.067 SA
HETATM    3  C2  UNL     1      15.423  65.652  31.481  1.00  0.00     0.055 A 
HETATM    4 BR1  UNL     1      14.039  66.363  32.625  1.00  0.00    -0.043 Br
HETATM    5  C3  UNL     1      16.658  65.189  31.839  1.00  0.00     0.057 A 
HETATM    6  C4  UNL     1      17.456  64.736  30.853  1.00  0.00     0.060 A 
ENDROOT
BRANCH   6   7
HETATM    7  N1  UNL     1      18.787  64.227  31.124  1.00  0.00    -0.388 N 
ATOM      8  H1  UNL     1      19.331  63.848  30.349  1.00  0.00     0.159 HD
BRANCH   7   9
HETATM    9  C5  UNL     1      19.378  64.232  32.443  1.00  0.00     0.121 C 
BRANCH   9  10
HETATM   10  C6  UNL     1      19.690  62.806  32.869  1.00  0.00     0.050 C 
BRANCH  10  11
HETATM   11  C7  UNL     1      21.133  62.652  33.255  1.00  0.00     0.274 C 
BRANCH  11  12
HETATM   12  N2  UNL     1      21.241  61.834  34.426  1.00  0.00     0.092 N 
HETATM   13  C8  UNL     1      20.467  62.234  35.551  1.00  0.00     0.298 C 
HETATM   14  C9  UNL     1      21.110  63.392  36.296  1.00  0.00     0.198 C 
HETATM   15  O3  UNL     1      22.344  62.958  36.722  1.00  0.00    -0.388 OA
HETATM   16  C10 UNL     1      23.193  62.610  35.690  1.00  0.00     0.198 C 
HETATM   17  C11 UNL     1      22.625  61.549  34.771  1.00  0.00     0.298 C 
ENDBRANCH  11  12
ENDBRANCH  10  11
ENDBRANCH   9  10
ENDBRANCH   7   9
ENDBRANCH   6   7
BRANCH   1  18
HETATM   18  S1  UNL     1      17.709  64.278  28.054  1.00  0.00     0.252 S 
HETATM   19  O1  UNL     1      19.132  63.978  28.297  1.00  0.00    -0.205 OA
HETATM   20  O2  UNL     1      17.670  65.446  27.076  1.00  0.00    -0.205 OA
BRANCH  18  21
HETATM   21  N3  UNL     1      16.933  62.941  27.349  1.00  0.00    -0.206 NA
HETATM   22  C12 UNL     1      15.943  62.298  28.149  1.00  0.00     0.107 C 
HETATM   23  C13 UNL     1      14.622  62.342  27.388  1.00  0.00     0.017 C 
HETATM   24  C14 UNL     1      14.816  63.584  26.548  1.00  0.00     0.017 C 
HETATM   25  C15 UNL     1      16.283  63.399  26.135  1.00  0.00     0.107 C 
ENDBRANCH  18  21
ENDBRANCH   1  18
TORSDOF 7
ENDMDL
MODEL 2
REMARK VINA RESULT: -7.664084881      0.698      1.241
REMARK  7 active torsions:
REMARK  status: ('A' for Active; 'I' for Inactive)
REMARK    1  A    between atoms: S1_2  and  C1_4 
REMARK    2  A    between atoms: S1_2  and  N3_21 
REMARK    3  A    between atoms: C4_9  and  N1_10 
REMARK    4  A    between atoms: N1_10  and  C5_12 
REMARK    5  A    between atoms: C5_12  and  C6_13 
REMARK    6  A    between atoms: C6_13  and  C7_14 
REMARK    7  A    between atoms: C7_14  and  N2_15 
ROOT
HETATM    1  C1  UNL     1      16.957  64.790  29.613  1.00  0.00     0.142 A 
HETATM    2  S2  UNL     1      15.416  65.524  29.824  1.00  0.00    -0.067 SA
HETATM    3  C2  UNL     1      15.425  65.694  31.508  1.00  0.00     0.055 A 
HETATM    4 BR1  UNL     1      14.056  66.444  32.645  1.00  0.00    -0.043 Br
HETATM    5  C3  UNL     1      16.634  65.174  31.875  1.00  0.00     0.057 A 
HETATM    6  C4  UNL     1      17.427  64.704  30.893  1.00  0.00     0.060 A 
ENDROOT
BRANCH   6   7
HETATM    7  N1  UNL     1      18.731  64.135  31.174  1.00  0.00    -0.388 N 
ATOM      8  H1  UNL     1      19.482  64.280  30.499  1.00  0.00     0.159 HD
BRANCH   7   9
HETATM    9  C5  UNL     1      19.016  63.371  32.368  1.00  0.00     0.121 C 
BRANCH   9  10
HETATM   10  C6  UNL     1      20.441  63.647  32.824  1.00  0.00     0.050 C 
BRANCH  10  11
HETATM   11  C7  UNL     1      21.125  62.390  33.276  1.00  0.00     0.274 C 
BRANCH  11  12
HETATM   12  N2  UNL     1      21.862  62.641  34.479  1.00  0.00     0.092 N 
HETATM   13  C8  UNL     1      22.655  61.567  34.970  1.00  0.00     0.298 C 
HETATM   14  C9  UNL     1      21.815  60.530  35.697  1.00  0.00     0.198 C 
HETATM   15  O3  UNL     1      21.211  61.172  36.753  1.00  0.00    -0.388 OA
HETATM   16  C10 UNL     1      20.364  62.192  36.367  1.00  0.00     0.198 C 
HETATM   17  C11 UNL     1      21.036  63.245  35.513  1.00  0.00     0.298 C 
ENDBRANCH  11  12
ENDBRANCH  10  11
ENDBRANCH   9  10
ENDBRANCH   7   9
ENDBRANCH   6   7
BRANCH   1  18
HETATM   18  S1  UNL     1      17.701  64.280  28.090  1.00  0.00     0.252 S 
HETATM   19  O1  UNL     1      19.121  63.971  28.337  1.00  0.00    -0.205 OA
HETATM   20  O2  UNL     1      17.673  65.448  27.112  1.00  0.00    -0.205 OA
BRANCH  18  21
HETATM   21  N3  UNL     1      16.917  62.949  27.384  1.00  0.00    -0.206 NA
HETATM   22  C12 UNL     1      15.911  62.323  28.177  1.00  0.00     0.107 C 
HETATM   23  C13 UNL     1      14.599  62.377  27.401  1.00  0.00     0.017 C 
HETATM   24  C14 UNL     1      14.817  63.613  26.555  1.00  0.00     0.017 C 
HETATM   25  C15 UNL     1      16.287  63.408  26.161  1.00  0.00     0.107 C 
ENDBRANCH  18  21
ENDBRANCH   1  18
TORSDOF 7
ENDMDL
MODEL 3
REMARK VINA RESULT: -7.583603832      1.410      1.955
REMARK  7 active torsions:
REMARK  status: ('A' for Active; 'I' for Inactive)
REMARK    1  A    between atoms: S1_2  and  C1_4 
REMARK    2  A    between atoms: S1_2  and  N3_21 
REMARK    3  A    between atoms: C4_9  and  N1_10 
REMARK    4  A    between atoms: N1_10  and  C5_12 
REMARK    5  A    between atoms: C5_12  and  C6_13 
REMARK    6  A    between atoms: C6_13  and  C7_14 
REMARK    7  A    between atoms: C7_14  and  N2_15 
ROOT
HETATM    1  C1  UNL     1      16.633  64.703  29.615  1.00  0.00     0.142 A 
HETATM    2  S2  UNL     1      15.161  65.532  29.936  1.00  0.00    -0.067 SA
HETATM    3  C2  UNL     1      15.368  65.821  31.591  1.00  0.00     0.055 A 
HETATM    4 BR1  UNL     1      14.172  66.722  32.810  1.00  0.00    -0.043 Br
HETATM    5  C3  UNL     1      16.586  65.264  31.862  1.00  0.00     0.057 A 
HETATM    6  C4  UNL     1      17.241  64.684  30.838  1.00  0.00     0.060 A 
ENDROOT
BRANCH   6   7
HETATM    7  N1  UNL     1      18.541  64.067  31.017  1.00  0.00    -0.388 N 
ATOM      8  H1  UNL     1      19.173  64.019  30.218  1.00  0.00     0.159 HD
BRANCH   7   9
HETATM    9  C5  UNL     1      18.984  63.516  32.278  1.00  0.00     0.121 C 
BRANCH   9  10
HETATM   10  C6  UNL     1      20.114  64.367  32.839  1.00  0.00     0.050 C 
BRANCH  10  11
HETATM   11  C7  UNL     1      20.203  64.244  34.333  1.00  0.00     0.274 C 
BRANCH  11  12
HETATM   12  N2  UNL     1      20.424  62.877  34.698  1.00  0.00     0.092 N 
HETATM   13  C8  UNL     1      20.001  62.494  36.001  1.00  0.00     0.298 C 
HETATM   14  C9  UNL     1      20.985  62.942  37.069  1.00  0.00     0.198 C 
HETATM   15  O3  UNL     1      22.188  62.338  36.784  1.00  0.00    -0.388 OA
HETATM   16  C10 UNL     1      22.712  62.704  35.560  1.00  0.00     0.198 C 
HETATM   17  C11 UNL     1      21.779  62.440  34.398  1.00  0.00     0.298 C 
ENDBRANCH  11  12
ENDBRANCH  10  11
ENDBRANCH   9  10
ENDBRANCH   7   9
ENDBRANCH   6   7
BRANCH   1  18
HETATM   18  S1  UNL     1      17.176  64.048  28.063  1.00  0.00     0.252 S 
HETATM   19  O1  UNL     1      16.589  62.708  27.883  1.00  0.00    -0.205 OA
HETATM   20  O2  UNL     1      18.688  63.859  28.108  1.00  0.00    -0.205 OA
BRANCH  18  21
HETATM   21  N3  UNL     1      16.784  65.050  26.748  1.00  0.00    -0.206 NA
HETATM   22  C12 UNL     1      17.849  65.837  26.221  1.00  0.00     0.107 C 
HETATM   23  C13 UNL     1      18.020  65.474  24.749  1.00  0.00     0.017 C 
HETATM   24  C14 UNL     1      17.508  64.050  24.745  1.00  0.00     0.017 C 
HETATM   25  C15 UNL     1      16.298  64.200  25.677  1.00  0.00     0.107 C 
ENDBRANCH  18  21
ENDBRANCH   1  18
TORSDOF 7
ENDMDL
MODEL 4
REMARK VINA RESULT: -7.507157914      3.294      4.372
REMARK  7 active torsions:
REMARK  status: ('A' for Active; 'I' for Inactive)
REMARK    1  A    between atoms: S1_2  and  C1_4 
REMARK    2  A    between atoms: S1_2  and  N3_21 
REMARK    3  A    between atoms: C4_9  and  N1_10 
REMARK    4  A    between atoms: N1_10  and  C5_12 
REMARK    5  A    between atoms: C5_12  and  C6_13 
REMARK    6  A    between atoms: C6_13  and  C7_14 
REMARK    7  A    between atoms: C7_14  and  N2_15 
ROOT
HETATM    1  C1  UNL     1      15.617  65.225  30.390  1.00  0.00     0.142 A 
HETATM    2  S2  UNL     1      15.236  64.635  28.820  1.00  0.00    -0.067 SA
HETATM    3  C2  UNL     1      16.694  63.849  28.466  1.00  0.00     0.055 A 
HETATM    4 BR1  UNL     1      17.176  62.881  26.867  1.00  0.00    -0.043 Br
HETATM    5  C3  UNL     1      17.451  64.063  29.583  1.00  0.00     0.057 A 
HETATM    6  C4  UNL     1      16.893  64.777  30.580  1.00  0.00     0.060 A 
ENDROOT
BRANCH   6   7
HETATM    7  N1  UNL     1      17.610  65.057  31.809  1.00  0.00    -0.388 N 
ATOM      8  H1  UNL     1      17.610  66.013  32.165  1.00  0.00     0.159 HD
BRANCH   7   9
HETATM    9  C5  UNL     1      18.323  64.044  32.553  1.00  0.00     0.121 C 
BRANCH   9  10
HETATM   10  C6  UNL     1      19.727  64.537  32.871  1.00  0.00     0.050 C 
BRANCH  10  11
HETATM   11  C7  UNL     1      20.019  64.451  34.340  1.00  0.00     0.274 C 
BRANCH  11  12
HETATM   12  N2  UNL     1      20.116  63.079  34.740  1.00  0.00     0.092 N 
HETATM   13  C8  UNL     1      19.945  62.810  36.126  1.00  0.00     0.298 C 
HETATM   14  C9  UNL     1      21.196  63.135  36.924  1.00  0.00     0.198 C 
HETATM   15  O3  UNL     1      22.205  62.343  36.428  1.00  0.00    -0.388 OA
HETATM   16  C10 UNL     1      22.490  62.583  35.098  1.00  0.00     0.198 C 
HETATM   17  C11 UNL     1      21.294  62.428  34.185  1.00  0.00     0.298 C 
ENDBRANCH  11  12
ENDBRANCH  10  11
ENDBRANCH   9  10
ENDBRANCH   7   9
ENDBRANCH   6   7
BRANCH   1  18
HETATM   18  S1  UNL     1      14.576  66.183  31.454  1.00  0.00     0.252 S 
HETATM   19  O1  UNL     1      15.427  66.973  32.362  1.00  0.00    -0.205 OA
HETATM   20  O2  UNL     1      13.764  65.238  32.331  1.00  0.00    -0.205 OA
BRANCH  18  21
HETATM   21  N3  UNL     1      13.514  67.198  30.603  1.00  0.00    -0.206 NA
HETATM   22  C12 UNL     1      12.240  66.643  30.283  1.00  0.00     0.107 C 
HETATM   23  C13 UNL     1      11.169  67.531  30.911  1.00  0.00     0.017 C 
HETATM   24  C14 UNL     1      11.929  68.110  32.084  1.00  0.00     0.017 C 
HETATM   25  C15 UNL     1      13.285  68.377  31.416  1.00  0.00     0.107 C 
ENDBRANCH  18  21
ENDBRANCH   1  18
TORSDOF 7
ENDMDL
MODEL 5
REMARK VINA RESULT: -7.431728963      1.303      1.848
REMARK  7 active torsions:
REMARK  status: ('A' for Active; 'I' for Inactive)
REMARK    1  A    between atoms: S1_2  and  C1_4 
REMARK    2  A    between atoms: S1_2  and  N3_21 
REMARK    3  A    between atoms: C4_9  and  N1_10 
REMARK    4  A    between atoms: N1_10  and  C5_12 
REMARK    5  A    between atoms: C5_12  and  C6_13 
REMARK    6  A    between atoms: C6_13  and  C7_14 
REMARK    7  A    between atoms: C7_14  and  N2_15 
ROOT
HETATM    1  C1  UNL     1      15.889  65.293  29.228  1.00  0.00     0.142 A 
HETATM    2  S2  UNL     1      14.241  65.756  29.058  1.00  0.00    -0.067 SA
HETATM    3  C2  UNL     1      13.818  65.852  30.695  1.00  0.00     0.055 A 
HETATM    4 BR1  UNL     1      12.110  66.318  31.466  1.00  0.00    -0.043 Br
HETATM    5  C3  UNL     1      14.974  65.519  31.344  1.00  0.00     0.057 A 
HETATM    6  C4  UNL     1      16.047  65.229  30.583  1.00  0.00     0.060 A 
ENDROOT
BRANCH   6   7
HETATM    7  N1  UNL     1      17.322  64.867  31.172  1.00  0.00    -0.388 N 
ATOM      8  H1  UNL     1      17.979  64.323  30.613  1.00  0.00     0.159 HD
BRANCH   7   9
HETATM    9  C5  UNL     1      17.704  65.243  32.514  1.00  0.00     0.121 C 
BRANCH   9  10
HETATM   10  C6  UNL     1      17.777  64.002  33.391  1.00  0.00     0.050 C 
BRANCH  10  11
HETATM   11  C7  UNL     1      19.033  63.221  33.133  1.00  0.00     0.274 C 
BRANCH  11  12
HETATM   12  N2  UNL     1      20.167  63.942  33.629  1.00  0.00     0.092 N 
HETATM   13  C8  UNL     1      21.444  63.494  33.189  1.00  0.00     0.298 C 
HETATM   14  C9  UNL     1      21.897  62.254  33.941  1.00  0.00     0.198 C 
HETATM   15  O3  UNL     1      21.968  62.596  35.272  1.00  0.00    -0.388 OA
HETATM   16  C10 UNL     1      20.754  62.982  35.807  1.00  0.00     0.198 C 
HETATM   17  C11 UNL     1      20.107  64.135  35.070  1.00  0.00     0.298 C 
ENDBRANCH  11  12
ENDBRANCH  10  11
ENDBRANCH   9  10
ENDBRANCH   7   9
ENDBRANCH   6   7
BRANCH   1  18
HETATM   18  S1  UNL     1      17.051  64.979  27.930  1.00  0.00     0.252 S 
HETATM   19  O1  UNL     1      18.413  65.040  28.490  1.00  0.00    -0.205 OA
HETATM   20  O2  UNL     1      16.954  66.097  26.899  1.00  0.00    -0.205 OA
BRANCH  18  21
HETATM   21  N3  UNL     1      16.793  63.489  27.157  1.00  0.00    -0.206 NA
HETATM   22  C12 UNL     1      15.962  62.560  27.850  1.00  0.00     0.107 C 
HETATM   23  C13 UNL     1      14.778  62.224  26.948  1.00  0.00     0.017 C 
HETATM   24  C14 UNL     1      14.680  63.488  26.122  1.00  0.00     0.017 C 
HETATM   25  C15 UNL     1      16.170  63.761  25.875  1.00  0.00     0.107 C 
ENDBRANCH  18  21
ENDBRANCH   1  18
TORSDOF 7
ENDMDL
