MODEL 1
REMARK VINA RESULT: -9.524662931      0.000      0.000
REMARK  10 active torsions:
REMARK  status: ('A' for Active; 'I' for Inactive)
REMARK    1  A    between atoms: C2_2  and  C3_3 
REMARK       I    between atoms: C3_3  and  N1_5 
REMARK    2  A    between atoms: N1_5  and  C4_7 
REMARK    3  A    between atoms: C4_7  and  C5_8 
REMARK    4  A    between atoms: C5_8  and  C6_9 
REMARK    5  A    between atoms: C6_9  and  N2_10 
REMARK    6  A    between atoms: N3_13  and  C9_14 
REMARK    7  A    between atoms: C9_14  and  O2_15 
REMARK    8  A    between atoms: C9_14  and  C10_17 
REMARK    9  A    between atoms: C11_18  and  C12_19 
REMARK   10  A    between atoms: C12_19  and  C13_21 
ROOT
HETATM    1  N2  UNL     1      18.822  63.649  32.426  1.00  0.00    -0.390 N 
HETATM    2  C7  UNL     1      18.396  64.727  33.243  1.00  0.00     0.141 C 
HETATM    3  C8  UNL     1      16.834  64.611  33.274  1.00  0.00     0.145 C 
HETATM    4  N3  UNL     1      16.339  65.114  32.044  1.00  0.00    -0.358 N 
HETATM    5  C21 UNL     1      17.224  64.653  30.889  1.00  0.00     0.145 C 
HETATM    6  C22 UNL     1      17.928  63.406  31.312  1.00  0.00     0.141 C 
ENDROOT
BRANCH   4   7
HETATM    7  C9  UNL     1      15.246  65.863  31.703  1.00  0.00     0.145 C 
BRANCH   7   8
HETATM    8  O2  UNL     1      15.189  65.666  30.298  1.00  0.00    -0.346 OA
ATOM      9  H2  UNL     1      14.677  66.416  30.020  1.00  0.00     0.219 HD
ENDBRANCH   7   8
BRANCH   7  10
HETATM   10  C10 UNL     1      14.161  66.712  31.927  1.00  0.00     0.003 C 
HETATM   11  C11 UNL     1      12.900  66.480  32.132  1.00  0.00     0.004 C 
HETATM   12  C17 UNL     1      12.048  67.731  32.277  1.00  0.00     0.043 C 
HETATM   13  C18 UNL     1      12.293  68.528  30.983  1.00  0.00     0.005 C 
HETATM   14  C19 UNL     1      13.725  69.020  31.059  1.00  0.00     0.005 C 
HETATM   15  C20 UNL     1      14.513  68.233  32.050  1.00  0.00     0.044 C 
BRANCH  11  16
HETATM   16  C12 UNL     1      12.312  65.200  32.144  1.00  0.00     0.195 C 
HETATM   17  O3  UNL     1      12.301  64.556  33.213  1.00  0.00    -0.286 OA
BRANCH  16  18
HETATM   18  C13 UNL     1      11.684  64.506  31.028  1.00  0.00     0.055 A 
HETATM   19  C14 UNL     1      10.387  64.697  30.585  1.00  0.00     0.023 A 
HETATM   20  C15 UNL     1      10.011  64.009  29.517  1.00  0.00     0.009 A 
HETATM   21  C16 UNL     1      10.908  63.166  28.926  1.00  0.00     0.050 A 
HETATM   22  S1  UNL     1      12.274  63.378  29.915  1.00  0.00    -0.098 SA
ENDBRANCH  16  18
ENDBRANCH  11  16
ENDBRANCH   7  10
ENDBRANCH   4   7
BRANCH   1  23
HETATM   23  C6  UNL     1      19.400  62.524  33.035  1.00  0.00     0.060 C 
BRANCH  23  24
HETATM   24  C5  UNL     1      20.866  62.322  32.728  1.00  0.00     0.064 C 
BRANCH  24  25
HETATM   25  C4  UNL     1      21.678  63.284  33.567  1.00  0.00     0.128 C 
BRANCH  25  26
HETATM   26  N1  UNL     1      22.276  62.699  34.727  1.00  0.00    -0.359 N 
HETATM   27  C3  UNL     1      21.727  62.690  36.013  1.00  0.00     0.239 C 
HETATM   28  O1  UNL     1      20.609  63.221  36.262  1.00  0.00    -0.272 OA
ATOM     29  H1  UNL     1      23.183  62.248  34.605  1.00  0.00     0.162 HD
BRANCH  27  30
HETATM   30  C2  UNL     1      22.470  62.042  37.123  1.00  0.00     0.116 C 
HETATM   31  C1  UNL     1      23.874  62.559  37.288  1.00  0.00     0.040 C 
HETATM   32  S2  UNL     1      21.541  62.153  38.688  1.00  0.00    -0.144 SA
HETATM   33  C23 UNL     1      22.165  60.450  38.697  1.00  0.00     0.114 C 
HETATM   34  C24 UNL     1      22.390  60.550  37.195  1.00  0.00     0.207 C 
HETATM   35  F1  UNL     1      21.398  59.996  36.434  1.00  0.00    -0.246 F 
ENDBRANCH  27  30
ENDBRANCH  25  26
ENDBRANCH  24  25
ENDBRANCH  23  24
ENDBRANCH   1  23
TORSDOF 10
ENDMDL
MODEL 2
REMARK VINA RESULT: -9.365350191      1.241      1.476
REMARK  10 active torsions:
REMARK  status: ('A' for Active; 'I' for Inactive)
REMARK    1  A    between atoms: C2_2  and  C3_3 
REMARK       I    between atoms: C3_3  and  N1_5 
REMARK    2  A    between atoms: N1_5  and  C4_7 
REMARK    3  A    between atoms: C4_7  and  C5_8 
REMARK    4  A    between atoms: C5_8  and  C6_9 
REMARK    5  A    between atoms: C6_9  and  N2_10 
REMARK    6  A    between atoms: N3_13  and  C9_14 
REMARK    7  A    between atoms: C9_14  and  O2_15 
REMARK    8  A    between atoms: C9_14  and  C10_17 
REMARK    9  A    between atoms: C11_18  and  C12_19 
REMARK   10  A    between atoms: C12_19  and  C13_21 
ROOT
HETATM    1  N2  UNL     1      18.796  63.655  32.417  1.00  0.00    -0.390 N 
HETATM    2  C7  UNL     1      18.362  64.715  33.254  1.00  0.00     0.141 C 
HETATM    3  C8  UNL     1      16.802  64.587  33.287  1.00  0.00     0.145 C 
HETATM    4  N3  UNL     1      16.301  65.107  32.066  1.00  0.00    -0.358 N 
HETATM    5  C21 UNL     1      17.186  64.674  30.902  1.00  0.00     0.145 C 
HETATM    6  C22 UNL     1      17.901  63.425  31.302  1.00  0.00     0.141 C 
ENDROOT
BRANCH   4   7
HETATM    7  C9  UNL     1      15.201  65.854  31.741  1.00  0.00     0.145 C 
BRANCH   7   8
HETATM    8  O2  UNL     1      15.065  65.576  30.355  1.00  0.00    -0.346 OA
ATOM      9  H2  UNL     1      14.885  64.643  30.364  1.00  0.00     0.219 HD
ENDBRANCH   7   8
BRANCH   7  10
HETATM   10  C10 UNL     1      14.142  66.733  31.972  1.00  0.00     0.003 C 
HETATM   11  C11 UNL     1      12.874  66.537  32.169  1.00  0.00     0.004 C 
HETATM   12  C17 UNL     1      12.060  67.812  32.327  1.00  0.00     0.043 C 
HETATM   13  C18 UNL     1      12.336  68.620  31.046  1.00  0.00     0.005 C 
HETATM   14  C19 UNL     1      13.782  69.065  31.135  1.00  0.00     0.005 C 
HETATM   15  C20 UNL     1      14.541  68.241  32.118  1.00  0.00     0.044 C 
BRANCH  11  16
HETATM   16  C12 UNL     1      12.246  65.277  32.160  1.00  0.00     0.195 C 
HETATM   17  O3  UNL     1      12.326  64.561  33.179  1.00  0.00    -0.286 OA
BRANCH  16  18
HETATM   18  C13 UNL     1      11.479  64.679  31.076  1.00  0.00     0.055 A 
HETATM   19  C14 UNL     1      11.760  63.474  30.456  1.00  0.00     0.023 A 
HETATM   20  C15 UNL     1      10.913  63.068  29.521  1.00  0.00     0.009 A 
HETATM   21  C16 UNL     1       9.830  63.847  29.229  1.00  0.00     0.050 A 
HETATM   22  S1  UNL     1      10.051  65.148  30.301  1.00  0.00    -0.098 SA
ENDBRANCH  16  18
ENDBRANCH  11  16
ENDBRANCH   7  10
ENDBRANCH   4   7
BRANCH   1  23
HETATM   23  C6  UNL     1      19.383  62.524  33.005  1.00  0.00     0.060 C 
BRANCH  23  24
HETATM   24  C5  UNL     1      20.846  62.330  32.680  1.00  0.00     0.064 C 
BRANCH  24  25
HETATM   25  C4  UNL     1      21.677  63.062  33.712  1.00  0.00     0.128 C 
BRANCH  25  26
HETATM   26  N1  UNL     1      22.282  62.215  34.693  1.00  0.00    -0.359 N 
HETATM   27  C3  UNL     1      21.820  62.016  35.997  1.00  0.00     0.239 C 
HETATM   28  O1  UNL     1      20.785  62.593  36.431  1.00  0.00    -0.272 OA
ATOM     29  H1  UNL     1      23.126  61.712  34.416  1.00  0.00     0.162 HD
BRANCH  27  30
HETATM   30  C2  UNL     1      22.560  61.104  36.905  1.00  0.00     0.116 C 
HETATM   31  C1  UNL     1      21.674  60.116  37.617  1.00  0.00     0.040 C 
HETATM   32  S2  UNL     1      23.914  60.257  36.025  1.00  0.00    -0.144 SA
HETATM   33  C23 UNL     1      24.673  60.718  37.606  1.00  0.00     0.114 C 
HETATM   34  C24 UNL     1      23.564  61.739  37.813  1.00  0.00     0.207 C 
HETATM   35  F1  UNL     1      23.904  63.021  37.478  1.00  0.00    -0.246 F 
ENDBRANCH  27  30
ENDBRANCH  25  26
ENDBRANCH  24  25
ENDBRANCH  23  24
ENDBRANCH   1  23
TORSDOF 10
ENDMDL
MODEL 3
REMARK VINA RESULT: -9.100249175      1.706      2.240
REMARK  10 active torsions:
REMARK  status: ('A' for Active; 'I' for Inactive)
REMARK    1  A    between atoms: C2_2  and  C3_3 
REMARK       I    between atoms: C3_3  and  N1_5 
REMARK    2  A    between atoms: N1_5  and  C4_7 
REMARK    3  A    between atoms: C4_7  and  C5_8 
REMARK    4  A    between atoms: C5_8  and  C6_9 
REMARK    5  A    between atoms: C6_9  and  N2_10 
REMARK    6  A    between atoms: N3_13  and  C9_14 
REMARK    7  A    between atoms: C9_14  and  O2_15 
REMARK    8  A    between atoms: C9_14  and  C10_17 
REMARK    9  A    between atoms: C11_18  and  C12_19 
REMARK   10  A    between atoms: C12_19  and  C13_21 
ROOT
HETATM    1  N2  UNL     1      18.675  64.129  32.018  1.00  0.00    -0.390 N 
HETATM    2  C7  UNL     1      18.079  65.136  32.818  1.00  0.00     0.141 C 
HETATM    3  C8  UNL     1      16.600  64.662  33.022  1.00  0.00     0.145 C 
HETATM    4  N3  UNL     1      15.889  64.941  31.826  1.00  0.00    -0.358 N 
HETATM    5  C21 UNL     1      16.750  64.613  30.609  1.00  0.00     0.145 C 
HETATM    6  C22 UNL     1      17.767  63.600  31.020  1.00  0.00     0.141 C 
ENDROOT
BRANCH   4   7
HETATM    7  C9  UNL     1      14.623  65.387  31.565  1.00  0.00     0.145 C 
BRANCH   7   8
HETATM    8  O2  UNL     1      14.839  66.222  30.437  1.00  0.00    -0.346 OA
ATOM      9  H2  UNL     1      14.103  65.990  29.882  1.00  0.00     0.219 HD
ENDBRANCH   7   8
BRANCH   7  10
HETATM   10  C10 UNL     1      13.246  65.507  31.762  1.00  0.00     0.003 C 
HETATM   11  C11 UNL     1      12.239  64.809  31.332  1.00  0.00     0.004 C 
HETATM   12  C17 UNL     1      10.880  65.341  31.758  1.00  0.00     0.043 C 
HETATM   13  C18 UNL     1      10.845  66.793  31.249  1.00  0.00     0.005 C 
HETATM   14  C19 UNL     1      11.847  67.556  32.094  1.00  0.00     0.005 C 
HETATM   15  C20 UNL     1      12.807  66.632  32.760  1.00  0.00     0.044 C 
BRANCH  11  16
HETATM   16  C12 UNL     1      12.343  63.699  30.472  1.00  0.00     0.195 C 
HETATM   17  O3  UNL     1      11.855  62.610  30.839  1.00  0.00    -0.286 OA
BRANCH  16  18
HETATM   18  C13 UNL     1      12.964  63.655  29.155  1.00  0.00     0.055 A 
HETATM   19  C14 UNL     1      13.894  62.722  28.732  1.00  0.00     0.023 A 
HETATM   20  C15 UNL     1      14.306  62.813  27.475  1.00  0.00     0.009 A 
HETATM   21  C16 UNL     1      13.799  63.805  26.686  1.00  0.00     0.050 A 
HETATM   22  S1  UNL     1      12.740  64.587  27.762  1.00  0.00    -0.098 SA
ENDBRANCH  16  18
ENDBRANCH  11  16
ENDBRANCH   7  10
ENDBRANCH   4   7
BRANCH   1  23
HETATM   23  C6  UNL     1      19.558  63.218  32.620  1.00  0.00     0.060 C 
BRANCH  23  24
HETATM   24  C5  UNL     1      18.888  62.096  33.380  1.00  0.00     0.064 C 
BRANCH  24  25
HETATM   25  C4  UNL     1      19.055  62.344  34.863  1.00  0.00     0.128 C 
BRANCH  25  26
HETATM   26  N1  UNL     1      20.007  61.488  35.502  1.00  0.00    -0.359 N 
HETATM   27  C3  UNL     1      21.019  61.899  36.375  1.00  0.00     0.239 C 
HETATM   28  O1  UNL     1      21.178  63.113  36.682  1.00  0.00    -0.272 OA
ATOM     29  H1  UNL     1      19.941  60.490  35.303  1.00  0.00     0.162 HD
BRANCH  27  30
HETATM   30  C2  UNL     1      21.936  60.890  36.961  1.00  0.00     0.116 C 
HETATM   31  C1  UNL     1      22.633  60.042  35.931  1.00  0.00     0.040 C 
HETATM   32  S2  UNL     1      23.137  61.672  38.089  1.00  0.00    -0.144 SA
HETATM   33  C23 UNL     1      22.638  60.178  38.987  1.00  0.00     0.114 C 
HETATM   34  C24 UNL     1      21.401  60.090  38.105  1.00  0.00     0.207 C 
HETATM   35  F1  UNL     1      20.263  60.597  38.672  1.00  0.00    -0.246 F 
ENDBRANCH  27  30
ENDBRANCH  25  26
ENDBRANCH  24  25
ENDBRANCH  23  24
ENDBRANCH   1  23
TORSDOF 10
ENDMDL
MODEL 4
REMARK VINA RESULT: -9.087609201      1.778      2.293
REMARK  10 active torsions:
REMARK  status: ('A' for Active; 'I' for Inactive)
REMARK    1  A    between atoms: C2_2  and  C3_3 
REMARK       I    between atoms: C3_3  and  N1_5 
REMARK    2  A    between atoms: N1_5  and  C4_7 
REMARK    3  A    between atoms: C4_7  and  C5_8 
REMARK    4  A    between atoms: C5_8  and  C6_9 
REMARK    5  A    between atoms: C6_9  and  N2_10 
REMARK    6  A    between atoms: N3_13  and  C9_14 
REMARK    7  A    between atoms: C9_14  and  O2_15 
REMARK    8  A    between atoms: C9_14  and  C10_17 
REMARK    9  A    between atoms: C11_18  and  C12_19 
REMARK   10  A    between atoms: C12_19  and  C13_21 
ROOT
HETATM    1  N2  UNL     1      18.626  64.198  31.970  1.00  0.00    -0.390 N 
HETATM    2  C7  UNL     1      18.024  65.206  32.764  1.00  0.00     0.141 C 
HETATM    3  C8  UNL     1      16.548  64.726  32.970  1.00  0.00     0.145 C 
HETATM    4  N3  UNL     1      15.836  64.994  31.772  1.00  0.00    -0.358 N 
HETATM    5  C21 UNL     1      16.699  64.665  30.558  1.00  0.00     0.145 C 
HETATM    6  C22 UNL     1      17.722  63.659  30.974  1.00  0.00     0.141 C 
ENDROOT
BRANCH   4   7
HETATM    7  C9  UNL     1      14.567  65.432  31.508  1.00  0.00     0.145 C 
BRANCH   7   8
HETATM    8  O2  UNL     1      14.776  66.243  30.361  1.00  0.00    -0.346 OA
ATOM      9  H2  UNL     1      14.434  65.688  29.669  1.00  0.00     0.219 HD
ENDBRANCH   7   8
BRANCH   7  10
HETATM   10  C10 UNL     1      13.191  65.554  31.710  1.00  0.00     0.003 C 
HETATM   11  C11 UNL     1      12.184  64.842  31.303  1.00  0.00     0.004 C 
HETATM   12  C17 UNL     1      10.826  65.381  31.723  1.00  0.00     0.043 C 
HETATM   13  C18 UNL     1      10.784  66.820  31.177  1.00  0.00     0.005 C 
HETATM   14  C19 UNL     1      11.788  67.607  31.997  1.00  0.00     0.005 C 
HETATM   15  C20 UNL     1      12.754  66.702  32.681  1.00  0.00     0.044 C 
BRANCH  11  16
HETATM   16  C12 UNL     1      12.286  63.710  30.472  1.00  0.00     0.195 C 
HETATM   17  O3  UNL     1      11.803  62.630  30.869  1.00  0.00    -0.286 OA
BRANCH  16  18
HETATM   18  C13 UNL     1      12.900  63.634  29.153  1.00  0.00     0.055 A 
HETATM   19  C14 UNL     1      13.899  62.753  28.778  1.00  0.00     0.023 A 
HETATM   20  C15 UNL     1      14.295  62.799  27.513  1.00  0.00     0.009 A 
HETATM   21  C16 UNL     1      13.705  63.696  26.670  1.00  0.00     0.050 A 
HETATM   22  S1  UNL     1      12.594  64.456  27.708  1.00  0.00    -0.098 SA
ENDBRANCH  16  18
ENDBRANCH  11  16
ENDBRANCH   7  10
ENDBRANCH   4   7
BRANCH   1  23
HETATM   23  C6  UNL     1      19.513  63.296  32.576  1.00  0.00     0.060 C 
BRANCH  23  24
HETATM   24  C5  UNL     1      18.875  62.017  33.071  1.00  0.00     0.064 C 
BRANCH  24  25
HETATM   25  C4  UNL     1      18.692  62.110  34.569  1.00  0.00     0.128 C 
BRANCH  25  26
HETATM   26  N1  UNL     1      19.776  61.574  35.332  1.00  0.00    -0.359 N 
HETATM   27  C3  UNL     1      20.752  62.319  36.002  1.00  0.00     0.239 C 
HETATM   28  O1  UNL     1      20.752  63.581  35.985  1.00  0.00    -0.272 OA
ATOM     29  H1  UNL     1      19.844  60.558  35.394  1.00  0.00     0.162 HD
BRANCH  27  30
HETATM   30  C2  UNL     1      21.822  61.617  36.755  1.00  0.00     0.116 C 
HETATM   31  C1  UNL     1      22.062  62.186  38.127  1.00  0.00     0.040 C 
HETATM   32  S2  UNL     1      21.501  59.824  36.834  1.00  0.00    -0.144 SA
HETATM   33  C23 UNL     1      23.278  59.911  36.484  1.00  0.00     0.114 C 
HETATM   34  C24 UNL     1      23.090  61.345  36.010  1.00  0.00     0.207 C 
HETATM   35  F1  UNL     1      22.996  61.487  34.653  1.00  0.00    -0.246 F 
ENDBRANCH  27  30
ENDBRANCH  25  26
ENDBRANCH  24  25
ENDBRANCH  23  24
ENDBRANCH   1  23
TORSDOF 10
ENDMDL
MODEL 5
REMARK VINA RESULT: -9.086023069      1.897      2.449
REMARK  10 active torsions:
REMARK  status: ('A' for Active; 'I' for Inactive)
REMARK    1  A    between atoms: C2_2  and  C3_3 
REMARK       I    between atoms: C3_3  and  N1_5 
REMARK    2  A    between atoms: N1_5  and  C4_7 
REMARK    3  A    between atoms: C4_7  and  C5_8 
REMARK    4  A    between atoms: C5_8  and  C6_9 
REMARK    5  A    between atoms: C6_9  and  N2_10 
REMARK    6  A    between atoms: N3_13  and  C9_14 
REMARK    7  A    between atoms: C9_14  and  O2_15 
REMARK    8  A    between atoms: C9_14  and  C10_17 
REMARK    9  A    between atoms: C11_18  and  C12_19 
REMARK   10  A    between atoms: C12_19  and  C13_21 
ROOT
HETATM    1  N2  UNL     1      18.215  64.349  31.804  1.00  0.00    -0.390 N 
HETATM    2  C7  UNL     1      17.631  65.327  32.649  1.00  0.00     0.141 C 
HETATM    3  C8  UNL     1      16.150  64.856  32.842  1.00  0.00     0.145 C 
HETATM    4  N3  UNL     1      15.434  65.188  31.663  1.00  0.00    -0.358 N 
HETATM    5  C21 UNL     1      16.285  64.905  30.429  1.00  0.00     0.145 C 
HETATM    6  C22 UNL     1      17.298  63.868  30.791  1.00  0.00     0.141 C 
ENDROOT
BRANCH   4   7
HETATM    7  C9  UNL     1      14.169  65.654  31.428  1.00  0.00     0.145 C 
BRANCH   7   8
HETATM    8  O2  UNL     1      14.427  66.790  30.616  1.00  0.00    -0.346 OA
ATOM      9  H2  UNL     1      13.862  67.442  31.014  1.00  0.00     0.219 HD
ENDBRANCH   7   8
BRANCH   7  10
HETATM   10  C10 UNL     1      12.777  65.669  31.525  1.00  0.00     0.003 C 
HETATM   11  C11 UNL     1      11.864  64.849  31.101  1.00  0.00     0.004 C 
HETATM   12  C17 UNL     1      10.438  65.294  31.387  1.00  0.00     0.043 C 
HETATM   13  C18 UNL     1      10.322  66.686  30.739  1.00  0.00     0.005 C 
HETATM   14  C19 UNL     1      11.194  67.608  31.568  1.00  0.00     0.005 C 
HETATM   15  C20 UNL     1      12.176  66.836  32.380  1.00  0.00     0.044 C 
BRANCH  11  16
HETATM   16  C12 UNL     1      12.119  63.678  30.361  1.00  0.00     0.195 C 
HETATM   17  O3  UNL     1      11.610  62.605  30.743  1.00  0.00    -0.286 OA
BRANCH  16  18
HETATM   18  C13 UNL     1      12.927  63.553  29.155  1.00  0.00     0.055 A 
HETATM   19  C14 UNL     1      13.729  62.474  28.829  1.00  0.00     0.023 A 
HETATM   20  C15 UNL     1      14.349  62.519  27.658  1.00  0.00     0.009 A 
HETATM   21  C16 UNL     1      14.165  63.609  26.856  1.00  0.00     0.050 A 
HETATM   22  S1  UNL     1      13.105  64.547  27.798  1.00  0.00    -0.098 SA
ENDBRANCH  16  18
ENDBRANCH  11  16
ENDBRANCH   7  10
ENDBRANCH   4   7
BRANCH   1  23
HETATM   23  C6  UNL     1      19.095  63.409  32.363  1.00  0.00     0.060 C 
BRANCH  23  24
HETATM   24  C5  UNL     1      20.189  63.999  33.222  1.00  0.00     0.064 C 
BRANCH  24  25
HETATM   25  C4  UNL     1      21.456  63.198  33.018  1.00  0.00     0.128 C 
BRANCH  25  26
HETATM   26  N1  UNL     1      22.079  62.758  34.228  1.00  0.00    -0.359 N 
HETATM   27  C3  UNL     1      21.632  61.714  35.045  1.00  0.00     0.239 C 
HETATM   28  O1  UNL     1      20.598  61.048  34.764  1.00  0.00    -0.272 OA
ATOM     29  H1  UNL     1      22.924  63.248  34.521  1.00  0.00     0.162 HD
BRANCH  27  30
HETATM   30  C2  UNL     1      22.387  61.373  36.276  1.00  0.00     0.116 C 
HETATM   31  C1  UNL     1      22.337  59.909  36.625  1.00  0.00     0.040 C 
HETATM   32  S2  UNL     1      24.108  61.966  36.177  1.00  0.00    -0.144 SA
HETATM   33  C23 UNL     1      23.622  62.389  37.872  1.00  0.00     0.114 C 
HETATM   34  C24 UNL     1      22.163  62.258  37.461  1.00  0.00     0.207 C 
HETATM   35  F1  UNL     1      21.545  63.445  37.175  1.00  0.00    -0.246 F 
ENDBRANCH  27  30
ENDBRANCH  25  26
ENDBRANCH  24  25
ENDBRANCH  23  24
ENDBRANCH   1  23
TORSDOF 10
ENDMDL
