MODEL 1
REMARK VINA RESULT: -8.703651638      0.000      0.000
REMARK  7 active torsions:
REMARK  status: ('A' for Active; 'I' for Inactive)
REMARK    1  A    between atoms: N1_1  and  S1_4 
REMARK    2  A    between atoms: S1_4  and  C1_7 
REMARK    3  A    between atoms: C4_12  and  C5_13 
REMARK       I    between atoms: C5_13  and  N3_15 
REMARK    4  A    between atoms: N3_15  and  N4_17 
REMARK       I    between atoms: N4_17  and  C6_19 
REMARK    5  A    between atoms: C6_19  and  C7_21 
REMARK    6  A    between atoms: C7_21  and  O5_22 
REMARK    7  A    between atoms: O5_22  and  N5_23 
ROOT
HETATM    1  C1  UNL     1      15.801   4.781  23.601  1.00  0.00     0.227 A 
HETATM    2  N2  UNL     1      15.693   4.804  22.263  1.00  0.00    -0.331 N 
ATOM      3  H2  UNL     1      16.533   4.947  21.704  1.00  0.00     0.168 HD
HETATM    4  C2  UNL     1      14.510   4.644  21.633  1.00  0.00     0.051 A 
HETATM    5  C3  UNL     1      14.396   4.667  20.263  1.00  0.00     0.047 A 
HETATM    6  C4  UNL     1      13.173   4.503  19.596  1.00  0.00     0.035 A 
HETATM    7  C8  UNL     1      12.074   4.315  20.391  1.00  0.00     0.018 A 
HETATM    8  C9  UNL     1      12.191   4.293  21.784  1.00  0.00     0.020 A 
HETATM    9  C10 UNL     1      13.395   4.455  22.421  1.00  0.00     0.059 A 
HETATM   10  C11 UNL     1      13.516   4.433  23.799  1.00  0.00     0.260 A 
HETATM   11  O8  UNL     1      12.498   4.259  24.518  1.00  0.00    -0.267 OA
HETATM   12  N6  UNL     1      14.718   4.597  24.378  1.00  0.00    -0.298 N 
ATOM     13  H6  UNL     1      14.808   4.581  25.394  1.00  0.00     0.171 HD
ENDROOT
BRANCH   6  14
HETATM   14  C5  UNL     1      13.130   4.537  18.139  1.00  0.00     0.270 C 
HETATM   15  O3  UNL     1      12.004   4.707  17.540  1.00  0.00    -0.266 OA
HETATM   16  N3  UNL     1      14.318   4.382  17.401  1.00  0.00    -0.263 N 
ATOM     17  H3  UNL     1      15.206   4.245  17.885  1.00  0.00     0.190 HD
BRANCH  16  18
HETATM   18  N4  UNL     1      14.282   4.415  16.008  1.00  0.00    -0.265 N 
HETATM   19  C6  UNL     1      14.624   3.283  15.218  1.00  0.00     0.262 C 
HETATM   20  O4  UNL     1      14.975   2.204  15.727  1.00  0.00    -0.269 OA
ATOM     21  H4  UNL     1      14.000   5.276  15.541  1.00  0.00     0.190 HD
BRANCH  19  22
HETATM   22  C7  UNL     1      14.567   3.379  13.738  1.00  0.00     0.312 C 
BRANCH  22  23
HETATM   23  O5  UNL     1      14.862   2.134  13.161  1.00  0.00    -0.212 OA
BRANCH  23  24
HETATM   24  N5  UNL     1      16.078   1.729  12.719  1.00  0.00     0.005 N 
HETATM   25  O6  UNL     1      16.331   0.527  12.549  1.00  0.00    -0.511 OA
HETATM   26  O7  UNL     1      17.103   2.628  12.433  1.00  0.00    -0.511 OA
ENDBRANCH  23  24
ENDBRANCH  22  23
ENDBRANCH  19  22
ENDBRANCH  16  18
ENDBRANCH   6  14
BRANCH   1  27
HETATM   27  S1  UNL     1      17.381   4.997  24.320  1.00  0.00     0.289 S 
HETATM   28  O1  UNL     1      17.327   5.742  25.608  1.00  0.00    -0.198 OA
HETATM   29  O2  UNL     1      18.194   5.813  23.353  1.00  0.00    -0.198 OA
BRANCH  27  30
HETATM   30  N1  UNL     1      18.177   3.470  24.482  1.00  0.00    -0.322 N 
ATOM     31  H12 UNL     1      17.835   2.726  25.088  1.00  0.00     0.169 HD
ATOM     32  H11 UNL     1      19.017   3.412  23.906  1.00  0.00     0.169 HD
ENDBRANCH  27  30
ENDBRANCH   1  27
TORSDOF 7
ENDMDL
MODEL 2
REMARK VINA RESULT: -8.634587293      5.632      9.357
REMARK  7 active torsions:
REMARK  status: ('A' for Active; 'I' for Inactive)
REMARK    1  A    between atoms: N1_1  and  S1_4 
REMARK    2  A    between atoms: S1_4  and  C1_7 
REMARK    3  A    between atoms: C4_12  and  C5_13 
REMARK       I    between atoms: C5_13  and  N3_15 
REMARK    4  A    between atoms: N3_15  and  N4_17 
REMARK       I    between atoms: N4_17  and  C6_19 
REMARK    5  A    between atoms: C6_19  and  C7_21 
REMARK    6  A    between atoms: C7_21  and  O5_22 
REMARK    7  A    between atoms: O5_22  and  N5_23 
ROOT
HETATM    1  C1  UNL     1      10.970  -1.870  18.305  1.00  0.00     0.227 A 
HETATM    2  N2  UNL     1      11.491  -0.879  19.047  1.00  0.00    -0.331 N 
ATOM      3  H2  UNL     1      10.863  -0.182  19.446  1.00  0.00     0.168 HD
HETATM    4  C2  UNL     1      12.815  -0.775  19.282  1.00  0.00     0.051 A 
HETATM    5  C3  UNL     1      13.351   0.238  20.041  1.00  0.00     0.047 A 
HETATM    6  C4  UNL     1      14.727   0.358  20.292  1.00  0.00     0.035 A 
HETATM    7  C8  UNL     1      15.527  -0.602  19.733  1.00  0.00     0.018 A 
HETATM    8  C9  UNL     1      14.980  -1.631  18.961  1.00  0.00     0.020 A 
HETATM    9  C10 UNL     1      13.633  -1.735  18.724  1.00  0.00     0.059 A 
HETATM   10  C11 UNL     1      13.088  -2.752  17.961  1.00  0.00     0.260 A 
HETATM   11  O8  UNL     1      13.834  -3.629  17.454  1.00  0.00    -0.267 OA
HETATM   12  N6  UNL     1      11.761  -2.811  17.757  1.00  0.00    -0.298 N 
ATOM     13  H6  UNL     1      11.357  -3.560  17.194  1.00  0.00     0.171 HD
ENDROOT
BRANCH   6  14
HETATM   14  C5  UNL     1      15.222   1.459  21.109  1.00  0.00     0.270 C 
HETATM   15  O3  UNL     1      14.392   2.179  21.779  1.00  0.00    -0.266 OA
HETATM   16  N3  UNL     1      16.603   1.727  21.157  1.00  0.00    -0.263 N 
ATOM     17  H3  UNL     1      17.254   1.152  20.622  1.00  0.00     0.190 HD
BRANCH  16  18
HETATM   18  N4  UNL     1      17.081   2.778  21.938  1.00  0.00    -0.265 N 
HETATM   19  C6  UNL     1      17.682   3.931  21.363  1.00  0.00     0.262 C 
HETATM   20  O4  UNL     1      17.814   4.064  20.133  1.00  0.00    -0.269 OA
ATOM     21  H4  UNL     1      16.997   2.719  22.953  1.00  0.00     0.190 HD
BRANCH  19  22
HETATM   22  C7  UNL     1      18.173   5.019  22.246  1.00  0.00     0.312 C 
BRANCH  22  23
HETATM   23  O5  UNL     1      18.002   4.663  23.593  1.00  0.00    -0.212 OA
BRANCH  23  24
HETATM   24  N5  UNL     1      16.980   5.050  24.395  1.00  0.00     0.005 N 
HETATM   25  O6  UNL     1      17.180   5.768  25.386  1.00  0.00    -0.511 OA
HETATM   26  O7  UNL     1      15.662   4.668  24.158  1.00  0.00    -0.511 OA
ENDBRANCH  23  24
ENDBRANCH  22  23
ENDBRANCH  19  22
ENDBRANCH  16  18
ENDBRANCH   6  14
BRANCH   1  27
HETATM   27  S1  UNL     1       9.239  -1.916  18.061  1.00  0.00     0.289 S 
HETATM   28  O1  UNL     1       8.602  -0.579  18.218  1.00  0.00    -0.198 OA
HETATM   29  O2  UNL     1       8.671  -2.819  19.121  1.00  0.00    -0.198 OA
BRANCH  27  30
HETATM   30  N1  UNL     1       8.869  -2.639  16.534  1.00  0.00    -0.322 N 
ATOM     31  H12 UNL     1       7.924  -2.686  16.155  1.00  0.00     0.169 HD
ATOM     32  H11 UNL     1       9.701  -3.005  16.070  1.00  0.00     0.169 HD
ENDBRANCH  27  30
ENDBRANCH   1  27
TORSDOF 7
ENDMDL
MODEL 3
REMARK VINA RESULT: -8.616380370      5.257      8.896
REMARK  7 active torsions:
REMARK  status: ('A' for Active; 'I' for Inactive)
REMARK    1  A    between atoms: N1_1  and  S1_4 
REMARK    2  A    between atoms: S1_4  and  C1_7 
REMARK    3  A    between atoms: C4_12  and  C5_13 
REMARK       I    between atoms: C5_13  and  N3_15 
REMARK    4  A    between atoms: N3_15  and  N4_17 
REMARK       I    between atoms: N4_17  and  C6_19 
REMARK    5  A    between atoms: C6_19  and  C7_21 
REMARK    6  A    between atoms: C7_21  and  O5_22 
REMARK    7  A    between atoms: O5_22  and  N5_23 
ROOT
HETATM    1  C1  UNL     1      10.888  -0.640  18.145  1.00  0.00     0.227 A 
HETATM    2  N2  UNL     1      11.649   0.244  18.809  1.00  0.00    -0.331 N 
ATOM      3  H2  UNL     1      11.258   1.158  19.037  1.00  0.00     0.168 HD
HETATM    4  C2  UNL     1      12.915  -0.035  19.186  1.00  0.00     0.051 A 
HETATM    5  C3  UNL     1      13.697   0.868  19.867  1.00  0.00     0.047 A 
HETATM    6  C4  UNL     1      15.014   0.591  20.264  1.00  0.00     0.035 A 
HETATM    7  C8  UNL     1      15.494  -0.648  19.934  1.00  0.00     0.018 A 
HETATM    8  C9  UNL     1      14.697  -1.565  19.242  1.00  0.00     0.020 A 
HETATM    9  C10 UNL     1      13.411  -1.279  18.860  1.00  0.00     0.059 A 
HETATM   10  C11 UNL     1      12.620  -2.183  18.175  1.00  0.00     0.260 A 
HETATM   11  O8  UNL     1      13.073  -3.319  17.879  1.00  0.00    -0.267 OA
HETATM   12  N6  UNL     1      11.365  -1.856  17.823  1.00  0.00    -0.298 N 
ATOM     13  H6  UNL     1      10.780  -2.522  17.316  1.00  0.00     0.171 HD
ENDROOT
BRANCH   6  14
HETATM   14  C5  UNL     1      15.782   1.598  20.985  1.00  0.00     0.270 C 
HETATM   15  O3  UNL     1      15.180   2.405  21.786  1.00  0.00    -0.266 OA
HETATM   16  N3  UNL     1      17.175   1.680  20.799  1.00  0.00    -0.263 N 
ATOM     17  H3  UNL     1      17.644   1.037  20.161  1.00  0.00     0.190 HD
BRANCH  16  18
HETATM   18  N4  UNL     1      17.914   2.641  21.487  1.00  0.00    -0.265 N 
HETATM   19  C6  UNL     1      18.400   3.816  20.852  1.00  0.00     0.262 C 
HETATM   20  O4  UNL     1      18.193   4.050  19.648  1.00  0.00    -0.269 OA
ATOM     21  H4  UNL     1      18.111   2.497  22.478  1.00  0.00     0.190 HD
BRANCH  19  22
HETATM   22  C7  UNL     1      19.182   4.804  21.637  1.00  0.00     0.312 C 
BRANCH  22  23
HETATM   23  O5  UNL     1      18.322   5.582  22.428  1.00  0.00    -0.212 OA
BRANCH  23  24
HETATM   24  N5  UNL     1      17.685   5.172  23.552  1.00  0.00     0.005 N 
HETATM   25  O6  UNL     1      18.280   5.107  24.638  1.00  0.00    -0.511 OA
HETATM   26  O7  UNL     1      16.341   4.804  23.554  1.00  0.00    -0.511 OA
ENDBRANCH  23  24
ENDBRANCH  22  23
ENDBRANCH  19  22
ENDBRANCH  16  18
ENDBRANCH   6  14
BRANCH   1  27
HETATM   27  S1  UNL     1       9.260  -0.180  17.702  1.00  0.00     0.289 S 
HETATM   28  O1  UNL     1       8.925   1.211  18.115  1.00  0.00    -0.198 OA
HETATM   29  O2  UNL     1       8.329  -1.110  18.433  1.00  0.00    -0.198 OA
BRANCH  27  30
HETATM   30  N1  UNL     1       9.004  -0.440  16.012  1.00  0.00    -0.322 N 
ATOM     31  H12 UNL     1       8.077  -0.521  15.595  1.00  0.00     0.169 HD
ATOM     32  H11 UNL     1       9.881  -0.499  15.495  1.00  0.00     0.169 HD
ENDBRANCH  27  30
ENDBRANCH   1  27
TORSDOF 7
ENDMDL
MODEL 4
REMARK VINA RESULT: -8.602309993      2.121      2.257
REMARK  7 active torsions:
REMARK  status: ('A' for Active; 'I' for Inactive)
REMARK    1  A    between atoms: N1_1  and  S1_4 
REMARK    2  A    between atoms: S1_4  and  C1_7 
REMARK    3  A    between atoms: C4_12  and  C5_13 
REMARK       I    between atoms: C5_13  and  N3_15 
REMARK    4  A    between atoms: N3_15  and  N4_17 
REMARK       I    between atoms: N4_17  and  C6_19 
REMARK    5  A    between atoms: C6_19  and  C7_21 
REMARK    6  A    between atoms: C7_21  and  O5_22 
REMARK    7  A    between atoms: O5_22  and  N5_23 
ROOT
HETATM    1  C1  UNL     1      16.707   4.208  22.295  1.00  0.00     0.227 A 
HETATM    2  N2  UNL     1      16.346   3.716  21.099  1.00  0.00    -0.331 N 
ATOM      3  H2  UNL     1      17.062   3.586  20.384  1.00  0.00     0.168 HD
HETATM    4  C2  UNL     1      15.069   3.389  20.811  1.00  0.00     0.051 A 
HETATM    5  C3  UNL     1      14.696   2.885  19.587  1.00  0.00     0.047 A 
HETATM    6  C4  UNL     1      13.372   2.540  19.274  1.00  0.00     0.035 A 
HETATM    7  C8  UNL     1      12.449   2.736  20.267  1.00  0.00     0.018 A 
HETATM    8  C9  UNL     1      12.830   3.248  21.510  1.00  0.00     0.020 A 
HETATM    9  C10 UNL     1      14.129   3.580  21.800  1.00  0.00     0.059 A 
HETATM   10  C11 UNL     1      14.510   4.088  23.030  1.00  0.00     0.260 A 
HETATM   11  O8  UNL     1      13.652   4.261  23.933  1.00  0.00    -0.267 OA
HETATM   12  N6  UNL     1      15.796   4.398  23.267  1.00  0.00    -0.298 N 
ATOM     13  H6  UNL     1      16.079   4.774  24.173  1.00  0.00     0.171 HD
ENDROOT
BRANCH   6  14
HETATM   14  C5  UNL     1      13.053   2.009  17.955  1.00  0.00     0.270 C 
HETATM   15  O3  UNL     1      11.848   1.640  17.693  1.00  0.00    -0.266 OA
HETATM   16  N3  UNL     1      14.063   1.903  16.981  1.00  0.00    -0.263 N 
ATOM     17  H3  UNL     1      15.015   2.196  17.199  1.00  0.00     0.190 HD
BRANCH  16  18
HETATM   18  N4  UNL     1      13.761   1.396  15.718  1.00  0.00    -0.265 N 
HETATM   19  C6  UNL     1      13.872   0.012  15.414  1.00  0.00     0.262 C 
HETATM   20  O4  UNL     1      14.244  -0.822  16.260  1.00  0.00    -0.269 OA
ATOM     21  H4  UNL     1      13.450   2.038  14.989  1.00  0.00     0.190 HD
BRANCH  19  22
HETATM   22  C7  UNL     1      13.536  -0.469  14.051  1.00  0.00     0.312 C 
BRANCH  22  23
HETATM   23  O5  UNL     1      14.626  -0.274  13.188  1.00  0.00    -0.212 OA
BRANCH  23  24
HETATM   24  N5  UNL     1      15.217   0.913  12.908  1.00  0.00     0.005 N 
HETATM   25  O6  UNL     1      14.631   1.986  13.116  1.00  0.00    -0.511 OA
HETATM   26  O7  UNL     1      16.502   0.997  12.376  1.00  0.00    -0.511 OA
ENDBRANCH  23  24
ENDBRANCH  22  23
ENDBRANCH  19  22
ENDBRANCH  16  18
ENDBRANCH   6  14
BRANCH   1  27
HETATM   27  S1  UNL     1      18.390   4.601  22.568  1.00  0.00     0.289 S 
HETATM   28  O1  UNL     1      18.675   4.939  23.990  1.00  0.00    -0.198 OA
HETATM   29  O2  UNL     1      18.695   5.818  21.738  1.00  0.00    -0.198 OA
BRANCH  27  30
HETATM   30  N1  UNL     1      19.403   3.327  21.985  1.00  0.00    -0.322 N 
ATOM     31  H12 UNL     1      19.475   2.419  22.442  1.00  0.00     0.169 HD
ATOM     32  H11 UNL     1      19.911   3.595  21.142  1.00  0.00     0.169 HD
ENDBRANCH  27  30
ENDBRANCH   1  27
TORSDOF 7
ENDMDL
MODEL 5
REMARK VINA RESULT: -8.566351145      2.137      3.669
REMARK  7 active torsions:
REMARK  status: ('A' for Active; 'I' for Inactive)
REMARK    1  A    between atoms: N1_1  and  S1_4 
REMARK    2  A    between atoms: S1_4  and  C1_7 
REMARK    3  A    between atoms: C4_12  and  C5_13 
REMARK       I    between atoms: C5_13  and  N3_15 
REMARK    4  A    between atoms: N3_15  and  N4_17 
REMARK       I    between atoms: N4_17  and  C6_19 
REMARK    5  A    between atoms: C6_19  and  C7_21 
REMARK    6  A    between atoms: C7_21  and  O5_22 
REMARK    7  A    between atoms: O5_22  and  N5_23 
ROOT
HETATM    1  C1  UNL     1      14.342   4.793  23.890  1.00  0.00     0.227 A 
HETATM    2  N2  UNL     1      14.421   4.536  22.575  1.00  0.00    -0.331 N 
ATOM      3  H2  UNL     1      13.560   4.463  22.035  1.00  0.00     0.168 HD
HETATM    4  C2  UNL     1      15.603   4.370  21.944  1.00  0.00     0.051 A 
HETATM    5  C3  UNL     1      15.688   4.107  20.597  1.00  0.00     0.047 A 
HETATM    6  C4  UNL     1      16.909   3.932  19.929  1.00  0.00     0.035 A 
HETATM    7  C8  UNL     1      18.037   4.037  20.699  1.00  0.00     0.018 A 
HETATM    8  C9  UNL     1      17.948   4.305  22.068  1.00  0.00     0.020 A 
HETATM    9  C10 UNL     1      16.746   4.473  22.707  1.00  0.00     0.059 A 
HETATM   10  C11 UNL     1      16.654   4.738  24.061  1.00  0.00     0.260 A 
HETATM   11  O8  UNL     1      17.698   4.833  24.757  1.00  0.00    -0.267 OA
HETATM   12  N6  UNL     1      15.453   4.895  24.643  1.00  0.00    -0.298 N 
ATOM     13  H6  UNL     1      15.383   5.090  25.642  1.00  0.00     0.171 HD
ENDROOT
BRANCH   6  14
HETATM   14  C5  UNL     1      16.921   3.657  18.498  1.00  0.00     0.270 C 
HETATM   15  O3  UNL     1      18.033   3.698  17.851  1.00  0.00    -0.266 OA
HETATM   16  N3  UNL     1      15.717   3.352  17.835  1.00  0.00    -0.263 N 
ATOM     17  H3  UNL     1      14.841   3.324  18.355  1.00  0.00     0.190 HD
BRANCH  16  18
HETATM   18  N4  UNL     1      15.725   3.087  16.466  1.00  0.00    -0.265 N 
HETATM   19  C6  UNL     1      14.616   2.488  15.808  1.00  0.00     0.262 C 
HETATM   20  O4  UNL     1      13.580   2.168  16.418  1.00  0.00    -0.269 OA
ATOM     21  H4  UNL     1      16.551   3.332  15.920  1.00  0.00     0.190 HD
BRANCH  19  22
HETATM   22  C7  UNL     1      14.682   2.230  14.347  1.00  0.00     0.312 C 
BRANCH  22  23
HETATM   23  O5  UNL     1      15.919   2.655  13.837  1.00  0.00    -0.212 OA
BRANCH  23  24
HETATM   24  N5  UNL     1      16.616   2.058  12.839  1.00  0.00     0.005 N 
HETATM   25  O6  UNL     1      17.522   2.659  12.243  1.00  0.00    -0.511 OA
HETATM   26  O7  UNL     1      16.360   0.751  12.431  1.00  0.00    -0.511 OA
ENDBRANCH  23  24
ENDBRANCH  22  23
ENDBRANCH  19  22
ENDBRANCH  16  18
ENDBRANCH   6  14
BRANCH   1  27
HETATM   27  S1  UNL     1      12.761   4.992  24.613  1.00  0.00     0.289 S 
HETATM   28  O1  UNL     1      12.746   6.029  25.681  1.00  0.00    -0.198 OA
HETATM   29  O2  UNL     1      12.402   3.676  25.248  1.00  0.00    -0.198 OA
BRANCH  27  30
HETATM   30  N1  UNL     1      11.578   5.298  23.389  1.00  0.00    -0.322 N 
ATOM     31  H12 UNL     1      11.701   6.000  22.660  1.00  0.00     0.169 HD
ATOM     32  H11 UNL     1      10.759   4.700  23.488  1.00  0.00     0.169 HD
ENDBRANCH  27  30
ENDBRANCH   1  27
TORSDOF 7
ENDMDL
