MODEL 1
REMARK VINA RESULT: -6.389612258      0.000      0.000
REMARK  2 active torsions:
REMARK  status: ('A' for Active; 'I' for Inactive)
REMARK    1  A    between atoms: C8_10  and  O2_11 
REMARK    2  A    between atoms: C12_16  and  C13_17 
ROOT
HETATM    1  C1  UNL     1      44.969 130.635  21.901  1.00  0.00     0.012 C 
HETATM    2  C2  UNL     1      45.312 131.350  20.677  1.00  0.00     0.026 C 
HETATM    3  C3  UNL     1      45.553 130.443  19.456  1.00  0.00     0.279 C 
HETATM    4  N1  UNL     1      45.640 131.439  18.463  1.00  0.00     0.107 N 
HETATM    5  C4  UNL     1      44.395 132.227  18.651  1.00  0.00     0.245 C 
HETATM    6  C5  UNL     1      43.497 131.832  17.585  1.00  0.00     0.047 C 
HETATM    7  C6  UNL     1      42.082 131.503  17.769  1.00  0.00     0.015 C 
HETATM    8  C7  UNL     1      44.154 130.620  16.993  1.00  0.00     0.169 C 
HETATM    9  O1  UNL     1      44.147 130.458  15.660  1.00  0.00    -0.353 OA
HETATM   10  C8  UNL     1      45.260 129.625  15.427  1.00  0.00     0.260 C 
HETATM   11  C9  UNL     1      46.209 129.852  16.620  1.00  0.00     0.104 C 
HETATM   12  C10 UNL     1      45.618 131.097  17.140  1.00  0.00     0.187 C 
HETATM   13  C11 UNL     1      45.920 132.205  16.191  1.00  0.00     0.052 C 
HETATM   14  C12 UNL     1      44.176 132.194  20.074  1.00  0.00     0.126 C 
ENDROOT
BRANCH  14  15
HETATM   15  C13 UNL     1      42.884 131.898  20.664  1.00  0.00     0.179 C 
HETATM   16  O3  UNL     1      42.583 130.763  21.141  1.00  0.00    -0.648 OA
HETATM   17  O4  UNL     1      41.820 132.812  20.782  1.00  0.00    -0.648 OA
ENDBRANCH  14  15
BRANCH  10  18
HETATM   18  O2  UNL     1      44.923 128.297  15.358  1.00  0.00    -0.371 OA
ATOM     19  H2  UNL     1      44.664 128.029  14.484  1.00  0.00     0.212 HD
ENDBRANCH  10  18
TORSDOF 2
ENDMDL
MODEL 2
REMARK VINA RESULT: -6.037942121      8.820     10.364
REMARK  2 active torsions:
REMARK  status: ('A' for Active; 'I' for Inactive)
REMARK    1  A    between atoms: C8_10  and  O2_11 
REMARK    2  A    between atoms: C12_16  and  C13_17 
ROOT
HETATM    1  C1  UNL     1      36.564 124.089  25.272  1.00  0.00     0.012 C 
HETATM    2  C2  UNL     1      37.963 123.876  25.622  1.00  0.00     0.026 C 
HETATM    3  C3  UNL     1      38.774 123.107  24.563  1.00  0.00     0.279 C 
HETATM    4  N1  UNL     1      40.060 123.274  25.115  1.00  0.00     0.107 N 
HETATM    5  C4  UNL     1      40.169 124.743  25.305  1.00  0.00     0.245 C 
HETATM    6  C5  UNL     1      41.020 125.230  24.238  1.00  0.00     0.047 C 
HETATM    7  C6  UNL     1      40.729 126.405  23.414  1.00  0.00     0.015 C 
HETATM    8  C7  UNL     1      41.135 124.060  23.307  1.00  0.00     0.169 C 
HETATM    9  O1  UNL     1      42.318 123.795  22.732  1.00  0.00    -0.353 OA
HETATM   10  C8  UNL     1      42.236 122.420  22.433  1.00  0.00     0.260 C 
HETATM   11  C9  UNL     1      41.206 121.839  23.421  1.00  0.00     0.104 C 
HETATM   12  C10 UNL     1      41.170 122.951  24.385  1.00  0.00     0.187 C 
HETATM   13  C11 UNL     1      42.456 122.977  25.138  1.00  0.00     0.052 C 
HETATM   14  C12 UNL     1      38.830 125.147  25.648  1.00  0.00     0.126 C 
ENDROOT
BRANCH  14  15
HETATM   15  C13 UNL     1      38.172 126.287  25.036  1.00  0.00     0.179 C 
HETATM   16  O3  UNL     1      37.956 127.374  25.650  1.00  0.00    -0.648 OA
HETATM   17  O4  UNL     1      37.699 126.334  23.711  1.00  0.00    -0.648 OA
ENDBRANCH  14  15
BRANCH  10  18
HETATM   18  O2  UNL     1      41.820 122.181  21.148  1.00  0.00    -0.371 OA
ATOM     19  H2  UNL     1      42.169 122.810  20.526  1.00  0.00     0.212 HD
ENDBRANCH  10  18
TORSDOF 2
ENDMDL
MODEL 3
REMARK VINA RESULT: -5.834394195      7.804      9.489
REMARK  2 active torsions:
REMARK  status: ('A' for Active; 'I' for Inactive)
REMARK    1  A    between atoms: C8_10  and  O2_11 
REMARK    2  A    between atoms: C12_16  and  C13_17 
ROOT
HETATM    1  C1  UNL     1      37.723 126.695  23.834  1.00  0.00     0.012 C 
HETATM    2  C2  UNL     1      38.613 125.753  24.501  1.00  0.00     0.026 C 
HETATM    3  C3  UNL     1      39.184 124.657  23.582  1.00  0.00     0.279 C 
HETATM    4  N1  UNL     1      40.120 124.096  24.473  1.00  0.00     0.107 N 
HETATM    5  C4  UNL     1      40.916 125.267  24.924  1.00  0.00     0.245 C 
HETATM    6  C5  UNL     1      42.177 125.200  24.215  1.00  0.00     0.047 C 
HETATM    7  C6  UNL     1      42.816 126.335  23.547  1.00  0.00     0.015 C 
HETATM    8  C7  UNL     1      41.946 124.150  23.168  1.00  0.00     0.169 C 
HETATM    9  O1  UNL     1      42.926 123.276  22.891  1.00  0.00    -0.353 OA
HETATM   10  C8  UNL     1      42.234 122.169  22.359  1.00  0.00     0.260 C 
HETATM   11  C9  UNL     1      40.805 122.254  22.931  1.00  0.00     0.104 C 
HETATM   12  C10 UNL     1      41.059 123.212  24.020  1.00  0.00     0.187 C 
HETATM   13  C11 UNL     1      41.858 122.535  25.080  1.00  0.00     0.052 C 
HETATM   14  C12 UNL     1      39.957 126.341  24.962  1.00  0.00     0.126 C 
ENDROOT
BRANCH  14  15
HETATM   15  C13 UNL     1      40.221 127.650  24.394  1.00  0.00     0.179 C 
HETATM   16  O3  UNL     1      40.420 128.684  25.099  1.00  0.00    -0.648 OA
HETATM   17  O4  UNL     1      40.291 127.936  23.017  1.00  0.00    -0.648 OA
ENDBRANCH  14  15
BRANCH  10  18
HETATM   18  O2  UNL     1      42.179 122.186  20.989  1.00  0.00    -0.371 OA
ATOM     19  H2  UNL     1      41.296 122.307  20.658  1.00  0.00     0.212 HD
ENDBRANCH  10  18
TORSDOF 2
ENDMDL
MODEL 4
REMARK VINA RESULT: -5.642652947      8.259      9.527
REMARK  2 active torsions:
REMARK  status: ('A' for Active; 'I' for Inactive)
REMARK    1  A    between atoms: C8_10  and  O2_11 
REMARK    2  A    between atoms: C12_16  and  C13_17 
ROOT
HETATM    1  C1  UNL     1      37.894 128.067  25.402  1.00  0.00     0.012 C 
HETATM    2  C2  UNL     1      38.510 126.767  25.638  1.00  0.00     0.026 C 
HETATM    3  C3  UNL     1      38.843 125.979  24.357  1.00  0.00     0.279 C 
HETATM    4  N1  UNL     1      39.583 124.930  24.937  1.00  0.00     0.107 N 
HETATM    5  C4  UNL     1      40.614 125.635  25.742  1.00  0.00     0.245 C 
HETATM    6  C5  UNL     1      41.852 125.538  24.995  1.00  0.00     0.047 C 
HETATM    7  C6  UNL     1      42.767 126.655  24.754  1.00  0.00     0.015 C 
HETATM    8  C7  UNL     1      41.422 125.026  23.652  1.00  0.00     0.169 C 
HETATM    9  O1  UNL     1      42.178 124.109  23.028  1.00  0.00    -0.353 OA
HETATM   10  C8  UNL     1      41.267 123.466  22.166  1.00  0.00     0.260 C 
HETATM   11  C9  UNL     1      39.877 123.670  22.800  1.00  0.00     0.104 C 
HETATM   12  C10 UNL     1      40.305 124.078  24.148  1.00  0.00     0.187 C 
HETATM   13  C11 UNL     1      40.879 122.895  24.849  1.00  0.00     0.052 C 
HETATM   14  C12 UNL     1      39.935 126.815  26.214  1.00  0.00     0.126 C 
ENDROOT
BRANCH  14  15
HETATM   15  C13 UNL     1      40.523 128.140  26.147  1.00  0.00     0.179 C 
HETATM   16  O3  UNL     1      40.992 128.742  27.159  1.00  0.00    -0.648 OA
HETATM   17  O4  UNL     1      40.647 128.912  24.976  1.00  0.00    -0.648 OA
ENDBRANCH  14  15
BRANCH  10  18
HETATM   18  O2  UNL     1      41.273 123.994  20.900  1.00  0.00    -0.371 OA
ATOM     19  H2  UNL     1      41.651 124.866  20.867  1.00  0.00     0.212 HD
ENDBRANCH  10  18
TORSDOF 2
ENDMDL
MODEL 5
REMARK VINA RESULT: -5.586223659      9.478     10.380
REMARK  2 active torsions:
REMARK  status: ('A' for Active; 'I' for Inactive)
REMARK    1  A    between atoms: C8_10  and  O2_11 
REMARK    2  A    between atoms: C12_16  and  C13_17 
ROOT
HETATM    1  C1  UNL     1      39.215 127.836  25.759  1.00  0.00     0.012 C 
HETATM    2  C2  UNL     1      39.597 127.017  24.615  1.00  0.00     0.026 C 
HETATM    3  C3  UNL     1      40.675 125.961  24.919  1.00  0.00     0.279 C 
HETATM    4  N1  UNL     1      40.633 125.254  23.701  1.00  0.00     0.107 N 
HETATM    5  C4  UNL     1      39.194 124.917  23.544  1.00  0.00     0.245 C 
HETATM    6  C5  UNL     1      39.065 123.514  23.882  1.00  0.00     0.047 C 
HETATM    7  C6  UNL     1      38.031 122.962  24.758  1.00  0.00     0.015 C 
HETATM    8  C7  UNL     1      40.389 123.169  24.497  1.00  0.00     0.169 C 
HETATM    9  O1  UNL     1      40.954 121.985  24.211  1.00  0.00    -0.353 OA
HETATM   10  C8  UNL     1      42.326 122.215  24.441  1.00  0.00     0.260 C 
HETATM   11  C9  UNL     1      42.530 123.733  24.272  1.00  0.00     0.104 C 
HETATM   12  C10 UNL     1      41.270 124.051  23.580  1.00  0.00     0.187 C 
HETATM   13  C11 UNL     1      41.327 123.498  22.198  1.00  0.00     0.052 C 
HETATM   14  C12 UNL     1      38.511 126.050  24.114  1.00  0.00     0.126 C 
ENDROOT
BRANCH  14  15
HETATM   15  C13 UNL     1      37.407 125.914  25.047  1.00  0.00     0.179 C 
HETATM   16  O3  UNL     1      36.199 126.121  24.725  1.00  0.00    -0.648 OA
HETATM   17  O4  UNL     1      37.531 125.542  26.399  1.00  0.00    -0.648 OA
ENDBRANCH  14  15
BRANCH  10  18
HETATM   18  O2  UNL     1      42.722 121.838  25.700  1.00  0.00    -0.371 OA
ATOM     19  H2  UNL     1      42.523 120.929  25.890  1.00  0.00     0.212 HD
ENDBRANCH  10  18
TORSDOF 2
ENDMDL
