MODEL 1
REMARK VINA RESULT: -7.183550666      0.000      0.000
REMARK  13 active torsions:
REMARK  status: ('A' for Active; 'I' for Inactive)
REMARK    1  A    between atoms: C5_9  and  C6_10 
REMARK    2  A    between atoms: C6_10  and  O2_11 
REMARK    3  A    between atoms: C6_10  and  C7_13 
REMARK    4  A    between atoms: C7_13  and  O3_14 
REMARK    5  A    between atoms: C7_13  and  C8_16 
REMARK    6  A    between atoms: C8_16  and  O4_17 
REMARK    7  A    between atoms: C8_16  and  C9_19 
REMARK    8  A    between atoms: C9_19  and  O5_20 
REMARK    9  A    between atoms: C9_19  and  C10_22 
REMARK   10  A    between atoms: C10_22  and  C11_24 
REMARK   11  A    between atoms: C11_24  and  C12_26 
REMARK   12  A    between atoms: C13_30  and  N4_31 
REMARK   13  A    between atoms: C14_34  and  O10_35 
ROOT
HETATM    1  N1  UNL     1     -16.618  75.777  27.947  1.00  0.00    -0.194 NA
HETATM    2  C1  UNL     1     -16.812  74.705  27.588  1.00  0.00     0.105 C 
HETATM    3  C2  UNL     1     -17.041  73.362  27.120  1.00  0.00     0.427 C 
HETATM    4  C3  UNL     1     -16.297  73.062  25.852  1.00  0.00     0.267 C 
HETATM    5  O1  UNL     1     -16.268  73.861  24.880  1.00  0.00    -0.270 OA
HETATM    6  N2  UNL     1     -15.700  71.788  26.010  1.00  0.00    -0.326 N 
ATOM      7  H2  UNL     1     -15.275  71.233  25.266  1.00  0.00     0.164 HD
HETATM    8  C4  UNL     1     -15.791  71.411  27.368  1.00  0.00     0.364 C 
HETATM    9  C5  UNL     1     -14.560  71.405  28.185  1.00  0.00     0.210 C 
HETATM   10  O9  UNL     1     -15.087  71.703  29.472  1.00  0.00    -0.328 OA
HETATM   11  C13 UNL     1     -16.049  72.700  29.219  1.00  0.00     0.498 C 
HETATM   12  N7  UNL     1     -16.704  72.327  28.022  1.00  0.00     0.191 N 
ENDROOT
BRANCH  11  13
HETATM   13  N4  UNL     1     -17.015  72.627  30.312  1.00  0.00    -0.181 N 
HETATM   14  N5  UNL     1     -17.663  71.528  30.707  1.00  0.00    -0.255 N 
HETATM   15  C14 UNL     1     -18.473  71.822  31.739  1.00  0.00     0.240 A 
ATOM     16  H5  UNL     1     -17.559  70.603  30.289  1.00  0.00     0.191 HD
HETATM   17  N6  UNL     1     -18.340  73.136  32.010  1.00  0.00    -0.272 N 
HETATM   18  C15 UNL     1     -17.443  73.606  31.126  1.00  0.00     0.348 A 
ATOM     19  H6  UNL     1     -18.821  73.665  32.737  1.00  0.00     0.174 HD
HETATM   20  O11 UNL     1     -17.051  74.807  31.062  1.00  0.00    -0.245 OA
BRANCH  15  21
HETATM   21  O10 UNL     1     -19.326  70.955  32.443  1.00  0.00    -0.331 OA
ATOM     22  H10 UNL     1     -19.245  70.014  32.551  1.00  0.00     0.221 HD
ENDBRANCH  15  21
ENDBRANCH  11  13
BRANCH   9  23
HETATM   23  C6  UNL     1     -13.548  72.470  27.898  1.00  0.00     0.182 C 
BRANCH  23  24
HETATM   24  O2  UNL     1     -12.862  72.671  29.133  1.00  0.00    -0.390 OA
ATOM     25  H2  UNL     1     -13.233  73.467  29.495  1.00  0.00     0.210 HD
ENDBRANCH  23  24
BRANCH  23  26
HETATM   26  C7  UNL     1     -12.457  72.057  26.943  1.00  0.00     0.181 C 
BRANCH  26  27
HETATM   27  O3  UNL     1     -11.263  71.776  27.588  1.00  0.00    -0.390 OA
ATOM     28  H3  UNL     1     -10.694  72.533  27.651  1.00  0.00     0.210 HD
ENDBRANCH  26  27
BRANCH  26  29
HETATM   29  C8  UNL     1     -12.235  73.264  26.012  1.00  0.00     0.186 C 
BRANCH  29  30
HETATM   30  O4  UNL     1     -13.374  74.055  26.150  1.00  0.00    -0.390 OA
ATOM     31  H4  UNL     1     -13.269  74.763  25.524  1.00  0.00     0.210 HD
ENDBRANCH  29  30
BRANCH  29  32
HETATM   32  C9  UNL     1     -12.182  72.773  24.578  1.00  0.00     0.227 C 
BRANCH  32  33
HETATM   33  O5  UNL     1     -13.478  72.546  24.172  1.00  0.00    -0.385 OA
ATOM     34  H5  UNL     1     -13.456  72.364  23.241  1.00  0.00     0.210 HD
ENDBRANCH  32  33
BRANCH  32  35
HETATM   35  C10 UNL     1     -11.574  73.798  23.701  1.00  0.00     0.235 C 
HETATM   36  O6  UNL     1     -12.021  73.951  22.543  1.00  0.00    -0.286 OA
BRANCH  35  37
HETATM   37  C11 UNL     1     -10.473  74.622  24.164  1.00  0.00     0.284 C 
HETATM   38  O7  UNL     1      -9.284  74.223  24.126  1.00  0.00    -0.279 OA
BRANCH  37  39
HETATM   39  C12 UNL     1     -10.704  75.959  24.694  1.00  0.00     0.308 C 
HETATM   40  N3  UNL     1      -9.635  76.834  25.037  1.00  0.00    -0.054 NA
HETATM   41  O8  UNL     1     -11.902  76.327  24.846  1.00  0.00    -0.267 OA
ENDBRANCH  37  39
ENDBRANCH  35  37
ENDBRANCH  32  35
ENDBRANCH  29  32
ENDBRANCH  26  29
ENDBRANCH  23  26
ENDBRANCH   9  23
TORSDOF 13
ENDMDL
MODEL 2
REMARK VINA RESULT: -7.000233122      1.137      1.394
REMARK  13 active torsions:
REMARK  status: ('A' for Active; 'I' for Inactive)
REMARK    1  A    between atoms: C5_9  and  C6_10 
REMARK    2  A    between atoms: C6_10  and  O2_11 
REMARK    3  A    between atoms: C6_10  and  C7_13 
REMARK    4  A    between atoms: C7_13  and  O3_14 
REMARK    5  A    between atoms: C7_13  and  C8_16 
REMARK    6  A    between atoms: C8_16  and  O4_17 
REMARK    7  A    between atoms: C8_16  and  C9_19 
REMARK    8  A    between atoms: C9_19  and  O5_20 
REMARK    9  A    between atoms: C9_19  and  C10_22 
REMARK   10  A    between atoms: C10_22  and  C11_24 
REMARK   11  A    between atoms: C11_24  and  C12_26 
REMARK   12  A    between atoms: C13_30  and  N4_31 
REMARK   13  A    between atoms: C14_34  and  O10_35 
ROOT
HETATM    1  N1  UNL     1     -17.439  74.846  27.412  1.00  0.00    -0.194 NA
HETATM    2  C1  UNL     1     -17.459  73.701  27.364  1.00  0.00     0.105 C 
HETATM    3  C2  UNL     1     -17.470  72.262  27.285  1.00  0.00     0.427 C 
HETATM    4  C3  UNL     1     -16.696  71.746  26.108  1.00  0.00     0.267 C 
HETATM    5  O1  UNL     1     -16.803  72.244  24.957  1.00  0.00    -0.270 OA
HETATM    6  N2  UNL     1     -15.900  70.671  26.572  1.00  0.00    -0.326 N 
ATOM      7  H2  UNL     1     -15.395  70.007  25.983  1.00  0.00     0.164 HD
HETATM    8  C4  UNL     1     -15.920  70.669  27.984  1.00  0.00     0.364 C 
HETATM    9  C5  UNL     1     -14.700  71.075  28.710  1.00  0.00     0.210 C 
HETATM   10  O9  UNL     1     -15.260  71.628  29.895  1.00  0.00    -0.328 OA
HETATM   11  C13 UNL     1     -16.371  72.358  29.433  1.00  0.00     0.498 C 
HETATM   12  N7  UNL     1     -16.966  71.577  28.414  1.00  0.00     0.191 N 
ENDROOT
BRANCH  11  13
HETATM   13  N4  UNL     1     -17.306  72.438  30.552  1.00  0.00    -0.181 N 
HETATM   14  N5  UNL     1     -18.014  71.420  31.051  1.00  0.00    -0.255 N 
HETATM   15  C14 UNL     1     -18.771  71.849  32.075  1.00  0.00     0.240 A 
ATOM     16  H5  UNL     1     -17.984  70.461  30.705  1.00  0.00     0.191 HD
HETATM   17  N6  UNL     1     -18.542  73.168  32.236  1.00  0.00    -0.272 N 
HETATM   18  C15 UNL     1     -17.643  73.504  31.295  1.00  0.00     0.348 A 
ATOM     19  H6  UNL     1     -18.964  73.784  32.930  1.00  0.00     0.174 HD
HETATM   20  O11 UNL     1     -17.174  74.667  31.125  1.00  0.00    -0.245 OA
BRANCH  15  21
HETATM   21  O10 UNL     1     -19.657  71.101  32.868  1.00  0.00    -0.331 OA
ATOM     22  H10 UNL     1     -20.174  71.399  33.609  1.00  0.00     0.221 HD
ENDBRANCH  15  21
ENDBRANCH  11  13
BRANCH   9  23
HETATM   23  C6  UNL     1     -13.875  72.164  28.098  1.00  0.00     0.182 C 
BRANCH  23  24
HETATM   24  O2  UNL     1     -13.151  72.738  29.187  1.00  0.00    -0.390 OA
ATOM     25  H2  UNL     1     -13.672  73.481  29.466  1.00  0.00     0.210 HD
ENDBRANCH  23  24
BRANCH  23  26
HETATM   26  C7  UNL     1     -12.796  71.683  27.162  1.00  0.00     0.181 C 
BRANCH  26  27
HETATM   27  O3  UNL     1     -11.526  72.048  27.580  1.00  0.00    -0.390 OA
ATOM     28  H3  UNL     1     -11.522  72.426  28.451  1.00  0.00     0.210 HD
ENDBRANCH  26  27
BRANCH  26  29
HETATM   29  C8  UNL     1     -13.078  72.366  25.810  1.00  0.00     0.186 C 
BRANCH  29  30
HETATM   30  O4  UNL     1     -13.267  71.327  24.900  1.00  0.00    -0.390 OA
ATOM     31  H4  UNL     1     -12.684  70.632  25.184  1.00  0.00     0.210 HD
ENDBRANCH  29  30
BRANCH  29  32
HETATM   32  C9  UNL     1     -11.843  73.137  25.384  1.00  0.00     0.227 C 
BRANCH  32  33
HETATM   33  O5  UNL     1     -10.979  72.240  24.798  1.00  0.00    -0.385 OA
ATOM     34  H5  UNL     1     -10.973  71.458  25.336  1.00  0.00     0.210 HD
ENDBRANCH  32  33
BRANCH  32  35
HETATM   35  C10 UNL     1     -12.198  74.180  24.396  1.00  0.00     0.235 C 
HETATM   36  O6  UNL     1     -12.923  73.877  23.424  1.00  0.00    -0.286 OA
BRANCH  35  37
HETATM   37  C11 UNL     1     -11.719  75.543  24.541  1.00  0.00     0.284 C 
HETATM   38  O7  UNL     1     -12.507  76.515  24.637  1.00  0.00    -0.279 OA
BRANCH  37  39
HETATM   39  C12 UNL     1     -10.295  75.840  24.586  1.00  0.00     0.308 C 
HETATM   40  N3  UNL     1      -9.324  74.989  23.986  1.00  0.00    -0.054 NA
HETATM   41  O8  UNL     1      -9.937  76.893  25.183  1.00  0.00    -0.267 OA
ENDBRANCH  37  39
ENDBRANCH  35  37
ENDBRANCH  32  35
ENDBRANCH  29  32
ENDBRANCH  26  29
ENDBRANCH  23  26
ENDBRANCH   9  23
TORSDOF 13
ENDMDL
MODEL 3
REMARK VINA RESULT: -6.818278711      1.481      1.873
REMARK  13 active torsions:
REMARK  status: ('A' for Active; 'I' for Inactive)
REMARK    1  A    between atoms: C5_9  and  C6_10 
REMARK    2  A    between atoms: C6_10  and  O2_11 
REMARK    3  A    between atoms: C6_10  and  C7_13 
REMARK    4  A    between atoms: C7_13  and  O3_14 
REMARK    5  A    between atoms: C7_13  and  C8_16 
REMARK    6  A    between atoms: C8_16  and  O4_17 
REMARK    7  A    between atoms: C8_16  and  C9_19 
REMARK    8  A    between atoms: C9_19  and  O5_20 
REMARK    9  A    between atoms: C9_19  and  C10_22 
REMARK   10  A    between atoms: C10_22  and  C11_24 
REMARK   11  A    between atoms: C11_24  and  C12_26 
REMARK   12  A    between atoms: C13_30  and  N4_31 
REMARK   13  A    between atoms: C14_34  and  O10_35 
ROOT
HETATM    1  N1  UNL     1     -16.633  75.807  28.015  1.00  0.00    -0.194 NA
HETATM    2  C1  UNL     1     -16.839  74.743  27.642  1.00  0.00     0.105 C 
HETATM    3  C2  UNL     1     -17.083  73.409  27.156  1.00  0.00     0.427 C 
HETATM    4  C3  UNL     1     -16.355  73.123  25.874  1.00  0.00     0.267 C 
HETATM    5  O1  UNL     1     -16.330  73.936  24.915  1.00  0.00    -0.270 OA
HETATM    6  N2  UNL     1     -15.767  71.842  26.006  1.00  0.00    -0.326 N 
ATOM      7  H2  UNL     1     -15.355  71.296  25.250  1.00  0.00     0.164 HD
HETATM    8  C4  UNL     1     -15.846  71.444  27.360  1.00  0.00     0.364 C 
HETATM    9  C5  UNL     1     -14.608  71.416  28.163  1.00  0.00     0.210 C 
HETATM   10  O9  UNL     1     -15.118  71.698  29.460  1.00  0.00    -0.328 OA
HETATM   11  C13 UNL     1     -16.074  72.706  29.233  1.00  0.00     0.498 C 
HETATM   12  N7  UNL     1     -16.746  72.357  28.037  1.00  0.00     0.191 N 
ENDROOT
BRANCH  11  13
HETATM   13  N4  UNL     1     -17.029  72.624  30.335  1.00  0.00    -0.181 N 
HETATM   14  N5  UNL     1     -17.675  71.522  30.726  1.00  0.00    -0.255 N 
HETATM   15  C14 UNL     1     -18.474  71.806  31.769  1.00  0.00     0.240 A 
ATOM     16  H5  UNL     1     -17.576  70.601  30.298  1.00  0.00     0.191 HD
HETATM   17  N6  UNL     1     -18.337  73.117  32.051  1.00  0.00    -0.272 N 
HETATM   18  C15 UNL     1     -17.448  73.595  31.162  1.00  0.00     0.348 A 
ATOM     19  H6  UNL     1     -18.810  73.640  32.787  1.00  0.00     0.174 HD
HETATM   20  O11 UNL     1     -17.056  74.797  31.106  1.00  0.00    -0.245 OA
BRANCH  15  21
HETATM   21  O10 UNL     1     -19.321  70.934  32.474  1.00  0.00    -0.331 OA
ATOM     22  H10 UNL     1     -19.918  70.284  32.120  1.00  0.00     0.221 HD
ENDBRANCH  15  21
ENDBRANCH  11  13
BRANCH   9  23
HETATM   23  C6  UNL     1     -13.590  72.477  27.882  1.00  0.00     0.182 C 
BRANCH  23  24
HETATM   24  O2  UNL     1     -12.912  72.679  29.122  1.00  0.00    -0.390 OA
ATOM     25  H2  UNL     1     -12.246  72.002  29.151  1.00  0.00     0.210 HD
ENDBRANCH  23  24
BRANCH  23  26
HETATM   26  C7  UNL     1     -12.493  72.059  26.936  1.00  0.00     0.181 C 
BRANCH  26  27
HETATM   27  O3  UNL     1     -11.269  71.915  27.569  1.00  0.00    -0.390 OA
ATOM     28  H3  UNL     1     -11.179  71.075  28.004  1.00  0.00     0.210 HD
ENDBRANCH  26  27
BRANCH  26  29
HETATM   29  C8  UNL     1     -12.375  73.195  25.902  1.00  0.00     0.186 C 
BRANCH  29  30
HETATM   30  O4  UNL     1     -13.441  74.052  26.167  1.00  0.00    -0.390 OA
ATOM     31  H4  UNL     1     -13.223  74.870  25.734  1.00  0.00     0.210 HD
ENDBRANCH  29  30
BRANCH  29  32
HETATM   32  C9  UNL     1     -12.578  72.617  24.514  1.00  0.00     0.227 C 
BRANCH  32  33
HETATM   33  O5  UNL     1     -13.671  73.245  23.962  1.00  0.00    -0.385 OA
ATOM     34  H5  UNL     1     -13.401  73.602  23.125  1.00  0.00     0.210 HD
ENDBRANCH  32  33
BRANCH  32  35
HETATM   35  C10 UNL     1     -11.394  72.876  23.666  1.00  0.00     0.235 C 
HETATM   36  O6  UNL     1     -11.543  73.466  22.574  1.00  0.00    -0.286 OA
BRANCH  35  37
HETATM   37  C11 UNL     1     -10.067  72.457  24.083  1.00  0.00     0.284 C 
HETATM   38  O7  UNL     1      -9.133  73.279  24.246  1.00  0.00    -0.279 OA
BRANCH  37  39
HETATM   39  C12 UNL     1      -9.765  71.056  24.335  1.00  0.00     0.308 C 
HETATM   40  N3  UNL     1      -9.355  70.587  25.615  1.00  0.00    -0.054 NA
HETATM   41  O8  UNL     1      -9.877  70.251  23.369  1.00  0.00    -0.267 OA
ENDBRANCH  37  39
ENDBRANCH  35  37
ENDBRANCH  32  35
ENDBRANCH  29  32
ENDBRANCH  26  29
ENDBRANCH  23  26
ENDBRANCH   9  23
TORSDOF 13
ENDMDL
MODEL 4
REMARK VINA RESULT: -6.770134836      2.240      7.913
REMARK  13 active torsions:
REMARK  status: ('A' for Active; 'I' for Inactive)
REMARK    1  A    between atoms: C5_9  and  C6_10 
REMARK    2  A    between atoms: C6_10  and  O2_11 
REMARK    3  A    between atoms: C6_10  and  C7_13 
REMARK    4  A    between atoms: C7_13  and  O3_14 
REMARK    5  A    between atoms: C7_13  and  C8_16 
REMARK    6  A    between atoms: C8_16  and  O4_17 
REMARK    7  A    between atoms: C8_16  and  C9_19 
REMARK    8  A    between atoms: C9_19  and  O5_20 
REMARK    9  A    between atoms: C9_19  and  C10_22 
REMARK   10  A    between atoms: C10_22  and  C11_24 
REMARK   11  A    between atoms: C11_24  and  C12_26 
REMARK   12  A    between atoms: C13_30  and  N4_31 
REMARK   13  A    between atoms: C14_34  and  O10_35 
ROOT
HETATM    1  N1  UNL     1      -9.587  71.049  25.291  1.00  0.00    -0.194 NA
HETATM    2  C1  UNL     1     -10.598  71.266  24.796  1.00  0.00     0.105 C 
HETATM    3  C2  UNL     1     -11.878  71.518  24.184  1.00  0.00     0.427 C 
HETATM    4  C3  UNL     1     -12.856  70.405  24.420  1.00  0.00     0.267 C 
HETATM    5  O1  UNL     1     -12.546  69.192  24.292  1.00  0.00    -0.270 OA
HETATM    6  N2  UNL     1     -14.087  71.003  24.785  1.00  0.00    -0.326 N 
ATOM      7  H2  UNL     1     -14.986  70.525  24.842  1.00  0.00     0.164 HD
HETATM    8  C4  UNL     1     -13.862  72.371  25.057  1.00  0.00     0.364 C 
HETATM    9  C5  UNL     1     -13.929  72.835  26.457  1.00  0.00     0.210 C 
HETATM   10  O9  UNL     1     -13.011  73.921  26.428  1.00  0.00    -0.328 OA
HETATM   11  C13 UNL     1     -11.947  73.441  25.642  1.00  0.00     0.498 C 
HETATM   12  N7  UNL     1     -12.533  72.704  24.585  1.00  0.00     0.191 N 
ENDROOT
BRANCH  11  13
HETATM   13  N4  UNL     1     -11.293  74.615  25.073  1.00  0.00    -0.181 N 
HETATM   14  N5  UNL     1      -9.974  74.796  24.963  1.00  0.00    -0.255 N 
HETATM   15  C14 UNL     1      -9.722  75.987  24.393  1.00  0.00     0.240 A 
ATOM     16  H5  UNL     1      -9.263  74.130  25.267  1.00  0.00     0.191 HD
HETATM   17  N6  UNL     1     -10.904  76.580  24.131  1.00  0.00    -0.272 N 
HETATM   18  C15 UNL     1     -11.849  75.722  24.554  1.00  0.00     0.348 A 
ATOM     19  H6  UNL     1     -11.051  77.492  23.700  1.00  0.00     0.174 HD
HETATM   20  O11 UNL     1     -13.095  75.925  24.479  1.00  0.00    -0.245 OA
BRANCH  15  21
HETATM   21  O10 UNL     1      -8.472  76.559  24.100  1.00  0.00    -0.331 OA
ATOM     22  H10 UNL     1      -7.671  76.115  23.845  1.00  0.00     0.221 HD
ENDBRANCH  15  21
ENDBRANCH  11  13
BRANCH   9  23
HETATM   23  C6  UNL     1     -13.424  71.897  27.509  1.00  0.00     0.182 C 
BRANCH  23  24
HETATM   24  O2  UNL     1     -12.418  72.631  28.207  1.00  0.00    -0.390 OA
ATOM     25  H2  UNL     1     -12.303  72.170  29.030  1.00  0.00     0.210 HD
ENDBRANCH  23  24
BRANCH  23  26
HETATM   26  C7  UNL     1     -14.428  71.556  28.581  1.00  0.00     0.181 C 
BRANCH  26  27
HETATM   27  O3  UNL     1     -15.089  70.364  28.333  1.00  0.00    -0.390 OA
ATOM     28  H3  UNL     1     -14.501  69.619  28.303  1.00  0.00     0.210 HD
ENDBRANCH  26  27
BRANCH  26  29
HETATM   29  C8  UNL     1     -15.463  72.699  28.564  1.00  0.00     0.186 C 
BRANCH  29  30
HETATM   30  O4  UNL     1     -14.809  73.801  29.110  1.00  0.00    -0.390 OA
ATOM     31  H4  UNL     1     -15.481  74.295  29.566  1.00  0.00     0.210 HD
ENDBRANCH  29  30
BRANCH  29  32
HETATM   32  C9  UNL     1     -16.609  72.334  29.489  1.00  0.00     0.227 C 
BRANCH  32  33
HETATM   33  O5  UNL     1     -16.065  71.728  30.599  1.00  0.00    -0.385 OA
ATOM     34  H5  UNL     1     -15.918  70.816  30.382  1.00  0.00     0.210 HD
ENDBRANCH  32  33
BRANCH  32  35
HETATM   35  C10 UNL     1     -17.341  73.548  29.911  1.00  0.00     0.235 C 
HETATM   36  O6  UNL     1     -17.645  74.405  29.054  1.00  0.00    -0.286 OA
BRANCH  35  37
HETATM   37  C11 UNL     1     -17.708  73.756  31.301  1.00  0.00     0.284 C 
HETATM   38  O7  UNL     1     -16.935  74.317  32.114  1.00  0.00    -0.279 OA
BRANCH  37  39
HETATM   39  C12 UNL     1     -19.001  73.322  31.811  1.00  0.00     0.308 C 
HETATM   40  N3  UNL     1     -20.228  73.753  31.233  1.00  0.00    -0.054 NA
HETATM   41  O8  UNL     1     -19.004  72.537  32.800  1.00  0.00    -0.267 OA
ENDBRANCH  37  39
ENDBRANCH  35  37
ENDBRANCH  32  35
ENDBRANCH  29  32
ENDBRANCH  26  29
ENDBRANCH  23  26
ENDBRANCH   9  23
TORSDOF 13
ENDMDL
MODEL 5
REMARK VINA RESULT: -6.767604075      3.020      8.156
REMARK  13 active torsions:
REMARK  status: ('A' for Active; 'I' for Inactive)
REMARK    1  A    between atoms: C5_9  and  C6_10 
REMARK    2  A    between atoms: C6_10  and  O2_11 
REMARK    3  A    between atoms: C6_10  and  C7_13 
REMARK    4  A    between atoms: C7_13  and  O3_14 
REMARK    5  A    between atoms: C7_13  and  C8_16 
REMARK    6  A    between atoms: C8_16  and  O4_17 
REMARK    7  A    between atoms: C8_16  and  C9_19 
REMARK    8  A    between atoms: C9_19  and  O5_20 
REMARK    9  A    between atoms: C9_19  and  C10_22 
REMARK   10  A    between atoms: C10_22  and  C11_24 
REMARK   11  A    between atoms: C11_24  and  C12_26 
REMARK   12  A    between atoms: C13_30  and  N4_31 
REMARK   13  A    between atoms: C14_34  and  O10_35 
ROOT
HETATM    1  N1  UNL     1     -13.112  67.977  28.217  1.00  0.00    -0.194 NA
HETATM    2  C1  UNL     1     -13.379  68.558  27.266  1.00  0.00     0.105 C 
HETATM    3  C2  UNL     1     -13.736  69.291  26.078  1.00  0.00     0.427 C 
HETATM    4  C3  UNL     1     -15.188  69.670  26.052  1.00  0.00     0.267 C 
HETATM    5  O1  UNL     1     -16.103  68.861  26.354  1.00  0.00    -0.270 OA
HETATM    6  N2  UNL     1     -15.258  71.024  25.645  1.00  0.00    -0.326 N 
ATOM      7  H2  UNL     1     -16.106  71.518  25.367  1.00  0.00     0.164 HD
HETATM    8  C4  UNL     1     -13.959  71.577  25.687  1.00  0.00     0.364 C 
HETATM    9  C5  UNL     1     -13.641  72.556  26.747  1.00  0.00     0.210 C 
HETATM   10  O9  UNL     1     -12.249  72.319  26.926  1.00  0.00    -0.328 OA
HETATM   11  C13 UNL     1     -12.137  70.917  26.870  1.00  0.00     0.498 C 
HETATM   12  N7  UNL     1     -13.018  70.487  25.850  1.00  0.00     0.191 N 
ENDROOT
BRANCH  11  13
HETATM   13  N4  UNL     1     -10.770  70.630  26.444  1.00  0.00    -0.181 N 
HETATM   14  N5  UNL     1      -9.861  69.948  27.147  1.00  0.00    -0.255 N 
HETATM   15  C14 UNL     1      -8.711  69.873  26.456  1.00  0.00     0.240 A 
ATOM     16  H5  UNL     1     -10.017  69.545  28.071  1.00  0.00     0.191 HD
HETATM   17  N6  UNL     1      -8.888  70.518  25.286  1.00  0.00    -0.272 N 
HETATM   18  C15 UNL     1     -10.153  70.972  25.301  1.00  0.00     0.348 A 
ATOM     19  H6  UNL     1      -8.201  70.639  24.541  1.00  0.00     0.174 HD
HETATM   20  O11 UNL     1     -10.696  71.633  24.369  1.00  0.00    -0.245 OA
BRANCH  15  21
HETATM   21  O10 UNL     1      -7.512  69.246  26.837  1.00  0.00    -0.331 OA
ATOM     22  H10 UNL     1      -6.961  69.443  27.586  1.00  0.00     0.221 HD
ENDBRANCH  15  21
ENDBRANCH  11  13
BRANCH   9  23
HETATM   23  C6  UNL     1     -14.271  72.336  28.087  1.00  0.00     0.182 C 
BRANCH  23  24
HETATM   24  O2  UNL     1     -13.290  72.762  29.033  1.00  0.00    -0.390 OA
ATOM     25  H2  UNL     1     -13.628  73.574  29.390  1.00  0.00     0.210 HD
ENDBRANCH  23  24
BRANCH  23  26
HETATM   26  C7  UNL     1     -15.456  73.223  28.375  1.00  0.00     0.181 C 
BRANCH  26  27
HETATM   27  O3  UNL     1     -15.103  74.386  29.040  1.00  0.00    -0.390 OA
ATOM     28  H3  UNL     1     -14.691  74.217  29.879  1.00  0.00     0.210 HD
ENDBRANCH  26  27
BRANCH  26  29
HETATM   29  C8  UNL     1     -16.382  72.400  29.292  1.00  0.00     0.186 C 
BRANCH  29  30
HETATM   30  O4  UNL     1     -16.608  71.203  28.616  1.00  0.00    -0.390 OA
ATOM     31  H4  UNL     1     -16.980  70.613  29.261  1.00  0.00     0.210 HD
ENDBRANCH  29  30
BRANCH  29  32
HETATM   32  C9  UNL     1     -17.711  73.120  29.417  1.00  0.00     0.227 C 
BRANCH  32  33
HETATM   33  O5  UNL     1     -18.696  72.234  29.045  1.00  0.00    -0.385 OA
ATOM     34  H5  UNL     1     -19.285  72.136  29.784  1.00  0.00     0.210 HD
ENDBRANCH  32  33
BRANCH  32  35
HETATM   35  C10 UNL     1     -17.944  73.539  30.817  1.00  0.00     0.235 C 
HETATM   36  O6  UNL     1     -17.070  74.213  31.404  1.00  0.00    -0.286 OA
BRANCH  35  37
HETATM   37  C11 UNL     1     -19.166  73.181  31.513  1.00  0.00     0.284 C 
HETATM   38  O7  UNL     1     -20.221  73.848  31.386  1.00  0.00    -0.279 OA
BRANCH  37  39
HETATM   39  C12 UNL     1     -19.221  72.022  32.392  1.00  0.00     0.308 C 
HETATM   40  N3  UNL     1     -19.013  70.697  31.914  1.00  0.00    -0.054 NA
HETATM   41  O8  UNL     1     -19.463  72.227  33.614  1.00  0.00    -0.267 OA
ENDBRANCH  37  39
ENDBRANCH  35  37
ENDBRANCH  32  35
ENDBRANCH  29  32
ENDBRANCH  26  29
ENDBRANCH  23  26
ENDBRANCH   9  23
TORSDOF 13
ENDMDL
