MODEL 1
REMARK VINA RESULT: -6.821737057      0.000      0.000
REMARK  11 active torsions:
REMARK  status: ('A' for Active; 'I' for Inactive)
REMARK    1  A    between atoms: C1_2  and  C2_4 
REMARK    2  A    between atoms: C3_10  and  N3_11 
REMARK    3  A    between atoms: N3_11  and  O4_12 
REMARK    4  A    between atoms: O4_12  and  S2_13 
REMARK    5  A    between atoms: S2_13  and  O7_16 
REMARK    6  A    between atoms: O7_16  and  C4_17 
REMARK    7  A    between atoms: C6_19  and  O8_20 
REMARK    8  A    between atoms: C7_22  and  O9_23 
REMARK    9  A    between atoms: O9_23  and  C8_24 
REMARK   10  A    between atoms: C8_24  and  C9_25 
REMARK   11  A    between atoms: C10_33  and  O12_34 
ROOT
HETATM    1  S2  UNL     1     -14.282  69.221  28.455  1.00  0.00     0.421 S 
HETATM    2  O5  UNL     1     -15.587  68.558  28.779  1.00  0.00    -0.167 OA
HETATM    3  O6  UNL     1     -13.227  68.151  28.436  1.00  0.00    -0.167 OA
ENDROOT
BRANCH   1   4
HETATM    4  O4  UNL     1     -13.945  70.312  29.683  1.00  0.00    -0.134 OA
BRANCH   4   5
HETATM    5  N3  UNL     1     -14.178  71.583  29.284  1.00  0.00    -0.037 NA
BRANCH   5   6
HETATM    6  C3  UNL     1     -15.628  71.753  29.165  1.00  0.00     0.347 C 
HETATM    7  S1  UNL     1     -15.959  73.281  28.344  1.00  0.00     0.266 S 
HETATM    8  N2  UNL     1     -17.648  73.565  28.450  1.00  0.00    -0.299 N 
HETATM    9  O2  UNL     1     -15.590  73.184  26.872  1.00  0.00    -0.202 OA
HETATM   10  O3  UNL     1     -15.168  74.424  28.909  1.00  0.00    -0.202 OA
HETATM   11  C2  UNL     1     -18.200  72.767  29.497  1.00  0.00     0.230 C 
ATOM     12  H2  UNL     1     -18.175  74.205  27.857  1.00  0.00     0.173 HD
HETATM   13  C10 UNL     1     -17.284  72.619  30.686  1.00  0.00     0.247 C 
HETATM   14  N5  UNL     1     -16.176  71.763  30.474  1.00  0.00    -0.362 N 
ATOM     15  H5  UNL     1     -15.793  71.184  31.221  1.00  0.00     0.158 HD
BRANCH  11  16
HETATM   16  C1  UNL     1     -19.450  73.394  29.982  1.00  0.00     0.258 C 
HETATM   17  N1  UNL     1     -19.757  73.598  31.356  1.00  0.00    -0.060 NA
HETATM   18  O1  UNL     1     -20.300  73.774  29.143  1.00  0.00    -0.274 OA
ENDBRANCH  11  16
BRANCH  13  19
HETATM   19  O12 UNL     1     -16.936  73.899  31.141  1.00  0.00    -0.374 OA
ATOM     20  H12 UNL     1     -16.465  73.809  31.961  1.00  0.00     0.212 HD
ENDBRANCH  13  19
ENDBRANCH   5   6
ENDBRANCH   4   5
ENDBRANCH   1   4
BRANCH   1  21
HETATM   21  O7  UNL     1     -14.383  69.967  26.971  1.00  0.00    -0.219 OA
BRANCH  21  22
HETATM   22  C4  UNL     1     -13.155  70.001  26.306  1.00  0.00     0.348 C 
HETATM   23  C5  UNL     1     -13.118  71.119  25.286  1.00  0.00     0.099 C 
HETATM   24  C6  UNL     1     -12.088  72.094  25.872  1.00  0.00     0.178 C 
HETATM   25  C7  UNL     1     -11.143  71.093  26.552  1.00  0.00     0.353 C 
HETATM   26  N4  UNL     1     -12.084  70.262  27.245  1.00  0.00    -0.019 N 
ATOM     27  H42 UNL     1     -12.404  70.659  28.129  1.00  0.00     0.283 HD
ATOM     28  H41 UNL     1     -11.669  69.415  27.634  1.00  0.00     0.283 HD
BRANCH  24  29
HETATM   29  O8  UNL     1     -12.720  72.855  26.838  1.00  0.00    -0.391 OA
ATOM     30  H8  UNL     1     -12.444  73.758  26.729  1.00  0.00     0.210 HD
ENDBRANCH  24  29
BRANCH  25  31
HETATM   31  O9  UNL     1     -10.457  70.381  25.599  1.00  0.00    -0.346 OA
BRANCH  31  32
HETATM   32  C8  UNL     1      -9.178  70.823  25.357  1.00  0.00     0.283 C 
BRANCH  32  33
HETATM   33  C9  UNL     1      -8.124  69.825  25.561  1.00  0.00     0.197 C 
HETATM   34  O10 UNL     1      -7.623  69.236  24.579  1.00  0.00    -0.646 OA
HETATM   35  O11 UNL     1      -7.670  69.518  26.826  1.00  0.00    -0.646 OA
ENDBRANCH  32  33
ENDBRANCH  31  32
ENDBRANCH  25  31
ENDBRANCH  21  22
ENDBRANCH   1  21
TORSDOF 11
ENDMDL
MODEL 2
REMARK VINA RESULT: -6.538299214      2.548      7.282
REMARK  11 active torsions:
REMARK  status: ('A' for Active; 'I' for Inactive)
REMARK    1  A    between atoms: C1_2  and  C2_4 
REMARK    2  A    between atoms: C3_10  and  N3_11 
REMARK    3  A    between atoms: N3_11  and  O4_12 
REMARK    4  A    between atoms: O4_12  and  S2_13 
REMARK    5  A    between atoms: S2_13  and  O7_16 
REMARK    6  A    between atoms: O7_16  and  C4_17 
REMARK    7  A    between atoms: C6_19  and  O8_20 
REMARK    8  A    between atoms: C7_22  and  O9_23 
REMARK    9  A    between atoms: O9_23  and  C8_24 
REMARK   10  A    between atoms: C8_24  and  C9_25 
REMARK   11  A    between atoms: C10_33  and  O12_34 
ROOT
HETATM    1  S2  UNL     1     -14.215  71.280  28.889  1.00  0.00     0.421 S 
HETATM    2  O5  UNL     1     -13.180  72.352  29.059  1.00  0.00    -0.167 OA
HETATM    3  O6  UNL     1     -13.582  69.978  29.289  1.00  0.00    -0.167 OA
ENDROOT
BRANCH   1   4
HETATM    4  O4  UNL     1     -14.628  71.223  27.265  1.00  0.00    -0.134 OA
BRANCH   4   5
HETATM    5  N3  UNL     1     -13.806  70.397  26.580  1.00  0.00    -0.037 NA
BRANCH   5   6
HETATM    6  C3  UNL     1     -13.023  71.218  25.652  1.00  0.00     0.347 C 
HETATM    7  S1  UNL     1     -11.310  70.846  25.866  1.00  0.00     0.266 S 
HETATM    8  N2  UNL     1     -10.419  71.995  24.956  1.00  0.00    -0.299 N 
HETATM    9  O2  UNL     1     -10.994  69.464  25.317  1.00  0.00    -0.202 OA
HETATM   10  O3  UNL     1     -10.896  70.839  27.308  1.00  0.00    -0.202 OA
HETATM   11  C2  UNL     1     -11.245  73.124  24.674  1.00  0.00     0.230 C 
ATOM     12  H2  UNL     1      -9.448  71.888  24.662  1.00  0.00     0.173 HD
HETATM   13  C10 UNL     1     -12.188  73.474  25.798  1.00  0.00     0.247 C 
HETATM   14  N5  UNL     1     -13.278  72.581  25.952  1.00  0.00    -0.362 N 
ATOM     15  H5  UNL     1     -14.195  72.901  26.262  1.00  0.00     0.158 HD
BRANCH  11  16
HETATM   16  C1  UNL     1     -10.390  74.309  24.436  1.00  0.00     0.258 C 
HETATM   17  N1  UNL     1     -10.610  75.582  25.031  1.00  0.00    -0.060 NA
HETATM   18  O1  UNL     1      -9.408  74.200  23.664  1.00  0.00    -0.274 OA
ENDBRANCH  11  16
BRANCH  13  19
HETATM   19  O12 UNL     1     -11.437  73.662  26.967  1.00  0.00    -0.374 OA
ATOM     20  H12 UNL     1     -11.796  74.404  27.439  1.00  0.00     0.212 HD
ENDBRANCH  13  19
ENDBRANCH   5   6
ENDBRANCH   4   5
ENDBRANCH   1   4
BRANCH   1  21
HETATM   21  O7  UNL     1     -15.530  71.610  29.853  1.00  0.00    -0.219 OA
BRANCH  21  22
HETATM   22  C4  UNL     1     -16.513  72.342  29.184  1.00  0.00     0.348 C 
HETATM   23  C5  UNL     1     -17.732  72.547  30.058  1.00  0.00     0.099 C 
HETATM   24  C6  UNL     1     -17.717  74.057  30.330  1.00  0.00     0.178 C 
HETATM   25  C7  UNL     1     -17.128  74.554  29.003  1.00  0.00     0.353 C 
HETATM   26  N4  UNL     1     -16.016  73.662  28.851  1.00  0.00    -0.019 N 
ATOM     27  H42 UNL     1     -15.196  73.937  29.393  1.00  0.00     0.283 HD
ATOM     28  H41 UNL     1     -15.577  73.711  27.931  1.00  0.00     0.283 HD
BRANCH  24  29
HETATM   29  O8  UNL     1     -16.816  74.300  31.350  1.00  0.00    -0.391 OA
ATOM     30  H8  UNL     1     -17.212  74.019  32.167  1.00  0.00     0.210 HD
ENDBRANCH  24  29
BRANCH  25  31
HETATM   31  O9  UNL     1     -18.045  74.383  27.994  1.00  0.00    -0.346 OA
BRANCH  31  32
HETATM   32  C8  UNL     1     -17.702  74.964  26.797  1.00  0.00     0.283 C 
BRANCH  32  33
HETATM   33  C9  UNL     1     -16.505  74.412  26.156  1.00  0.00     0.197 C 
HETATM   34  O10 UNL     1     -16.537  73.268  25.652  1.00  0.00    -0.646 OA
HETATM   35  O11 UNL     1     -15.331  75.133  26.099  1.00  0.00    -0.646 OA
ENDBRANCH  32  33
ENDBRANCH  31  32
ENDBRANCH  25  31
ENDBRANCH  21  22
ENDBRANCH   1  21
TORSDOF 11
ENDMDL
MODEL 3
REMARK VINA RESULT: -6.517840614      2.882      4.877
REMARK  11 active torsions:
REMARK  status: ('A' for Active; 'I' for Inactive)
REMARK    1  A    between atoms: C1_2  and  C2_4 
REMARK    2  A    between atoms: C3_10  and  N3_11 
REMARK    3  A    between atoms: N3_11  and  O4_12 
REMARK    4  A    between atoms: O4_12  and  S2_13 
REMARK    5  A    between atoms: S2_13  and  O7_16 
REMARK    6  A    between atoms: O7_16  and  C4_17 
REMARK    7  A    between atoms: C6_19  and  O8_20 
REMARK    8  A    between atoms: C7_22  and  O9_23 
REMARK    9  A    between atoms: O9_23  and  C8_24 
REMARK   10  A    between atoms: C8_24  and  C9_25 
REMARK   11  A    between atoms: C10_33  and  O12_34 
ROOT
HETATM    1  S2  UNL     1     -12.990  75.571  24.526  1.00  0.00     0.421 S 
HETATM    2  O5  UNL     1     -11.709  76.212  24.968  1.00  0.00    -0.167 OA
HETATM    3  O6  UNL     1     -13.975  76.674  24.259  1.00  0.00    -0.167 OA
ENDROOT
BRANCH   1   4
HETATM    4  O4  UNL     1     -13.548  74.619  25.789  1.00  0.00    -0.134 OA
BRANCH   4   5
HETATM    5  N3  UNL     1     -14.885  74.438  25.710  1.00  0.00    -0.037 NA
BRANCH   5   6
HETATM    6  C3  UNL     1     -15.221  73.257  26.509  1.00  0.00     0.347 C 
HETATM    7  S1  UNL     1     -16.055  73.779  27.976  1.00  0.00     0.266 S 
HETATM    8  N2  UNL     1     -16.205  72.408  28.996  1.00  0.00    -0.299 N 
HETATM    9  O2  UNL     1     -17.455  74.272  27.644  1.00  0.00    -0.202 OA
HETATM   10  O3  UNL     1     -15.355  74.912  28.667  1.00  0.00    -0.202 OA
HETATM   11  C2  UNL     1     -15.270  71.409  28.592  1.00  0.00     0.230 C 
ATOM     12  H2  UNL     1     -16.860  72.321  29.773  1.00  0.00     0.173 HD
HETATM   13  C10 UNL     1     -13.957  71.974  28.110  1.00  0.00     0.247 C 
HETATM   14  N5  UNL     1     -14.012  72.590  26.835  1.00  0.00    -0.362 N 
ATOM     15  H5  UNL     1     -13.226  72.556  26.187  1.00  0.00     0.158 HD
BRANCH  11  16
HETATM   16  C1  UNL     1     -14.971  70.524  29.740  1.00  0.00     0.258 C 
HETATM   17  N1  UNL     1     -15.829  70.357  30.862  1.00  0.00    -0.060 NA
HETATM   18  O1  UNL     1     -13.897  69.876  29.738  1.00  0.00    -0.274 OA
ENDBRANCH  11  16
BRANCH  13  19
HETATM   19  O12 UNL     1     -13.431  72.796  29.117  1.00  0.00    -0.374 OA
ATOM     20  H12 UNL     1     -12.779  73.368  28.729  1.00  0.00     0.212 HD
ENDBRANCH  13  19
ENDBRANCH   5   6
ENDBRANCH   4   5
ENDBRANCH   1   4
BRANCH   1  21
HETATM   21  O7  UNL     1     -12.725  74.679  23.146  1.00  0.00    -0.219 OA
BRANCH  21  22
HETATM   22  C4  UNL     1     -12.265  73.390  23.424  1.00  0.00     0.348 C 
HETATM   23  C5  UNL     1     -11.805  72.691  22.163  1.00  0.00     0.099 C 
HETATM   24  C6  UNL     1     -10.288  72.570  22.362  1.00  0.00     0.178 C 
HETATM   25  C7  UNL     1     -10.242  72.393  23.887  1.00  0.00     0.353 C 
HETATM   26  N4  UNL     1     -11.118  73.447  24.308  1.00  0.00    -0.019 N 
ATOM     27  H42 UNL     1     -10.669  74.363  24.335  1.00  0.00     0.283 HD
ATOM     28  H41 UNL     1     -11.364  73.400  25.297  1.00  0.00     0.283 HD
BRANCH  24  29
HETATM   29  O8  UNL     1      -9.714  73.782  22.025  1.00  0.00    -0.391 OA
ATOM     30  H8  UNL     1      -9.220  74.093  22.775  1.00  0.00     0.210 HD
ENDBRANCH  24  29
BRANCH  25  31
HETATM   31  O9  UNL     1     -10.744  71.161  24.227  1.00  0.00    -0.346 OA
BRANCH  31  32
HETATM   32  C8  UNL     1     -10.116  70.554  25.289  1.00  0.00     0.283 C 
BRANCH  32  33
HETATM   33  C9  UNL     1     -10.857  70.587  26.553  1.00  0.00     0.197 C 
HETATM   34  O10 UNL     1     -11.180  71.684  27.059  1.00  0.00    -0.646 OA
HETATM   35  O11 UNL     1     -11.206  69.423  27.204  1.00  0.00    -0.646 OA
ENDBRANCH  32  33
ENDBRANCH  31  32
ENDBRANCH  25  31
ENDBRANCH  21  22
ENDBRANCH   1  21
TORSDOF 11
ENDMDL
MODEL 4
REMARK VINA RESULT: -6.496040771      2.098      7.849
REMARK  11 active torsions:
REMARK  status: ('A' for Active; 'I' for Inactive)
REMARK    1  A    between atoms: C1_2  and  C2_4 
REMARK    2  A    between atoms: C3_10  and  N3_11 
REMARK    3  A    between atoms: N3_11  and  O4_12 
REMARK    4  A    between atoms: O4_12  and  S2_13 
REMARK    5  A    between atoms: S2_13  and  O7_16 
REMARK    6  A    between atoms: O7_16  and  C4_17 
REMARK    7  A    between atoms: C6_19  and  O8_20 
REMARK    8  A    between atoms: C7_22  and  O9_23 
REMARK    9  A    between atoms: O9_23  and  C8_24 
REMARK   10  A    between atoms: C8_24  and  C9_25 
REMARK   11  A    between atoms: C10_33  and  O12_34 
ROOT
HETATM    1  S2  UNL     1     -16.673  74.594  28.014  1.00  0.00     0.421 S 
HETATM    2  O5  UNL     1     -17.808  74.058  27.194  1.00  0.00    -0.167 OA
HETATM    3  O6  UNL     1     -16.215  75.871  27.368  1.00  0.00    -0.167 OA
ENDROOT
BRANCH   1   4
HETATM    4  O4  UNL     1     -15.431  73.468  27.964  1.00  0.00    -0.134 OA
BRANCH   4   5
HETATM    5  N3  UNL     1     -15.857  72.293  27.451  1.00  0.00    -0.037 NA
BRANCH   5   6
HETATM    6  C3  UNL     1     -14.696  71.614  26.870  1.00  0.00     0.347 C 
HETATM    7  S1  UNL     1     -14.046  70.478  28.056  1.00  0.00     0.266 S 
HETATM    8  N2  UNL     1     -12.554  69.894  27.443  1.00  0.00    -0.299 N 
HETATM    9  O2  UNL     1     -14.982  69.291  28.222  1.00  0.00    -0.202 OA
HETATM   10  O3  UNL     1     -13.886  71.091  29.416  1.00  0.00    -0.202 OA
HETATM   11  C2  UNL     1     -12.076  70.780  26.431  1.00  0.00     0.230 C 
ATOM     12  H2  UNL     1     -12.081  69.046  27.754  1.00  0.00     0.173 HD
HETATM   13  C10 UNL     1     -12.372  72.232  26.714  1.00  0.00     0.247 C 
HETATM   14  N5  UNL     1     -13.730  72.600  26.545  1.00  0.00    -0.362 N 
ATOM     15  H5  UNL     1     -13.998  73.524  26.207  1.00  0.00     0.158 HD
BRANCH  11  16
HETATM   16  C1  UNL     1     -10.606  70.647  26.319  1.00  0.00     0.258 C 
HETATM   17  N1  UNL     1      -9.836  71.195  25.256  1.00  0.00    -0.060 NA
HETATM   18  O1  UNL     1      -9.987  70.016  27.208  1.00  0.00    -0.274 OA
ENDBRANCH  11  16
BRANCH  13  19
HETATM   19  O12 UNL     1     -11.848  72.555  27.973  1.00  0.00    -0.374 OA
ATOM     20  H12 UNL     1     -11.083  72.012  28.129  1.00  0.00     0.212 HD
ENDBRANCH  13  19
ENDBRANCH   5   6
ENDBRANCH   4   5
ENDBRANCH   1   4
BRANCH   1  21
HETATM   21  O7  UNL     1     -17.190  74.880  29.570  1.00  0.00    -0.219 OA
BRANCH  21  22
HETATM   22  C4  UNL     1     -17.166  73.728  30.360  1.00  0.00     0.348 C 
HETATM   23  C5  UNL     1     -17.733  74.000  31.737  1.00  0.00     0.099 C 
HETATM   24  C6  UNL     1     -19.036  73.190  31.746  1.00  0.00     0.178 C 
HETATM   25  C7  UNL     1     -18.611  72.008  30.863  1.00  0.00     0.353 C 
HETATM   26  N4  UNL     1     -17.994  72.697  29.768  1.00  0.00    -0.019 N 
ATOM     27  H42 UNL     1     -18.661  73.053  29.083  1.00  0.00     0.283 HD
ATOM     28  H41 UNL     1     -17.484  72.080  29.135  1.00  0.00     0.283 HD
BRANCH  24  29
HETATM   29  O8  UNL     1     -20.004  73.928  31.087  1.00  0.00    -0.391 OA
ATOM     30  H8  UNL     1     -20.698  73.335  30.824  1.00  0.00     0.210 HD
ENDBRANCH  24  29
BRANCH  25  31
HETATM   31  O9  UNL     1     -17.704  71.228  31.537  1.00  0.00    -0.346 OA
BRANCH  31  32
HETATM   32  C8  UNL     1     -17.120  70.238  30.782  1.00  0.00     0.283 C 
BRANCH  32  33
HETATM   33  C9  UNL     1     -17.663  68.893  30.992  1.00  0.00     0.197 C 
HETATM   34  O10 UNL     1     -17.736  68.421  32.148  1.00  0.00    -0.646 OA
HETATM   35  O11 UNL     1     -18.097  68.127  29.931  1.00  0.00    -0.646 OA
ENDBRANCH  32  33
ENDBRANCH  31  32
ENDBRANCH  25  31
ENDBRANCH  21  22
ENDBRANCH   1  21
TORSDOF 11
ENDMDL
MODEL 5
REMARK VINA RESULT: -6.472808783      1.895      8.186
REMARK  11 active torsions:
REMARK  status: ('A' for Active; 'I' for Inactive)
REMARK    1  A    between atoms: C1_2  and  C2_4 
REMARK    2  A    between atoms: C3_10  and  N3_11 
REMARK    3  A    between atoms: N3_11  and  O4_12 
REMARK    4  A    between atoms: O4_12  and  S2_13 
REMARK    5  A    between atoms: S2_13  and  O7_16 
REMARK    6  A    between atoms: O7_16  and  C4_17 
REMARK    7  A    between atoms: C6_19  and  O8_20 
REMARK    8  A    between atoms: C7_22  and  O9_23 
REMARK    9  A    between atoms: O9_23  and  C8_24 
REMARK   10  A    between atoms: C8_24  and  C9_25 
REMARK   11  A    between atoms: C10_33  and  O12_34 
ROOT
HETATM    1  S2  UNL     1     -14.554  73.319  27.647  1.00  0.00     0.421 S 
HETATM    2  O5  UNL     1     -14.005  74.069  26.470  1.00  0.00    -0.167 OA
HETATM    3  O6  UNL     1     -15.110  74.334  28.606  1.00  0.00    -0.167 OA
ENDROOT
BRANCH   1   4
HETATM    4  O4  UNL     1     -13.280  72.507  28.375  1.00  0.00    -0.134 OA
BRANCH   4   5
HETATM    5  N3  UNL     1     -13.310  71.188  28.080  1.00  0.00    -0.037 NA
BRANCH   5   6
HETATM    6  C3  UNL     1     -12.500  70.982  26.877  1.00  0.00     0.347 C 
HETATM    7  S1  UNL     1     -12.524  69.266  26.458  1.00  0.00     0.266 S 
HETATM    8  N2  UNL     1     -11.373  69.028  25.209  1.00  0.00    -0.299 N 
HETATM    9  O2  UNL     1     -13.890  68.870  25.920  1.00  0.00    -0.202 OA
HETATM   10  O3  UNL     1     -12.255  68.380  27.638  1.00  0.00    -0.202 OA
HETATM   11  C2  UNL     1     -10.461  70.125  25.184  1.00  0.00     0.230 C 
ATOM     12  H2  UNL     1     -11.344  68.224  24.581  1.00  0.00     0.173 HD
HETATM   13  C10 UNL     1     -10.133  70.665  26.555  1.00  0.00     0.247 C 
HETATM   14  N5  UNL     1     -11.177  71.406  27.162  1.00  0.00    -0.362 N 
ATOM     15  H5  UNL     1     -10.987  72.202  27.771  1.00  0.00     0.158 HD
BRANCH  11  16
HETATM   16  C1  UNL     1      -9.187  69.691  24.569  1.00  0.00     0.258 C 
HETATM   17  N1  UNL     1      -7.908  69.907  25.150  1.00  0.00    -0.060 NA
HETATM   18  O1  UNL     1      -9.223  69.094  23.467  1.00  0.00    -0.274 OA
ENDBRANCH  11  16
BRANCH  13  19
HETATM   19  O12 UNL     1      -9.651  69.610  27.343  1.00  0.00    -0.374 OA
ATOM     20  H12 UNL     1     -10.376  69.029  27.544  1.00  0.00     0.212 HD
ENDBRANCH  13  19
ENDBRANCH   5   6
ENDBRANCH   4   5
ENDBRANCH   1   4
BRANCH   1  21
HETATM   21  O7  UNL     1     -15.748  72.276  27.143  1.00  0.00    -0.219 OA
BRANCH  21  22
HETATM   22  C4  UNL     1     -16.655  71.972  28.160  1.00  0.00     0.348 C 
HETATM   23  C5  UNL     1     -17.361  70.660  27.887  1.00  0.00     0.099 C 
HETATM   24  C6  UNL     1     -16.819  69.737  28.987  1.00  0.00     0.178 C 
HETATM   25  C7  UNL     1     -16.638  70.760  30.117  1.00  0.00     0.353 C 
HETATM   26  N4  UNL     1     -15.960  71.814  29.421  1.00  0.00    -0.019 N 
ATOM     27  H42 UNL     1     -14.958  71.654  29.316  1.00  0.00     0.283 HD
ATOM     28  H41 UNL     1     -15.892  72.678  29.959  1.00  0.00     0.283 HD
BRANCH  24  29
HETATM   29  O8  UNL     1     -15.579  69.274  28.585  1.00  0.00    -0.391 OA
ATOM     30  H8  UNL     1     -14.995  70.019  28.516  1.00  0.00     0.210 HD
ENDBRANCH  24  29
BRANCH  25  31
HETATM   31  O9  UNL     1     -17.866  71.172  30.572  1.00  0.00    -0.346 OA
BRANCH  31  32
HETATM   32  C8  UNL     1     -17.831  71.962  31.696  1.00  0.00     0.283 C 
BRANCH  32  33
HETATM   33  C9  UNL     1     -18.050  73.392  31.461  1.00  0.00     0.197 C 
HETATM   34  O10 UNL     1     -19.215  73.839  31.372  1.00  0.00    -0.646 OA
HETATM   35  O11 UNL     1     -16.990  74.264  31.332  1.00  0.00    -0.646 OA
ENDBRANCH  32  33
ENDBRANCH  31  32
ENDBRANCH  25  31
ENDBRANCH  21  22
ENDBRANCH   1  21
TORSDOF 11
ENDMDL
