MODEL 1
REMARK VINA RESULT: -6.075831677      0.000      0.000
REMARK  13 active torsions:
REMARK  status: ('A' for Active; 'I' for Inactive)
REMARK    1  A    between atoms: C2_3  and  C3_4 
REMARK    2  A    between atoms: C3_4  and  N2_5 
REMARK       I    between atoms: N2_5  and  C4_7 
REMARK    3  A    between atoms: C4_7  and  C5_9 
REMARK    4  A    between atoms: C5_9  and  N3_10 
REMARK    5  A    between atoms: C5_9  and  C6_14 
REMARK    6  A    between atoms: C6_14  and  C7_15 
REMARK    7  A    between atoms: C7_15  and  O2_16 
REMARK    8  A    between atoms: C7_15  and  C8_18 
REMARK       I    between atoms: C8_18  and  N4_20 
REMARK    9  A    between atoms: N4_20  and  C9_22 
REMARK   10  A    between atoms: C10_28  and  C11_29 
REMARK   11  A    between atoms: C11_29  and  C12_31 
REMARK   12  A    between atoms: C13_39  and  O7_40 
REMARK   13  A    between atoms: C14_42  and  O8_43 
ROOT
HETATM    1  N2  UNL     1     -16.243  71.420  25.896  1.00  0.00    -0.355 N 
ATOM      2  H2  UNL     1     -17.196  71.659  26.168  1.00  0.00     0.162 HD
HETATM    3  C4  UNL     1     -15.300  72.472  25.653  1.00  0.00     0.248 C 
HETATM    4  O1  UNL     1     -14.139  72.131  25.322  1.00  0.00    -0.271 OA
ENDROOT
BRANCH   1   5
HETATM    5  C3  UNL     1     -15.879  70.038  25.768  1.00  0.00     0.159 C 
BRANCH   5   6
HETATM    6  C2  UNL     1     -16.224  69.155  26.877  1.00  0.00    -0.025 C 
HETATM    7  C1  UNL     1     -17.460  68.559  26.897  1.00  0.00     0.060 C 
HETATM    8  N1  UNL     1     -18.492  68.704  25.939  1.00  0.00    -0.104 NA
HETATM    9  C14 UNL     1     -17.544  67.639  28.074  1.00  0.00     0.195 C 
HETATM   10  C13 UNL     1     -16.015  67.323  28.245  1.00  0.00     0.168 C 
HETATM   11  C10 UNL     1     -15.564  68.794  28.157  1.00  0.00     0.127 C 
BRANCH   9  12
HETATM   12  O8  UNL     1     -17.984  68.291  29.198  1.00  0.00    -0.387 OA
ATOM     13  H8  UNL     1     -18.706  67.832  29.612  1.00  0.00     0.210 HD
ENDBRANCH   9  12
BRANCH  10  14
HETATM   14  O7  UNL     1     -15.796  66.714  29.431  1.00  0.00    -0.392 OA
ATOM     15  H7  UNL     1     -16.457  66.861  30.097  1.00  0.00     0.210 HD
ENDBRANCH  10  14
BRANCH  11  16
HETATM   16  C11 UNL     1     -14.164  69.035  28.305  1.00  0.00     0.206 C 
HETATM   17  O6  UNL     1     -13.312  68.128  28.402  1.00  0.00    -0.288 OA
BRANCH  16  18
HETATM   18  C12 UNL     1     -13.628  70.399  28.354  1.00  0.00     0.181 A 
HETATM   19  N6  UNL     1     -12.599  70.871  27.586  1.00  0.00    -0.269 N 
HETATM   20  N7  UNL     1     -12.376  72.124  27.841  1.00  0.00    -0.225 N 
ATOM     21  H6  UNL     1     -12.080  70.316  26.907  1.00  0.00     0.190 HD
HETATM   22  N8  UNL     1     -13.237  72.503  28.767  1.00  0.00    -0.005 NA
ATOM     23  H7  UNL     1     -11.663  72.709  27.404  1.00  0.00     0.205 HD
HETATM   24  N9  UNL     1     -13.993  71.463  29.077  1.00  0.00    -0.264 N 
ATOM     25  H9  UNL     1     -14.744  71.471  29.766  1.00  0.00     0.186 HD
ENDBRANCH  16  18
ENDBRANCH  11  16
ENDBRANCH   5   6
ENDBRANCH   1   5
BRANCH   3  26
HETATM   26  C5  UNL     1     -15.648  73.907  25.777  1.00  0.00     0.277 C 
BRANCH  26  27
HETATM   27  N3  UNL     1     -16.005  74.488  24.501  1.00  0.00    -0.066 N 
ATOM     28  H33 UNL     1     -15.694  75.457  24.434  1.00  0.00     0.275 HD
ATOM     29  H32 UNL     1     -15.449  74.090  23.744  1.00  0.00     0.275 HD
ATOM     30  H31 UNL     1     -17.003  74.404  24.311  1.00  0.00     0.275 HD
ENDBRANCH  26  27
BRANCH  26  31
HETATM   31  C6  UNL     1     -16.724  74.128  26.818  1.00  0.00     0.084 C 
BRANCH  31  32
HETATM   32  C7  UNL     1     -16.188  74.761  28.084  1.00  0.00     0.212 C 
BRANCH  32  33
HETATM   33  O2  UNL     1     -16.378  76.123  28.106  1.00  0.00    -0.386 OA
ATOM     34  H2  UNL     1     -15.613  76.598  27.804  1.00  0.00     0.210 HD
ENDBRANCH  32  33
BRANCH  32  35
HETATM   35  C8  UNL     1     -16.924  74.147  29.214  1.00  0.00     0.248 C 
HETATM   36  O3  UNL     1     -17.291  74.897  30.154  1.00  0.00    -0.271 OA
HETATM   37  N4  UNL     1     -17.217  72.750  29.250  1.00  0.00    -0.323 N 
ATOM     38  H4  UNL     1     -16.905  72.169  28.472  1.00  0.00     0.165 HD
BRANCH  37  39
HETATM   39  C9  UNL     1     -17.926  72.123  30.324  1.00  0.00     0.341 A 
HETATM   40  N5  UNL     1     -17.616  72.567  31.677  1.00  0.00    -0.279 N 
HETATM   41  S1  UNL     1     -17.147  70.940  31.349  1.00  0.00     0.270 S 
ATOM     42  H5  UNL     1     -17.653  73.326  32.357  1.00  0.00     0.175 HD
HETATM   43  O4  UNL     1     -17.975  69.816  31.871  1.00  0.00    -0.202 OA
HETATM   44  O5  UNL     1     -15.654  70.765  31.228  1.00  0.00    -0.202 OA
ENDBRANCH  37  39
ENDBRANCH  32  35
ENDBRANCH  31  32
ENDBRANCH  26  31
ENDBRANCH   3  26
TORSDOF 13
ENDMDL
MODEL 2
REMARK VINA RESULT: -5.942667730      3.966      5.951
REMARK  13 active torsions:
REMARK  status: ('A' for Active; 'I' for Inactive)
REMARK    1  A    between atoms: C2_3  and  C3_4 
REMARK    2  A    between atoms: C3_4  and  N2_5 
REMARK       I    between atoms: N2_5  and  C4_7 
REMARK    3  A    between atoms: C4_7  and  C5_9 
REMARK    4  A    between atoms: C5_9  and  N3_10 
REMARK    5  A    between atoms: C5_9  and  C6_14 
REMARK    6  A    between atoms: C6_14  and  C7_15 
REMARK    7  A    between atoms: C7_15  and  O2_16 
REMARK    8  A    between atoms: C7_15  and  C8_18 
REMARK       I    between atoms: C8_18  and  N4_20 
REMARK    9  A    between atoms: N4_20  and  C9_22 
REMARK   10  A    between atoms: C10_28  and  C11_29 
REMARK   11  A    between atoms: C11_29  and  C12_31 
REMARK   12  A    between atoms: C13_39  and  O7_40 
REMARK   13  A    between atoms: C14_42  and  O8_43 
ROOT
HETATM    1  N2  UNL     1     -13.217  72.067  26.810  1.00  0.00    -0.355 N 
ATOM      2  H2  UNL     1     -13.737  71.782  25.980  1.00  0.00     0.162 HD
HETATM    3  C4  UNL     1     -13.882  72.078  28.080  1.00  0.00     0.248 C 
HETATM    4  O1  UNL     1     -13.205  72.434  29.074  1.00  0.00    -0.271 OA
ENDROOT
BRANCH   1   5
HETATM    5  C3  UNL     1     -11.840  72.446  26.678  1.00  0.00     0.159 C 
BRANCH   5   6
HETATM    6  C2  UNL     1     -11.026  71.673  25.746  1.00  0.00    -0.025 C 
HETATM    7  C1  UNL     1     -10.767  70.353  26.020  1.00  0.00     0.060 C 
HETATM    8  N1  UNL     1     -11.204  69.614  27.146  1.00  0.00    -0.104 NA
HETATM    9  C14 UNL     1      -9.996  69.757  24.885  1.00  0.00     0.195 C 
HETATM   10  C13 UNL     1     -10.481  70.709  23.734  1.00  0.00     0.168 C 
HETATM   11  C10 UNL     1     -10.245  72.008  24.529  1.00  0.00     0.127 C 
BRANCH   9  12
HETATM   12  O8  UNL     1      -8.644  69.920  25.047  1.00  0.00    -0.387 OA
ATOM     13  H8  UNL     1      -8.181  69.091  25.011  1.00  0.00     0.210 HD
ENDBRANCH   9  12
BRANCH  10  14
HETATM   14  O7  UNL     1      -9.709  70.546  22.638  1.00  0.00    -0.392 OA
ATOM     15  H7  UNL     1      -9.952  69.827  22.067  1.00  0.00     0.210 HD
ENDBRANCH  10  14
BRANCH  11  16
HETATM   16  C11 UNL     1     -10.526  73.229  23.842  1.00  0.00     0.206 C 
HETATM   17  O6  UNL     1     -11.120  73.285  22.745  1.00  0.00    -0.288 OA
BRANCH  16  18
HETATM   18  C12 UNL     1     -10.123  74.525  24.397  1.00  0.00     0.181 A 
HETATM   19  N6  UNL     1      -8.850  74.867  24.764  1.00  0.00    -0.269 N 
HETATM   20  N7  UNL     1      -8.811  76.091  25.192  1.00  0.00    -0.225 N 
ATOM     21  H6  UNL     1      -8.044  74.245  24.708  1.00  0.00     0.190 HD
HETATM   22  N8  UNL     1     -10.036  76.579  25.119  1.00  0.00    -0.005 NA
ATOM     23  H7  UNL     1      -7.983  76.585  25.524  1.00  0.00     0.205 HD
HETATM   24  N9  UNL     1     -10.827  75.635  24.639  1.00  0.00    -0.264 N 
ATOM     25  H9  UNL     1     -11.829  75.739  24.477  1.00  0.00     0.186 HD
ENDBRANCH  16  18
ENDBRANCH  11  16
ENDBRANCH   5   6
ENDBRANCH   1   5
BRANCH   3  26
HETATM   26  C5  UNL     1     -15.303  71.691  28.247  1.00  0.00     0.277 C 
BRANCH  26  27
HETATM   27  N3  UNL     1     -15.474  70.254  28.243  1.00  0.00    -0.066 N 
ATOM     28  H33 UNL     1     -14.913  69.816  27.513  1.00  0.00     0.275 HD
ATOM     29  H32 UNL     1     -15.038  69.826  29.059  1.00  0.00     0.275 HD
ATOM     30  H31 UNL     1     -16.456  69.989  28.165  1.00  0.00     0.275 HD
ENDBRANCH  26  27
BRANCH  26  31
HETATM   31  C6  UNL     1     -15.909  72.328  29.478  1.00  0.00     0.084 C 
BRANCH  31  32
HETATM   32  C7  UNL     1     -16.587  71.320  30.381  1.00  0.00     0.212 C 
BRANCH  32  33
HETATM   33  O2  UNL     1     -15.688  70.643  31.174  1.00  0.00    -0.386 OA
ATOM     34  H2  UNL     1     -15.737  69.703  31.052  1.00  0.00     0.210 HD
ENDBRANCH  32  33
BRANCH  32  35
HETATM   35  C8  UNL     1     -17.523  72.079  31.243  1.00  0.00     0.248 C 
HETATM   36  O3  UNL     1     -17.074  73.074  31.867  1.00  0.00    -0.271 OA
HETATM   37  N4  UNL     1     -18.895  71.705  31.373  1.00  0.00    -0.323 N 
ATOM     38  H4  UNL     1     -19.227  70.892  30.854  1.00  0.00     0.165 HD
BRANCH  37  39
HETATM   39  C9  UNL     1     -19.828  72.415  32.195  1.00  0.00     0.341 A 
HETATM   40  N5  UNL     1     -19.581  72.421  33.631  1.00  0.00    -0.279 N 
HETATM   41  S1  UNL     1     -21.002  71.560  33.169  1.00  0.00     0.270 S 
ATOM     42  H5  UNL     1     -18.977  72.728  34.393  1.00  0.00     0.175 HD
HETATM   43  O4  UNL     1     -22.340  72.189  33.361  1.00  0.00    -0.202 OA
HETATM   44  O5  UNL     1     -20.863  70.065  33.305  1.00  0.00    -0.202 OA
ENDBRANCH  37  39
ENDBRANCH  32  35
ENDBRANCH  31  32
ENDBRANCH  26  31
ENDBRANCH   3  26
TORSDOF 13
ENDMDL
MODEL 3
REMARK VINA RESULT: -5.937101275      3.633      5.209
REMARK  13 active torsions:
REMARK  status: ('A' for Active; 'I' for Inactive)
REMARK    1  A    between atoms: C2_3  and  C3_4 
REMARK    2  A    between atoms: C3_4  and  N2_5 
REMARK       I    between atoms: N2_5  and  C4_7 
REMARK    3  A    between atoms: C4_7  and  C5_9 
REMARK    4  A    between atoms: C5_9  and  N3_10 
REMARK    5  A    between atoms: C5_9  and  C6_14 
REMARK    6  A    between atoms: C6_14  and  C7_15 
REMARK    7  A    between atoms: C7_15  and  O2_16 
REMARK    8  A    between atoms: C7_15  and  C8_18 
REMARK       I    between atoms: C8_18  and  N4_20 
REMARK    9  A    between atoms: N4_20  and  C9_22 
REMARK   10  A    between atoms: C10_28  and  C11_29 
REMARK   11  A    between atoms: C11_29  and  C12_31 
REMARK   12  A    between atoms: C13_39  and  O7_40 
REMARK   13  A    between atoms: C14_42  and  O8_43 
ROOT
HETATM    1  N2  UNL     1     -14.388  72.371  25.084  1.00  0.00    -0.355 N 
ATOM      2  H2  UNL     1     -15.137  71.680  25.070  1.00  0.00     0.162 HD
HETATM    3  C4  UNL     1     -14.509  73.517  25.936  1.00  0.00     0.248 C 
HETATM    4  O1  UNL     1     -13.563  74.341  25.922  1.00  0.00    -0.271 OA
ENDROOT
BRANCH   1   5
HETATM    5  C3  UNL     1     -13.238  72.172  24.250  1.00  0.00     0.159 C 
BRANCH   5   6
HETATM    6  C2  UNL     1     -12.037  71.645  24.890  1.00  0.00    -0.025 C 
HETATM    7  C1  UNL     1     -12.134  70.520  25.670  1.00  0.00     0.060 C 
HETATM    8  N1  UNL     1     -13.305  69.776  25.951  1.00  0.00    -0.104 NA
HETATM    9  C14 UNL     1     -10.768  70.127  26.138  1.00  0.00     0.195 C 
HETATM   10  C13 UNL     1      -9.921  70.757  24.975  1.00  0.00     0.168 C 
HETATM   11  C10 UNL     1     -10.637  72.121  25.014  1.00  0.00     0.127 C 
BRANCH   9  12
HETATM   12  O8  UNL     1     -10.433  70.753  27.312  1.00  0.00    -0.387 OA
ATOM     13  H8  UNL     1      -9.507  70.671  27.504  1.00  0.00     0.210 HD
ENDBRANCH   9  12
BRANCH  10  14
HETATM   14  O7  UNL     1      -8.613  70.772  25.309  1.00  0.00    -0.392 OA
ATOM     15  H7  UNL     1      -8.405  71.189  26.137  1.00  0.00     0.210 HD
ENDBRANCH  10  14
BRANCH  11  16
HETATM   16  C11 UNL     1     -10.159  73.110  24.101  1.00  0.00     0.206 C 
HETATM   17  O6  UNL     1      -9.784  72.855  22.937  1.00  0.00    -0.288 OA
BRANCH  16  18
HETATM   18  C12 UNL     1     -10.077  74.524  24.483  1.00  0.00     0.181 A 
HETATM   19  N6  UNL     1      -8.917  75.217  24.703  1.00  0.00    -0.269 N 
HETATM   20  N7  UNL     1      -9.174  76.454  24.998  1.00  0.00    -0.225 N 
ATOM     21  H6  UNL     1      -7.982  74.816  24.641  1.00  0.00     0.190 HD
HETATM   22  N8  UNL     1     -10.485  76.605  24.981  1.00  0.00    -0.005 NA
ATOM     23  H7  UNL     1      -8.486  77.178  25.206  1.00  0.00     0.205 HD
HETATM   24  N9  UNL     1     -11.030  75.441  24.670  1.00  0.00    -0.264 N 
ATOM     25  H9  UNL     1     -12.031  75.269  24.585  1.00  0.00     0.186 HD
ENDBRANCH  16  18
ENDBRANCH  11  16
ENDBRANCH   5   6
ENDBRANCH   1   5
BRANCH   3  26
HETATM   26  C5  UNL     1     -15.685  73.749  26.809  1.00  0.00     0.277 C 
BRANCH  26  27
HETATM   27  N3  UNL     1     -16.799  72.899  26.447  1.00  0.00    -0.066 N 
ATOM     28  H33 UNL     1     -17.679  73.414  26.463  1.00  0.00     0.275 HD
ATOM     29  H32 UNL     1     -16.774  72.655  25.457  1.00  0.00     0.275 HD
ATOM     30  H31 UNL     1     -16.846  72.065  27.033  1.00  0.00     0.275 HD
ENDBRANCH  26  27
BRANCH  26  31
HETATM   31  C6  UNL     1     -15.324  73.615  28.271  1.00  0.00     0.084 C 
BRANCH  31  32
HETATM   32  C7  UNL     1     -14.679  72.284  28.592  1.00  0.00     0.212 C 
BRANCH  32  33
HETATM   33  O2  UNL     1     -13.401  72.429  29.080  1.00  0.00    -0.386 OA
ATOM     34  H2  UNL     1     -12.957  71.595  29.182  1.00  0.00     0.210 HD
ENDBRANCH  32  33
BRANCH  32  35
HETATM   35  C8  UNL     1     -15.523  71.636  29.622  1.00  0.00     0.248 C 
HETATM   36  O3  UNL     1     -15.106  70.569  30.140  1.00  0.00    -0.271 OA
HETATM   37  N4  UNL     1     -16.775  72.191  30.026  1.00  0.00    -0.323 N 
ATOM     38  H4  UNL     1     -17.086  73.057  29.586  1.00  0.00     0.165 HD
BRANCH  37  39
HETATM   39  C9  UNL     1     -17.617  71.593  31.018  1.00  0.00     0.341 A 
HETATM   40  N5  UNL     1     -18.987  71.284  30.632  1.00  0.00    -0.279 N 
HETATM   41  S1  UNL     1     -18.859  72.522  31.825  1.00  0.00     0.270 S 
ATOM     42  H5  UNL     1     -19.604  70.717  30.050  1.00  0.00     0.175 HD
HETATM   43  O4  UNL     1     -19.152  72.205  33.251  1.00  0.00    -0.202 OA
HETATM   44  O5  UNL     1     -19.180  73.896  31.292  1.00  0.00    -0.202 OA
ENDBRANCH  37  39
ENDBRANCH  32  35
ENDBRANCH  31  32
ENDBRANCH  26  31
ENDBRANCH   3  26
TORSDOF 13
ENDMDL
MODEL 4
REMARK VINA RESULT: -5.927179840      3.768      6.833
REMARK  13 active torsions:
REMARK  status: ('A' for Active; 'I' for Inactive)
REMARK    1  A    between atoms: C2_3  and  C3_4 
REMARK    2  A    between atoms: C3_4  and  N2_5 
REMARK       I    between atoms: N2_5  and  C4_7 
REMARK    3  A    between atoms: C4_7  and  C5_9 
REMARK    4  A    between atoms: C5_9  and  N3_10 
REMARK    5  A    between atoms: C5_9  and  C6_14 
REMARK    6  A    between atoms: C6_14  and  C7_15 
REMARK    7  A    between atoms: C7_15  and  O2_16 
REMARK    8  A    between atoms: C7_15  and  C8_18 
REMARK       I    between atoms: C8_18  and  N4_20 
REMARK    9  A    between atoms: N4_20  and  C9_22 
REMARK   10  A    between atoms: C10_28  and  C11_29 
REMARK   11  A    between atoms: C11_29  and  C12_31 
REMARK   12  A    between atoms: C13_39  and  O7_40 
REMARK   13  A    between atoms: C14_42  and  O8_43 
ROOT
HETATM    1  N2  UNL     1     -15.572  70.529  29.206  1.00  0.00    -0.355 N 
ATOM      2  H2  UNL     1     -16.134  69.842  28.706  1.00  0.00     0.162 HD
HETATM    3  C4  UNL     1     -14.528  71.220  28.509  1.00  0.00     0.248 C 
HETATM    4  O1  UNL     1     -13.862  72.058  29.163  1.00  0.00    -0.271 OA
ENDROOT
BRANCH   1   5
HETATM    5  C3  UNL     1     -15.846  70.782  30.592  1.00  0.00     0.159 C 
BRANCH   5   6
HETATM    6  C2  UNL     1     -17.210  71.165  30.939  1.00  0.00    -0.025 C 
HETATM    7  C1  UNL     1     -18.047  70.229  31.494  1.00  0.00     0.060 C 
HETATM    8  N1  UNL     1     -17.744  68.876  31.779  1.00  0.00    -0.104 NA
HETATM    9  C14 UNL     1     -19.349  70.878  31.842  1.00  0.00     0.195 C 
HETATM   10  C13 UNL     1     -18.843  72.353  32.033  1.00  0.00     0.168 C 
HETATM   11  C10 UNL     1     -18.029  72.384  30.724  1.00  0.00     0.127 C 
BRANCH   9  12
HETATM   12  O8  UNL     1     -20.229  70.850  30.790  1.00  0.00    -0.387 OA
ATOM     13  H8  UNL     1     -19.908  71.351  30.049  1.00  0.00     0.210 HD
ENDBRANCH   9  12
BRANCH  10  14
HETATM   14  O7  UNL     1     -19.892  73.201  32.089  1.00  0.00    -0.392 OA
ATOM     15  H7  UNL     1     -20.348  73.237  32.922  1.00  0.00     0.210 HD
ENDBRANCH  10  14
BRANCH  11  16
HETATM   16  C11 UNL     1     -17.371  73.614  30.419  1.00  0.00     0.206 C 
HETATM   17  O6  UNL     1     -17.032  74.451  31.282  1.00  0.00    -0.288 OA
BRANCH  16  18
HETATM   18  C12 UNL     1     -17.045  73.982  29.037  1.00  0.00     0.181 A 
HETATM   19  N6  UNL     1     -17.947  74.081  28.012  1.00  0.00    -0.269 N 
HETATM   20  N7  UNL     1     -17.356  74.452  26.919  1.00  0.00    -0.225 N 
ATOM     21  H6  UNL     1     -18.945  73.890  28.097  1.00  0.00     0.190 HD
HETATM   22  N8  UNL     1     -16.073  74.604  27.189  1.00  0.00    -0.005 NA
ATOM     23  H7  UNL     1     -17.803  74.599  26.013  1.00  0.00     0.205 HD
HETATM   24  N9  UNL     1     -15.885  74.321  28.467  1.00  0.00    -0.264 N 
ATOM     25  H9  UNL     1     -14.987  74.357  28.948  1.00  0.00     0.186 HD
ENDBRANCH  16  18
ENDBRANCH  11  16
ENDBRANCH   5   6
ENDBRANCH   1   5
BRANCH   3  26
HETATM   26  C5  UNL     1     -14.222  70.980  27.078  1.00  0.00     0.277 C 
BRANCH  26  27
HETATM   27  N3  UNL     1     -15.303  71.410  26.217  1.00  0.00    -0.066 N 
ATOM     28  H33 UNL     1     -15.991  70.668  26.086  1.00  0.00     0.275 HD
ATOM     29  H32 UNL     1     -15.896  72.099  26.681  1.00  0.00     0.275 HD
ATOM     30  H31 UNL     1     -14.959  71.759  25.322  1.00  0.00     0.275 HD
ENDBRANCH  26  27
BRANCH  26  31
HETATM   31  C6  UNL     1     -12.902  71.604  26.681  1.00  0.00     0.084 C 
BRANCH  31  32
HETATM   32  C7  UNL     1     -13.076  72.822  25.800  1.00  0.00     0.212 C 
BRANCH  32  33
HETATM   33  O2  UNL     1     -13.440  73.937  26.519  1.00  0.00    -0.386 OA
ATOM     34  H2  UNL     1     -12.788  74.175  27.168  1.00  0.00     0.210 HD
ENDBRANCH  32  33
BRANCH  32  35
HETATM   35  C8  UNL     1     -11.769  73.067  25.147  1.00  0.00     0.248 C 
HETATM   36  O3  UNL     1     -10.891  72.172  25.232  1.00  0.00    -0.271 OA
HETATM   37  N4  UNL     1     -11.499  74.277  24.438  1.00  0.00    -0.323 N 
ATOM     38  H4  UNL     1     -12.233  74.984  24.388  1.00  0.00     0.165 HD
BRANCH  37  39
HETATM   39  C9  UNL     1     -10.249  74.548  23.794  1.00  0.00     0.341 A 
HETATM   40  N5  UNL     1      -9.045  74.448  24.607  1.00  0.00    -0.279 N 
HETATM   41  S1  UNL     1      -9.399  76.050  24.074  1.00  0.00     0.270 S 
ATOM     42  H5  UNL     1      -8.417  73.842  25.134  1.00  0.00     0.175 HD
HETATM   43  O4  UNL     1      -8.627  76.636  22.942  1.00  0.00    -0.202 OA
HETATM   44  O5  UNL     1      -9.887  76.950  25.180  1.00  0.00    -0.202 OA
ENDBRANCH  37  39
ENDBRANCH  32  35
ENDBRANCH  31  32
ENDBRANCH  26  31
ENDBRANCH   3  26
TORSDOF 13
ENDMDL
MODEL 5
REMARK VINA RESULT: -5.783519571      3.566      6.844
REMARK  13 active torsions:
REMARK  status: ('A' for Active; 'I' for Inactive)
REMARK    1  A    between atoms: C2_3  and  C3_4 
REMARK    2  A    between atoms: C3_4  and  N2_5 
REMARK       I    between atoms: N2_5  and  C4_7 
REMARK    3  A    between atoms: C4_7  and  C5_9 
REMARK    4  A    between atoms: C5_9  and  N3_10 
REMARK    5  A    between atoms: C5_9  and  C6_14 
REMARK    6  A    between atoms: C6_14  and  C7_15 
REMARK    7  A    between atoms: C7_15  and  O2_16 
REMARK    8  A    between atoms: C7_15  and  C8_18 
REMARK       I    between atoms: C8_18  and  N4_20 
REMARK    9  A    between atoms: N4_20  and  C9_22 
REMARK   10  A    between atoms: C10_28  and  C11_29 
REMARK   11  A    between atoms: C11_29  and  C12_31 
REMARK   12  A    between atoms: C13_39  and  O7_40 
REMARK   13  A    between atoms: C14_42  and  O8_43 
ROOT
HETATM    1  N2  UNL     1     -15.764  70.382  28.515  1.00  0.00    -0.355 N 
ATOM      2  H2  UNL     1     -16.393  70.525  27.726  1.00  0.00     0.162 HD
HETATM    3  C4  UNL     1     -14.381  70.100  28.263  1.00  0.00     0.248 C 
HETATM    4  O1  UNL     1     -13.642  69.932  29.263  1.00  0.00    -0.271 OA
ENDROOT
BRANCH   1   5
HETATM    5  C3  UNL     1     -16.283  70.468  29.849  1.00  0.00     0.159 C 
BRANCH   5   6
HETATM    6  C2  UNL     1     -16.969  71.703  30.216  1.00  0.00    -0.025 C 
HETATM    7  C1  UNL     1     -17.967  71.659  31.157  1.00  0.00     0.060 C 
HETATM    8  N1  UNL     1     -18.442  70.517  31.844  1.00  0.00    -0.104 NA
HETATM    9  C14 UNL     1     -18.451  73.050  31.425  1.00  0.00     0.195 C 
HETATM   10  C13 UNL     1     -17.150  73.840  31.037  1.00  0.00     0.168 C 
HETATM   11  C10 UNL     1     -16.936  73.096  29.704  1.00  0.00     0.127 C 
BRANCH   9  12
HETATM   12  O8  UNL     1     -19.456  73.414  30.566  1.00  0.00    -0.387 OA
ATOM     13  H8  UNL     1     -20.280  73.543  31.021  1.00  0.00     0.210 HD
ENDBRANCH   9  12
BRANCH  10  14
HETATM   14  O7  UNL     1     -17.420  75.159  30.934  1.00  0.00    -0.392 OA
ATOM     15  H7  UNL     1     -16.677  75.741  31.043  1.00  0.00     0.210 HD
ENDBRANCH  10  14
BRANCH  11  16
HETATM   16  C11 UNL     1     -15.821  73.518  28.918  1.00  0.00     0.206 C 
HETATM   17  O6  UNL     1     -14.645  73.157  29.134  1.00  0.00    -0.288 OA
BRANCH  16  18
HETATM   18  C12 UNL     1     -15.992  74.426  27.779  1.00  0.00     0.181 A 
HETATM   19  N6  UNL     1     -15.530  74.199  26.511  1.00  0.00    -0.269 N 
HETATM   20  N7  UNL     1     -15.864  75.172  25.722  1.00  0.00    -0.225 N 
ATOM     21  H6  UNL     1     -14.996  73.378  26.227  1.00  0.00     0.190 HD
HETATM   22  N8  UNL     1     -16.544  76.051  26.437  1.00  0.00    -0.005 NA
ATOM     23  H7  UNL     1     -15.641  75.246  24.729  1.00  0.00     0.205 HD
HETATM   24  N9  UNL     1     -16.622  75.600  27.677  1.00  0.00    -0.264 N 
ATOM     25  H9  UNL     1     -17.093  76.079  28.444  1.00  0.00     0.186 HD
ENDBRANCH  16  18
ENDBRANCH  11  16
ENDBRANCH   5   6
ENDBRANCH   1   5
BRANCH   3  26
HETATM   26  C5  UNL     1     -13.816  70.005  26.896  1.00  0.00     0.277 C 
BRANCH  26  27
HETATM   27  N3  UNL     1     -14.697  70.589  25.908  1.00  0.00    -0.066 N 
ATOM     28  H33 UNL     1     -15.666  70.589  26.228  1.00  0.00     0.275 HD
ATOM     29  H32 UNL     1     -14.554  71.596  25.832  1.00  0.00     0.275 HD
ATOM     30  H31 UNL     1     -14.606  70.132  25.000  1.00  0.00     0.275 HD
ENDBRANCH  26  27
BRANCH  26  31
HETATM   31  C6  UNL     1     -12.424  70.594  26.830  1.00  0.00     0.084 C 
BRANCH  31  32
HETATM   32  C7  UNL     1     -12.436  72.105  26.746  1.00  0.00     0.212 C 
BRANCH  32  33
HETATM   33  O2  UNL     1     -11.921  72.693  27.878  1.00  0.00    -0.386 OA
ATOM     34  H2  UNL     1     -12.493  73.366  28.227  1.00  0.00     0.210 HD
ENDBRANCH  32  33
BRANCH  32  35
HETATM   35  C8  UNL     1     -11.599  72.475  25.581  1.00  0.00     0.248 C 
HETATM   36  O3  UNL     1     -11.311  71.574  24.752  1.00  0.00    -0.271 OA
HETATM   37  N4  UNL     1     -11.126  73.809  25.389  1.00  0.00    -0.323 N 
ATOM     38  H4  UNL     1     -11.377  74.516  26.080  1.00  0.00     0.165 HD
BRANCH  37  39
HETATM   39  C9  UNL     1     -10.317  74.203  24.275  1.00  0.00     0.341 A 
HETATM   40  N5  UNL     1      -8.913  74.487  24.539  1.00  0.00    -0.279 N 
HETATM   41  S1  UNL     1      -9.829  75.868  24.061  1.00  0.00     0.270 S 
ATOM     42  H5  UNL     1      -8.003  74.118  24.816  1.00  0.00     0.175 HD
HETATM   43  O4  UNL     1      -9.708  76.386  22.669  1.00  0.00    -0.202 OA
HETATM   44  O5  UNL     1     -10.079  76.835  25.191  1.00  0.00    -0.202 OA
ENDBRANCH  37  39
ENDBRANCH  32  35
ENDBRANCH  31  32
ENDBRANCH  26  31
ENDBRANCH   3  26
TORSDOF 13
ENDMDL
