MODEL 1
REMARK VINA RESULT: -6.373852945      0.000      0.000
REMARK  1 active torsions:
REMARK  status: ('A' for Active; 'I' for Inactive)
REMARK    1  A    between atoms: C2_2  and  C3_5 
ROOT
HETATM    1  C3  UNL     1     -13.286  -6.477   2.737  1.00  0.00     0.059 C 
HETATM    2  C4  UNL     1     -13.480  -5.871   1.368  1.00  0.00     0.012 C 
HETATM    3  C5  UNL     1     -13.042  -6.957   0.405  1.00  0.00     0.016 C 
HETATM    4  C6  UNL     1     -12.599  -8.121   1.267  1.00  0.00     0.059 C 
HETATM    5  S1  UNL     1     -11.326  -9.117   0.513  1.00  0.00    -0.092 SA
HETATM    6  C7  UNL     1     -12.082  -7.364   2.502  1.00  0.00     0.026 C 
ENDROOT
BRANCH   1   7
HETATM    7  C2  UNL     1     -13.049  -5.450   3.801  1.00  0.00     0.243 C 
HETATM    8  C1  UNL     1     -13.455  -6.035   5.125  1.00  0.00     0.090 C 
HETATM    9  F1  UNL     1     -13.723  -4.275   3.558  1.00  0.00    -0.206 F 
HETATM   10  F2  UNL     1     -11.702  -5.159   3.877  1.00  0.00    -0.206 F 
ENDBRANCH   1   7
TORSDOF 1
ENDMDL
MODEL 2
REMARK VINA RESULT: -6.331067121      0.868      1.387
REMARK  1 active torsions:
REMARK  status: ('A' for Active; 'I' for Inactive)
REMARK    1  A    between atoms: C2_2  and  C3_5 
ROOT
HETATM    1  C3  UNL     1     -13.199  -6.738   2.876  1.00  0.00     0.059 C 
HETATM    2  C4  UNL     1     -13.736  -6.259   1.548  1.00  0.00     0.012 C 
HETATM    3  C5  UNL     1     -13.329  -7.336   0.562  1.00  0.00     0.016 C 
HETATM    4  C6  UNL     1     -12.561  -8.365   1.366  1.00  0.00     0.059 C 
HETATM    5  S1  UNL     1     -11.318  -9.222   0.417  1.00  0.00    -0.092 SA
HETATM    6  C7  UNL     1     -11.941  -7.461   2.444  1.00  0.00     0.026 C 
ENDROOT
BRANCH   1   7
HETATM    7  C2  UNL     1     -12.923  -5.618   3.831  1.00  0.00     0.243 C 
HETATM    8  C1  UNL     1     -13.405  -4.336   3.211  1.00  0.00     0.090 C 
HETATM    9  F1  UNL     1     -11.590  -5.528   4.166  1.00  0.00    -0.206 F 
HETATM   10  F2  UNL     1     -13.641  -5.807   4.993  1.00  0.00    -0.206 F 
ENDBRANCH   1   7
TORSDOF 1
ENDMDL
MODEL 3
REMARK VINA RESULT: -5.900467552      3.092      4.023
REMARK  1 active torsions:
REMARK  status: ('A' for Active; 'I' for Inactive)
REMARK    1  A    between atoms: C2_2  and  C3_5 
ROOT
HETATM    1  C3  UNL     1     -12.501  -6.888   1.782  1.00  0.00     0.059 C 
HETATM    2  C4  UNL     1     -13.371  -5.670   1.579  1.00  0.00     0.012 C 
HETATM    3  C5  UNL     1     -13.414  -5.004   2.940  1.00  0.00     0.016 C 
HETATM    4  C6  UNL     1     -12.589  -5.881   3.858  1.00  0.00     0.059 C 
HETATM    5  S1  UNL     1     -13.131  -5.835   5.557  1.00  0.00    -0.092 SA
HETATM    6  C7  UNL     1     -12.832  -7.255   3.213  1.00  0.00     0.026 C 
ENDROOT
BRANCH   1   7
HETATM    7  C2  UNL     1     -12.810  -7.991   0.816  1.00  0.00     0.243 C 
HETATM    8  C1  UNL     1     -11.556  -8.790   0.593  1.00  0.00     0.090 C 
HETATM    9  F1  UNL     1     -13.310  -7.521  -0.377  1.00  0.00    -0.206 F 
HETATM   10  F2  UNL     1     -13.747  -8.842   1.363  1.00  0.00    -0.206 F 
ENDBRANCH   1   7
TORSDOF 1
ENDMDL
MODEL 4
REMARK VINA RESULT: -5.629114789      0.846      1.177
REMARK  1 active torsions:
REMARK  status: ('A' for Active; 'I' for Inactive)
REMARK    1  A    between atoms: C2_2  and  C3_5 
ROOT
HETATM    1  C3  UNL     1     -13.408  -6.625   2.660  1.00  0.00     0.059 C 
HETATM    2  C4  UNL     1     -13.494  -5.947   1.313  1.00  0.00     0.012 C 
HETATM    3  C5  UNL     1     -12.931  -6.964   0.339  1.00  0.00     0.016 C 
HETATM    4  C6  UNL     1     -12.532  -8.162   1.175  1.00  0.00     0.059 C 
HETATM    5  S1  UNL     1     -11.161  -9.076   0.493  1.00  0.00    -0.092 SA
HETATM    6  C7  UNL     1     -12.158  -7.462   2.492  1.00  0.00     0.026 C 
ENDROOT
BRANCH   1   7
HETATM    7  C2  UNL     1     -13.305  -5.654   3.795  1.00  0.00     0.243 C 
HETATM    8  C1  UNL     1     -11.857  -5.521   4.177  1.00  0.00     0.090 C 
HETATM    9  F1  UNL     1     -14.065  -6.030   4.880  1.00  0.00    -0.206 F 
HETATM   10  F2  UNL     1     -13.738  -4.409   3.386  1.00  0.00    -0.206 F 
ENDBRANCH   1   7
TORSDOF 1
ENDMDL
MODEL 5
REMARK VINA RESULT: -5.289586775      3.267      4.341
REMARK  1 active torsions:
REMARK  status: ('A' for Active; 'I' for Inactive)
REMARK    1  A    between atoms: C2_2  and  C3_5 
ROOT
HETATM    1  C3  UNL     1     -13.119  -7.763   1.860  1.00  0.00     0.059 C 
HETATM    2  C4  UNL     1     -12.046  -7.881   2.916  1.00  0.00     0.012 C 
HETATM    3  C5  UNL     1     -12.257  -6.673   3.808  1.00  0.00     0.016 C 
HETATM    4  C6  UNL     1     -13.422  -5.914   3.210  1.00  0.00     0.059 C 
HETATM    5  S1  UNL     1     -13.346  -4.156   3.501  1.00  0.00    -0.092 SA
HETATM    6  C7  UNL     1     -13.238  -6.260   1.724  1.00  0.00     0.026 C 
ENDROOT
BRANCH   1   7
HETATM    7  C2  UNL     1     -12.747  -8.433   0.573  1.00  0.00     0.243 C 
HETATM    8  C1  UNL     1     -11.312  -8.872   0.665  1.00  0.00     0.090 C 
HETATM    9  F1  UNL     1     -12.940  -7.617  -0.519  1.00  0.00    -0.206 F 
HETATM   10  F2  UNL     1     -13.513  -9.566   0.398  1.00  0.00    -0.206 F 
ENDBRANCH   1   7
TORSDOF 1
ENDMDL
