MODEL 1
REMARK VINA RESULT: -5.988536553      0.000      0.000
REMARK  0 active torsions:
REMARK  status: ('A' for Active; 'I' for Inactive)
ROOT
HETATM    1  C1  UNL     1     -12.663  -7.160   4.441  1.00  0.00     0.032 C 
HETATM    2  C2  UNL     1     -12.925  -7.713   3.033  1.00  0.00     0.078 C 
HETATM    3  C3  UNL     1     -11.644  -7.973   2.300  1.00  0.00     0.103 C 
HETATM    4  C4  UNL     1     -12.067  -8.389   0.883  1.00  0.00     0.247 C 
HETATM    5  F1  UNL     1     -11.036  -8.895   0.163  1.00  0.00    -0.206 F 
HETATM    6  F2  UNL     1     -13.112  -9.282   1.043  1.00  0.00    -0.206 F 
HETATM    7  C5  UNL     1     -12.631  -7.148   0.253  1.00  0.00     0.108 C 
HETATM    8  C6  UNL     1     -13.568  -6.387   1.108  1.00  0.00     0.024 C 
HETATM    9  C7  UNL     1     -13.068  -4.947   1.270  1.00  0.00     0.037 C 
HETATM   10  C8  UNL     1     -14.894  -6.258   0.339  1.00  0.00     0.037 C 
HETATM   11  N1  UNL     1     -13.860  -6.902   2.376  1.00  0.00    -0.409 N 
ATOM     12  H1  UNL     1     -14.752  -6.688   2.821  1.00  0.00     0.154 HD
ENDROOT
TORSDOF 0
ENDMDL
MODEL 2
REMARK VINA RESULT: -5.358102044      1.883      3.269
REMARK  0 active torsions:
REMARK  status: ('A' for Active; 'I' for Inactive)
ROOT
HETATM    1  C1  UNL     1     -11.179  -8.736   0.782  1.00  0.00     0.032 C 
HETATM    2  C2  UNL     1     -12.483  -8.068   1.240  1.00  0.00     0.078 C 
HETATM    3  C3  UNL     1     -12.713  -6.771   0.526  1.00  0.00     0.103 C 
HETATM    4  C4  UNL     1     -13.965  -6.167   1.180  1.00  0.00     0.247 C 
HETATM    5  F1  UNL     1     -14.452  -5.109   0.487  1.00  0.00    -0.206 F 
HETATM    6  F2  UNL     1     -14.873  -7.206   1.300  1.00  0.00    -0.206 F 
HETATM    7  C5  UNL     1     -13.546  -5.779   2.568  1.00  0.00     0.108 C 
HETATM    8  C6  UNL     1     -12.759  -6.802   3.290  1.00  0.00     0.024 C 
HETATM    9  C7  UNL     1     -11.414  -6.210   3.727  1.00  0.00     0.037 C 
HETATM   10  C8  UNL     1     -13.496  -7.112   4.603  1.00  0.00     0.037 C 
HETATM   11  N1  UNL     1     -12.518  -8.018   2.640  1.00  0.00    -0.409 N 
ATOM     12  H1  UNL     1     -12.369  -8.868   3.184  1.00  0.00     0.154 HD
ENDROOT
TORSDOF 0
ENDMDL
MODEL 3
REMARK VINA RESULT: -4.665172175      2.777      3.596
REMARK  0 active torsions:
REMARK  status: ('A' for Active; 'I' for Inactive)
ROOT
HETATM    1  C1  UNL     1     -12.544  -7.426   5.051  1.00  0.00     0.032 C 
HETATM    2  C2  UNL     1     -12.448  -6.355   3.956  1.00  0.00     0.078 C 
HETATM    3  C3  UNL     1     -13.581  -5.378   4.045  1.00  0.00     0.103 C 
HETATM    4  C4  UNL     1     -13.422  -4.463   2.821  1.00  0.00     0.247 C 
HETATM    5  F1  UNL     1     -14.223  -3.371   2.883  1.00  0.00    -0.206 F 
HETATM    6  F2  UNL     1     -12.075  -4.149   2.751  1.00  0.00    -0.206 F 
HETATM    7  C5  UNL     1     -13.741  -5.323   1.633  1.00  0.00     0.108 C 
HETATM    8  C6  UNL     1     -13.105  -6.659   1.642  1.00  0.00     0.024 C 
HETATM    9  C7  UNL     1     -14.181  -7.746   1.540  1.00  0.00     0.037 C 
HETATM   10  C8  UNL     1     -12.289  -6.791   0.346  1.00  0.00     0.037 C 
HETATM   11  N1  UNL     1     -12.259  -6.970   2.712  1.00  0.00    -0.409 N 
ATOM     12  H1  UNL     1     -11.504  -7.645   2.586  1.00  0.00     0.154 HD
ENDROOT
TORSDOF 0
ENDMDL
MODEL 4
REMARK VINA RESULT: -4.375283675      1.208      1.244
REMARK  0 active torsions:
REMARK  status: ('A' for Active; 'I' for Inactive)
ROOT
HETATM    1  C1  UNL     1     -12.550  -5.078   4.236  1.00  0.00     0.032 C 
HETATM    2  C2  UNL     1     -12.952  -6.282   3.372  1.00  0.00     0.078 C 
HETATM    3  C3  UNL     1     -11.754  -7.078   2.951  1.00  0.00     0.103 C 
HETATM    4  C4  UNL     1     -12.298  -8.152   1.997  1.00  0.00     0.247 C 
HETATM    5  F1  UNL     1     -11.379  -9.108   1.716  1.00  0.00    -0.206 F 
HETATM    6  F2  UNL     1     -13.441  -8.652   2.597  1.00  0.00    -0.206 F 
HETATM    7  C5  UNL     1     -12.729  -7.413   0.763  1.00  0.00     0.108 C 
HETATM    8  C6  UNL     1     -13.515  -6.185   1.015  1.00  0.00     0.024 C 
HETATM    9  C7  UNL     1     -12.826  -4.984   0.359  1.00  0.00     0.037 C 
HETATM   10  C8  UNL     1     -14.850  -6.330   0.266  1.00  0.00     0.037 C 
HETATM   11  N1  UNL     1     -13.806  -5.859   2.345  1.00  0.00    -0.409 N 
ATOM     12  H1  UNL     1     -14.640  -5.315   2.566  1.00  0.00     0.154 HD
ENDROOT
TORSDOF 0
ENDMDL
MODEL 5
REMARK VINA RESULT: -4.347646951      2.120      3.113
REMARK  0 active torsions:
REMARK  status: ('A' for Active; 'I' for Inactive)
ROOT
HETATM    1  C1  UNL     1     -11.416  -8.954   0.605  1.00  0.00     0.032 C 
HETATM    2  C2  UNL     1     -11.632  -7.777   1.566  1.00  0.00     0.078 C 
HETATM    3  C3  UNL     1     -12.312  -8.217   2.826  1.00  0.00     0.103 C 
HETATM    4  C4  UNL     1     -12.576  -6.926   3.615  1.00  0.00     0.247 C 
HETATM    5  F1  UNL     1     -12.966  -7.168   4.890  1.00  0.00    -0.206 F 
HETATM    6  F2  UNL     1     -11.410  -6.183   3.532  1.00  0.00    -0.206 F 
HETATM    7  C5  UNL     1     -13.630  -6.190   2.839  1.00  0.00     0.108 C 
HETATM    8  C6  UNL     1     -13.399  -6.127   1.379  1.00  0.00     0.024 C 
HETATM    9  C7  UNL     1     -14.601  -6.726   0.639  1.00  0.00     0.037 C 
HETATM   10  C8  UNL     1     -13.388  -4.644   0.976  1.00  0.00     0.037 C 
HETATM   11  N1  UNL     1     -12.231  -6.713   0.878  1.00  0.00    -0.409 N 
ATOM     12  H1  UNL     1     -11.816  -6.367   0.014  1.00  0.00     0.154 HD
ENDROOT
TORSDOF 0
ENDMDL
