MODEL 1
REMARK VINA RESULT: -5.791956852      0.000      0.000
REMARK  9 active torsions:
REMARK  status: ('A' for Active; 'I' for Inactive)
REMARK    1  A    between atoms: C2_2  and  C3_3 
REMARK    2  A    between atoms: C6_6  and  C7_7 
REMARK    3  A    between atoms: C7_7  and  O1_8 
REMARK    4  A    between atoms: C7_7  and  N1_10 
REMARK    5  A    between atoms: N1_10  and  C8_12 
REMARK    6  A    between atoms: C8_12  and  C10_14 
REMARK       I    between atoms: C10_14  and  N2_16 
REMARK    7  A    between atoms: N2_16  and  C11_18 
REMARK    8  A    between atoms: C11_18  and  O3_19 
REMARK    9  A    between atoms: C11_18  and  C12_21 
ROOT
HETATM    1  N1  UNL     1      -8.279   1.864  -1.096  1.00  0.00    -0.380 N 
ATOM      2  H1  UNL     1      -7.719   1.014  -1.035  1.00  0.00     0.157 HD
ENDROOT
BRANCH   1   3
HETATM    3  C7  UNL     1      -9.292   2.064  -0.153  1.00  0.00     0.265 C 
BRANCH   3   4
HETATM    4  C6  UNL     1      -9.526   0.840   0.662  1.00  0.00     0.057 A 
HETATM    5  C5  UNL     1      -8.837  -0.339   0.389  1.00  0.00     0.030 A 
HETATM    6  C4  UNL     1      -9.018  -1.444   1.167  1.00  0.00     0.015 A 
HETATM    7  C3  UNL     1      -9.889  -1.455   2.263  1.00  0.00    -0.022 A 
HETATM    8  C13 UNL     1     -10.539  -0.262   2.482  1.00  0.00     0.099 A 
HETATM    9  N3  UNL     1     -10.358   0.823   1.713  1.00  0.00    -0.365 N 
ATOM     10  H3  UNL     1     -10.876   1.672   1.939  1.00  0.00     0.165 HD
BRANCH   7  11
HETATM   11  C2  UNL     1     -10.050  -2.652   3.070  1.00  0.00     0.002 C 
HETATM   12  C1  UNL     1      -9.297  -3.703   2.880  1.00  0.00     0.012 C 
ENDBRANCH   7  11
ENDBRANCH   3   4
BRANCH   3  13
HETATM   13  O1  UNL     1      -8.946   3.059   0.805  1.00  0.00    -0.371 OA
ATOM     14  H1  UNL     1      -8.059   3.307   0.572  1.00  0.00     0.212 HD
ENDBRANCH   3  13
ENDBRANCH   1   3
BRANCH   1  15
HETATM   15  C8  UNL     1      -7.997   2.772  -2.114  1.00  0.00     0.167 C 
HETATM   16  C9  UNL     1      -9.015   2.965  -3.207  1.00  0.00     0.042 C 
BRANCH  15  17
HETATM   17  C10 UNL     1      -7.707   4.119  -1.483  1.00  0.00     0.242 C 
HETATM   18  O2  UNL     1      -8.555   5.018  -1.658  1.00  0.00    -0.271 OA
HETATM   19  N2  UNL     1      -6.523   4.309  -0.740  1.00  0.00    -0.327 N 
ATOM     20  H2  UNL     1      -5.861   3.542  -0.626  1.00  0.00     0.165 HD
BRANCH  19  21
HETATM   21  C11 UNL     1      -6.254   5.596  -0.142  1.00  0.00     0.282 C 
BRANCH  21  22
HETATM   22  O3  UNL     1      -4.920   5.966  -0.392  1.00  0.00    -0.370 OA
ATOM     23  H3  UNL     1      -4.847   6.913  -0.410  1.00  0.00     0.212 HD
ENDBRANCH  21  22
BRANCH  21  24
HETATM   24  C12 UNL     1      -6.432   5.440   1.328  1.00  0.00     0.284 C 
HETATM   25  O4  UNL     1      -7.544   5.421   1.802  1.00  0.00    -0.302 OA
ENDBRANCH  21  24
ENDBRANCH  19  21
ENDBRANCH  15  17
ENDBRANCH   1  15
TORSDOF 9
ENDMDL
MODEL 2
REMARK VINA RESULT: -5.752223756      1.907      3.454
REMARK  9 active torsions:
REMARK  status: ('A' for Active; 'I' for Inactive)
REMARK    1  A    between atoms: C2_2  and  C3_3 
REMARK    2  A    between atoms: C6_6  and  C7_7 
REMARK    3  A    between atoms: C7_7  and  O1_8 
REMARK    4  A    between atoms: C7_7  and  N1_10 
REMARK    5  A    between atoms: N1_10  and  C8_12 
REMARK    6  A    between atoms: C8_12  and  C10_14 
REMARK       I    between atoms: C10_14  and  N2_16 
REMARK    7  A    between atoms: N2_16  and  C11_18 
REMARK    8  A    between atoms: C11_18  and  O3_19 
REMARK    9  A    between atoms: C11_18  and  C12_21 
ROOT
HETATM    1  N1  UNL     1      -7.959   5.120  -3.004  1.00  0.00    -0.380 N 
ATOM      2  H1  UNL     1      -8.961   5.282  -2.907  1.00  0.00     0.157 HD
ENDROOT
BRANCH   1   3
HETATM    3  C7  UNL     1      -7.501   3.801  -3.073  1.00  0.00     0.265 C 
BRANCH   3   4
HETATM    4  C6  UNL     1      -8.061   2.971  -1.971  1.00  0.00     0.057 A 
HETATM    5  C5  UNL     1      -9.417   2.658  -1.936  1.00  0.00     0.030 A 
HETATM    6  C4  UNL     1      -9.920   1.858  -0.952  1.00  0.00     0.015 A 
HETATM    7  C3  UNL     1      -9.115   1.318   0.058  1.00  0.00    -0.022 A 
HETATM    8  C13 UNL     1      -7.786   1.662  -0.031  1.00  0.00     0.099 A 
HETATM    9  N3  UNL     1      -7.297   2.450  -1.001  1.00  0.00    -0.365 N 
ATOM     10  H3  UNL     1      -6.299   2.661  -1.000  1.00  0.00     0.165 HD
BRANCH   7  11
HETATM   11  C2  UNL     1      -9.687   0.466   1.086  1.00  0.00     0.002 C 
HETATM   12  C1  UNL     1      -9.369  -0.799   1.172  1.00  0.00     0.012 C 
ENDBRANCH   7  11
ENDBRANCH   3   4
BRANCH   3  13
HETATM   13  O1  UNL     1      -7.934   3.143  -4.259  1.00  0.00    -0.371 OA
ATOM     14  H1  UNL     1      -7.283   2.465  -4.399  1.00  0.00     0.212 HD
ENDBRANCH   3  13
ENDBRANCH   1   3
BRANCH   1  15
HETATM   15  C8  UNL     1      -7.112   6.224  -3.060  1.00  0.00     0.167 C 
HETATM   16  C9  UNL     1      -7.724   7.598  -3.134  1.00  0.00     0.042 C 
BRANCH  15  17
HETATM   17  C10 UNL     1      -6.185   6.174  -1.861  1.00  0.00     0.242 C 
HETATM   18  O2  UNL     1      -4.994   6.495  -2.055  1.00  0.00    -0.271 OA
HETATM   19  N2  UNL     1      -6.682   5.777  -0.602  1.00  0.00    -0.327 N 
ATOM     20  H2  UNL     1      -7.664   5.524  -0.495  1.00  0.00     0.165 HD
BRANCH  19  21
HETATM   21  C11 UNL     1      -5.792   5.731   0.535  1.00  0.00     0.282 C 
BRANCH  21  22
HETATM   22  O3  UNL     1      -4.600   5.075   0.177  1.00  0.00    -0.370 OA
ATOM     23  H3  UNL     1      -3.876   5.430   0.680  1.00  0.00     0.212 HD
ENDBRANCH  21  22
BRANCH  21  24
HETATM   24  C12 UNL     1      -6.473   4.929   1.589  1.00  0.00     0.284 C 
HETATM   25  O4  UNL     1      -7.660   5.062   1.775  1.00  0.00    -0.302 OA
ENDBRANCH  21  24
ENDBRANCH  19  21
ENDBRANCH  15  17
ENDBRANCH   1  15
TORSDOF 9
ENDMDL
MODEL 3
REMARK VINA RESULT: -5.697330586      1.431      2.124
REMARK  9 active torsions:
REMARK  status: ('A' for Active; 'I' for Inactive)
REMARK    1  A    between atoms: C2_2  and  C3_3 
REMARK    2  A    between atoms: C6_6  and  C7_7 
REMARK    3  A    between atoms: C7_7  and  O1_8 
REMARK    4  A    between atoms: C7_7  and  N1_10 
REMARK    5  A    between atoms: N1_10  and  C8_12 
REMARK    6  A    between atoms: C8_12  and  C10_14 
REMARK       I    between atoms: C10_14  and  N2_16 
REMARK    7  A    between atoms: N2_16  and  C11_18 
REMARK    8  A    between atoms: C11_18  and  O3_19 
REMARK    9  A    between atoms: C11_18  and  C12_21 
ROOT
HETATM    1  N1  UNL     1      -9.620   2.050   1.131  1.00  0.00    -0.380 N 
ATOM      2  H1  UNL     1      -9.308   2.380   2.044  1.00  0.00     0.157 HD
ENDROOT
BRANCH   1   3
HETATM    3  C7  UNL     1     -10.768   1.254   1.069  1.00  0.00     0.265 C 
BRANCH   3   4
HETATM    4  C6  UNL     1     -10.634   0.038   1.917  1.00  0.00     0.057 A 
HETATM    5  C5  UNL     1      -9.842  -1.031   1.506  1.00  0.00     0.030 A 
HETATM    6  C4  UNL     1      -9.683  -2.124   2.307  1.00  0.00     0.015 A 
HETATM    7  C3  UNL     1     -10.296  -2.230   3.561  1.00  0.00    -0.022 A 
HETATM    8  C13 UNL     1     -11.064  -1.144   3.910  1.00  0.00     0.099 A 
HETATM    9  N3  UNL     1     -11.218  -0.070   3.119  1.00  0.00    -0.365 N 
ATOM     10  H3  UNL     1     -11.804   0.697   3.447  1.00  0.00     0.165 HD
BRANCH   7  11
HETATM   11  C2  UNL     1     -10.098  -3.409   4.386  1.00  0.00     0.002 C 
HETATM   12  C1  UNL     1      -9.381  -4.418   3.965  1.00  0.00     0.012 C 
ENDBRANCH   7  11
ENDBRANCH   3   4
BRANCH   3  13
HETATM   13  O1  UNL     1     -11.913   1.919   1.593  1.00  0.00    -0.371 OA
ATOM     14  H1  UNL     1     -11.830   2.810   1.273  1.00  0.00     0.212 HD
ENDBRANCH   3  13
ENDBRANCH   1   3
BRANCH   1  15
HETATM   15  C8  UNL     1      -8.884   2.415   0.006  1.00  0.00     0.167 C 
HETATM   16  C9  UNL     1      -9.598   2.527  -1.315  1.00  0.00     0.042 C 
BRANCH  15  17
HETATM   17  C10 UNL     1      -8.196   3.735   0.296  1.00  0.00     0.242 C 
HETATM   18  O2  UNL     1      -8.656   4.747  -0.272  1.00  0.00    -0.271 OA
HETATM   19  N2  UNL     1      -7.091   3.776   1.172  1.00  0.00    -0.327 N 
ATOM     20  H2  UNL     1      -6.753   2.920   1.611  1.00  0.00     0.165 HD
BRANCH  19  21
HETATM   21  C11 UNL     1      -6.441   5.038   1.441  1.00  0.00     0.282 C 
BRANCH  21  22
HETATM   22  O3  UNL     1      -7.387   5.969   1.906  1.00  0.00    -0.370 OA
ATOM     23  H3  UNL     1      -7.050   6.411   2.676  1.00  0.00     0.212 HD
ENDBRANCH  21  22
BRANCH  21  24
HETATM   24  C12 UNL     1      -5.892   5.529   0.147  1.00  0.00     0.284 C 
HETATM   25  O4  UNL     1      -4.794   5.176  -0.215  1.00  0.00    -0.302 OA
ENDBRANCH  21  24
ENDBRANCH  19  21
ENDBRANCH  15  17
ENDBRANCH   1  15
TORSDOF 9
ENDMDL
MODEL 4
REMARK VINA RESULT: -5.693719605      1.666      2.117
REMARK  9 active torsions:
REMARK  status: ('A' for Active; 'I' for Inactive)
REMARK    1  A    between atoms: C2_2  and  C3_3 
REMARK    2  A    between atoms: C6_6  and  C7_7 
REMARK    3  A    between atoms: C7_7  and  O1_8 
REMARK    4  A    between atoms: C7_7  and  N1_10 
REMARK    5  A    between atoms: N1_10  and  C8_12 
REMARK    6  A    between atoms: C8_12  and  C10_14 
REMARK       I    between atoms: C10_14  and  N2_16 
REMARK    7  A    between atoms: N2_16  and  C11_18 
REMARK    8  A    between atoms: C11_18  and  O3_19 
REMARK    9  A    between atoms: C11_18  and  C12_21 
ROOT
HETATM    1  N1  UNL     1      -6.965   2.079  -0.804  1.00  0.00    -0.380 N 
ATOM      2  H1  UNL     1      -6.516   1.891   0.092  1.00  0.00     0.157 HD
ENDROOT
BRANCH   1   3
HETATM    3  C7  UNL     1      -8.362   2.103  -0.857  1.00  0.00     0.265 C 
BRANCH   3   4
HETATM    4  C6  UNL     1      -8.959   1.108   0.076  1.00  0.00     0.057 A 
HETATM    5  C5  UNL     1      -8.434  -0.178   0.176  1.00  0.00     0.030 A 
HETATM    6  C4  UNL     1      -8.953  -1.072   1.065  1.00  0.00     0.015 A 
HETATM    7  C3  UNL     1     -10.021  -0.752   1.912  1.00  0.00    -0.022 A 
HETATM    8  C13 UNL     1     -10.495   0.531   1.767  1.00  0.00     0.099 A 
HETATM    9  N3  UNL     1      -9.982   1.407   0.890  1.00  0.00    -0.365 N 
ATOM     10  H3  UNL     1     -10.387   2.342   0.841  1.00  0.00     0.165 HD
BRANCH   7  11
HETATM   11  C2  UNL     1     -10.542  -1.731   2.850  1.00  0.00     0.002 C 
HETATM   12  C1  UNL     1      -9.907  -2.849   3.085  1.00  0.00     0.012 C 
ENDBRANCH   7  11
ENDBRANCH   3   4
BRANCH   3  13
HETATM   13  O1  UNL     1      -8.895   3.350  -0.423  1.00  0.00    -0.371 OA
ATOM     14  H1  UNL     1      -9.714   3.430  -0.899  1.00  0.00     0.212 HD
ENDBRANCH   3  13
ENDBRANCH   1   3
BRANCH   1  15
HETATM   15  C8  UNL     1      -6.158   2.300  -1.918  1.00  0.00     0.167 C 
HETATM   16  C9  UNL     1      -6.749   2.095  -3.287  1.00  0.00     0.042 C 
BRANCH  15  17
HETATM   17  C10 UNL     1      -5.611   3.712  -1.835  1.00  0.00     0.242 C 
HETATM   18  O2  UNL     1      -4.402   3.832  -1.547  1.00  0.00    -0.271 OA
HETATM   19  N2  UNL     1      -6.459   4.812  -2.080  1.00  0.00    -0.327 N 
ATOM     20  H2  UNL     1      -7.440   4.661  -2.312  1.00  0.00     0.165 HD
BRANCH  19  21
HETATM   21  C11 UNL     1      -5.930   6.154  -1.998  1.00  0.00     0.282 C 
BRANCH  21  22
HETATM   22  O3  UNL     1      -5.747   6.511  -0.650  1.00  0.00    -0.370 OA
ATOM     23  H3  UNL     1      -6.550   6.884  -0.305  1.00  0.00     0.212 HD
ENDBRANCH  21  22
BRANCH  21  24
HETATM   24  C12 UNL     1      -6.951   7.061  -2.592  1.00  0.00     0.284 C 
HETATM   25  O4  UNL     1      -8.127   6.826  -2.442  1.00  0.00    -0.302 OA
ENDBRANCH  21  24
ENDBRANCH  19  21
ENDBRANCH  15  17
ENDBRANCH   1  15
TORSDOF 9
ENDMDL
MODEL 5
REMARK VINA RESULT: -5.656380588      0.815      1.182
REMARK  9 active torsions:
REMARK  status: ('A' for Active; 'I' for Inactive)
REMARK    1  A    between atoms: C2_2  and  C3_3 
REMARK    2  A    between atoms: C6_6  and  C7_7 
REMARK    3  A    between atoms: C7_7  and  O1_8 
REMARK    4  A    between atoms: C7_7  and  N1_10 
REMARK    5  A    between atoms: N1_10  and  C8_12 
REMARK    6  A    between atoms: C8_12  and  C10_14 
REMARK       I    between atoms: C10_14  and  N2_16 
REMARK    7  A    between atoms: N2_16  and  C11_18 
REMARK    8  A    between atoms: C11_18  and  O3_19 
REMARK    9  A    between atoms: C11_18  and  C12_21 
ROOT
HETATM    1  N1  UNL     1      -8.027   1.854  -1.286  1.00  0.00    -0.380 N 
ATOM      2  H1  UNL     1      -7.350   1.092  -1.292  1.00  0.00     0.157 HD
ENDROOT
BRANCH   1   3
HETATM    3  C7  UNL     1      -9.045   1.832  -0.327  1.00  0.00     0.265 C 
BRANCH   3   4
HETATM    4  C6  UNL     1      -9.088   0.530   0.392  1.00  0.00     0.057 A 
HETATM    5  C5  UNL     1      -9.971   0.331   1.451  1.00  0.00     0.030 A 
HETATM    6  C4  UNL     1     -10.042  -0.878   2.077  1.00  0.00     0.015 A 
HETATM    7  C3  UNL     1      -9.247  -1.967   1.698  1.00  0.00    -0.022 A 
HETATM    8  C13 UNL     1      -8.397  -1.709   0.647  1.00  0.00     0.099 A 
HETATM    9  N3  UNL     1      -8.331  -0.517   0.034  1.00  0.00    -0.365 N 
ATOM     10  H3  UNL     1      -7.675  -0.402  -0.739  1.00  0.00     0.165 HD
BRANCH   7  11
HETATM   11  C2  UNL     1      -9.356  -3.240   2.387  1.00  0.00     0.002 C 
HETATM   12  C1  UNL     1      -9.950  -3.333   3.548  1.00  0.00     0.012 C 
ENDBRANCH   7  11
ENDBRANCH   3   4
BRANCH   3  13
HETATM   13  O1  UNL     1      -8.832   2.792   0.703  1.00  0.00    -0.371 OA
ATOM     14  H1  UNL     1      -8.131   3.338   0.370  1.00  0.00     0.212 HD
ENDBRANCH   3  13
ENDBRANCH   1   3
BRANCH   1  15
HETATM   15  C8  UNL     1      -7.896   2.866  -2.234  1.00  0.00     0.167 C 
HETATM   16  C9  UNL     1      -9.007   3.069  -3.230  1.00  0.00     0.042 C 
BRANCH  15  17
HETATM   17  C10 UNL     1      -7.661   4.174  -1.502  1.00  0.00     0.242 C 
HETATM   18  O2  UNL     1      -8.570   5.026  -1.566  1.00  0.00    -0.271 OA
HETATM   19  N2  UNL     1      -6.459   4.379  -0.793  1.00  0.00    -0.327 N 
ATOM     20  H2  UNL     1      -5.746   3.650  -0.772  1.00  0.00     0.165 HD
BRANCH  19  21
HETATM   21  C11 UNL     1      -6.243   5.627  -0.100  1.00  0.00     0.282 C 
BRANCH  21  22
HETATM   22  O3  UNL     1      -4.920   6.060  -0.302  1.00  0.00    -0.370 OA
ATOM     23  H3  UNL     1      -4.742   6.815   0.247  1.00  0.00     0.212 HD
ENDBRANCH  21  22
BRANCH  21  24
HETATM   24  C12 UNL     1      -6.434   5.358   1.352  1.00  0.00     0.284 C 
HETATM   25  O4  UNL     1      -7.549   5.332   1.819  1.00  0.00    -0.302 OA
ENDBRANCH  21  24
ENDBRANCH  19  21
ENDBRANCH  15  17
ENDBRANCH   1  15
TORSDOF 9
ENDMDL
