MODEL 1
REMARK VINA RESULT: -6.880266572      0.000      0.000
REMARK  5 active torsions:
REMARK  status: ('A' for Active; 'I' for Inactive)
REMARK    1  A    between atoms: C2_2  and  O2_4 
REMARK    2  A    between atoms: O2_4  and  C3_5 
REMARK    3  A    between atoms: C4_6  and  C5_7 
REMARK    4  A    between atoms: C6_8  and  C7_9 
REMARK    5  A    between atoms: N1_10  and  N2_12 
REMARK       I    between atoms: N2_12  and  C8_14 
ROOT
HETATM    1  C5  UNL     1      12.136  23.271   5.112  1.00  0.00     0.003 C 
HETATM    2  C6  UNL     1      11.068  22.643   4.725  1.00  0.00     0.019 C 
ENDROOT
BRANCH   2   3
HETATM    3  C7  UNL     1      10.761  21.283   5.057  1.00  0.00     0.107 C 
HETATM    4  N1  UNL     1      10.024  20.574   4.256  1.00  0.00    -0.307 N 
ATOM      5  H1  UNL     1       9.675  21.002   3.398  1.00  0.00     0.186 HD
BRANCH   4   6
HETATM    6  N2  UNL     1       9.693  19.240   4.531  1.00  0.00    -0.244 N 
HETATM    7  C8  UNL     1      10.092  18.167   3.700  1.00  0.00     0.303 C 
HETATM    8  O3  UNL     1      10.775  18.375   2.659  1.00  0.00    -0.628 OA
HETATM    9  O4  UNL     1       9.723  16.884   4.044  1.00  0.00    -0.628 OA
ATOM     10  H2  UNL     1       9.143  19.034   5.364  1.00  0.00     0.193 HD
ENDBRANCH   4   6
ENDBRANCH   2   3
BRANCH   1  11
HETATM   11  C4  UNL     1      13.134  22.627   5.936  1.00  0.00     0.025 C 
HETATM   12  C3  UNL     1      14.415  22.632   5.576  1.00  0.00     0.145 C 
BRANCH  12  13
HETATM   13  O2  UNL     1      14.849  23.253   4.396  1.00  0.00    -0.291 OA
BRANCH  13  14
HETATM   14  C2  UNL     1      15.573  22.569   3.458  1.00  0.00     0.259 C 
HETATM   15  C1  UNL     1      16.630  23.193   2.604  1.00  0.00     0.126 C 
HETATM   16  O1  UNL     1      15.342  21.348   3.300  1.00  0.00    -0.265 OA
ENDBRANCH  13  14
ENDBRANCH  12  13
ENDBRANCH   1  11
TORSDOF 5
ENDMDL
MODEL 2
REMARK VINA RESULT: -6.762168005      0.967      1.060
REMARK  5 active torsions:
REMARK  status: ('A' for Active; 'I' for Inactive)
REMARK    1  A    between atoms: C2_2  and  O2_4 
REMARK    2  A    between atoms: O2_4  and  C3_5 
REMARK    3  A    between atoms: C4_6  and  C5_7 
REMARK    4  A    between atoms: C6_8  and  C7_9 
REMARK    5  A    between atoms: N1_10  and  N2_12 
REMARK       I    between atoms: N2_12  and  C8_14 
ROOT
HETATM    1  C5  UNL     1      12.030  23.411   5.177  1.00  0.00     0.003 C 
HETATM    2  C6  UNL     1      11.221  23.061   4.223  1.00  0.00     0.019 C 
ENDROOT
BRANCH   2   3
HETATM    3  C7  UNL     1      10.990  21.709   3.810  1.00  0.00     0.107 C 
HETATM    4  N1  UNL     1       9.838  21.153   4.039  1.00  0.00    -0.307 N 
ATOM      5  H1  UNL     1       9.114  21.694   4.512  1.00  0.00     0.186 HD
BRANCH   4   6
HETATM    6  N2  UNL     1       9.557  19.834   3.657  1.00  0.00    -0.244 N 
HETATM    7  C8  UNL     1       9.797  18.725   4.503  1.00  0.00     0.303 C 
HETATM    8  O3  UNL     1      10.283  18.887   5.658  1.00  0.00    -0.628 OA
HETATM    9  O4  UNL     1       9.493  17.461   4.048  1.00  0.00    -0.628 OA
ATOM     10  H2  UNL     1       9.164  19.665   2.732  1.00  0.00     0.193 HD
ENDBRANCH   4   6
ENDBRANCH   2   3
BRANCH   1  11
HETATM   11  C4  UNL     1      12.786  22.431   5.922  1.00  0.00     0.025 C 
HETATM   12  C3  UNL     1      14.077  22.236   5.668  1.00  0.00     0.145 C 
BRANCH  12  13
HETATM   13  O2  UNL     1      14.754  22.963   4.678  1.00  0.00    -0.291 OA
BRANCH  13  14
HETATM   14  C2  UNL     1      15.397  22.333   3.648  1.00  0.00     0.259 C 
HETATM   15  C1  UNL     1      16.490  22.958   2.841  1.00  0.00     0.126 C 
HETATM   16  O1  UNL     1      15.055  21.163   3.359  1.00  0.00    -0.265 OA
ENDBRANCH  13  14
ENDBRANCH  12  13
ENDBRANCH   1  11
TORSDOF 5
ENDMDL
MODEL 3
REMARK VINA RESULT: -6.672882059      3.223      3.672
REMARK  5 active torsions:
REMARK  status: ('A' for Active; 'I' for Inactive)
REMARK    1  A    between atoms: C2_2  and  O2_4 
REMARK    2  A    between atoms: O2_4  and  C3_5 
REMARK    3  A    between atoms: C4_6  and  C5_7 
REMARK    4  A    between atoms: C6_8  and  C7_9 
REMARK    5  A    between atoms: N1_10  and  N2_12 
REMARK       I    between atoms: N2_12  and  C8_14 
ROOT
HETATM    1  C5  UNL     1      12.563  22.391   3.968  1.00  0.00     0.003 C 
HETATM    2  C6  UNL     1      12.280  21.137   3.781  1.00  0.00     0.019 C 
ENDROOT
BRANCH   2   3
HETATM    3  C7  UNL     1      12.727  20.070   4.626  1.00  0.00     0.107 C 
HETATM    4  N1  UNL     1      13.975  19.711   4.606  1.00  0.00    -0.307 N 
ATOM      5  H1  UNL     1      14.619  20.200   3.984  1.00  0.00     0.186 HD
BRANCH   4   6
HETATM    6  N2  UNL     1      14.466  18.675   5.412  1.00  0.00    -0.244 N 
HETATM    7  C8  UNL     1      15.735  18.727   6.036  1.00  0.00     0.303 C 
HETATM    8  O3  UNL     1      16.487  19.731   5.887  1.00  0.00    -0.628 OA
HETATM    9  O4  UNL     1      16.141  17.664   6.812  1.00  0.00    -0.628 OA
ATOM     10  H2  UNL     1      13.886  17.849   5.555  1.00  0.00     0.193 HD
ENDBRANCH   4   6
ENDBRANCH   2   3
BRANCH   1  11
HETATM   11  C4  UNL     1      13.378  22.823   5.079  1.00  0.00     0.025 C 
HETATM   12  C3  UNL     1      14.574  23.367   4.871  1.00  0.00     0.145 C 
BRANCH  12  13
HETATM   13  O2  UNL     1      15.091  23.542   3.579  1.00  0.00    -0.291 OA
BRANCH  13  14
HETATM   14  C2  UNL     1      16.071  22.724   3.089  1.00  0.00     0.259 C 
HETATM   15  C1  UNL     1      17.273  23.214   2.347  1.00  0.00     0.126 C 
HETATM   16  O1  UNL     1      15.962  21.488   3.270  1.00  0.00    -0.265 OA
ENDBRANCH  13  14
ENDBRANCH  12  13
ENDBRANCH   1  11
TORSDOF 5
ENDMDL
MODEL 4
REMARK VINA RESULT: -6.672443868      1.774      2.361
REMARK  5 active torsions:
REMARK  status: ('A' for Active; 'I' for Inactive)
REMARK    1  A    between atoms: C2_2  and  O2_4 
REMARK    2  A    between atoms: O2_4  and  C3_5 
REMARK    3  A    between atoms: C4_6  and  C5_7 
REMARK    4  A    between atoms: C6_8  and  C7_9 
REMARK    5  A    between atoms: N1_10  and  N2_12 
REMARK       I    between atoms: N2_12  and  C8_14 
ROOT
HETATM    1  C5  UNL     1      14.723  23.013   4.996  1.00  0.00     0.003 C 
HETATM    2  C6  UNL     1      13.498  22.612   4.839  1.00  0.00     0.019 C 
ENDROOT
BRANCH   2   3
HETATM    3  C7  UNL     1      13.090  21.238   4.827  1.00  0.00     0.107 C 
HETATM    4  N1  UNL     1      12.562  20.732   3.754  1.00  0.00    -0.307 N 
ATOM      5  H1  UNL     1      12.446  21.327   2.933  1.00  0.00     0.186 HD
BRANCH   4   6
HETATM    6  N2  UNL     1      12.145  19.395   3.686  1.00  0.00    -0.244 N 
HETATM    7  C8  UNL     1      11.048  18.976   2.897  1.00  0.00     0.303 C 
HETATM    8  O3  UNL     1      10.390  19.807   2.211  1.00  0.00    -0.628 OA
HETATM    9  O4  UNL     1      10.705  17.641   2.888  1.00  0.00    -0.628 OA
ATOM     10  H2  UNL     1      12.654  18.696   4.227  1.00  0.00     0.193 HD
ENDBRANCH   4   6
ENDBRANCH   2   3
BRANCH   1  11
HETATM   11  C4  UNL     1      15.808  22.076   5.174  1.00  0.00     0.025 C 
HETATM   12  C3  UNL     1      16.524  21.662   4.133  1.00  0.00     0.145 C 
BRANCH  12  13
HETATM   13  O2  UNL     1      16.262  22.110   2.830  1.00  0.00    -0.291 OA
BRANCH  13  14
HETATM   14  C2  UNL     1      16.917  23.190   2.305  1.00  0.00     0.259 C 
HETATM   15  C1  UNL     1      18.363  23.182   1.922  1.00  0.00     0.126 C 
HETATM   16  O1  UNL     1      16.274  24.251   2.131  1.00  0.00    -0.265 OA
ENDBRANCH  13  14
ENDBRANCH  12  13
ENDBRANCH   1  11
TORSDOF 5
ENDMDL
MODEL 5
REMARK VINA RESULT: -6.654768797      2.057      2.715
REMARK  5 active torsions:
REMARK  status: ('A' for Active; 'I' for Inactive)
REMARK    1  A    between atoms: C2_2  and  O2_4 
REMARK    2  A    between atoms: O2_4  and  C3_5 
REMARK    3  A    between atoms: C4_6  and  C5_7 
REMARK    4  A    between atoms: C6_8  and  C7_9 
REMARK    5  A    between atoms: N1_10  and  N2_12 
REMARK       I    between atoms: N2_12  and  C8_14 
ROOT
HETATM    1  C5  UNL     1      15.221  21.606   5.396  1.00  0.00     0.003 C 
HETATM    2  C6  UNL     1      14.809  20.406   5.117  1.00  0.00     0.019 C 
ENDROOT
BRANCH   2   3
HETATM    3  C7  UNL     1      13.736  20.105   4.217  1.00  0.00     0.107 C 
HETATM    4  N1  UNL     1      12.776  19.317   4.599  1.00  0.00    -0.307 N 
ATOM      5  H1  UNL     1      12.805  18.925   5.540  1.00  0.00     0.186 HD
BRANCH   4   6
HETATM    6  N2  UNL     1      11.702  18.990   3.760  1.00  0.00    -0.244 N 
HETATM    7  C8  UNL     1      10.388  18.790   4.244  1.00  0.00     0.303 C 
HETATM    8  O3  UNL     1      10.128  18.902   5.475  1.00  0.00    -0.628 OA
HETATM    9  O4  UNL     1       9.389  18.470   3.350  1.00  0.00    -0.628 OA
ATOM     10  H2  UNL     1      11.874  18.892   2.760  1.00  0.00     0.193 HD
ENDBRANCH   4   6
ENDBRANCH   2   3
BRANCH   1  11
HETATM   11  C4  UNL     1      14.608  22.771   4.802  1.00  0.00     0.025 C 
HETATM   12  C3  UNL     1      15.099  23.300   3.685  1.00  0.00     0.145 C 
BRANCH  12  13
HETATM   13  O2  UNL     1      16.220  22.757   3.041  1.00  0.00    -0.291 OA
BRANCH  13  14
HETATM   14  C2  UNL     1      16.998  23.514   2.209  1.00  0.00     0.259 C 
HETATM   15  C1  UNL     1      18.419  23.192   1.874  1.00  0.00     0.126 C 
HETATM   16  O1  UNL     1      16.496  24.540   1.693  1.00  0.00    -0.265 OA
ENDBRANCH  13  14
ENDBRANCH  12  13
ENDBRANCH   1  11
TORSDOF 5
ENDMDL
