MODEL 1
REMARK VINA RESULT: -5.887896860      0.000      0.000
REMARK  4 active torsions:
REMARK  status: ('A' for Active; 'I' for Inactive)
REMARK    1  A    between atoms: N1_1  and  O1_4 
REMARK    2  A    between atoms: O1_4  and  C1_5 
REMARK    3  A    between atoms: C1_5  and  C2_6 
REMARK    4  A    between atoms: C3_7  and  C4_8 
ROOT
HETATM    1  C4  UNL     1      15.303  22.070   2.915  1.00  0.00     0.020 A 
HETATM    2  C5  UNL     1      16.086  22.889   2.073  1.00  0.00     0.037 A 
HETATM    3  C6  UNL     1      17.435  23.061   2.326  1.00  0.00     0.089 A 
HETATM    4  N2  UNL     1      17.986  22.434   3.400  1.00  0.00    -0.375 N 
ATOM      5  H2  UNL     1      18.979  22.551   3.607  1.00  0.00     0.164 HD
HETATM    6  C7  UNL     1      17.218  21.656   4.191  1.00  0.00     0.089 A 
HETATM    7  C8  UNL     1      15.894  21.454   3.990  1.00  0.00     0.037 A 
ENDROOT
BRANCH   1   8
HETATM    8  C3  UNL     1      13.958  21.826   2.586  1.00  0.00    -0.065 C 
HETATM    9  C2  UNL     1      12.819  21.591   2.403  1.00  0.00    -0.072 C 
BRANCH   9  10
HETATM   10  C1  UNL     1      11.367  21.207   2.303  1.00  0.00     0.294 C 
BRANCH  10  11
HETATM   11  O1  UNL     1      11.349  19.860   2.780  1.00  0.00    -0.275 OA
BRANCH  11  12
HETATM   12  N1  UNL     1      11.274  19.055   1.678  1.00  0.00    -0.310 N 
ATOM     13  H12 UNL     1      10.787  19.273   0.810  1.00  0.00     0.184 HD
ATOM     14  H11 UNL     1      11.796  18.207   1.900  1.00  0.00     0.184 HD
ENDBRANCH  11  12
ENDBRANCH  10  11
ENDBRANCH   9  10
ENDBRANCH   1   8
TORSDOF 4
ENDMDL
MODEL 2
REMARK VINA RESULT: -5.784197423      0.099      1.435
REMARK  4 active torsions:
REMARK  status: ('A' for Active; 'I' for Inactive)
REMARK    1  A    between atoms: N1_1  and  O1_4 
REMARK    2  A    between atoms: O1_4  and  C1_5 
REMARK    3  A    between atoms: C1_5  and  C2_6 
REMARK    4  A    between atoms: C3_7  and  C4_8 
ROOT
HETATM    1  C4  UNL     1      15.274  22.011   2.864  1.00  0.00     0.020 A 
HETATM    2  C5  UNL     1      15.868  21.384   3.981  1.00  0.00     0.037 A 
HETATM    3  C6  UNL     1      17.201  21.603   4.275  1.00  0.00     0.089 A 
HETATM    4  N2  UNL     1      17.925  22.426   3.469  1.00  0.00    -0.375 N 
ATOM      5  H2  UNL     1      18.911  22.598   3.667  1.00  0.00     0.164 HD
HETATM    6  C7  UNL     1      17.335  23.015   2.407  1.00  0.00     0.089 A 
HETATM    7  C8  UNL     1      16.036  22.834   2.073  1.00  0.00     0.037 A 
ENDROOT
BRANCH   1   8
HETATM    8  C3  UNL     1      13.894  21.857   2.637  1.00  0.00    -0.065 C 
HETATM    9  C2  UNL     1      12.744  21.647   2.502  1.00  0.00    -0.072 C 
BRANCH   9  10
HETATM   10  C1  UNL     1      11.301  21.232   2.384  1.00  0.00     0.294 C 
BRANCH  10  11
HETATM   11  O1  UNL     1      11.313  19.872   2.822  1.00  0.00    -0.275 OA
BRANCH  11  12
HETATM   12  N1  UNL     1      11.185  19.099   1.702  1.00  0.00    -0.310 N 
ATOM     13  H12 UNL     1      11.423  18.110   1.627  1.00  0.00     0.184 HD
ATOM     14  H11 UNL     1      10.810  19.703   0.971  1.00  0.00     0.184 HD
ENDBRANCH  11  12
ENDBRANCH  10  11
ENDBRANCH   9  10
ENDBRANCH   1   8
TORSDOF 4
ENDMDL
MODEL 3
REMARK VINA RESULT: -5.712952101      2.330      2.355
REMARK  4 active torsions:
REMARK  status: ('A' for Active; 'I' for Inactive)
REMARK    1  A    between atoms: N1_1  and  O1_4 
REMARK    2  A    between atoms: O1_4  and  C1_5 
REMARK    3  A    between atoms: C1_5  and  C2_6 
REMARK    4  A    between atoms: C3_7  and  C4_8 
ROOT
HETATM    1  C4  UNL     1      15.143  22.478   4.480  1.00  0.00     0.020 A 
HETATM    2  C5  UNL     1      15.659  23.014   3.280  1.00  0.00     0.037 A 
HETATM    3  C6  UNL     1      16.960  22.741   2.898  1.00  0.00     0.089 A 
HETATM    4  N2  UNL     1      17.729  21.955   3.700  1.00  0.00    -0.375 N 
ATOM      5  H2  UNL     1      18.692  21.745   3.438  1.00  0.00     0.164 HD
HETATM    6  C7  UNL     1      17.213  21.454   4.843  1.00  0.00     0.089 A 
HETATM    7  C8  UNL     1      15.949  21.691   5.264  1.00  0.00     0.037 A 
ENDROOT
BRANCH   1   8
HETATM    8  C3  UNL     1      13.790  22.684   4.803  1.00  0.00    -0.065 C 
HETATM    9  C2  UNL     1      12.635  22.826   4.982  1.00  0.00    -0.072 C 
BRANCH   9  10
HETATM   10  C1  UNL     1      11.141  22.999   5.054  1.00  0.00     0.294 C 
BRANCH  10  11
HETATM   11  O1  UNL     1      10.643  21.705   4.707  1.00  0.00    -0.275 OA
BRANCH  11  12
HETATM   12  N1  UNL     1      10.711  20.942   5.839  1.00  0.00    -0.310 N 
ATOM     13  H12 UNL     1      11.493  20.911   6.493  1.00  0.00     0.184 HD
ATOM     14  H11 UNL     1       9.836  20.422   5.894  1.00  0.00     0.184 HD
ENDBRANCH  11  12
ENDBRANCH  10  11
ENDBRANCH   9  10
ENDBRANCH   1   8
TORSDOF 4
ENDMDL
MODEL 4
REMARK VINA RESULT: -5.676408987      1.041      1.769
REMARK  4 active torsions:
REMARK  status: ('A' for Active; 'I' for Inactive)
REMARK    1  A    between atoms: N1_1  and  O1_4 
REMARK    2  A    between atoms: O1_4  and  C1_5 
REMARK    3  A    between atoms: C1_5  and  C2_6 
REMARK    4  A    between atoms: C3_7  and  C4_8 
ROOT
HETATM    1  C4  UNL     1      15.190  21.977   3.025  1.00  0.00     0.020 A 
HETATM    2  C5  UNL     1      15.810  21.386   4.147  1.00  0.00     0.037 A 
HETATM    3  C6  UNL     1      17.153  21.602   4.396  1.00  0.00     0.089 A 
HETATM    4  N2  UNL     1      17.861  22.387   3.539  1.00  0.00    -0.375 N 
ATOM      5  H2  UNL     1      18.854  22.556   3.702  1.00  0.00     0.164 HD
HETATM    6  C7  UNL     1      17.247  22.942   2.473  1.00  0.00     0.089 A 
HETATM    7  C8  UNL     1      15.937  22.762   2.182  1.00  0.00     0.037 A 
ENDROOT
BRANCH   1   8
HETATM    8  C3  UNL     1      13.803  21.829   2.843  1.00  0.00    -0.065 C 
HETATM    9  C2  UNL     1      12.646  21.635   2.760  1.00  0.00    -0.072 C 
BRANCH   9  10
HETATM   10  C1  UNL     1      11.189  21.254   2.734  1.00  0.00     0.294 C 
BRANCH  10  11
HETATM   11  O1  UNL     1      11.127  20.132   3.618  1.00  0.00    -0.275 OA
BRANCH  11  12
HETATM   12  N1  UNL     1       9.989  20.280   4.360  1.00  0.00    -0.310 N 
ATOM     13  H12 UNL     1       9.856  20.938   5.127  1.00  0.00     0.184 HD
ATOM     14  H11 UNL     1       9.313  19.609   3.994  1.00  0.00     0.184 HD
ENDBRANCH  11  12
ENDBRANCH  10  11
ENDBRANCH   9  10
ENDBRANCH   1   8
TORSDOF 4
ENDMDL
MODEL 5
REMARK VINA RESULT: -5.610495503      2.322      2.733
REMARK  4 active torsions:
REMARK  status: ('A' for Active; 'I' for Inactive)
REMARK    1  A    between atoms: N1_1  and  O1_4 
REMARK    2  A    between atoms: O1_4  and  C1_5 
REMARK    3  A    between atoms: C1_5  and  C2_6 
REMARK    4  A    between atoms: C3_7  and  C4_8 
ROOT
HETATM    1  C4  UNL     1      15.143  22.357   4.290  1.00  0.00     0.020 A 
HETATM    2  C5  UNL     1      15.996  21.566   5.091  1.00  0.00     0.037 A 
HETATM    3  C6  UNL     1      17.327  21.413   4.750  1.00  0.00     0.089 A 
HETATM    4  N2  UNL     1      17.794  22.030   3.631  1.00  0.00    -0.375 N 
ATOM      5  H2  UNL     1      18.772  21.926   3.360  1.00  0.00     0.164 HD
HETATM    6  C7  UNL     1      16.960  22.781   2.881  1.00  0.00     0.089 A 
HETATM    7  C8  UNL     1      15.649  22.963   3.167  1.00  0.00     0.037 A 
ENDROOT
BRANCH   1   8
HETATM    8  C3  UNL     1      13.819  22.584   4.705  1.00  0.00    -0.065 C 
HETATM    9  C2  UNL     1      12.686  22.779   4.958  1.00  0.00    -0.072 C 
BRANCH   9  10
HETATM   10  C1  UNL     1      11.220  23.076   5.131  1.00  0.00     0.294 C 
BRANCH  10  11
HETATM   11  O1  UNL     1      10.590  21.849   4.755  1.00  0.00    -0.275 OA
BRANCH  11  12
HETATM   12  N1  UNL     1      10.693  21.010   5.830  1.00  0.00    -0.310 N 
ATOM     13  H12 UNL     1      11.164  21.220   6.709  1.00  0.00     0.184 HD
ATOM     14  H11 UNL     1      10.210  20.148   5.576  1.00  0.00     0.184 HD
ENDBRANCH  11  12
ENDBRANCH  10  11
ENDBRANCH   9  10
ENDBRANCH   1   8
TORSDOF 4
ENDMDL
