MODEL 1
REMARK VINA RESULT: -5.411617441      0.000      0.000
REMARK  2 active torsions:
REMARK  status: ('A' for Active; 'I' for Inactive)
REMARK    1  A    between atoms: O1_1  and  C1_3 
REMARK    2  A    between atoms: C7_10  and  O3_11 
ROOT
HETATM    1  C1  UNL     1      13.656  21.771   2.994  1.00  0.00     0.153 C 
HETATM    2  C2  UNL     1      14.869  22.550   3.447  1.00  0.00     0.021 C 
HETATM    3  C3  UNL     1      16.038  21.603   3.760  1.00  0.00     0.033 C 
HETATM    4  C4  UNL     1      15.784  20.779   4.970  1.00  0.00     0.168 C 
HETATM    5  O2  UNL     1      14.519  20.745   5.438  1.00  0.00    -0.383 OA
HETATM    6  C5  UNL     1      13.746  21.840   5.335  1.00  0.00     0.153 C 
HETATM    7  C6  UNL     1      14.456  23.083   4.829  1.00  0.00     0.042 C 
HETATM    8  C7  UNL     1      12.753  21.617   4.183  1.00  0.00     0.176 C 
ENDROOT
BRANCH   1   9
HETATM    9  O1  UNL     1      14.019  20.557   2.434  1.00  0.00    -0.393 OA
ATOM     10  H1  UNL     1      13.953  19.852   3.068  1.00  0.00     0.210 HD
ENDBRANCH   1   9
BRANCH   8  11
HETATM   11  O3  UNL     1      12.139  20.390   4.269  1.00  0.00    -0.390 OA
ATOM     12  H3  UNL     1      11.215  20.431   4.487  1.00  0.00     0.210 HD
ENDBRANCH   8  11
TORSDOF 2
ENDMDL
MODEL 2
REMARK VINA RESULT: -5.065265292      1.812      3.604
REMARK  2 active torsions:
REMARK  status: ('A' for Active; 'I' for Inactive)
REMARK    1  A    between atoms: O1_1  and  C1_3 
REMARK    2  A    between atoms: C7_10  and  O3_11 
ROOT
HETATM    1  C1  UNL     1      13.048  21.815   4.180  1.00  0.00     0.153 C 
HETATM    2  C2  UNL     1      11.674  22.266   4.619  1.00  0.00     0.021 C 
HETATM    3  C3  UNL     1      10.955  21.149   5.392  1.00  0.00     0.033 C 
HETATM    4  C4  UNL     1      10.593  20.005   4.515  1.00  0.00     0.168 C 
HETATM    5  O2  UNL     1      11.169  19.955   3.297  1.00  0.00    -0.383 OA
HETATM    6  C5  UNL     1      11.432  21.100   2.642  1.00  0.00     0.153 C 
HETATM    7  C6  UNL     1      10.889  22.356   3.300  1.00  0.00     0.042 C 
HETATM    8  C7  UNL     1      12.939  21.377   2.749  1.00  0.00     0.176 C 
ENDROOT
BRANCH   1   9
HETATM    9  O1  UNL     1      13.539  20.822   5.012  1.00  0.00    -0.393 OA
ATOM     10  H1  UNL     1      14.117  20.232   4.540  1.00  0.00     0.210 HD
ENDBRANCH   1   9
BRANCH   8  11
HETATM   11  O3  UNL     1      13.686  20.263   2.443  1.00  0.00    -0.390 OA
ATOM     12  H3  UNL     1      13.851  19.690   3.182  1.00  0.00     0.210 HD
ENDBRANCH   8  11
TORSDOF 2
ENDMDL
MODEL 3
REMARK VINA RESULT: -5.011947734      2.549      4.036
REMARK  2 active torsions:
REMARK  status: ('A' for Active; 'I' for Inactive)
REMARK    1  A    between atoms: O1_1  and  C1_3 
REMARK    2  A    between atoms: C7_10  and  O3_11 
ROOT
HETATM    1  C1  UNL     1      10.928  23.003   4.551  1.00  0.00     0.153 C 
HETATM    2  C2  UNL     1      10.670  22.276   3.252  1.00  0.00     0.021 C 
HETATM    3  C3  UNL     1       9.781  21.045   3.483  1.00  0.00     0.033 C 
HETATM    4  C4  UNL     1      10.483  19.982   4.249  1.00  0.00     0.168 C 
HETATM    5  O2  UNL     1      11.632  20.325   4.868  1.00  0.00    -0.383 OA
HETATM    6  C5  UNL     1      12.443  21.234   4.300  1.00  0.00     0.153 C 
HETATM    7  C6  UNL     1      12.041  21.672   2.903  1.00  0.00     0.042 C 
HETATM    8  C7  UNL     1      12.272  22.563   5.052  1.00  0.00     0.176 C 
ENDROOT
BRANCH   1   9
HETATM    9  O1  UNL     1       9.911  22.773   5.464  1.00  0.00    -0.393 OA
ATOM     10  H1  UNL     1       9.801  21.844   5.629  1.00  0.00     0.210 HD
ENDBRANCH   1   9
BRANCH   8  11
HETATM   11  O3  UNL     1      12.336  22.391   6.414  1.00  0.00    -0.390 OA
ATOM     12  H3  UNL     1      12.954  21.725   6.694  1.00  0.00     0.210 HD
ENDBRANCH   8  11
TORSDOF 2
ENDMDL
MODEL 4
REMARK VINA RESULT: -5.000664523      1.819      3.746
REMARK  2 active torsions:
REMARK  status: ('A' for Active; 'I' for Inactive)
REMARK    1  A    between atoms: O1_1  and  C1_3 
REMARK    2  A    between atoms: C7_10  and  O3_11 
ROOT
HETATM    1  C1  UNL     1      12.583  22.640   5.034  1.00  0.00     0.153 C 
HETATM    2  C2  UNL     1      11.342  22.869   4.204  1.00  0.00     0.021 C 
HETATM    3  C3  UNL     1      10.157  22.069   4.763  1.00  0.00     0.033 C 
HETATM    4  C4  UNL     1      10.332  20.604   4.581  1.00  0.00     0.168 C 
HETATM    5  O2  UNL     1      11.564  20.169   4.244  1.00  0.00    -0.383 OA
HETATM    6  C5  UNL     1      12.341  20.929   3.452  1.00  0.00     0.153 C 
HETATM    7  C6  UNL     1      11.663  22.160   2.878  1.00  0.00     0.042 C 
HETATM    8  C7  UNL     1      13.407  21.601   4.332  1.00  0.00     0.176 C 
ENDROOT
BRANCH   1   9
HETATM    9  O1  UNL     1      12.259  22.281   6.334  1.00  0.00    -0.393 OA
ATOM     10  H1  UNL     1      13.033  22.242   6.884  1.00  0.00     0.210 HD
ENDBRANCH   1   9
BRANCH   8  11
HETATM   11  O3  UNL     1      14.015  20.700   5.174  1.00  0.00    -0.390 OA
ATOM     12  H3  UNL     1      14.943  20.576   5.007  1.00  0.00     0.210 HD
ENDBRANCH   8  11
TORSDOF 2
ENDMDL
MODEL 5
REMARK VINA RESULT: -4.997364875      2.025      3.067
REMARK  2 active torsions:
REMARK  status: ('A' for Active; 'I' for Inactive)
REMARK    1  A    between atoms: O1_1  and  C1_3 
REMARK    2  A    between atoms: C7_10  and  O3_11 
ROOT
HETATM    1  C1  UNL     1      10.405  20.404   3.578  1.00  0.00     0.153 C 
HETATM    2  C2  UNL     1      10.905  21.783   3.214  1.00  0.00     0.021 C 
HETATM    3  C3  UNL     1      12.345  21.717   2.684  1.00  0.00     0.033 C 
HETATM    4  C4  UNL     1      13.318  21.352   3.746  1.00  0.00     0.168 C 
HETATM    5  O2  UNL     1      12.817  20.858   4.897  1.00  0.00    -0.383 OA
HETATM    6  C5  UNL     1      11.636  21.311   5.352  1.00  0.00     0.153 C 
HETATM    7  C6  UNL     1      11.054  22.479   4.578  1.00  0.00     0.042 C 
HETATM    8  C7  UNL     1      10.570  20.243   5.060  1.00  0.00     0.176 C 
ENDROOT
BRANCH   1   9
HETATM    9  O1  UNL     1      11.064  19.424   2.853  1.00  0.00    -0.393 OA
ATOM     10  H1  UNL     1      11.730  19.802   2.289  1.00  0.00     0.210 HD
ENDBRANCH   1   9
BRANCH   8  11
HETATM   11  O3  UNL     1      10.983  18.990   5.448  1.00  0.00    -0.390 OA
ATOM     12  H3  UNL     1      10.383  18.547   6.036  1.00  0.00     0.210 HD
ENDBRANCH   8  11
TORSDOF 2
ENDMDL
