MODEL 1
REMARK VINA RESULT: -8.274782277      0.000      0.000
REMARK  12 active torsions:
REMARK  status: ('A' for Active; 'I' for Inactive)
REMARK    1  A    between atoms: O1_2  and  C2_3 
REMARK    2  A    between atoms: C2_3  and  N1_5 
REMARK    3  A    between atoms: C4_6  and  N2_7 
REMARK    4  A    between atoms: N3_10  and  O2_11 
REMARK    5  A    between atoms: C6_14  and  C7_15 
REMARK       I    between atoms: C7_15  and  N4_17 
REMARK    6  A    between atoms: N4_17  and  N5_19 
REMARK    7  A    between atoms: C8_21  and  C9_22 
REMARK    8  A    between atoms: C8_21  and  C11_32 
REMARK    9  A    between atoms: C9_22  and  C10_23 
REMARK   10  A    between atoms: C11_32  and  O4_33 
REMARK   11  A    between atoms: C11_32  and  N10_35 
REMARK   12  A    between atoms: N10_35  and  O5_37 
ROOT
HETATM    1  C7  UNL     1      64.063   7.146  84.919  1.00  0.00     0.289 C 
HETATM    2  O3  UNL     1      63.318   7.971  85.565  1.00  0.00    -0.264 OA
HETATM    3  N4  UNL     1      64.181   7.376  83.537  1.00  0.00    -0.264 N 
ATOM      4  H4  UNL     1      64.770   6.765  82.972  1.00  0.00     0.190 HD
ENDROOT
BRANCH   1   5
HETATM    5  C6  UNL     1      64.728   6.068  85.627  1.00  0.00     0.152 A 
HETATM    6  C5  UNL     1      64.710   4.767  85.204  1.00  0.00     0.159 A 
HETATM    7  N3  UNL     1      64.090   4.093  84.248  1.00  0.00    -0.046 N 
HETATM    8  C13 UNL     1      65.469   3.848  85.902  1.00  0.00     0.174 A 
HETATM    9  C4  UNL     1      64.460   2.794  84.352  1.00  0.00     0.709 A 
HETATM   10  N1  UNL     1      65.303   2.621  85.354  1.00  0.00    -0.137 N 
HETATM   11  N13 UNL     1      66.215   4.183  86.973  1.00  0.00    -0.174 N 
HETATM   12  C12 UNL     1      66.222   5.462  87.382  1.00  0.00     0.678 A 
ATOM     13  H13 UNL     1      66.764   3.477  87.465  1.00  0.00     0.186 HD
HETATM   14  N11 UNL     1      65.497   6.365  86.721  1.00  0.00    -0.184 N 
HETATM   15  N12 UNL     1      66.933   5.798  88.411  1.00  0.00    -0.234 N 
ATOM     16  H11 UNL     1      65.516   7.331  87.049  1.00  0.00     0.184 HD
ATOM     17 2H12 UNL     1      66.938   6.770  88.721  1.00  0.00     0.174 HD
ATOM     18 1H12 UNL     1      67.488   5.107  88.916  1.00  0.00     0.174 HD
BRANCH   7  19
HETATM   19  O2  UNL     1      63.186   4.605  83.333  1.00  0.00    -0.269 OA
ATOM     20  H2  UNL     1      62.301   4.289  83.191  1.00  0.00     0.245 HD
ENDBRANCH   7  19
BRANCH   9  21
HETATM   21  N2  UNL     1      64.041   1.871  83.573  1.00  0.00    -0.232 N 
ATOM     22  H22 UNL     1      63.531   1.047  83.892  1.00  0.00     0.174 HD
ATOM     23  H21 UNL     1      64.165   1.854  82.560  1.00  0.00     0.174 HD
ENDBRANCH   9  21
BRANCH  10  24
HETATM   24  C2  UNL     1      65.948   1.384  85.819  1.00  0.00     0.243 C 
HETATM   25  C3  UNL     1      67.412   1.373  85.452  1.00  0.00     0.064 C 
BRANCH  24  26
HETATM   26  O1  UNL     1      65.707   1.132  87.140  1.00  0.00    -0.371 OA
HETATM   27  C1  UNL     1      65.164  -0.103  87.410  1.00  0.00     0.204 C 
ENDBRANCH  24  26
ENDBRANCH  10  24
ENDBRANCH   1   5
BRANCH   3  28
HETATM   28  N5  UNL     1      63.507   8.419  82.941  1.00  0.00    -0.297 N 
HETATM   29  C8  UNL     1      63.262   8.420  81.654  1.00  0.00     0.085 C 
ATOM     30  H5  UNL     1      63.194   9.204  83.511  1.00  0.00     0.187 HD
BRANCH  29  31
HETATM   31  C9  UNL     1      63.733   7.275  80.890  1.00  0.00     0.142 C 
BRANCH  31  32
HETATM   32  C10 UNL     1      62.615   6.459  80.357  1.00  0.00     0.118 A 
HETATM   33  N6  UNL     1      61.495   6.102  81.078  1.00  0.00    -0.272 N 
HETATM   34  N7  UNL     1      60.707   5.348  80.364  1.00  0.00    -0.227 N 
ATOM     35  H6  UNL     1      61.308   6.389  82.038  1.00  0.00     0.190 HD
HETATM   36  N8  UNL     1      61.292   5.207  79.199  1.00  0.00    -0.227 N 
ATOM     37  H7  UNL     1      59.815   4.947  80.653  1.00  0.00     0.210 HD
HETATM   38  N9  UNL     1      62.423   5.862  79.185  1.00  0.00    -0.272 N 
ATOM     39  H8  UNL     1      60.918   4.667  78.419  1.00  0.00     0.210 HD
ATOM     40  H9  UNL     1      63.063   5.907  78.391  1.00  0.00     0.190 HD
ENDBRANCH  31  32
ENDBRANCH  29  31
BRANCH  29  41
HETATM   41  C11 UNL     1      62.486   9.506  81.118  1.00  0.00     0.184 C 
BRANCH  41  42
HETATM   42  O4  UNL     1      61.046   9.399  81.174  1.00  0.00    -0.343 OA
ATOM     43  H4  UNL     1      60.613   8.865  80.518  1.00  0.00     0.219 HD
ENDBRANCH  41  42
BRANCH  41  44
HETATM   44  N10 UNL     1      62.923  10.546  80.613  1.00  0.00    -0.246 N 
ATOM     45  H10 UNL     1      62.675  10.594  79.624  1.00  0.00     0.196 HD
BRANCH  44  46
HETATM   46  O5  UNL     1      63.603  11.596  80.962  1.00  0.00    -0.288 OA
ATOM     47  H5  UNL     1      64.502  11.839  81.150  1.00  0.00     0.244 HD
ENDBRANCH  44  46
ENDBRANCH  41  44
ENDBRANCH  29  41
ENDBRANCH   3  28
TORSDOF 12
ENDMDL
MODEL 2
REMARK VINA RESULT: -8.059430798      1.367      1.785
REMARK  12 active torsions:
REMARK  status: ('A' for Active; 'I' for Inactive)
REMARK    1  A    between atoms: O1_2  and  C2_3 
REMARK    2  A    between atoms: C2_3  and  N1_5 
REMARK    3  A    between atoms: C4_6  and  N2_7 
REMARK    4  A    between atoms: N3_10  and  O2_11 
REMARK    5  A    between atoms: C6_14  and  C7_15 
REMARK       I    between atoms: C7_15  and  N4_17 
REMARK    6  A    between atoms: N4_17  and  N5_19 
REMARK    7  A    between atoms: C8_21  and  C9_22 
REMARK    8  A    between atoms: C8_21  and  C11_32 
REMARK    9  A    between atoms: C9_22  and  C10_23 
REMARK   10  A    between atoms: C11_32  and  O4_33 
REMARK   11  A    between atoms: C11_32  and  N10_35 
REMARK   12  A    between atoms: N10_35  and  O5_37 
ROOT
HETATM    1  C7  UNL     1      64.112   7.125  84.945  1.00  0.00     0.289 C 
HETATM    2  O3  UNL     1      63.468   7.985  85.651  1.00  0.00    -0.264 OA
HETATM    3  N4  UNL     1      64.194   7.398  83.568  1.00  0.00    -0.264 N 
ATOM      4  H4  UNL     1      64.705   6.762  82.957  1.00  0.00     0.190 HD
ENDROOT
BRANCH   1   5
HETATM    5  C6  UNL     1      64.707   5.967  85.585  1.00  0.00     0.152 A 
HETATM    6  C5  UNL     1      64.578   4.692  85.103  1.00  0.00     0.159 A 
HETATM    7  N3  UNL     1      63.887   4.115  84.134  1.00  0.00    -0.046 N 
HETATM    8  C13 UNL     1      65.280   3.686  85.738  1.00  0.00     0.174 A 
HETATM    9  C4  UNL     1      64.158   2.788  84.168  1.00  0.00     0.709 A 
HETATM   10  N1  UNL     1      65.007   2.503  85.139  1.00  0.00    -0.137 N 
HETATM   11  N13 UNL     1      66.073   3.912  86.804  1.00  0.00    -0.174 N 
HETATM   12  C12 UNL     1      66.189   5.165  87.271  1.00  0.00     0.678 A 
ATOM     13  H13 UNL     1      66.577   3.143  87.248  1.00  0.00     0.186 HD
HETATM   14  N11 UNL     1      65.521   6.152  86.671  1.00  0.00    -0.184 N 
HETATM   15  N12 UNL     1      66.947   5.397  88.295  1.00  0.00    -0.234 N 
ATOM     16  H11 UNL     1      65.622   7.097  87.042  1.00  0.00     0.184 HD
ATOM     17 2H12 UNL     1      67.034   6.350  88.649  1.00  0.00     0.174 HD
ATOM     18 1H12 UNL     1      67.457   4.642  88.753  1.00  0.00     0.174 HD
BRANCH   7  19
HETATM   19  O2  UNL     1      63.005   4.737  83.267  1.00  0.00    -0.269 OA
ATOM     20  H2  UNL     1      62.506   5.524  83.454  1.00  0.00     0.245 HD
ENDBRANCH   7  19
BRANCH   9  21
HETATM   21  N2  UNL     1      63.651   1.937  83.359  1.00  0.00    -0.232 N 
ATOM     22  H22 UNL     1      63.339   2.169  82.415  1.00  0.00     0.174 HD
ATOM     23  H21 UNL     1      63.505   0.948  83.559  1.00  0.00     0.174 HD
ENDBRANCH   9  21
BRANCH  10  24
HETATM   24  C2  UNL     1      65.564   1.200  85.529  1.00  0.00     0.243 C 
HETATM   25  C3  UNL     1      66.874   0.945  84.824  1.00  0.00     0.064 C 
BRANCH  24  26
HETATM   26  O1  UNL     1      65.627   1.041  86.885  1.00  0.00    -0.371 OA
HETATM   27  C1  UNL     1      65.261  -0.203  87.345  1.00  0.00     0.204 C 
ENDBRANCH  24  26
ENDBRANCH  10  24
ENDBRANCH   1   5
BRANCH   3  28
HETATM   28  N5  UNL     1      63.592   8.518  83.039  1.00  0.00    -0.297 N 
HETATM   29  C8  UNL     1      63.288   8.586  81.767  1.00  0.00     0.085 C 
ATOM     30  H5  UNL     1      63.379   9.308  83.648  1.00  0.00     0.187 HD
BRANCH  29  31
HETATM   31  C9  UNL     1      63.615   7.431  80.945  1.00  0.00     0.142 C 
BRANCH  31  32
HETATM   32  C10 UNL     1      64.196   7.820  79.637  1.00  0.00     0.118 A 
HETATM   33  N6  UNL     1      64.887   8.991  79.405  1.00  0.00    -0.272 N 
HETATM   34  N7  UNL     1      65.239   9.079  78.152  1.00  0.00    -0.227 N 
ATOM     35  H6  UNL     1      65.095   9.692  80.116  1.00  0.00     0.190 HD
HETATM   36  N8  UNL     1      64.791   7.995  77.569  1.00  0.00    -0.227 N 
ATOM     37  H7  UNL     1      65.758   9.840  77.715  1.00  0.00     0.210 HD
HETATM   38  N9  UNL     1      64.172   7.241  78.439  1.00  0.00    -0.272 N 
ATOM     39  H8  UNL     1      64.909   7.771  76.581  1.00  0.00     0.210 HD
ATOM     40  H9  UNL     1      63.735   6.343  78.231  1.00  0.00     0.190 HD
ENDBRANCH  31  32
ENDBRANCH  29  31
BRANCH  29  41
HETATM   41  C11 UNL     1      62.590   9.756  81.304  1.00  0.00     0.184 C 
BRANCH  41  42
HETATM   42  O4  UNL     1      61.274   9.576  80.734  1.00  0.00    -0.343 OA
ATOM     43  H4  UNL     1      61.192   9.599  79.787  1.00  0.00     0.219 HD
ENDBRANCH  41  42
BRANCH  41  44
HETATM   44  N10 UNL     1      62.995  10.923  81.349  1.00  0.00    -0.246 N 
ATOM     45  H10 UNL     1      62.618  11.400  82.167  1.00  0.00     0.196 HD
BRANCH  44  46
HETATM   46  O5  UNL     1      63.757  11.723  80.666  1.00  0.00    -0.288 OA
ATOM     47  H5  UNL     1      64.445  11.675  80.014  1.00  0.00     0.244 HD
ENDBRANCH  44  46
ENDBRANCH  41  44
ENDBRANCH  29  41
ENDBRANCH   3  28
TORSDOF 12
ENDMDL
MODEL 3
REMARK VINA RESULT: -7.632973421      2.104      3.604
REMARK  12 active torsions:
REMARK  status: ('A' for Active; 'I' for Inactive)
REMARK    1  A    between atoms: O1_2  and  C2_3 
REMARK    2  A    between atoms: C2_3  and  N1_5 
REMARK    3  A    between atoms: C4_6  and  N2_7 
REMARK    4  A    between atoms: N3_10  and  O2_11 
REMARK    5  A    between atoms: C6_14  and  C7_15 
REMARK       I    between atoms: C7_15  and  N4_17 
REMARK    6  A    between atoms: N4_17  and  N5_19 
REMARK    7  A    between atoms: C8_21  and  C9_22 
REMARK    8  A    between atoms: C8_21  and  C11_32 
REMARK    9  A    between atoms: C9_22  and  C10_23 
REMARK   10  A    between atoms: C11_32  and  O4_33 
REMARK   11  A    between atoms: C11_32  and  N10_35 
REMARK   12  A    between atoms: N10_35  and  O5_37 
ROOT
HETATM    1  C7  UNL     1      63.613   5.406  84.047  1.00  0.00     0.289 C 
HETATM    2  O3  UNL     1      63.046   5.994  85.039  1.00  0.00    -0.264 OA
HETATM    3  N4  UNL     1      64.102   6.246  83.032  1.00  0.00    -0.264 N 
ATOM      4  H4  UNL     1      64.575   5.840  82.224  1.00  0.00     0.190 HD
ENDROOT
BRANCH   1   5
HETATM    5  C6  UNL     1      63.723   3.959  84.034  1.00  0.00     0.152 A 
HETATM    6  C5  UNL     1      64.550   3.260  84.870  1.00  0.00     0.159 A 
HETATM    7  N3  UNL     1      65.488   3.574  85.750  1.00  0.00    -0.046 N 
HETATM    8  C13 UNL     1      64.488   1.880  84.839  1.00  0.00     0.174 A 
HETATM    9  C4  UNL     1      65.988   2.418  86.250  1.00  0.00     0.709 A 
HETATM   10  N1  UNL     1      65.391   1.371  85.709  1.00  0.00    -0.137 N 
HETATM   11  N13 UNL     1      63.654   1.207  84.021  1.00  0.00    -0.174 N 
HETATM   12  C12 UNL     1      62.849   1.903  83.203  1.00  0.00     0.678 A 
ATOM     13  H13 UNL     1      63.635   0.187  84.025  1.00  0.00     0.186 HD
HETATM   14  N11 UNL     1      62.893   3.236  83.218  1.00  0.00    -0.184 N 
HETATM   15  N12 UNL     1      62.044   1.270  82.411  1.00  0.00    -0.234 N 
ATOM     16  H11 UNL     1      62.274   3.745  82.587  1.00  0.00     0.184 HD
ATOM     17 2H12 UNL     1      61.433   1.799  81.788  1.00  0.00     0.174 HD
ATOM     18 1H12 UNL     1      62.011   0.250  82.399  1.00  0.00     0.174 HD
BRANCH   7  19
HETATM   19  O2  UNL     1      65.922   4.848  86.072  1.00  0.00    -0.269 OA
ATOM     20  H2  UNL     1      65.565   5.659  85.729  1.00  0.00     0.245 HD
ENDBRANCH   7  19
BRANCH   9  21
HETATM   21  N2  UNL     1      66.913   2.366  87.131  1.00  0.00    -0.232 N 
ATOM     22  H22 UNL     1      67.865   2.700  86.974  1.00  0.00     0.174 HD
ATOM     23  H21 UNL     1      66.808   1.994  88.075  1.00  0.00     0.174 HD
ENDBRANCH   9  21
BRANCH  10  24
HETATM   24  C2  UNL     1      65.623  -0.059  85.960  1.00  0.00     0.243 C 
HETATM   25  C3  UNL     1      64.789  -0.540  87.123  1.00  0.00     0.064 C 
BRANCH  24  26
HETATM   26  O1  UNL     1      65.489  -0.818  84.832  1.00  0.00    -0.371 OA
HETATM   27  C1  UNL     1      64.961  -2.073  85.030  1.00  0.00     0.204 C 
ENDBRANCH  24  26
ENDBRANCH  10  24
ENDBRANCH   1   5
BRANCH   3  28
HETATM   28  N5  UNL     1      63.947   7.612  83.118  1.00  0.00    -0.297 N 
HETATM   29  C8  UNL     1      63.378   8.292  82.154  1.00  0.00     0.085 C 
ATOM     30  H5  UNL     1      64.282   8.102  83.947  1.00  0.00     0.187 HD
BRANCH  29  31
HETATM   31  C9  UNL     1      62.920   7.540  80.995  1.00  0.00     0.142 C 
BRANCH  31  32
HETATM   32  C10 UNL     1      63.727   7.830  79.784  1.00  0.00     0.118 A 
HETATM   33  N6  UNL     1      64.421   9.002  79.569  1.00  0.00    -0.272 N 
HETATM   34  N7  UNL     1      65.000   8.989  78.401  1.00  0.00    -0.227 N 
ATOM     35  H6  UNL     1      64.474   9.774  80.233  1.00  0.00     0.190 HD
HETATM   36  N8  UNL     1      64.696   7.836  77.856  1.00  0.00    -0.227 N 
ATOM     37  H7  UNL     1      65.573   9.727  77.993  1.00  0.00     0.210 HD
HETATM   38  N9  UNL     1      63.942   7.142  78.667  1.00  0.00    -0.272 N 
ATOM     39  H8  UNL     1      65.002   7.527  76.933  1.00  0.00     0.210 HD
ATOM     40  H9  UNL     1      63.574   6.210  78.471  1.00  0.00     0.190 HD
ENDBRANCH  31  32
ENDBRANCH  29  31
BRANCH  29  41
HETATM   41  C11 UNL     1      63.182   9.703  82.350  1.00  0.00     0.184 C 
BRANCH  41  42
HETATM   42  O4  UNL     1      64.294  10.584  82.077  1.00  0.00    -0.343 OA
ATOM     43  H4  UNL     1      65.022  10.239  81.573  1.00  0.00     0.219 HD
ENDBRANCH  41  42
BRANCH  41  44
HETATM   44  N10 UNL     1      62.143  10.258  82.726  1.00  0.00    -0.246 N 
ATOM     45  H10 UNL     1      62.299  11.258  82.853  1.00  0.00     0.196 HD
BRANCH  44  46
HETATM   46  O5  UNL     1      60.913   9.950  83.008  1.00  0.00    -0.288 OA
ATOM     47  H5  UNL     1      60.377   9.767  83.770  1.00  0.00     0.244 HD
ENDBRANCH  44  46
ENDBRANCH  41  44
ENDBRANCH  29  41
ENDBRANCH   3  28
TORSDOF 12
ENDMDL
MODEL 4
REMARK VINA RESULT: -7.560270131      1.910      8.221
REMARK  12 active torsions:
REMARK  status: ('A' for Active; 'I' for Inactive)
REMARK    1  A    between atoms: O1_2  and  C2_3 
REMARK    2  A    between atoms: C2_3  and  N1_5 
REMARK    3  A    between atoms: C4_6  and  N2_7 
REMARK    4  A    between atoms: N3_10  and  O2_11 
REMARK    5  A    between atoms: C6_14  and  C7_15 
REMARK       I    between atoms: C7_15  and  N4_17 
REMARK    6  A    between atoms: N4_17  and  N5_19 
REMARK    7  A    between atoms: C8_21  and  C9_22 
REMARK    8  A    between atoms: C8_21  and  C11_32 
REMARK    9  A    between atoms: C9_22  and  C10_23 
REMARK   10  A    between atoms: C11_32  and  O4_33 
REMARK   11  A    between atoms: C11_32  and  N10_35 
REMARK   12  A    between atoms: N10_35  and  O5_37 
ROOT
HETATM    1  C7  UNL     1      63.733   3.588  83.282  1.00  0.00     0.289 C 
HETATM    2  O3  UNL     1      63.458   2.341  83.427  1.00  0.00    -0.264 OA
HETATM    3  N4  UNL     1      65.027   3.981  83.664  1.00  0.00    -0.264 N 
ATOM      4  H4  UNL     1      65.311   4.955  83.560  1.00  0.00     0.190 HD
ENDROOT
BRANCH   1   5
HETATM    5  C6  UNL     1      62.731   4.489  82.742  1.00  0.00     0.152 A 
HETATM    6  C5  UNL     1      62.882   5.849  82.710  1.00  0.00     0.159 A 
HETATM    7  N3  UNL     1      63.764   6.712  83.187  1.00  0.00    -0.046 N 
HETATM    8  C13 UNL     1      61.910   6.594  82.072  1.00  0.00     0.174 A 
HETATM    9  C4  UNL     1      63.347   7.957  82.849  1.00  0.00     0.709 A 
HETATM   10  N1  UNL     1      62.217   7.908  82.168  1.00  0.00    -0.137 N 
HETATM   11  N13 UNL     1      60.829   6.036  81.492  1.00  0.00    -0.174 N 
HETATM   12  C12 UNL     1      60.689   4.701  81.532  1.00  0.00     0.678 A 
ATOM     13  H13 UNL     1      60.129   6.617  81.029  1.00  0.00     0.186 HD
HETATM   14  N11 UNL     1      61.618   3.963  82.142  1.00  0.00    -0.184 N 
HETATM   15  N12 UNL     1      59.655   4.151  80.980  1.00  0.00    -0.234 N 
ATOM     16  H11 UNL     1      61.492   2.951  82.162  1.00  0.00     0.184 HD
ATOM     17 2H12 UNL     1      59.549   3.137  81.011  1.00  0.00     0.174 HD
ATOM     18 1H12 UNL     1      58.945   4.716  80.513  1.00  0.00     0.174 HD
BRANCH   7  19
HETATM   19  O2  UNL     1      64.887   6.413  83.939  1.00  0.00    -0.269 OA
ATOM     20  H2  UNL     1      65.666   6.953  84.013  1.00  0.00     0.245 HD
ENDBRANCH   7  19
BRANCH   9  21
HETATM   21  N2  UNL     1      63.978   9.026  83.157  1.00  0.00    -0.232 N 
ATOM     22  H22 UNL     1      64.792   9.047  83.773  1.00  0.00     0.174 HD
ATOM     23  H21 UNL     1      63.746   9.962  82.825  1.00  0.00     0.174 HD
ENDBRANCH   9  21
BRANCH  10  24
HETATM   24  C2  UNL     1      61.423   9.014  81.611  1.00  0.00     0.243 C 
HETATM   25  C3  UNL     1      61.838   9.310  80.190  1.00  0.00     0.064 C 
BRANCH  24  26
HETATM   26  O1  UNL     1      60.079   8.824  81.767  1.00  0.00    -0.371 OA
HETATM   27  C1  UNL     1      59.451   9.730  82.590  1.00  0.00     0.204 C 
ENDBRANCH  24  26
ENDBRANCH  10  24
ENDBRANCH   1   5
BRANCH   3  28
HETATM   28  N5  UNL     1      65.915   3.062  84.179  1.00  0.00    -0.297 N 
HETATM   29  C8  UNL     1      65.932   2.778  85.457  1.00  0.00     0.085 C 
ATOM     30  H5  UNL     1      66.570   2.595  83.552  1.00  0.00     0.187 HD
BRANCH  29  31
HETATM   31  C9  UNL     1      64.976   3.476  86.303  1.00  0.00     0.142 C 
BRANCH  31  32
HETATM   32  C10 UNL     1      65.580   4.647  86.984  1.00  0.00     0.118 A 
HETATM   33  N6  UNL     1      66.785   4.626  87.655  1.00  0.00    -0.272 N 
HETATM   34  N7  UNL     1      67.037   5.788  88.189  1.00  0.00    -0.227 N 
ATOM     35  H6  UNL     1      67.396   3.812  87.724  1.00  0.00     0.190 HD
HETATM   36  N8  UNL     1      66.023   6.559  87.881  1.00  0.00    -0.227 N 
ATOM     37  H7  UNL     1      67.858   6.045  88.737  1.00  0.00     0.210 HD
HETATM   38  N9  UNL     1      65.155   5.894  87.167  1.00  0.00    -0.272 N 
ATOM     39  H8  UNL     1      65.927   7.537  88.158  1.00  0.00     0.210 HD
ATOM     40  H9  UNL     1      64.280   6.274  86.804  1.00  0.00     0.190 HD
ENDBRANCH  31  32
ENDBRANCH  29  31
BRANCH  29  41
HETATM   41  C11 UNL     1      66.834   1.751  85.906  1.00  0.00     0.184 C 
BRANCH  41  42
HETATM   42  O4  UNL     1      67.081   1.642  87.326  1.00  0.00    -0.343 OA
ATOM     43  H4  UNL     1      67.829   2.106  87.684  1.00  0.00     0.219 HD
ENDBRANCH  41  42
BRANCH  41  44
HETATM   44  N10 UNL     1      67.426   0.928  85.199  1.00  0.00    -0.246 N 
ATOM     45  H10 UNL     1      68.267   0.593  85.669  1.00  0.00     0.196 HD
BRANCH  44  46
HETATM   46  O5  UNL     1      67.299   0.363  84.036  1.00  0.00    -0.288 OA
ATOM     47  H5  UNL     1      66.665  -0.160  83.559  1.00  0.00     0.244 HD
ENDBRANCH  44  46
ENDBRANCH  41  44
ENDBRANCH  29  41
ENDBRANCH   3  28
TORSDOF 12
ENDMDL
MODEL 5
REMARK VINA RESULT: -7.512802736      1.835      3.334
REMARK  12 active torsions:
REMARK  status: ('A' for Active; 'I' for Inactive)
REMARK    1  A    between atoms: O1_2  and  C2_3 
REMARK    2  A    between atoms: C2_3  and  N1_5 
REMARK    3  A    between atoms: C4_6  and  N2_7 
REMARK    4  A    between atoms: N3_10  and  O2_11 
REMARK    5  A    between atoms: C6_14  and  C7_15 
REMARK       I    between atoms: C7_15  and  N4_17 
REMARK    6  A    between atoms: N4_17  and  N5_19 
REMARK    7  A    between atoms: C8_21  and  C9_22 
REMARK    8  A    between atoms: C8_21  and  C11_32 
REMARK    9  A    between atoms: C9_22  and  C10_23 
REMARK   10  A    between atoms: C11_32  and  O4_33 
REMARK   11  A    between atoms: C11_32  and  N10_35 
REMARK   12  A    between atoms: N10_35  and  O5_37 
ROOT
HETATM    1  C7  UNL     1      63.523   5.380  83.813  1.00  0.00     0.289 C 
HETATM    2  O3  UNL     1      62.506   5.940  84.365  1.00  0.00    -0.264 OA
HETATM    3  N4  UNL     1      64.454   6.248  83.217  1.00  0.00    -0.264 N 
ATOM      4  H4  UNL     1      65.290   5.866  82.775  1.00  0.00     0.190 HD
ENDROOT
BRANCH   1   5
HETATM    5  C6  UNL     1      63.655   3.935  83.843  1.00  0.00     0.152 A 
HETATM    6  C5  UNL     1      64.532   3.277  84.661  1.00  0.00     0.159 A 
HETATM    7  N3  UNL     1      65.505   3.634  85.484  1.00  0.00    -0.046 N 
HETATM    8  C13 UNL     1      64.490   1.897  84.680  1.00  0.00     0.174 A 
HETATM    9  C4  UNL     1      66.047   2.503  85.998  1.00  0.00     0.709 A 
HETATM   10  N1  UNL     1      65.442   1.430  85.521  1.00  0.00    -0.137 N 
HETATM   11  N13 UNL     1      63.629   1.184  83.926  1.00  0.00    -0.174 N 
HETATM   12  C12 UNL     1      62.775   1.840  83.124  1.00  0.00     0.678 A 
ATOM     13  H13 UNL     1      63.626   0.164  83.964  1.00  0.00     0.186 HD
HETATM   14  N11 UNL     1      62.799   3.173  83.093  1.00  0.00    -0.184 N 
HETATM   15  N12 UNL     1      61.943   1.169  82.393  1.00  0.00    -0.234 N 
ATOM     16  H11 UNL     1      62.142   3.652  82.476  1.00  0.00     0.184 HD
ATOM     17 2H12 UNL     1      61.295   1.668  81.784  1.00  0.00     0.174 HD
ATOM     18 1H12 UNL     1      61.926   0.149  82.417  1.00  0.00     0.174 HD
BRANCH   7  19
HETATM   19  O2  UNL     1      65.934   4.925  85.742  1.00  0.00    -0.269 OA
ATOM     20  H2  UNL     1      65.381   5.697  85.778  1.00  0.00     0.245 HD
ENDBRANCH   7  19
BRANCH   9  21
HETATM   21  N2  UNL     1      67.014   2.495  86.834  1.00  0.00    -0.232 N 
ATOM     22  H22 UNL     1      66.941   2.847  87.790  1.00  0.00     0.174 HD
ATOM     23  H21 UNL     1      67.952   2.139  86.647  1.00  0.00     0.174 HD
ENDBRANCH   9  21
BRANCH  10  24
HETATM   24  C2  UNL     1      65.708   0.013  85.809  1.00  0.00     0.243 C 
HETATM   25  C3  UNL     1      64.948  -0.437  87.033  1.00  0.00     0.064 C 
BRANCH  24  26
HETATM   26  O1  UNL     1      65.521  -0.787  84.717  1.00  0.00    -0.371 OA
HETATM   27  C1  UNL     1      65.057  -2.053  84.992  1.00  0.00     0.204 C 
ENDBRANCH  24  26
ENDBRANCH  10  24
ENDBRANCH   1   5
BRANCH   3  28
HETATM   28  N5  UNL     1      64.247   7.610  83.225  1.00  0.00    -0.297 N 
HETATM   29  C8  UNL     1      63.861   8.243  82.145  1.00  0.00     0.085 C 
ATOM     30  H5  UNL     1      64.399   8.134  84.086  1.00  0.00     0.187 HD
BRANCH  29  31
HETATM   31  C9  UNL     1      63.662   7.444  80.946  1.00  0.00     0.142 C 
BRANCH  31  32
HETATM   32  C10 UNL     1      62.238   7.078  80.745  1.00  0.00     0.118 A 
HETATM   33  N6  UNL     1      61.675   6.766  79.526  1.00  0.00    -0.272 N 
HETATM   34  N7  UNL     1      60.398   6.530  79.653  1.00  0.00    -0.227 N 
ATOM     35  H6  UNL     1      62.186   6.726  78.644  1.00  0.00     0.190 HD
HETATM   36  N8  UNL     1      60.124   6.683  80.925  1.00  0.00    -0.227 N 
ATOM     37  H7  UNL     1      59.746   6.278  78.911  1.00  0.00     0.210 HD
HETATM   38  N9  UNL     1      61.206   7.007  81.582  1.00  0.00    -0.272 N 
ATOM     39  H8  UNL     1      59.200   6.566  81.342  1.00  0.00     0.210 HD
ATOM     40  H9  UNL     1      61.252   7.180  82.586  1.00  0.00     0.190 HD
ENDBRANCH  31  32
ENDBRANCH  29  31
BRANCH  29  41
HETATM   41  C11 UNL     1      63.590   9.651  82.252  1.00  0.00     0.184 C 
BRANCH  41  42
HETATM   42  O4  UNL     1      64.608  10.571  81.795  1.00  0.00    -0.343 OA
ATOM     43  H4  UNL     1      64.511  10.946  80.927  1.00  0.00     0.219 HD
ENDBRANCH  41  42
BRANCH  41  44
HETATM   44  N10 UNL     1      62.559  10.174  82.690  1.00  0.00    -0.246 N 
ATOM     45  H10 UNL     1      62.707  11.169  82.858  1.00  0.00     0.196 HD
BRANCH  44  46
HETATM   46  O5  UNL     1      61.345   9.835  83.003  1.00  0.00    -0.288 OA
ATOM     47  H5  UNL     1      60.457   9.995  82.705  1.00  0.00     0.244 HD
ENDBRANCH  44  46
ENDBRANCH  41  44
ENDBRANCH  29  41
ENDBRANCH   3  28
TORSDOF 12
ENDMDL
