MODEL 1
REMARK VINA RESULT: -8.810681728      0.000      0.000
REMARK  15 active torsions:
REMARK  status: ('A' for Active; 'I' for Inactive)
REMARK    1  A    between atoms: O1_2  and  N1_3 
REMARK    2  A    between atoms: N1_3  and  C2_5 
REMARK    3  A    between atoms: N2_7  and  C4_8 
REMARK    4  A    between atoms: C5_11  and  C6_12 
REMARK    5  A    between atoms: C10_22  and  C11_23 
REMARK    6  A    between atoms: C11_23  and  O4_24 
REMARK    7  A    between atoms: C11_23  and  N6_26 
REMARK    8  A    between atoms: N6_26  and  C12_28 
REMARK    9  A    between atoms: N8_32  and  N9_33 
REMARK   10  A    between atoms: N9_33  and  C14_35 
REMARK   11  A    between atoms: C15_38  and  O5_39 
REMARK   12  A    between atoms: N12_43  and  N13_44 
REMARK   13  A    between atoms: C17_51  and  C18_52 
REMARK   14  A    between atoms: C18_52  and  C19_53 
REMARK   15  A    between atoms: C19_53  and  N16_54 
ROOT
HETATM    1  C4  UNL     1      26.717   6.442  11.338  1.00  0.00     0.137 A 
HETATM    2  N3  UNL     1      27.610   7.361  10.862  1.00  0.00    -0.321 N 
ATOM      3  H3  UNL     1      27.528   7.675   9.895  1.00  0.00     0.169 HD
HETATM    4  C5  UNL     1      28.592   7.864  11.627  1.00  0.00     0.187 A 
HETATM    5  N4  UNL     1      28.737   7.478  12.904  1.00  0.00    -0.321 N 
ATOM      6  H4  UNL     1      29.489   7.870  13.471  1.00  0.00     0.169 HD
HETATM    7  C7  UNL     1      27.899   6.581  13.440  1.00  0.00     0.134 A 
HETATM    8  C8  UNL     1      26.876   6.061  12.637  1.00  0.00     0.117 A 
HETATM    9  N5  UNL     1      26.009   5.152  13.255  1.00  0.00    -0.382 N 
ATOM     10  H5  UNL     1      25.051   5.070  12.911  1.00  0.00     0.160 HD
HETATM   11  C9  UNL     1      26.425   4.323  14.368  1.00  0.00     0.149 C 
HETATM   12  C10 UNL     1      27.127   5.152  15.385  1.00  0.00     0.149 C 
HETATM   13  N15 UNL     1      28.004   6.139  14.785  1.00  0.00    -0.364 N 
ATOM     14  H15 UNL     1      28.741   6.541  15.364  1.00  0.00     0.161 HD
ENDROOT
BRANCH  12  15
HETATM   15  C11 UNL     1      27.943   4.355  16.358  1.00  0.00     0.244 C 
BRANCH  15  16
HETATM   16  O4  UNL     1      29.187   4.993  16.557  1.00  0.00    -0.375 OA
ATOM     17  H4  UNL     1      29.430   4.928  17.473  1.00  0.00     0.212 HD
ENDBRANCH  15  16
BRANCH  15  18
HETATM   18  N6  UNL     1      28.191   3.017  15.966  1.00  0.00    -0.333 N 
ATOM     19  H6  UNL     1      27.504   2.292  16.173  1.00  0.00     0.165 HD
BRANCH  18  20
HETATM   20  C12 UNL     1      29.398   2.675  15.282  1.00  0.00     0.195 A 
HETATM   21  N7  UNL     1      30.162   1.663  15.512  1.00  0.00    -0.342 N 
HETATM   22  C13 UNL     1      31.297   1.588  14.660  1.00  0.00     0.294 A 
ATOM     23  H7  UNL     1      29.968   0.977  16.241  1.00  0.00     0.164 HD
HETATM   24  N8  UNL     1      31.198   2.717  13.799  1.00  0.00    -0.199 N 
HETATM   25  N14 UNL     1      29.997   3.382  14.208  1.00  0.00    -0.253 N 
ATOM     26  H14 UNL     1      29.628   4.236  13.790  1.00  0.00     0.192 HD
BRANCH  24  27
HETATM   27  N9  UNL     1      32.026   3.124  12.796  1.00  0.00    -0.112 N 
ATOM     28  H9  UNL     1      31.652   3.858  12.196  1.00  0.00     0.207 HD
BRANCH  27  29
HETATM   29  C14 UNL     1      33.187   2.727  12.499  1.00  0.00     0.722 A 
HETATM   30  N10 UNL     1      34.001   1.802  13.041  1.00  0.00    -0.164 N 
HETATM   31  C15 UNL     1      35.160   1.749  12.347  1.00  0.00     0.199 A 
ATOM     32  H10 UNL     1      33.776   1.227  13.853  1.00  0.00     0.186 HD
HETATM   33  C16 UNL     1      35.077   2.666  11.337  1.00  0.00     0.206 A 
HETATM   34  N11 UNL     1      36.085   2.948  10.353  1.00  0.00    -0.075 NA
HETATM   35  N12 UNL     1      33.894   3.247  11.435  1.00  0.00    -0.073 N 
BRANCH  31  36
HETATM   36  O5  UNL     1      36.242   0.919  12.604  1.00  0.00    -0.343 OA
ATOM     37  H5  UNL     1      37.041   0.856  12.094  1.00  0.00     0.219 HD
ENDBRANCH  31  36
BRANCH  35  38
HETATM   38  N13 UNL     1      33.365   4.253  10.613  1.00  0.00    -0.323 N 
ATOM     39 2H13 UNL     1      32.696   4.979  10.870  1.00  0.00     0.178 HD
ATOM     40 1H13 UNL     1      33.627   4.341   9.632  1.00  0.00     0.178 HD
ENDBRANCH  35  38
ENDBRANCH  27  29
ENDBRANCH  24  27
ENDBRANCH  18  20
ENDBRANCH  15  18
ENDBRANCH  12  15
BRANCH   1  41
HETATM   41  N2  UNL     1      25.711   5.899  10.505  1.00  0.00    -0.350 N 
HETATM   42  C3  UNL     1      24.258   5.839  10.821  1.00  0.00     0.182 C 
HETATM   43  C2  UNL     1      24.014   5.778   9.370  1.00  0.00     0.050 C 
HETATM   44  C17 UNL     1      25.401   5.292   9.249  1.00  0.00     0.137 C 
BRANCH  43  45
HETATM   45  N1  UNL     1      22.996   6.051   8.645  1.00  0.00    -0.272 N 
ATOM     46  H1  UNL     1      22.924   6.982   8.234  1.00  0.00     0.193 HD
BRANCH  45  47
HETATM   47  O1  UNL     1      21.996   5.142   8.398  1.00  0.00    -0.285 OA
HETATM   48  C1  UNL     1      21.099   4.708   9.397  1.00  0.00     0.237 C 
ENDBRANCH  45  47
ENDBRANCH  43  45
BRANCH  44  49
HETATM   49  C18 UNL     1      26.148   5.748   8.038  1.00  0.00     0.059 C 
BRANCH  49  50
HETATM   50  C19 UNL     1      26.018   4.707   6.938  1.00  0.00     0.232 C 
BRANCH  50  51
HETATM   51  N16 UNL     1      26.417   5.282   5.651  1.00  0.00    -0.079 N 
ATOM     52 3H16 UNL     1      25.631   5.352   5.004  1.00  0.00     0.274 HD
ATOM     53 2H16 UNL     1      26.636   6.276   5.728  1.00  0.00     0.274 HD
ATOM     54 1H16 UNL     1      27.191   4.750   5.255  1.00  0.00     0.274 HD
ENDBRANCH  50  51
ENDBRANCH  49  50
ENDBRANCH  44  49
ENDBRANCH   1  41
BRANCH   4  55
HETATM   55  C6  UNL     1      29.520   8.835  11.087  1.00  0.00     0.245 C 
HETATM   56  O2  UNL     1      30.674   8.504  10.723  1.00  0.00    -0.642 OA
HETATM   57  O3  UNL     1      29.117  10.155  10.973  1.00  0.00    -0.642 OA
ENDBRANCH   4  55
TORSDOF 15
ENDMDL
MODEL 2
REMARK VINA RESULT: -8.639158401      1.592      1.882
REMARK  15 active torsions:
REMARK  status: ('A' for Active; 'I' for Inactive)
REMARK    1  A    between atoms: O1_2  and  N1_3 
REMARK    2  A    between atoms: N1_3  and  C2_5 
REMARK    3  A    between atoms: N2_7  and  C4_8 
REMARK    4  A    between atoms: C5_11  and  C6_12 
REMARK    5  A    between atoms: C10_22  and  C11_23 
REMARK    6  A    between atoms: C11_23  and  O4_24 
REMARK    7  A    between atoms: C11_23  and  N6_26 
REMARK    8  A    between atoms: N6_26  and  C12_28 
REMARK    9  A    between atoms: N8_32  and  N9_33 
REMARK   10  A    between atoms: N9_33  and  C14_35 
REMARK   11  A    between atoms: C15_38  and  O5_39 
REMARK   12  A    between atoms: N12_43  and  N13_44 
REMARK   13  A    between atoms: C17_51  and  C18_52 
REMARK   14  A    between atoms: C18_52  and  C19_53 
REMARK   15  A    between atoms: C19_53  and  N16_54 
ROOT
HETATM    1  C4  UNL     1      26.731   6.446  11.321  1.00  0.00     0.137 A 
HETATM    2  N3  UNL     1      27.634   7.335  10.808  1.00  0.00    -0.321 N 
ATOM      3  H3  UNL     1      27.538   7.632   9.836  1.00  0.00     0.169 HD
HETATM    4  C5  UNL     1      28.642   7.832  11.542  1.00  0.00     0.187 A 
HETATM    5  N4  UNL     1      28.805   7.468  12.824  1.00  0.00    -0.321 N 
ATOM      6  H4  UNL     1      29.577   7.854  13.367  1.00  0.00     0.169 HD
HETATM    7  C7  UNL     1      27.959   6.600  13.395  1.00  0.00     0.134 A 
HETATM    8  C8  UNL     1      26.909   6.087  12.623  1.00  0.00     0.117 A 
HETATM    9  N5  UNL     1      26.035   5.209  13.277  1.00  0.00    -0.382 N 
ATOM     10  H5  UNL     1      25.069   5.142  12.954  1.00  0.00     0.160 HD
HETATM   11  C9  UNL     1      26.456   4.394  14.397  1.00  0.00     0.149 C 
HETATM   12  C10 UNL     1      27.198   5.227  15.383  1.00  0.00     0.149 C 
HETATM   13  N15 UNL     1      28.082   6.183  14.746  1.00  0.00    -0.364 N 
ATOM     14  H15 UNL     1      28.840   6.579  15.302  1.00  0.00     0.161 HD
ENDROOT
BRANCH  12  15
HETATM   15  C11 UNL     1      28.016   4.432  16.355  1.00  0.00     0.244 C 
BRANCH  15  16
HETATM   16  O4  UNL     1      29.293   5.021  16.482  1.00  0.00    -0.375 OA
ATOM     17  H4  UNL     1      29.943   4.449  16.090  1.00  0.00     0.212 HD
ENDBRANCH  15  16
BRANCH  15  18
HETATM   18  N6  UNL     1      28.191   3.070  16.007  1.00  0.00    -0.333 N 
ATOM     19  H6  UNL     1      27.458   2.394  16.221  1.00  0.00     0.165 HD
BRANCH  18  20
HETATM   20  C12 UNL     1      29.387   2.637  15.357  1.00  0.00     0.195 A 
HETATM   21  N7  UNL     1      30.132   1.638  15.685  1.00  0.00    -0.342 N 
HETATM   22  C13 UNL     1      31.262   1.455  14.842  1.00  0.00     0.294 A 
ATOM     23  H7  UNL     1      29.928   1.032  16.479  1.00  0.00     0.164 HD
HETATM   24  N8  UNL     1      31.180   2.495  13.872  1.00  0.00    -0.199 N 
HETATM   25  N14 UNL     1      29.995   3.221  14.217  1.00  0.00    -0.253 N 
ATOM     26  H14 UNL     1      29.641   4.037  13.717  1.00  0.00     0.192 HD
BRANCH  24  27
HETATM   27  N9  UNL     1      32.012   2.782  12.832  1.00  0.00    -0.112 N 
ATOM     28  H9  UNL     1      32.482   1.977  12.418  1.00  0.00     0.207 HD
BRANCH  27  29
HETATM   29  C14 UNL     1      32.288   3.894  12.304  1.00  0.00     0.722 A 
HETATM   30  N10 UNL     1      31.663   5.087  12.311  1.00  0.00    -0.164 N 
HETATM   31  C15 UNL     1      32.373   5.980  11.584  1.00  0.00     0.199 A 
ATOM     32  H10 UNL     1      30.787   5.287  12.794  1.00  0.00     0.186 HD
HETATM   33  C16 UNL     1      33.476   5.334  11.104  1.00  0.00     0.206 A 
HETATM   34  N11 UNL     1      34.508   5.901  10.279  1.00  0.00    -0.075 NA
HETATM   35  N12 UNL     1      33.419   4.087  11.538  1.00  0.00    -0.073 N 
BRANCH  31  36
HETATM   36  O5  UNL     1      32.048   7.310  11.360  1.00  0.00    -0.343 OA
ATOM     37  H5  UNL     1      31.411   7.641  10.737  1.00  0.00     0.219 HD
ENDBRANCH  31  36
BRANCH  35  38
HETATM   38  N13 UNL     1      34.337   3.054  11.297  1.00  0.00    -0.323 N 
ATOM     39 2H13 UNL     1      34.133   2.077  11.089  1.00  0.00     0.178 HD
ATOM     40 1H13 UNL     1      35.344   3.213  11.312  1.00  0.00     0.178 HD
ENDBRANCH  35  38
ENDBRANCH  27  29
ENDBRANCH  24  27
ENDBRANCH  18  20
ENDBRANCH  15  18
ENDBRANCH  12  15
BRANCH   1  41
HETATM   41  N2  UNL     1      25.696   5.909  10.520  1.00  0.00    -0.350 N 
HETATM   42  C3  UNL     1      24.258   5.831  10.892  1.00  0.00     0.182 C 
HETATM   43  C2  UNL     1      23.956   5.793   9.452  1.00  0.00     0.050 C 
HETATM   44  C17 UNL     1      25.341   5.321   9.266  1.00  0.00     0.137 C 
BRANCH  43  45
HETATM   45  N1  UNL     1      22.907   6.070   8.774  1.00  0.00    -0.272 N 
ATOM     46  H1  UNL     1      22.798   7.015   8.405  1.00  0.00     0.193 HD
BRANCH  45  47
HETATM   47  O1  UNL     1      21.922   5.147   8.521  1.00  0.00    -0.285 OA
HETATM   48  C1  UNL     1      21.022   4.705   9.514  1.00  0.00     0.237 C 
ENDBRANCH  45  47
ENDBRANCH  43  45
BRANCH  44  49
HETATM   49  C18 UNL     1      26.035   5.804   8.035  1.00  0.00     0.059 C 
BRANCH  49  50
HETATM   50  C19 UNL     1      26.177   4.657   7.048  1.00  0.00     0.232 C 
BRANCH  50  51
HETATM   51  N16 UNL     1      24.932   4.485   6.293  1.00  0.00    -0.079 N 
ATOM     52 3H16 UNL     1      24.356   3.734   6.672  1.00  0.00     0.274 HD
ATOM     53 2H16 UNL     1      24.285   5.260   6.442  1.00  0.00     0.274 HD
ATOM     54 1H16 UNL     1      25.139   4.346   5.304  1.00  0.00     0.274 HD
ENDBRANCH  50  51
ENDBRANCH  49  50
ENDBRANCH  44  49
ENDBRANCH   1  41
BRANCH   4  55
HETATM   55  C6  UNL     1      29.579   8.771  10.964  1.00  0.00     0.245 C 
HETATM   56  O2  UNL     1      30.002   9.757  11.616  1.00  0.00    -0.642 OA
HETATM   57  O3  UNL     1      30.012   8.571   9.664  1.00  0.00    -0.642 OA
ENDBRANCH   4  55
TORSDOF 15
ENDMDL
MODEL 3
REMARK VINA RESULT: -8.540630139      2.573      7.951
REMARK  15 active torsions:
REMARK  status: ('A' for Active; 'I' for Inactive)
REMARK    1  A    between atoms: O1_2  and  N1_3 
REMARK    2  A    between atoms: N1_3  and  C2_5 
REMARK    3  A    between atoms: N2_7  and  C4_8 
REMARK    4  A    between atoms: C5_11  and  C6_12 
REMARK    5  A    between atoms: C10_22  and  C11_23 
REMARK    6  A    between atoms: C11_23  and  O4_24 
REMARK    7  A    between atoms: C11_23  and  N6_26 
REMARK    8  A    between atoms: N6_26  and  C12_28 
REMARK    9  A    between atoms: N8_32  and  N9_33 
REMARK   10  A    between atoms: N9_33  and  C14_35 
REMARK   11  A    between atoms: C15_38  and  O5_39 
REMARK   12  A    between atoms: N12_43  and  N13_44 
REMARK   13  A    between atoms: C17_51  and  C18_52 
REMARK   14  A    between atoms: C18_52  and  C19_53 
REMARK   15  A    between atoms: C19_53  and  N16_54 
ROOT
HETATM    1  C4  UNL     1      31.392   6.332  12.473  1.00  0.00     0.137 A 
HETATM    2  N3  UNL     1      32.082   5.205  12.124  1.00  0.00    -0.321 N 
ATOM      3  H3  UNL     1      32.900   5.293  11.521  1.00  0.00     0.169 HD
HETATM    4  C5  UNL     1      31.716   3.985  12.548  1.00  0.00     0.187 A 
HETATM    5  N4  UNL     1      30.645   3.824  13.342  1.00  0.00    -0.321 N 
ATOM      6  H4  UNL     1      30.382   2.890  13.655  1.00  0.00     0.169 HD
HETATM    7  C7  UNL     1      29.921   4.883  13.726  1.00  0.00     0.134 A 
HETATM    8  C8  UNL     1      30.309   6.153  13.280  1.00  0.00     0.117 A 
HETATM    9  N5  UNL     1      29.537   7.229  13.737  1.00  0.00    -0.382 N 
ATOM     10  H5  UNL     1      29.973   8.148  13.822  1.00  0.00     0.160 HD
HETATM   11  C9  UNL     1      28.142   7.080  14.094  1.00  0.00     0.149 C 
HETATM   12  C10 UNL     1      27.965   5.896  14.978  1.00  0.00     0.149 C 
HETATM   13  N15 UNL     1      28.783   4.771  14.566  1.00  0.00    -0.364 N 
ATOM     14  H15 UNL     1      28.523   3.843  14.899  1.00  0.00     0.161 HD
ENDROOT
BRANCH  12  15
HETATM   15  C11 UNL     1      26.548   5.415  15.071  1.00  0.00     0.244 C 
BRANCH  15  16
HETATM   16  O4  UNL     1      26.507   4.029  14.805  1.00  0.00    -0.375 OA
ATOM     17  H4  UNL     1      25.603   3.739  14.792  1.00  0.00     0.212 HD
ENDBRANCH  15  16
BRANCH  15  18
HETATM   18  N6  UNL     1      25.645   6.060  14.191  1.00  0.00    -0.333 N 
ATOM     19  H6  UNL     1      24.985   6.748  14.557  1.00  0.00     0.165 HD
BRANCH  18  20
HETATM   20  C12 UNL     1      25.650   5.755  12.796  1.00  0.00     0.195 A 
HETATM   21  N7  UNL     1      26.348   4.850  12.201  1.00  0.00    -0.342 N 
HETATM   22  C13 UNL     1      26.137   4.783  10.797  1.00  0.00     0.294 A 
ATOM     23  H7  UNL     1      26.994   4.234  12.695  1.00  0.00     0.164 HD
HETATM   24  N8  UNL     1      25.176   5.795  10.513  1.00  0.00    -0.199 N 
HETATM   25  N14 UNL     1      24.886   6.389  11.784  1.00  0.00    -0.253 N 
ATOM     26  H14 UNL     1      24.229   7.154  11.937  1.00  0.00     0.192 HD
BRANCH  24  27
HETATM   27  N9  UNL     1      24.622   6.160   9.323  1.00  0.00    -0.112 N 
ATOM     28  H9  UNL     1      23.831   6.800   9.391  1.00  0.00     0.207 HD
BRANCH  27  29
HETATM   29  C14 UNL     1      24.940   5.824   8.149  1.00  0.00     0.722 A 
HETATM   30  N10 UNL     1      26.104   5.863   7.473  1.00  0.00    -0.164 N 
HETATM   31  C15 UNL     1      25.924   5.381   6.222  1.00  0.00     0.199 A 
ATOM     32  H10 UNL     1      26.989   6.204   7.849  1.00  0.00     0.186 HD
HETATM   33  C16 UNL     1      24.610   5.027   6.103  1.00  0.00     0.206 A 
HETATM   34  N11 UNL     1      23.976   4.470   4.940  1.00  0.00    -0.075 NA
HETATM   35  N12 UNL     1      24.028   5.295   7.259  1.00  0.00    -0.073 N 
BRANCH  31  36
HETATM   36  O5  UNL     1      26.890   5.264   5.233  1.00  0.00    -0.343 OA
ATOM     37  H5  UNL     1      26.737   5.173   4.300  1.00  0.00     0.219 HD
ENDBRANCH  31  36
BRANCH  35  38
HETATM   38  N13 UNL     1      22.683   5.097   7.606  1.00  0.00    -0.323 N 
ATOM     39 2H13 UNL     1      21.857   5.438   7.114  1.00  0.00     0.178 HD
ATOM     40 1H13 UNL     1      22.412   4.560   8.429  1.00  0.00     0.178 HD
ENDBRANCH  35  38
ENDBRANCH  27  29
ENDBRANCH  24  27
ENDBRANCH  18  20
ENDBRANCH  15  18
ENDBRANCH  12  15
BRANCH   1  41
HETATM   41  N2  UNL     1      31.774   7.604  11.987  1.00  0.00    -0.350 N 
HETATM   42  C3  UNL     1      33.136   8.198  12.076  1.00  0.00     0.182 C 
HETATM   43  C2  UNL     1      32.775   9.032  10.918  1.00  0.00     0.050 C 
HETATM   44  C17 UNL     1      31.370   8.788  11.293  1.00  0.00     0.137 C 
BRANCH  43  45
HETATM   45  N1  UNL     1      33.469   9.652  10.040  1.00  0.00    -0.272 N 
ATOM     46  H1  UNL     1      33.580  10.662  10.129  1.00  0.00     0.193 HD
BRANCH  45  47
HETATM   47  O1  UNL     1      34.071   9.014   8.983  1.00  0.00    -0.285 OA
HETATM   48  C1  UNL     1      33.531   7.853   8.389  1.00  0.00     0.237 C 
ENDBRANCH  45  47
ENDBRANCH  43  45
BRANCH  44  49
HETATM   49  C18 UNL     1      30.406   8.651  10.161  1.00  0.00     0.059 C 
BRANCH  49  50
HETATM   50  C19 UNL     1      28.990   8.865  10.670  1.00  0.00     0.232 C 
BRANCH  50  51
HETATM   51  N16 UNL     1      28.189   7.657  10.454  1.00  0.00    -0.079 N 
ATOM     52 3H16 UNL     1      27.591   7.737   9.631  1.00  0.00     0.274 HD
ATOM     53 2H16 UNL     1      28.761   6.869  10.146  1.00  0.00     0.274 HD
ATOM     54 1H16 UNL     1      27.656   7.435  11.294  1.00  0.00     0.274 HD
ENDBRANCH  50  51
ENDBRANCH  49  50
ENDBRANCH  44  49
ENDBRANCH   1  41
BRANCH   4  55
HETATM   55  C6  UNL     1      32.471   2.813  12.156  1.00  0.00     0.245 C 
HETATM   56  O2  UNL     1      32.211   1.681  12.629  1.00  0.00    -0.642 OA
HETATM   57  O3  UNL     1      33.499   2.955  11.240  1.00  0.00    -0.642 OA
ENDBRANCH   4  55
TORSDOF 15
ENDMDL
MODEL 4
REMARK VINA RESULT: -8.434610859      1.172      1.916
REMARK  15 active torsions:
REMARK  status: ('A' for Active; 'I' for Inactive)
REMARK    1  A    between atoms: O1_2  and  N1_3 
REMARK    2  A    between atoms: N1_3  and  C2_5 
REMARK    3  A    between atoms: N2_7  and  C4_8 
REMARK    4  A    between atoms: C5_11  and  C6_12 
REMARK    5  A    between atoms: C10_22  and  C11_23 
REMARK    6  A    between atoms: C11_23  and  O4_24 
REMARK    7  A    between atoms: C11_23  and  N6_26 
REMARK    8  A    between atoms: N6_26  and  C12_28 
REMARK    9  A    between atoms: N8_32  and  N9_33 
REMARK   10  A    between atoms: N9_33  and  C14_35 
REMARK   11  A    between atoms: C15_38  and  O5_39 
REMARK   12  A    between atoms: N12_43  and  N13_44 
REMARK   13  A    between atoms: C17_51  and  C18_52 
REMARK   14  A    between atoms: C18_52  and  C19_53 
REMARK   15  A    between atoms: C19_53  and  N16_54 
ROOT
HETATM    1  C4  UNL     1      27.622   7.227  11.169  1.00  0.00     0.137 A 
HETATM    2  N3  UNL     1      28.618   8.150  11.015  1.00  0.00    -0.321 N 
ATOM      3  H3  UNL     1      28.759   8.577  10.099  1.00  0.00     0.169 HD
HETATM    4  C5  UNL     1      29.419   8.512  12.030  1.00  0.00     0.187 A 
HETATM    5  N4  UNL     1      29.269   7.974  13.251  1.00  0.00    -0.321 N 
ATOM      6  H4  UNL     1      29.886   8.260  14.011  1.00  0.00     0.169 HD
HETATM    7  C7  UNL     1      28.313   7.063  13.478  1.00  0.00     0.134 A 
HETATM    8  C8  UNL     1      27.481   6.691  12.414  1.00  0.00     0.117 A 
HETATM    9  N5  UNL     1      26.478   5.760  12.713  1.00  0.00    -0.382 N 
ATOM     10  H5  UNL     1      25.619   5.766  12.162  1.00  0.00     0.160 HD
HETATM   11  C9  UNL     1      26.620   4.789  13.777  1.00  0.00     0.149 C 
HETATM   12  C10 UNL     1      27.099   5.459  15.017  1.00  0.00     0.149 C 
HETATM   13  N15 UNL     1      28.109   6.465  14.748  1.00  0.00    -0.364 N 
ATOM     14  H15 UNL     1      28.709   6.760  15.518  1.00  0.00     0.161 HD
ENDROOT
BRANCH  12  15
HETATM   15  C11 UNL     1      27.662   4.516  16.037  1.00  0.00     0.244 C 
BRANCH  15  16
HETATM   16  O4  UNL     1      28.884   5.029  16.524  1.00  0.00    -0.375 OA
ATOM     17  H4  UNL     1      29.214   4.457  17.208  1.00  0.00     0.212 HD
ENDBRANCH  15  16
BRANCH  15  18
HETATM   18  N6  UNL     1      27.893   3.201  15.564  1.00  0.00    -0.333 N 
ATOM     19  H6  UNL     1      27.140   2.513  15.590  1.00  0.00     0.165 HD
BRANCH  18  20
HETATM   20  C12 UNL     1      29.173   2.831  15.050  1.00  0.00     0.195 A 
HETATM   21  N7  UNL     1      29.918   1.857  15.444  1.00  0.00    -0.342 N 
HETATM   22  C13 UNL     1      31.144   1.739  14.735  1.00  0.00     0.294 A 
ATOM     23  H7  UNL     1      29.650   1.225  16.199  1.00  0.00     0.164 HD
HETATM   24  N8  UNL     1      31.130   2.795  13.781  1.00  0.00    -0.199 N 
HETATM   25  N14 UNL     1      29.883   3.465  13.998  1.00  0.00    -0.253 N 
ATOM     26  H14 UNL     1      29.554   4.277  13.474  1.00  0.00     0.192 HD
BRANCH  24  27
HETATM   27  N9  UNL     1      32.063   3.139  12.849  1.00  0.00    -0.112 N 
ATOM     28  H9  UNL     1      31.808   3.924  12.249  1.00  0.00     0.207 HD
BRANCH  27  29
HETATM   29  C14 UNL     1      33.195   2.633  12.617  1.00  0.00     0.722 A 
HETATM   30  N10 UNL     1      33.904   1.666  13.229  1.00  0.00    -0.164 N 
HETATM   31  C15 UNL     1      35.081   1.484  12.586  1.00  0.00     0.199 A 
ATOM     32  H10 UNL     1      33.600   1.148  14.053  1.00  0.00     0.186 HD
HETATM   33  C16 UNL     1      35.116   2.360  11.538  1.00  0.00     0.206 A 
HETATM   34  N11 UNL     1      36.182   2.513  10.587  1.00  0.00    -0.075 NA
HETATM   35  N12 UNL     1      33.985   3.044  11.563  1.00  0.00    -0.073 N 
BRANCH  31  36
HETATM   36  O5  UNL     1      36.076   0.577  12.921  1.00  0.00    -0.343 OA
ATOM     37  H5  UNL     1      37.002   0.653  12.723  1.00  0.00     0.219 HD
ENDBRANCH  31  36
BRANCH  35  38
HETATM   38  N13 UNL     1      33.577   4.055  10.680  1.00  0.00    -0.323 N 
ATOM     39 2H13 UNL     1      32.941   3.968   9.887  1.00  0.00     0.178 HD
ATOM     40 1H13 UNL     1      33.905   5.016  10.771  1.00  0.00     0.178 HD
ENDBRANCH  35  38
ENDBRANCH  27  29
ENDBRANCH  24  27
ENDBRANCH  18  20
ENDBRANCH  15  18
ENDBRANCH  12  15
BRANCH   1  41
HETATM   41  N2  UNL     1      26.812   6.834  10.078  1.00  0.00    -0.350 N 
HETATM   42  C3  UNL     1      27.302   6.322   8.769  1.00  0.00     0.182 C 
HETATM   43  C2  UNL     1      25.996   5.663   8.614  1.00  0.00     0.050 C 
HETATM   44  C17 UNL     1      25.484   6.649   9.584  1.00  0.00     0.137 C 
BRANCH  43  45
HETATM   45  N1  UNL     1      25.597   4.672   7.908  1.00  0.00    -0.272 N 
ATOM     46  H1  UNL     1      25.603   3.742   8.326  1.00  0.00     0.193 HD
BRANCH  45  47
HETATM   47  O1  UNL     1      25.163   4.811   6.612  1.00  0.00    -0.285 OA
HETATM   48  C1  UNL     1      23.906   5.363   6.287  1.00  0.00     0.237 C 
ENDBRANCH  45  47
ENDBRANCH  43  45
BRANCH  44  49
HETATM   49  C18 UNL     1      24.439   6.152  10.529  1.00  0.00     0.059 C 
BRANCH  49  50
HETATM   50  C19 UNL     1      23.072   6.640  10.077  1.00  0.00     0.232 C 
BRANCH  50  51
HETATM   51  N16 UNL     1      22.313   5.535   9.486  1.00  0.00    -0.079 N 
ATOM     52 3H16 UNL     1      22.550   4.638   9.912  1.00  0.00     0.274 HD
ATOM     53 2H16 UNL     1      21.326   5.566   9.745  1.00  0.00     0.274 HD
ATOM     54 1H16 UNL     1      22.441   5.522   8.475  1.00  0.00     0.274 HD
ENDBRANCH  50  51
ENDBRANCH  49  50
ENDBRANCH  44  49
ENDBRANCH   1  41
BRANCH   4  55
HETATM   55  C6  UNL     1      30.465   9.492  11.828  1.00  0.00     0.245 C 
HETATM   56  O2  UNL     1      31.213   9.851  12.768  1.00  0.00    -0.642 OA
HETATM   57  O3  UNL     1      30.634  10.040  10.568  1.00  0.00    -0.642 OA
ENDBRANCH   4  55
TORSDOF 15
ENDMDL
MODEL 5
REMARK VINA RESULT: -8.394932582      1.772      2.475
REMARK  15 active torsions:
REMARK  status: ('A' for Active; 'I' for Inactive)
REMARK    1  A    between atoms: O1_2  and  N1_3 
REMARK    2  A    between atoms: N1_3  and  C2_5 
REMARK    3  A    between atoms: N2_7  and  C4_8 
REMARK    4  A    between atoms: C5_11  and  C6_12 
REMARK    5  A    between atoms: C10_22  and  C11_23 
REMARK    6  A    between atoms: C11_23  and  O4_24 
REMARK    7  A    between atoms: C11_23  and  N6_26 
REMARK    8  A    between atoms: N6_26  and  C12_28 
REMARK    9  A    between atoms: N8_32  and  N9_33 
REMARK   10  A    between atoms: N9_33  and  C14_35 
REMARK   11  A    between atoms: C15_38  and  O5_39 
REMARK   12  A    between atoms: N12_43  and  N13_44 
REMARK   13  A    between atoms: C17_51  and  C18_52 
REMARK   14  A    between atoms: C18_52  and  C19_53 
REMARK   15  A    between atoms: C19_53  and  N16_54 
ROOT
HETATM    1  C4  UNL     1      27.591   7.187  10.640  1.00  0.00     0.137 A 
HETATM    2  N3  UNL     1      28.661   8.001  10.390  1.00  0.00    -0.321 N 
ATOM      3  H3  UNL     1      28.814   8.337   9.439  1.00  0.00     0.169 HD
HETATM    4  C5  UNL     1      29.516   8.373  11.356  1.00  0.00     0.187 A 
HETATM    5  N4  UNL     1      29.352   7.953  12.620  1.00  0.00    -0.321 N 
ATOM      6  H4  UNL     1      30.011   8.245  13.341  1.00  0.00     0.169 HD
HETATM    7  C7  UNL     1      28.326   7.153  12.941  1.00  0.00     0.134 A 
HETATM    8  C8  UNL     1      27.437   6.770  11.929  1.00  0.00     0.117 A 
HETATM    9  N5  UNL     1      26.365   5.961  12.324  1.00  0.00    -0.382 N 
ATOM     10  H5  UNL     1      25.495   5.998  11.791  1.00  0.00     0.160 HD
HETATM   11  C9  UNL     1      26.449   5.072  13.464  1.00  0.00     0.149 C 
HETATM   12  C10 UNL     1      27.017   5.797  14.633  1.00  0.00     0.149 C 
HETATM   13  N15 UNL     1      28.103   6.682  14.261  1.00  0.00    -0.364 N 
ATOM     14  H15 UNL     1      28.747   6.985  14.992  1.00  0.00     0.161 HD
ENDROOT
BRANCH  12  15
HETATM   15  C11 UNL     1      27.521   4.894  15.719  1.00  0.00     0.244 C 
BRANCH  15  16
HETATM   16  O4  UNL     1      28.807   5.319  16.120  1.00  0.00    -0.375 OA
ATOM     17  H4  UNL     1      29.276   4.585  16.498  1.00  0.00     0.212 HD
ENDBRANCH  15  16
BRANCH  15  18
HETATM   18  N6  UNL     1      27.601   3.525  15.362  1.00  0.00    -0.333 N 
ATOM     19  H6  UNL     1      26.745   2.979  15.257  1.00  0.00     0.165 HD
BRANCH  18  20
HETATM   20  C12 UNL     1      28.869   2.906  15.147  1.00  0.00     0.195 A 
HETATM   21  N7  UNL     1      29.383   1.934  15.819  1.00  0.00    -0.342 N 
HETATM   22  C13 UNL     1      30.668   1.529  15.365  1.00  0.00     0.294 A 
ATOM     23  H7  UNL     1      28.909   1.492  16.607  1.00  0.00     0.164 HD
HETATM   24  N8  UNL     1      30.964   2.383  14.265  1.00  0.00    -0.199 N 
HETATM   25  N14 UNL     1      29.820   3.237  14.148  1.00  0.00    -0.253 N 
ATOM     26  H14 UNL     1      29.706   3.972  13.451  1.00  0.00     0.192 HD
BRANCH  24  27
HETATM   27  N9  UNL     1      32.069   2.426  13.468  1.00  0.00    -0.112 N 
ATOM     28  H9  UNL     1      32.675   1.608  13.524  1.00  0.00     0.207 HD
BRANCH  27  29
HETATM   29  C14 UNL     1      32.455   3.325  12.672  1.00  0.00     0.722 A 
HETATM   30  N10 UNL     1      31.899   4.483  12.266  1.00  0.00    -0.164 N 
HETATM   31  C15 UNL     1      32.722   5.103  11.389  1.00  0.00     0.199 A 
ATOM     32  H10 UNL     1      30.994   4.838  12.573  1.00  0.00     0.186 HD
HETATM   33  C16 UNL     1      33.828   4.316  11.238  1.00  0.00     0.206 A 
HETATM   34  N11 UNL     1      34.962   4.588  10.398  1.00  0.00    -0.075 NA
HETATM   35  N12 UNL     1      33.661   3.255  12.008  1.00  0.00    -0.073 N 
BRANCH  31  36
HETATM   36  O5  UNL     1      32.493   6.315  10.755  1.00  0.00    -0.343 OA
ATOM     37  H5  UNL     1      32.208   6.440   9.857  1.00  0.00     0.219 HD
ENDBRANCH  31  36
BRANCH  35  38
HETATM   38  N13 UNL     1      34.539   2.174  12.177  1.00  0.00    -0.323 N 
ATOM     39 2H13 UNL     1      34.722   1.649  13.032  1.00  0.00     0.178 HD
ATOM     40 1H13 UNL     1      35.097   1.806  11.406  1.00  0.00     0.178 HD
ENDBRANCH  35  38
ENDBRANCH  27  29
ENDBRANCH  24  27
ENDBRANCH  18  20
ENDBRANCH  15  18
ENDBRANCH  12  15
BRANCH   1  41
HETATM   41  N2  UNL     1      26.722   6.780   9.602  1.00  0.00    -0.350 N 
HETATM   42  C3  UNL     1      27.135   6.356   8.236  1.00  0.00     0.182 C 
HETATM   43  C2  UNL     1      25.869   5.610   8.157  1.00  0.00     0.050 C 
HETATM   44  C17 UNL     1      25.373   6.518   9.209  1.00  0.00     0.137 C 
BRANCH  43  45
HETATM   45  N1  UNL     1      25.482   4.622   7.443  1.00  0.00    -0.272 N 
ATOM     46  H1  UNL     1      25.537   3.683   7.837  1.00  0.00     0.193 HD
BRANCH  45  47
HETATM   47  O1  UNL     1      24.997   4.773   6.166  1.00  0.00    -0.285 OA
HETATM   48  C1  UNL     1      23.753   5.380   5.894  1.00  0.00     0.237 C 
ENDBRANCH  45  47
ENDBRANCH  43  45
BRANCH  44  49
HETATM   49  C18 UNL     1      24.448   5.910  10.212  1.00  0.00     0.059 C 
BRANCH  49  50
HETATM   50  C19 UNL     1      23.038   6.431   9.984  1.00  0.00     0.232 C 
BRANCH  50  51
HETATM   51  N16 UNL     1      22.260   5.456   9.214  1.00  0.00    -0.079 N 
ATOM     52 3H16 UNL     1      22.372   4.509   9.575  1.00  0.00     0.274 HD
ATOM     53 2H16 UNL     1      21.257   5.558   9.370  1.00  0.00     0.274 HD
ATOM     54 1H16 UNL     1      22.500   5.519   8.225  1.00  0.00     0.274 HD
ENDBRANCH  50  51
ENDBRANCH  49  50
ENDBRANCH  44  49
ENDBRANCH   1  41
BRANCH   4  55
HETATM   55  C6  UNL     1      30.638   9.236  11.052  1.00  0.00     0.245 C 
HETATM   56  O2  UNL     1      31.768   9.039  11.558  1.00  0.00    -0.642 OA
HETATM   57  O3  UNL     1      30.450  10.298  10.184  1.00  0.00    -0.642 OA
ENDBRANCH   4  55
TORSDOF 15
ENDMDL
