MODEL 1
REMARK VINA RESULT: -8.955775091      0.000      0.000
REMARK  16 active torsions:
REMARK  status: ('A' for Active; 'I' for Inactive)
REMARK    1  A    between atoms: C2_2  and  N1_3 
REMARK    2  A    between atoms: C2_2  and  C3_7 
REMARK       I    between atoms: C3_7  and  N2_9 
REMARK       I    between atoms: N2_9  and  C4_11 
REMARK    3  A    between atoms: C4_11  and  O3_13 
REMARK    4  A    between atoms: O3_13  and  C5_14 
REMARK    5  A    between atoms: C5_14  and  N3_15 
REMARK       I    between atoms: N3_15  and  C6_17 
REMARK    6  A    between atoms: C6_17  and  C7_19 
REMARK    7  A    between atoms: C7_19  and  N4_20 
REMARK    8  A    between atoms: C9_26  and  S1_27 
REMARK    9  A    between atoms: S1_27  and  O7_30 
REMARK   10  A    between atoms: O7_30  and  N7_31 
REMARK   11  A    between atoms: N7_31  and  C10_33 
REMARK   12  A    between atoms: C10_33  and  C11_37 
REMARK   13  A    between atoms: C12_38  and  O8_39 
REMARK   14  A    between atoms: N9_41  and  N10_42 
REMARK   15  A    between atoms: N11_47  and  N12_48 
REMARK   16  A    between atoms: C14_51  and  N13_52 
ROOT
HETATM    1  S1  UNL     1      25.531   5.933  12.951  1.00  0.00     0.352 S 
HETATM    2  O5  UNL     1      24.158   6.232  12.458  1.00  0.00    -0.188 OA
HETATM    3  O6  UNL     1      25.593   4.449  13.211  1.00  0.00    -0.188 OA
ENDROOT
BRANCH   1   4
HETATM    4  C9  UNL     1      26.712   6.446  11.779  1.00  0.00     0.251 A 
HETATM    5  N4  UNL     1      26.873   6.029  10.542  1.00  0.00    -0.255 N 
HETATM    6  N5  UNL     1      27.858   6.734   9.946  1.00  0.00    -0.291 N 
HETATM    7  C8  UNL     1      28.323   7.606  10.837  1.00  0.00     0.199 A 
ATOM      8  H5  UNL     1      28.187   6.618   8.987  1.00  0.00     0.188 HD
HETATM    9  N6  UNL     1      27.632   7.443  11.965  1.00  0.00    -0.325 N 
ATOM     10  H6  UNL     1      27.766   7.973  12.826  1.00  0.00     0.169 HD
BRANCH   5  11
HETATM   11  C7  UNL     1      26.224   4.941   9.817  1.00  0.00     0.254 C 
BRANCH  11  12
HETATM   12  C6  UNL     1      25.450   5.497   8.688  1.00  0.00     0.239 C 
HETATM   13  N3  UNL     1      24.026   5.368   8.715  1.00  0.00    -0.338 N 
ATOM     14  H3  UNL     1      23.579   4.897   9.502  1.00  0.00     0.164 HD
HETATM   15  O4  UNL     1      25.955   6.086   7.689  1.00  0.00    -0.272 OA
BRANCH  13  16
HETATM   16  C5  UNL     1      23.208   5.898   7.640  1.00  0.00     0.306 C 
BRANCH  16  17
HETATM   17  O3  UNL     1      23.092   4.972   6.564  1.00  0.00    -0.284 OA
BRANCH  17  18
HETATM   18  C4  UNL     1      23.895   5.173   5.429  1.00  0.00     0.368 C 
HETATM   19  N2  UNL     1      24.401   6.444   5.055  1.00  0.00    -0.271 N 
HETATM   20  C3  UNL     1      25.224   6.545   3.904  1.00  0.00     0.256 C 
ATOM     21  H2  UNL     1      24.177   7.274   5.605  1.00  0.00     0.174 HD
HETATM   22  O1  UNL     1      25.478   5.483   3.243  1.00  0.00    -0.271 OA
HETATM   23  O2  UNL     1      24.154   4.152   4.743  1.00  0.00    -0.238 OA
BRANCH  20  24
HETATM   24  C2  UNL     1      25.800   7.832   3.444  1.00  0.00     0.271 C 
HETATM   25  C1  UNL     1      24.751   8.929   3.501  1.00  0.00     0.050 C 
BRANCH  24  26
HETATM   26  N1  UNL     1      26.946   8.182   4.246  1.00  0.00    -0.067 N 
ATOM     27  H13 UNL     1      27.742   8.457   3.670  1.00  0.00     0.275 HD
ATOM     28  H12 UNL     1      26.806   9.062   4.742  1.00  0.00     0.275 HD
ATOM     29  H11 UNL     1      27.185   7.422   4.883  1.00  0.00     0.275 HD
ENDBRANCH  24  26
ENDBRANCH  20  24
ENDBRANCH  17  18
ENDBRANCH  16  17
ENDBRANCH  13  16
ENDBRANCH  11  12
ENDBRANCH   5  11
ENDBRANCH   1   4
BRANCH   1  30
HETATM   30  O7  UNL     1      25.705   6.754  14.404  1.00  0.00    -0.143 OA
BRANCH  30  31
HETATM   31  N7  UNL     1      26.469   6.080  15.302  1.00  0.00    -0.232 N 
ATOM     32  H7  UNL     1      25.985   5.593  16.056  1.00  0.00     0.197 HD
BRANCH  31  33
HETATM   33  C10 UNL     1      27.871   5.999  15.276  1.00  0.00     0.138 C 
HETATM   34  N8  UNL     1      28.558   7.103  15.251  1.00  0.00    -0.383 N 
ATOM     35  H82 UNL     1      28.040   7.981  15.254  1.00  0.00     0.157 HD
ATOM     36  H81 UNL     1      29.575   7.044  15.232  1.00  0.00     0.157 HD
BRANCH  33  37
HETATM   37  C11 UNL     1      28.609   4.749  15.273  1.00  0.00     0.107 A 
HETATM   38  C12 UNL     1      28.447   3.725  16.172  1.00  0.00     0.181 A 
HETATM   39  N9  UNL     1      29.176   2.571  16.107  1.00  0.00    -0.211 N 
HETATM   40  C13 UNL     1      30.092   2.400  15.147  1.00  0.00     0.222 A 
HETATM   41  S2  UNL     1      30.994   1.046  15.017  1.00  0.00    -0.037 SA
HETATM   42  N11 UNL     1      30.290   3.389  14.229  1.00  0.00    -0.218 N 
HETATM   43  C14 UNL     1      29.577   4.522  14.286  1.00  0.00     0.141 A 
BRANCH  38  44
HETATM   44  O8  UNL     1      27.526   3.841  17.178  1.00  0.00    -0.344 OA
ATOM     45  H8  UNL     1      27.149   3.061  17.567  1.00  0.00     0.219 HD
ENDBRANCH  38  44
BRANCH  39  46
HETATM   46  N10 UNL     1      28.987   1.536  17.039  1.00  0.00    -0.334 N 
ATOM     47 2H10 UNL     1      28.332   1.691  17.806  1.00  0.00     0.177 HD
ATOM     48 1H10 UNL     1      29.488   0.651  16.956  1.00  0.00     0.177 HD
ENDBRANCH  39  46
BRANCH  42  49
HETATM   49  N12 UNL     1      31.233   3.241  13.211  1.00  0.00    -0.335 N 
ATOM     50 2H12 UNL     1      31.118   2.478  12.544  1.00  0.00     0.177 HD
ATOM     51 1H12 UNL     1      32.024   3.880  13.137  1.00  0.00     0.177 HD
ENDBRANCH  42  49
BRANCH  43  52
HETATM   52  N13 UNL     1      29.780   5.435  13.418  1.00  0.00    -0.383 N 
ATOM     53 2H13 UNL     1      29.159   6.244  13.387  1.00  0.00     0.157 HD
ATOM     54 1H13 UNL     1      30.563   5.324  12.775  1.00  0.00     0.157 HD
ENDBRANCH  43  52
ENDBRANCH  33  37
ENDBRANCH  31  33
ENDBRANCH  30  31
ENDBRANCH   1  30
TORSDOF 16
ENDMDL
MODEL 2
REMARK VINA RESULT: -8.915138101      2.838      9.634
REMARK  16 active torsions:
REMARK  status: ('A' for Active; 'I' for Inactive)
REMARK    1  A    between atoms: C2_2  and  N1_3 
REMARK    2  A    between atoms: C2_2  and  C3_7 
REMARK       I    between atoms: C3_7  and  N2_9 
REMARK       I    between atoms: N2_9  and  C4_11 
REMARK    3  A    between atoms: C4_11  and  O3_13 
REMARK    4  A    between atoms: O3_13  and  C5_14 
REMARK    5  A    between atoms: C5_14  and  N3_15 
REMARK       I    between atoms: N3_15  and  C6_17 
REMARK    6  A    between atoms: C6_17  and  C7_19 
REMARK    7  A    between atoms: C7_19  and  N4_20 
REMARK    8  A    between atoms: C9_26  and  S1_27 
REMARK    9  A    between atoms: S1_27  and  O7_30 
REMARK   10  A    between atoms: O7_30  and  N7_31 
REMARK   11  A    between atoms: N7_31  and  C10_33 
REMARK   12  A    between atoms: C10_33  and  C11_37 
REMARK   13  A    between atoms: C12_38  and  O8_39 
REMARK   14  A    between atoms: N9_41  and  N10_42 
REMARK   15  A    between atoms: N11_47  and  N12_48 
REMARK   16  A    between atoms: C14_51  and  N13_52 
ROOT
HETATM    1  S1  UNL     1      23.973   6.715  10.253  1.00  0.00     0.352 S 
HETATM    2  O5  UNL     1      23.108   5.664  10.858  1.00  0.00    -0.188 OA
HETATM    3  O6  UNL     1      23.400   8.048  10.661  1.00  0.00    -0.188 OA
ENDROOT
BRANCH   1   4
HETATM    4  C9  UNL     1      25.619   6.513  10.786  1.00  0.00     0.251 A 
HETATM    5  N4  UNL     1      26.058   5.959  11.895  1.00  0.00    -0.255 N 
HETATM    6  N5  UNL     1      27.408   5.938  11.892  1.00  0.00    -0.291 N 
HETATM    7  C8  UNL     1      27.816   6.499  10.756  1.00  0.00     0.199 A 
ATOM      8  H5  UNL     1      28.007   5.563  12.628  1.00  0.00     0.188 HD
HETATM    9  N6  UNL     1      26.732   6.856  10.067  1.00  0.00    -0.325 N 
ATOM     10  H6  UNL     1      26.732   7.311   9.154  1.00  0.00     0.169 HD
BRANCH   5  11
HETATM   11  C7  UNL     1      25.331   5.470  13.062  1.00  0.00     0.254 C 
BRANCH  11  12
HETATM   12  C6  UNL     1      26.176   5.623  14.265  1.00  0.00     0.239 C 
HETATM   13  N3  UNL     1      26.749   4.448  14.843  1.00  0.00    -0.338 N 
ATOM     14  H3  UNL     1      26.562   3.538  14.421  1.00  0.00     0.164 HD
HETATM   15  O4  UNL     1      26.435   6.726  14.828  1.00  0.00    -0.272 OA
BRANCH  13  16
HETATM   16  C5  UNL     1      27.592   4.530  16.021  1.00  0.00     0.306 C 
BRANCH  16  17
HETATM   17  O3  UNL     1      28.789   3.774  15.864  1.00  0.00    -0.284 OA
BRANCH  17  18
HETATM   18  C4  UNL     1      29.586   4.021  14.735  1.00  0.00     0.368 C 
HETATM   19  N2  UNL     1      30.546   3.097  14.248  1.00  0.00    -0.271 N 
HETATM   20  C3  UNL     1      31.288   3.425  13.085  1.00  0.00     0.256 C 
ATOM     21  H2  UNL     1      30.701   2.210  14.728  1.00  0.00     0.174 HD
HETATM   22  O1  UNL     1      31.064   4.546  12.516  1.00  0.00    -0.271 OA
HETATM   23  O2  UNL     1      29.405   5.122  14.156  1.00  0.00    -0.238 OA
BRANCH  20  24
HETATM   24  C2  UNL     1      32.307   2.516  12.505  1.00  0.00     0.271 C 
HETATM   25  C1  UNL     1      33.367   3.316  11.767  1.00  0.00     0.050 C 
BRANCH  24  26
HETATM   26  N1  UNL     1      32.907   1.711  13.540  1.00  0.00    -0.067 N 
ATOM     27  H13 UNL     1      33.166   0.785  13.198  1.00  0.00     0.275 HD
ATOM     28  H12 UNL     1      33.836   2.047  13.790  1.00  0.00     0.275 HD
ATOM     29  H11 UNL     1      32.293   1.656  14.353  1.00  0.00     0.275 HD
ENDBRANCH  24  26
ENDBRANCH  20  24
ENDBRANCH  17  18
ENDBRANCH  16  17
ENDBRANCH  13  16
ENDBRANCH  11  12
ENDBRANCH   5  11
ENDBRANCH   1   4
BRANCH   1  30
HETATM   30  O7  UNL     1      23.837   6.543   8.588  1.00  0.00    -0.143 OA
BRANCH  30  31
HETATM   31  N7  UNL     1      24.326   5.359   8.140  1.00  0.00    -0.232 N 
ATOM     32  H7  UNL     1      23.894   4.507   8.499  1.00  0.00     0.197 HD
BRANCH  31  33
HETATM   33  C10 UNL     1      25.380   5.210   7.222  1.00  0.00     0.138 C 
HETATM   34  N8  UNL     1      26.276   4.295   7.447  1.00  0.00    -0.383 N 
ATOM     35  H82 UNL     1      26.169   3.725   8.285  1.00  0.00     0.157 HD
ATOM     36  H81 UNL     1      27.041   4.188   6.781  1.00  0.00     0.157 HD
BRANCH  33  37
HETATM   37  C11 UNL     1      25.533   6.022   6.029  1.00  0.00     0.107 A 
HETATM   38  C12 UNL     1      26.662   6.719   5.679  1.00  0.00     0.181 A 
HETATM   39  N9  UNL     1      26.738   7.464   4.535  1.00  0.00    -0.211 N 
HETATM   40  C13 UNL     1      25.691   7.543   3.705  1.00  0.00     0.222 A 
HETATM   41  S2  UNL     1      25.719   8.415   2.327  1.00  0.00    -0.037 SA
HETATM   42  N11 UNL     1      24.546   6.868   4.011  1.00  0.00    -0.218 N 
HETATM   43  C14 UNL     1      24.465   6.134   5.128  1.00  0.00     0.141 A 
BRANCH  38  44
HETATM   44  O8  UNL     1      27.766   6.678   6.487  1.00  0.00    -0.344 OA
ATOM     45  H8  UNL     1      28.574   7.093   6.206  1.00  0.00     0.219 HD
ENDBRANCH  38  44
BRANCH  39  46
HETATM   46  N10 UNL     1      27.909   8.164   4.197  1.00  0.00    -0.334 N 
ATOM     47 2H10 UNL     1      28.030   9.108   4.564  1.00  0.00     0.177 HD
ATOM     48 1H10 UNL     1      28.622   7.744   3.600  1.00  0.00     0.177 HD
ENDBRANCH  39  46
BRANCH  42  49
HETATM   49  N12 UNL     1      23.437   6.924   3.165  1.00  0.00    -0.335 N 
ATOM     50 2H12 UNL     1      23.568   7.243   2.205  1.00  0.00     0.177 HD
ATOM     51 1H12 UNL     1      22.511   6.656   3.500  1.00  0.00     0.177 HD
ENDBRANCH  42  49
BRANCH  43  52
HETATM   52  N13 UNL     1      23.383   5.513   5.396  1.00  0.00    -0.383 N 
ATOM     53 2H13 UNL     1      23.368   4.494   5.361  1.00  0.00     0.157 HD
ATOM     54 1H13 UNL     1      22.558   6.063   5.635  1.00  0.00     0.157 HD
ENDBRANCH  43  52
ENDBRANCH  33  37
ENDBRANCH  31  33
ENDBRANCH  30  31
ENDBRANCH   1  30
TORSDOF 16
ENDMDL
MODEL 3
REMARK VINA RESULT: -8.880503972      1.980      2.792
REMARK  16 active torsions:
REMARK  status: ('A' for Active; 'I' for Inactive)
REMARK    1  A    between atoms: C2_2  and  N1_3 
REMARK    2  A    between atoms: C2_2  and  C3_7 
REMARK       I    between atoms: C3_7  and  N2_9 
REMARK       I    between atoms: N2_9  and  C4_11 
REMARK    3  A    between atoms: C4_11  and  O3_13 
REMARK    4  A    between atoms: O3_13  and  C5_14 
REMARK    5  A    between atoms: C5_14  and  N3_15 
REMARK       I    between atoms: N3_15  and  C6_17 
REMARK    6  A    between atoms: C6_17  and  C7_19 
REMARK    7  A    between atoms: C7_19  and  N4_20 
REMARK    8  A    between atoms: C9_26  and  S1_27 
REMARK    9  A    between atoms: S1_27  and  O7_30 
REMARK   10  A    between atoms: O7_30  and  N7_31 
REMARK   11  A    between atoms: N7_31  and  C10_33 
REMARK   12  A    between atoms: C10_33  and  C11_37 
REMARK   13  A    between atoms: C12_38  and  O8_39 
REMARK   14  A    between atoms: N9_41  and  N10_42 
REMARK   15  A    between atoms: N11_47  and  N12_48 
REMARK   16  A    between atoms: C14_51  and  N13_52 
ROOT
HETATM    1  S1  UNL     1      26.134   5.972  12.245  1.00  0.00     0.352 S 
HETATM    2  O5  UNL     1      25.459   6.464  13.478  1.00  0.00    -0.188 OA
HETATM    3  O6  UNL     1      26.443   4.513  12.464  1.00  0.00    -0.188 OA
ENDROOT
BRANCH   1   4
HETATM    4  C9  UNL     1      25.111   6.229  10.860  1.00  0.00     0.251 A 
HETATM    5  N4  UNL     1      25.259   5.771   9.636  1.00  0.00    -0.255 N 
HETATM    6  N5  UNL     1      24.206   6.143   8.878  1.00  0.00    -0.291 N 
HETATM    7  C8  UNL     1      23.386   6.852   9.650  1.00  0.00     0.199 A 
ATOM      8  H5  UNL     1      24.064   5.920   7.892  1.00  0.00     0.188 HD
HETATM    9  N6  UNL     1      23.926   6.914  10.867  1.00  0.00    -0.325 N 
ATOM     10  H6  UNL     1      23.522   7.394  11.672  1.00  0.00     0.169 HD
BRANCH   5  11
HETATM   11  C7  UNL     1      26.364   5.037   9.026  1.00  0.00     0.254 C 
BRANCH  11  12
HETATM   12  C6  UNL     1      26.397   5.318   7.576  1.00  0.00     0.239 C 
HETATM   13  N3  UNL     1      25.945   4.300   6.679  1.00  0.00    -0.338 N 
ATOM     14  H3  UNL     1      25.615   3.411   7.054  1.00  0.00     0.164 HD
HETATM   15  O4  UNL     1      26.800   6.401   7.061  1.00  0.00    -0.272 OA
BRANCH  13  16
HETATM   16  C5  UNL     1      25.947   4.514   5.244  1.00  0.00     0.306 C 
BRANCH  16  17
HETATM   17  O3  UNL     1      24.676   4.955   4.776  1.00  0.00    -0.284 OA
BRANCH  17  18
HETATM   18  C4  UNL     1      24.583   6.247   4.232  1.00  0.00     0.368 C 
HETATM   19  N2  UNL     1      25.664   7.165   4.230  1.00  0.00    -0.271 N 
HETATM   20  C3  UNL     1      25.482   8.440   3.636  1.00  0.00     0.256 C 
ATOM     21  H2  UNL     1      26.559   6.912   4.648  1.00  0.00     0.174 HD
HETATM   22  O1  UNL     1      24.345   8.717   3.125  1.00  0.00    -0.271 OA
HETATM   23  O2  UNL     1      23.473   6.562   3.733  1.00  0.00    -0.238 OA
BRANCH  20  24
HETATM   24  C2  UNL     1      26.559   9.458   3.584  1.00  0.00     0.271 C 
HETATM   25  C1  UNL     1      26.009  10.827   3.946  1.00  0.00     0.050 C 
BRANCH  24  26
HETATM   26  N1  UNL     1      27.636   9.093   4.471  1.00  0.00    -0.067 N 
ATOM     27  H13 UNL     1      28.546   9.175   4.017  1.00  0.00     0.275 HD
ATOM     28  H12 UNL     1      27.771   9.786   5.208  1.00  0.00     0.275 HD
ATOM     29  H11 UNL     1      27.486   8.160   4.853  1.00  0.00     0.275 HD
ENDBRANCH  24  26
ENDBRANCH  20  24
ENDBRANCH  17  18
ENDBRANCH  16  17
ENDBRANCH  13  16
ENDBRANCH  11  12
ENDBRANCH   5  11
ENDBRANCH   1   4
BRANCH   1  30
HETATM   30  O7  UNL     1      27.574   6.826  12.117  1.00  0.00    -0.143 OA
BRANCH  30  31
HETATM   31  N7  UNL     1      28.658   6.016  12.012  1.00  0.00    -0.232 N 
ATOM     32  H7  UNL     1      28.781   5.508  11.136  1.00  0.00     0.197 HD
BRANCH  31  33
HETATM   33  C10 UNL     1      29.626   5.820  13.012  1.00  0.00     0.138 C 
HETATM   34  N8  UNL     1      30.586   6.690  13.127  1.00  0.00    -0.383 N 
ATOM     35  H82 UNL     1      30.588   7.479  12.481  1.00  0.00     0.157 HD
ATOM     36  H81 UNL     1      31.289   6.548  13.852  1.00  0.00     0.157 HD
BRANCH  33  37
HETATM   37  C11 UNL     1      29.623   4.697  13.932  1.00  0.00     0.107 A 
HETATM   38  C12 UNL     1      30.420   3.584  13.833  1.00  0.00     0.181 A 
HETATM   39  N9  UNL     1      30.366   2.562  14.739  1.00  0.00    -0.211 N 
HETATM   40  C13 UNL     1      29.514   2.614  15.770  1.00  0.00     0.222 A 
HETATM   41  S2  UNL     1      29.403   1.426  16.884  1.00  0.00    -0.037 SA
HETATM   42  N11 UNL     1      28.702   3.699  15.911  1.00  0.00    -0.218 N 
HETATM   43  C14 UNL     1      28.751   4.705  15.028  1.00  0.00     0.141 A 
BRANCH  38  44
HETATM   44  O8  UNL     1      31.311   3.473  12.800  1.00  0.00    -0.344 OA
ATOM     45  H8  UNL     1      31.567   2.614  12.486  1.00  0.00     0.219 HD
ENDBRANCH  38  44
BRANCH  39  46
HETATM   46  N10 UNL     1      31.198   1.436  14.617  1.00  0.00    -0.334 N 
ATOM     47 2H10 UNL     1      31.417   1.096  13.681  1.00  0.00     0.177 HD
ATOM     48 1H10 UNL     1      31.574   0.965  15.440  1.00  0.00     0.177 HD
ENDBRANCH  39  46
BRANCH  42  49
HETATM   49  N12 UNL     1      27.806   3.787  16.978  1.00  0.00    -0.335 N 
ATOM     50 2H12 UNL     1      27.181   3.001  17.159  1.00  0.00     0.177 HD
ATOM     51 1H12 UNL     1      27.772   4.622  17.563  1.00  0.00     0.177 HD
ENDBRANCH  42  49
BRANCH  43  52
HETATM   52  N13 UNL     1      27.979   5.710  15.178  1.00  0.00    -0.383 N 
ATOM     53 2H13 UNL     1      27.053   5.700  14.750  1.00  0.00     0.157 HD
ATOM     54 1H13 UNL     1      28.318   6.502  15.724  1.00  0.00     0.157 HD
ENDBRANCH  43  52
ENDBRANCH  33  37
ENDBRANCH  31  33
ENDBRANCH  30  31
ENDBRANCH   1  30
TORSDOF 16
ENDMDL
MODEL 4
REMARK VINA RESULT: -8.825092602      2.805      9.872
REMARK  16 active torsions:
REMARK  status: ('A' for Active; 'I' for Inactive)
REMARK    1  A    between atoms: C2_2  and  N1_3 
REMARK    2  A    between atoms: C2_2  and  C3_7 
REMARK       I    between atoms: C3_7  and  N2_9 
REMARK       I    between atoms: N2_9  and  C4_11 
REMARK    3  A    between atoms: C4_11  and  O3_13 
REMARK    4  A    between atoms: O3_13  and  C5_14 
REMARK    5  A    between atoms: C5_14  and  N3_15 
REMARK       I    between atoms: N3_15  and  C6_17 
REMARK    6  A    between atoms: C6_17  and  C7_19 
REMARK    7  A    between atoms: C7_19  and  N4_20 
REMARK    8  A    between atoms: C9_26  and  S1_27 
REMARK    9  A    between atoms: S1_27  and  O7_30 
REMARK   10  A    between atoms: O7_30  and  N7_31 
REMARK   11  A    between atoms: N7_31  and  C10_33 
REMARK   12  A    between atoms: C10_33  and  C11_37 
REMARK   13  A    between atoms: C12_38  and  O8_39 
REMARK   14  A    between atoms: N9_41  and  N10_42 
REMARK   15  A    between atoms: N11_47  and  N12_48 
REMARK   16  A    between atoms: C14_51  and  N13_52 
ROOT
HETATM    1  S1  UNL     1      23.871   6.642  10.344  1.00  0.00     0.352 S 
HETATM    2  O5  UNL     1      22.580   5.921  10.162  1.00  0.00    -0.188 OA
HETATM    3  O6  UNL     1      23.534   8.043  10.791  1.00  0.00    -0.188 OA
ENDROOT
BRANCH   1   4
HETATM    4  C9  UNL     1      24.867   5.803  11.500  1.00  0.00     0.251 A 
HETATM    5  N4  UNL     1      26.176   5.671  11.509  1.00  0.00    -0.255 N 
HETATM    6  N5  UNL     1      26.560   5.007  12.620  1.00  0.00    -0.291 N 
HETATM    7  C8  UNL     1      25.462   4.717  13.315  1.00  0.00     0.199 A 
ATOM      8  H5  UNL     1      27.517   4.771  12.881  1.00  0.00     0.188 HD
HETATM    9  N6  UNL     1      24.416   5.197  12.642  1.00  0.00    -0.325 N 
ATOM     10  H6  UNL     1      23.440   5.126  12.930  1.00  0.00     0.169 HD
BRANCH   5  11
HETATM   11  C7  UNL     1      27.174   6.054  10.516  1.00  0.00     0.254 C 
BRANCH  11  12
HETATM   12  C6  UNL     1      28.152   6.973  11.135  1.00  0.00     0.239 C 
HETATM   13  N3  UNL     1      29.206   6.410  11.920  1.00  0.00    -0.338 N 
ATOM     14  H3  UNL     1      29.259   5.398  12.038  1.00  0.00     0.164 HD
HETATM   15  O4  UNL     1      28.129   8.232  11.022  1.00  0.00    -0.272 OA
BRANCH  13  16
HETATM   16  C5  UNL     1      30.202   7.256  12.550  1.00  0.00     0.306 C 
BRANCH  16  17
HETATM   17  O3  UNL     1      30.318   6.984  13.943  1.00  0.00    -0.284 OA
BRANCH  17  18
HETATM   18  C4  UNL     1      29.233   6.371  14.590  1.00  0.00     0.368 C 
HETATM   19  N2  UNL     1      29.297   5.062  15.135  1.00  0.00    -0.271 N 
HETATM   20  C3  UNL     1      28.156   4.535  15.793  1.00  0.00     0.256 C 
ATOM     21  H2  UNL     1      30.150   4.509  15.056  1.00  0.00     0.174 HD
HETATM   22  O1  UNL     1      27.108   5.260  15.868  1.00  0.00    -0.271 OA
HETATM   23  O2  UNL     1      28.177   7.048  14.671  1.00  0.00    -0.238 OA
BRANCH  20  24
HETATM   24  C2  UNL     1      28.136   3.180  16.396  1.00  0.00     0.271 C 
HETATM   25  C1  UNL     1      29.227   2.316  15.787  1.00  0.00     0.050 C 
BRANCH  24  26
HETATM   26  N1  UNL     1      28.297   3.267  17.827  1.00  0.00    -0.067 N 
ATOM     27  H13 UNL     1      28.230   4.230  18.158  1.00  0.00     0.275 HD
ATOM     28  H12 UNL     1      27.494   2.879  18.321  1.00  0.00     0.275 HD
ATOM     29  H11 UNL     1      29.170   2.826  18.117  1.00  0.00     0.275 HD
ENDBRANCH  24  26
ENDBRANCH  20  24
ENDBRANCH  17  18
ENDBRANCH  16  17
ENDBRANCH  13  16
ENDBRANCH  11  12
ENDBRANCH   5  11
ENDBRANCH   1   4
BRANCH   1  30
HETATM   30  O7  UNL     1      24.597   6.707   8.832  1.00  0.00    -0.143 OA
BRANCH  30  31
HETATM   31  N7  UNL     1      24.652   5.494   8.223  1.00  0.00    -0.232 N 
ATOM     32  H7  UNL     1      24.060   4.754   8.599  1.00  0.00     0.197 HD
BRANCH  31  33
HETATM   33  C10 UNL     1      25.460   5.177   7.118  1.00  0.00     0.138 C 
HETATM   34  N8  UNL     1      26.167   4.086   7.158  1.00  0.00    -0.383 N 
ATOM     35  H82 UNL     1      26.098   3.509   7.995  1.00  0.00     0.157 HD
ATOM     36  H81 UNL     1      26.753   3.856   6.355  1.00  0.00     0.157 HD
BRANCH  33  37
HETATM   37  C11 UNL     1      25.557   5.998   5.925  1.00  0.00     0.107 A 
HETATM   38  C12 UNL     1      26.671   6.692   5.524  1.00  0.00     0.181 A 
HETATM   39  N9  UNL     1      26.693   7.446   4.385  1.00  0.00    -0.211 N 
HETATM   40  C13 UNL     1      25.606   7.537   3.609  1.00  0.00     0.222 A 
HETATM   41  S2  UNL     1      25.569   8.422   2.238  1.00  0.00    -0.037 SA
HETATM   42  N11 UNL     1      24.474   6.866   3.967  1.00  0.00    -0.218 N 
HETATM   43  C14 UNL     1      24.446   6.124   5.081  1.00  0.00     0.141 A 
BRANCH  38  44
HETATM   44  O8  UNL     1      27.814   6.639   6.275  1.00  0.00    -0.344 OA
ATOM     45  H8  UNL     1      27.829   6.133   7.080  1.00  0.00     0.219 HD
ENDBRANCH  38  44
BRANCH  39  46
HETATM   46  N10 UNL     1      27.850   8.143   3.994  1.00  0.00    -0.334 N 
ATOM     47 2H10 UNL     1      28.720   7.619   3.902  1.00  0.00     0.177 HD
ATOM     48 1H10 UNL     1      27.825   9.146   3.807  1.00  0.00     0.177 HD
ENDBRANCH  39  46
BRANCH  42  49
HETATM   49  N12 UNL     1      23.324   6.935   3.179  1.00  0.00    -0.335 N 
ATOM     50 2H12 UNL     1      22.434   7.149   3.628  1.00  0.00     0.177 HD
ATOM     51 1H12 UNL     1      23.370   6.771   2.173  1.00  0.00     0.177 HD
ENDBRANCH  42  49
BRANCH  43  52
HETATM   52  N13 UNL     1      23.375   5.506   5.397  1.00  0.00    -0.383 N 
ATOM     53 2H13 UNL     1      23.437   4.591   5.845  1.00  0.00     0.157 HD
ATOM     54 1H13 UNL     1      22.482   5.950   5.188  1.00  0.00     0.157 HD
ENDBRANCH  43  52
ENDBRANCH  33  37
ENDBRANCH  31  33
ENDBRANCH  30  31
ENDBRANCH   1  30
TORSDOF 16
ENDMDL
MODEL 5
REMARK VINA RESULT: -8.805958674      1.743      2.398
REMARK  16 active torsions:
REMARK  status: ('A' for Active; 'I' for Inactive)
REMARK    1  A    between atoms: C2_2  and  N1_3 
REMARK    2  A    between atoms: C2_2  and  C3_7 
REMARK       I    between atoms: C3_7  and  N2_9 
REMARK       I    between atoms: N2_9  and  C4_11 
REMARK    3  A    between atoms: C4_11  and  O3_13 
REMARK    4  A    between atoms: O3_13  and  C5_14 
REMARK    5  A    between atoms: C5_14  and  N3_15 
REMARK       I    between atoms: N3_15  and  C6_17 
REMARK    6  A    between atoms: C6_17  and  C7_19 
REMARK    7  A    between atoms: C7_19  and  N4_20 
REMARK    8  A    between atoms: C9_26  and  S1_27 
REMARK    9  A    between atoms: S1_27  and  O7_30 
REMARK   10  A    between atoms: O7_30  and  N7_31 
REMARK   11  A    between atoms: N7_31  and  C10_33 
REMARK   12  A    between atoms: C10_33  and  C11_37 
REMARK   13  A    between atoms: C12_38  and  O8_39 
REMARK   14  A    between atoms: N9_41  and  N10_42 
REMARK   15  A    between atoms: N11_47  and  N12_48 
REMARK   16  A    between atoms: C14_51  and  N13_52 
ROOT
HETATM    1  S1  UNL     1      26.108   5.417  12.335  1.00  0.00     0.352 S 
HETATM    2  O5  UNL     1      26.266   6.535  13.307  1.00  0.00    -0.188 OA
HETATM    3  O6  UNL     1      25.468   4.273  13.079  1.00  0.00    -0.188 OA
ENDROOT
BRANCH   1   4
HETATM    4  C9  UNL     1      25.151   5.938  10.976  1.00  0.00     0.251 A 
HETATM    5  N4  UNL     1      25.284   5.613   9.708  1.00  0.00    -0.255 N 
HETATM    6  N5  UNL     1      24.293   6.176   8.986  1.00  0.00    -0.291 N 
HETATM    7  C8  UNL     1      23.528   6.871   9.825  1.00  0.00     0.199 A 
ATOM      8  H5  UNL     1      24.154   6.086   7.979  1.00  0.00     0.188 HD
HETATM    9  N6  UNL     1      24.041   6.736  11.049  1.00  0.00    -0.325 N 
ATOM     10  H6  UNL     1      23.667   7.157  11.899  1.00  0.00     0.169 HD
BRANCH   5  11
HETATM   11  C7  UNL     1      26.324   4.846   9.031  1.00  0.00     0.254 C 
BRANCH  11  12
HETATM   12  C6  UNL     1      26.355   5.218   7.602  1.00  0.00     0.239 C 
HETATM   13  N3  UNL     1      25.893   4.262   6.644  1.00  0.00    -0.338 N 
ATOM     14  H3  UNL     1      25.559   3.353   6.962  1.00  0.00     0.164 HD
HETATM   15  O4  UNL     1      26.764   6.328   7.155  1.00  0.00    -0.272 OA
BRANCH  13  16
HETATM   16  C5  UNL     1      25.893   4.568   5.225  1.00  0.00     0.306 C 
BRANCH  16  17
HETATM   17  O3  UNL     1      24.618   5.027   4.786  1.00  0.00    -0.284 OA
BRANCH  17  18
HETATM   18  C4  UNL     1      24.538   6.305   4.210  1.00  0.00     0.368 C 
HETATM   19  N2  UNL     1      25.612   7.232   4.230  1.00  0.00    -0.271 N 
HETATM   20  C3  UNL     1      25.445   8.491   3.600  1.00  0.00     0.256 C 
ATOM     21  H2  UNL     1      26.491   6.996   4.690  1.00  0.00     0.174 HD
HETATM   22  O1  UNL     1      24.328   8.747   3.037  1.00  0.00    -0.271 OA
HETATM   23  O2  UNL     1      23.447   6.600   3.659  1.00  0.00    -0.238 OA
BRANCH  20  24
HETATM   24  C2  UNL     1      26.516   9.517   3.568  1.00  0.00     0.271 C 
HETATM   25  C1  UNL     1      25.957  10.875   3.954  1.00  0.00     0.050 C 
BRANCH  24  26
HETATM   26  N1  UNL     1      27.594   9.142   4.449  1.00  0.00    -0.067 N 
ATOM     27  H13 UNL     1      27.591   9.693   5.308  1.00  0.00     0.275 HD
ATOM     28  H12 UNL     1      27.444   8.220   4.859  1.00  0.00     0.275 HD
ATOM     29  H11 UNL     1      28.490   9.200   3.966  1.00  0.00     0.275 HD
ENDBRANCH  24  26
ENDBRANCH  20  24
ENDBRANCH  17  18
ENDBRANCH  16  17
ENDBRANCH  13  16
ENDBRANCH  11  12
ENDBRANCH   5  11
ENDBRANCH   1   4
BRANCH   1  30
HETATM   30  O7  UNL     1      27.657   4.972  11.866  1.00  0.00    -0.143 OA
BRANCH  30  31
HETATM   31  N7  UNL     1      28.598   5.882  12.226  1.00  0.00    -0.232 N 
ATOM     32  H7  UNL     1      28.736   6.683  11.609  1.00  0.00     0.197 HD
BRANCH  31  33
HETATM   33  C10 UNL     1      29.397   5.811  13.380  1.00  0.00     0.138 C 
HETATM   34  N8  UNL     1      30.220   6.787  13.627  1.00  0.00    -0.383 N 
ATOM     35  H82 UNL     1      30.244   7.563  12.967  1.00  0.00     0.157 HD
ATOM     36  H81 UNL     1      30.801   6.735  14.464  1.00  0.00     0.157 HD
BRANCH  33  37
HETATM   37  C11 UNL     1      29.364   4.705  14.319  1.00  0.00     0.107 A 
HETATM   38  C12 UNL     1      28.552   4.621  15.423  1.00  0.00     0.181 A 
HETATM   39  N9  UNL     1      28.572   3.545  16.266  1.00  0.00    -0.211 N 
HETATM   40  C13 UNL     1      29.402   2.520  16.040  1.00  0.00     0.222 A 
HETATM   41  S2  UNL     1      29.472   1.209  17.009  1.00  0.00    -0.037 SA
HETATM   42  N11 UNL     1      30.229   2.558  14.956  1.00  0.00    -0.218 N 
HETATM   43  C14 UNL     1      30.213   3.608  14.125  1.00  0.00     0.141 A 
BRANCH  38  44
HETATM   44  O8  UNL     1      27.681   5.638  15.707  1.00  0.00    -0.344 OA
ATOM     45  H8  UNL     1      26.805   5.628  15.340  1.00  0.00     0.219 HD
ENDBRANCH  38  44
BRANCH  39  46
HETATM   46  N10 UNL     1      27.725   3.482  17.386  1.00  0.00    -0.334 N 
ATOM     47 2H10 UNL     1      27.028   4.217  17.507  1.00  0.00     0.177 HD
ATOM     48 1H10 UNL     1      27.802   2.724  18.065  1.00  0.00     0.177 HD
ENDBRANCH  39  46
BRANCH  42  49
HETATM   49  N12 UNL     1      31.103   1.504  14.688  1.00  0.00    -0.335 N 
ATOM     50 2H12 UNL     1      31.430   0.929  15.465  1.00  0.00     0.177 HD
ATOM     51 1H12 UNL     1      31.414   1.313  13.735  1.00  0.00     0.177 HD
ENDBRANCH  42  49
BRANCH  43  52
HETATM   52  N13 UNL     1      30.997   3.623  13.118  1.00  0.00    -0.383 N 
ATOM     53 2H13 UNL     1      31.936   4.009  13.218  1.00  0.00     0.157 HD
ATOM     54 1H13 UNL     1      30.655   3.247  12.234  1.00  0.00     0.157 HD
ENDBRANCH  43  52
ENDBRANCH  33  37
ENDBRANCH  31  33
ENDBRANCH  30  31
ENDBRANCH   1  30
TORSDOF 16
ENDMDL
