MODEL 1
REMARK VINA RESULT: -8.453279208      0.000      0.000
REMARK  12 active torsions:
REMARK  status: ('A' for Active; 'I' for Inactive)
REMARK    1  A    between atoms: C2_2  and  C3_3 
REMARK    2  A    between atoms: C4_4  and  C5_5 
REMARK    3  A    between atoms: C6_6  and  C7_7 
REMARK    4  A    between atoms: C10_11  and  C11_12 
REMARK    5  A    between atoms: C11_12  and  O3_14 
REMARK    6  A    between atoms: O3_14  and  C12_15 
REMARK    7  A    between atoms: C12_15  and  C13_16 
REMARK    8  A    between atoms: C13_16  and  C15_18 
REMARK    9  A    between atoms: C18_23  and  C19_24 
REMARK   10  A    between atoms: C19_24  and  C20_25 
REMARK   11  A    between atoms: C21_26  and  C22_27 
REMARK   12  A    between atoms: C22_27  and  C23_28 
ROOT
HETATM    1  C15 UNL     1      15.131 -25.067   1.788  1.00  0.00     0.030 C 
HETATM    2  C16 UNL     1      16.030 -26.257   1.588  1.00  0.00     0.118 C 
HETATM    3  C17 UNL     1      15.293 -27.229   0.700  1.00  0.00     0.259 C 
HETATM    4  O4  UNL     1      15.589 -28.427   0.513  1.00  0.00    -0.265 OA
HETATM    5  O5  UNL     1      14.254 -26.532   0.156  1.00  0.00    -0.315 OA
HETATM    6  C18 UNL     1      13.895 -25.437   0.998  1.00  0.00     0.140 C 
ENDROOT
BRANCH   1   7
HETATM    7  C13 UNL     1      15.715 -23.781   1.449  1.00  0.00     0.013 C 
HETATM    8  C14 UNL     1      17.047 -23.888   0.688  1.00  0.00     0.012 C 
BRANCH   7   9
HETATM    9  C12 UNL     1      14.938 -22.733   0.797  1.00  0.00     0.183 C 
BRANCH   9  10
HETATM   10  O3  UNL     1      15.401 -21.709   0.060  1.00  0.00    -0.320 OA
BRANCH  10  11
HETATM   11  C11 UNL     1      15.474 -20.393   0.350  1.00  0.00     0.271 C 
HETATM   12  O2  UNL     1      14.425 -19.673   0.288  1.00  0.00    -0.264 OA
BRANCH  11  13
HETATM   13  C10 UNL     1      16.749 -19.715   0.748  1.00  0.00     0.164 C 
HETATM   14  C3  UNL     1      17.880 -20.155  -0.149  1.00  0.00     0.043 C 
HETATM   15  C4  UNL     1      18.758 -20.211   1.098  1.00  0.00     0.087 C 
HETATM   16  C9  UNL     1      17.470 -20.321   1.873  1.00  0.00     0.149 C 
HETATM   17  O1  UNL     1      17.205 -20.740   2.956  1.00  0.00    -0.296 OA
BRANCH  14  18
HETATM   18  C2  UNL     1      18.309 -19.168  -1.155  1.00  0.00    -0.030 C 
HETATM   19  C1  UNL     1      19.378 -18.435  -0.944  1.00  0.00     0.007 C 
ENDBRANCH  14  18
BRANCH  15  20
HETATM   20  C5  UNL     1      19.557 -21.459   1.104  1.00  0.00    -0.018 C 
HETATM   21  C6  UNL     1      20.781 -21.595   1.538  1.00  0.00    -0.030 C 
BRANCH  21  22
HETATM   22  C7  UNL     1      21.564 -20.495   2.100  1.00  0.00     0.022 C 
HETATM   23  C8  UNL     1      22.576 -19.976   1.078  1.00  0.00     0.009 C 
ENDBRANCH  21  22
ENDBRANCH  15  20
ENDBRANCH  11  13
ENDBRANCH  10  11
ENDBRANCH   9  10
ENDBRANCH   7   9
ENDBRANCH   1   7
BRANCH   6  24
HETATM   24  C19 UNL     1      12.764 -25.953   1.863  1.00  0.00     0.059 C 
BRANCH  24  25
HETATM   25  C20 UNL     1      11.572 -25.074   1.865  1.00  0.00    -0.028 C 
HETATM   26  C21 UNL     1      11.062 -24.447   2.892  1.00  0.00    -0.030 C 
BRANCH  26  27
HETATM   27  C22 UNL     1      11.522 -24.442   4.288  1.00  0.00     0.032 C 
BRANCH  27  28
HETATM   28  C23 UNL     1      12.837 -23.728   4.356  1.00  0.00    -0.003 C 
HETATM   29  C24 UNL     1      12.736 -22.246   4.563  1.00  0.00    -0.009 C 
HETATM   30  C25 UNL     1      14.148 -21.697   4.302  1.00  0.00     0.010 C 
HETATM   31  C29 UNL     1      12.343 -21.886   5.967  1.00  0.00     0.010 C 
HETATM   32  C26 UNL     1      15.135 -22.339   5.229  1.00  0.00    -0.013 C 
HETATM   33  C27 UNL     1      14.748 -21.985   6.651  1.00  0.00     0.009 C 
HETATM   34  C32 UNL     1      15.136 -23.839   5.096  1.00  0.00     0.010 C 
HETATM   35  C28 UNL     1      13.355 -22.458   6.914  1.00  0.00    -0.013 C 
HETATM   36  C30 UNL     1      13.334 -23.965   6.782  1.00  0.00     0.010 C 
HETATM   37  C31 UNL     1      13.736 -24.357   5.397  1.00  0.00    -0.009 C 
ENDBRANCH  27  28
ENDBRANCH  26  27
ENDBRANCH  24  25
ENDBRANCH   6  24
TORSDOF 12
ENDMDL
MODEL 2
REMARK VINA RESULT: -8.329332595      4.264      7.303
REMARK  12 active torsions:
REMARK  status: ('A' for Active; 'I' for Inactive)
REMARK    1  A    between atoms: C2_2  and  C3_3 
REMARK    2  A    between atoms: C4_4  and  C5_5 
REMARK    3  A    between atoms: C6_6  and  C7_7 
REMARK    4  A    between atoms: C10_11  and  C11_12 
REMARK    5  A    between atoms: C11_12  and  O3_14 
REMARK    6  A    between atoms: O3_14  and  C12_15 
REMARK    7  A    between atoms: C12_15  and  C13_16 
REMARK    8  A    between atoms: C13_16  and  C15_18 
REMARK    9  A    between atoms: C18_23  and  C19_24 
REMARK   10  A    between atoms: C19_24  and  C20_25 
REMARK   11  A    between atoms: C21_26  and  C22_27 
REMARK   12  A    between atoms: C22_27  and  C23_28 
ROOT
HETATM    1  C15 UNL     1      10.750 -21.840   3.299  1.00  0.00     0.030 C 
HETATM    2  C16 UNL     1      10.294 -23.267   3.442  1.00  0.00     0.118 C 
HETATM    3  C17 UNL     1       8.803 -23.237   3.667  1.00  0.00     0.259 C 
HETATM    4  O4  UNL     1       8.101 -24.183   4.080  1.00  0.00    -0.265 OA
HETATM    5  O5  UNL     1       8.393 -21.981   3.330  1.00  0.00    -0.315 OA
HETATM    6  C18 UNL     1       9.469 -21.053   3.469  1.00  0.00     0.140 C 
ENDROOT
BRANCH   1   7
HETATM    7  C13 UNL     1      11.499 -21.543   2.090  1.00  0.00     0.013 C 
HETATM    8  C14 UNL     1      12.515 -20.401   2.258  1.00  0.00     0.012 C 
BRANCH   7   9
HETATM    9  C12 UNL     1      12.161 -22.591   1.321  1.00  0.00     0.183 C 
BRANCH   9  10
HETATM   10  O3  UNL     1      13.063 -23.485   1.763  1.00  0.00    -0.320 OA
BRANCH  10  11
HETATM   11  C11 UNL     1      14.397 -23.364   1.924  1.00  0.00     0.271 C 
HETATM   12  O2  UNL     1      15.151 -23.267   0.901  1.00  0.00    -0.264 OA
BRANCH  11  13
HETATM   13  C10 UNL     1      15.058 -23.338   3.268  1.00  0.00     0.164 C 
HETATM   14  C3  UNL     1      14.021 -23.252   4.360  1.00  0.00     0.043 C 
HETATM   15  C4  UNL     1      14.941 -22.258   5.063  1.00  0.00     0.087 C 
HETATM   16  C9  UNL     1      15.559 -22.031   3.708  1.00  0.00     0.149 C 
HETATM   17  O1  UNL     1      16.188 -21.134   3.239  1.00  0.00    -0.296 OA
BRANCH  14  18
HETATM   18  C2  UNL     1      13.786 -24.500   5.108  1.00  0.00    -0.030 C 
HETATM   19  C1  UNL     1      12.573 -24.816   5.497  1.00  0.00     0.007 C 
ENDBRANCH  14  18
BRANCH  15  20
HETATM   20  C5  UNL     1      14.160 -21.099   5.555  1.00  0.00    -0.018 C 
HETATM   21  C6  UNL     1      14.028 -20.723   6.799  1.00  0.00    -0.030 C 
BRANCH  21  22
HETATM   22  C7  UNL     1      14.659 -21.417   7.922  1.00  0.00     0.022 C 
HETATM   23  C8  UNL     1      13.892 -22.695   8.264  1.00  0.00     0.009 C 
ENDBRANCH  21  22
ENDBRANCH  15  20
ENDBRANCH  11  13
ENDBRANCH  10  11
ENDBRANCH   9  10
ENDBRANCH   7   9
ENDBRANCH   1   7
BRANCH   6  24
HETATM   24  C19 UNL     1       9.310 -20.461   4.853  1.00  0.00     0.059 C 
BRANCH  24  25
HETATM   25  C20 UNL     1      10.580 -19.972   5.436  1.00  0.00    -0.028 C 
HETATM   26  C21 UNL     1      11.031 -18.745   5.416  1.00  0.00    -0.030 C 
BRANCH  26  27
HETATM   27  C22 UNL     1      10.414 -17.548   4.826  1.00  0.00     0.032 C 
BRANCH  27  28
HETATM   28  C23 UNL     1      10.735 -17.516   3.364  1.00  0.00    -0.003 C 
HETATM   29  C24 UNL     1       9.541 -17.437   2.460  1.00  0.00    -0.009 C 
HETATM   30  C25 UNL     1      10.075 -17.716   1.046  1.00  0.00     0.010 C 
HETATM   31  C29 UNL     1       8.906 -16.076   2.464  1.00  0.00     0.010 C 
HETATM   32  C26 UNL     1      11.134 -16.720   0.685  1.00  0.00    -0.013 C 
HETATM   33  C27 UNL     1      10.506 -15.340   0.686  1.00  0.00     0.009 C 
HETATM   34  C32 UNL     1      12.271 -16.725   1.672  1.00  0.00     0.010 C 
HETATM   35  C28 UNL     1       9.927 -15.065   2.036  1.00  0.00    -0.013 C 
HETATM   36  C30 UNL     1      11.055 -15.069   3.045  1.00  0.00     0.010 C 
HETATM   37  C31 UNL     1      11.719 -16.409   3.055  1.00  0.00    -0.009 C 
ENDBRANCH  27  28
ENDBRANCH  26  27
ENDBRANCH  24  25
ENDBRANCH   6  24
TORSDOF 12
ENDMDL
MODEL 3
REMARK VINA RESULT: -8.294330880      4.033      7.505
REMARK  12 active torsions:
REMARK  status: ('A' for Active; 'I' for Inactive)
REMARK    1  A    between atoms: C2_2  and  C3_3 
REMARK    2  A    between atoms: C4_4  and  C5_5 
REMARK    3  A    between atoms: C6_6  and  C7_7 
REMARK    4  A    between atoms: C10_11  and  C11_12 
REMARK    5  A    between atoms: C11_12  and  O3_14 
REMARK    6  A    between atoms: O3_14  and  C12_15 
REMARK    7  A    between atoms: C12_15  and  C13_16 
REMARK    8  A    between atoms: C13_16  and  C15_18 
REMARK    9  A    between atoms: C18_23  and  C19_24 
REMARK   10  A    between atoms: C19_24  and  C20_25 
REMARK   11  A    between atoms: C21_26  and  C22_27 
REMARK   12  A    between atoms: C22_27  and  C23_28 
ROOT
HETATM    1  C15 UNL     1      12.654 -18.306   0.643  1.00  0.00     0.030 C 
HETATM    2  C16 UNL     1      13.697 -17.668   1.520  1.00  0.00     0.118 C 
HETATM    3  C17 UNL     1      15.040 -18.162   1.046  1.00  0.00     0.259 C 
HETATM    4  O4  UNL     1      16.121 -18.068   1.664  1.00  0.00    -0.265 OA
HETATM    5  O5  UNL     1      14.828 -18.723  -0.179  1.00  0.00    -0.315 OA
HETATM    6  C18 UNL     1      13.475 -19.161  -0.297  1.00  0.00     0.140 C 
ENDROOT
BRANCH   1   7
HETATM    7  C13 UNL     1      11.737 -17.385  -0.006  1.00  0.00     0.013 C 
HETATM    8  C14 UNL     1      10.358 -17.997  -0.308  1.00  0.00     0.012 C 
BRANCH   7   9
HETATM    9  C12 UNL     1      11.501 -16.043   0.513  1.00  0.00     0.183 C 
BRANCH   9  10
HETATM   10  O3  UNL     1      10.664 -15.683   1.502  1.00  0.00    -0.320 OA
BRANCH  10  11
HETATM   11  C11 UNL     1      10.810 -15.783   2.840  1.00  0.00     0.271 C 
HETATM   12  O2  UNL     1      11.638 -15.026   3.444  1.00  0.00    -0.264 OA
BRANCH  11  13
HETATM   13  C10 UNL     1      10.035 -16.756   3.675  1.00  0.00     0.164 C 
HETATM   14  C3  UNL     1      10.648 -18.132   3.581  1.00  0.00     0.043 C 
HETATM   15  C4  UNL     1       9.228 -18.686   3.508  1.00  0.00     0.087 C 
HETATM   16  C9  UNL     1       8.824 -17.307   3.055  1.00  0.00     0.149 C 
HETATM   17  O1  UNL     1       7.890 -16.890   2.444  1.00  0.00    -0.296 OA
BRANCH  14  18
HETATM   18  C2  UNL     1      11.412 -18.565   4.764  1.00  0.00    -0.030 C 
HETATM   19  C1  UNL     1      12.713 -18.394   4.807  1.00  0.00     0.007 C 
ENDBRANCH  14  18
BRANCH  15  20
HETATM   20  C5  UNL     1       9.134 -19.707   2.438  1.00  0.00    -0.018 C 
HETATM   21  C6  UNL     1       9.071 -21.001   2.604  1.00  0.00    -0.030 C 
BRANCH  21  22
HETATM   22  C7  UNL     1       9.083 -21.648   3.916  1.00  0.00     0.022 C 
HETATM   23  C8  UNL     1       9.054 -23.169   3.767  1.00  0.00     0.009 C 
ENDBRANCH  21  22
ENDBRANCH  15  20
ENDBRANCH  11  13
ENDBRANCH  10  11
ENDBRANCH   9  10
ENDBRANCH   7   9
ENDBRANCH   1   7
BRANCH   6  24
HETATM   24  C19 UNL     1      13.494 -20.625   0.090  1.00  0.00     0.059 C 
BRANCH  24  25
HETATM   25  C20 UNL     1      12.416 -21.002   1.033  1.00  0.00    -0.028 C 
HETATM   26  C21 UNL     1      12.552 -21.645   2.163  1.00  0.00    -0.030 C 
BRANCH  26  27
HETATM   27  C22 UNL     1      13.781 -22.153   2.790  1.00  0.00     0.032 C 
BRANCH  27  28
HETATM   28  C23 UNL     1      13.723 -21.864   4.258  1.00  0.00    -0.003 C 
HETATM   29  C24 UNL     1      12.500 -22.385   4.953  1.00  0.00    -0.009 C 
HETATM   30  C25 UNL     1      12.505 -21.730   6.344  1.00  0.00     0.010 C 
HETATM   31  C29 UNL     1      12.533 -23.876   5.135  1.00  0.00     0.010 C 
HETATM   32  C26 UNL     1      13.768 -22.070   7.074  1.00  0.00    -0.013 C 
HETATM   33  C27 UNL     1      13.815 -23.573   7.263  1.00  0.00     0.009 C 
HETATM   34  C32 UNL     1      14.992 -21.649   6.305  1.00  0.00     0.010 C 
HETATM   35  C28 UNL     1      13.753 -24.239   5.926  1.00  0.00    -0.013 C 
HETATM   36  C30 UNL     1      14.976 -23.827   5.135  1.00  0.00     0.010 C 
HETATM   37  C31 UNL     1      14.980 -22.343   4.950  1.00  0.00    -0.009 C 
ENDBRANCH  27  28
ENDBRANCH  26  27
ENDBRANCH  24  25
ENDBRANCH   6  24
TORSDOF 12
ENDMDL
MODEL 4
REMARK VINA RESULT: -8.260991146      4.528      7.949
REMARK  12 active torsions:
REMARK  status: ('A' for Active; 'I' for Inactive)
REMARK    1  A    between atoms: C2_2  and  C3_3 
REMARK    2  A    between atoms: C4_4  and  C5_5 
REMARK    3  A    between atoms: C6_6  and  C7_7 
REMARK    4  A    between atoms: C10_11  and  C11_12 
REMARK    5  A    between atoms: C11_12  and  O3_14 
REMARK    6  A    between atoms: O3_14  and  C12_15 
REMARK    7  A    between atoms: C12_15  and  C13_16 
REMARK    8  A    between atoms: C13_16  and  C15_18 
REMARK    9  A    between atoms: C18_23  and  C19_24 
REMARK   10  A    between atoms: C19_24  and  C20_25 
REMARK   11  A    between atoms: C21_26  and  C22_27 
REMARK   12  A    between atoms: C22_27  and  C23_28 
ROOT
HETATM    1  C15 UNL     1       9.537 -17.578   2.436  1.00  0.00     0.030 C 
HETATM    2  C16 UNL     1       9.190 -16.161   2.806  1.00  0.00     0.118 C 
HETATM    3  C17 UNL     1      10.489 -15.407   2.942  1.00  0.00     0.259 C 
HETATM    4  O4  UNL     1      10.640 -14.289   3.477  1.00  0.00    -0.265 OA
HETATM    5  O5  UNL     1      11.446 -16.190   2.366  1.00  0.00    -0.315 OA
HETATM    6  C18 UNL     1      11.049 -17.561   2.395  1.00  0.00     0.140 C 
ENDROOT
BRANCH   1   7
HETATM    7  C13 UNL     1       8.895 -18.084   1.236  1.00  0.00     0.013 C 
HETATM    8  C14 UNL     1       9.885 -18.509   0.138  1.00  0.00     0.012 C 
BRANCH   7   9
HETATM    9  C12 UNL     1       7.860 -19.111   1.293  1.00  0.00     0.183 C 
BRANCH   9  10
HETATM   10  O3  UNL     1       7.740 -20.102   2.193  1.00  0.00    -0.320 OA
BRANCH  10  11
HETATM   11  C11 UNL     1       8.137 -21.390   2.123  1.00  0.00     0.271 C 
HETATM   12  O2  UNL     1       7.456 -22.226   1.443  1.00  0.00    -0.264 OA
BRANCH  11  13
HETATM   13  C10 UNL     1       9.360 -21.906   2.818  1.00  0.00     0.164 C 
HETATM   14  C3  UNL     1      10.410 -22.299   1.809  1.00  0.00     0.043 C 
HETATM   15  C4  UNL     1      10.691 -23.522   2.677  1.00  0.00     0.087 C 
HETATM   16  C9  UNL     1       9.310 -23.311   3.240  1.00  0.00     0.149 C 
HETATM   17  O1  UNL     1       8.536 -24.029   3.792  1.00  0.00    -0.296 OA
BRANCH  14  18
HETATM   18  C2  UNL     1      11.544 -21.366   1.681  1.00  0.00    -0.030 C 
HETATM   19  C1  UNL     1      12.498 -21.604   0.811  1.00  0.00     0.007 C 
ENDBRANCH  14  18
BRANCH  15  20
HETATM   20  C5  UNL     1      10.804 -24.733   1.831  1.00  0.00    -0.018 C 
HETATM   21  C6  UNL     1      11.766 -25.616   1.864  1.00  0.00    -0.030 C 
BRANCH  21  22
HETATM   22  C7  UNL     1      12.908 -25.532   2.774  1.00  0.00     0.022 C 
HETATM   23  C8  UNL     1      14.179 -25.161   2.010  1.00  0.00     0.009 C 
ENDBRANCH  21  22
ENDBRANCH  15  20
ENDBRANCH  11  13
ENDBRANCH  10  11
ENDBRANCH   9  10
ENDBRANCH   7   9
ENDBRANCH   1   7
BRANCH   6  24
HETATM   24  C19 UNL     1      11.688 -18.135   3.642  1.00  0.00     0.059 C 
BRANCH  24  25
HETATM   25  C20 UNL     1      10.801 -19.054   4.391  1.00  0.00    -0.028 C 
HETATM   26  C21 UNL     1      11.138 -19.827   5.391  1.00  0.00    -0.030 C 
BRANCH  26  27
HETATM   27  C22 UNL     1      12.453 -19.988   6.027  1.00  0.00     0.032 C 
BRANCH  27  28
HETATM   28  C23 UNL     1      12.662 -21.438   6.332  1.00  0.00    -0.003 C 
HETATM   29  C24 UNL     1      12.579 -22.349   5.143  1.00  0.00    -0.009 C 
HETATM   30  C25 UNL     1      12.522 -23.774   5.718  1.00  0.00     0.010 C 
HETATM   31  C29 UNL     1      13.785 -22.247   4.255  1.00  0.00     0.010 C 
HETATM   32  C26 UNL     1      13.731 -24.042   6.562  1.00  0.00    -0.013 C 
HETATM   33  C27 UNL     1      14.957 -23.941   5.676  1.00  0.00     0.009 C 
HETATM   34  C32 UNL     1      13.868 -23.044   7.680  1.00  0.00     0.010 C 
HETATM   35  C28 UNL     1      15.006 -22.581   5.058  1.00  0.00    -0.013 C 
HETATM   36  C30 UNL     1      15.142 -21.562   6.167  1.00  0.00     0.010 C 
HETATM   37  C31 UNL     1      13.961 -21.647   7.080  1.00  0.00    -0.009 C 
ENDBRANCH  27  28
ENDBRANCH  26  27
ENDBRANCH  24  25
ENDBRANCH   6  24
TORSDOF 12
ENDMDL
MODEL 5
REMARK VINA RESULT: -8.247692761      4.679      7.964
REMARK  12 active torsions:
REMARK  status: ('A' for Active; 'I' for Inactive)
REMARK    1  A    between atoms: C2_2  and  C3_3 
REMARK    2  A    between atoms: C4_4  and  C5_5 
REMARK    3  A    between atoms: C6_6  and  C7_7 
REMARK    4  A    between atoms: C10_11  and  C11_12 
REMARK    5  A    between atoms: C11_12  and  O3_14 
REMARK    6  A    between atoms: O3_14  and  C12_15 
REMARK    7  A    between atoms: C12_15  and  C13_16 
REMARK    8  A    between atoms: C13_16  and  C15_18 
REMARK    9  A    between atoms: C18_23  and  C19_24 
REMARK   10  A    between atoms: C19_24  and  C20_25 
REMARK   11  A    between atoms: C21_26  and  C22_27 
REMARK   12  A    between atoms: C22_27  and  C23_28 
ROOT
HETATM    1  C15 UNL     1      11.951 -19.974   3.510  1.00  0.00     0.030 C 
HETATM    2  C16 UNL     1      12.774 -18.871   2.902  1.00  0.00     0.118 C 
HETATM    3  C17 UNL     1      13.351 -18.066   4.040  1.00  0.00     0.259 C 
HETATM    4  O4  UNL     1      13.872 -16.935   3.953  1.00  0.00    -0.265 OA
HETATM    5  O5  UNL     1      13.187 -18.824   5.162  1.00  0.00    -0.315 OA
HETATM    6  C18 UNL     1      12.093 -19.726   4.996  1.00  0.00     0.140 C 
ENDROOT
BRANCH   1   7
HETATM    7  C13 UNL     1      12.291 -21.318   3.076  1.00  0.00     0.013 C 
HETATM    8  C14 UNL     1      11.131 -22.320   3.205  1.00  0.00     0.012 C 
BRANCH   7   9
HETATM    9  C12 UNL     1      12.928 -21.570   1.788  1.00  0.00     0.183 C 
BRANCH   9  10
HETATM   10  O3  UNL     1      14.239 -21.734   1.542  1.00  0.00    -0.320 OA
BRANCH  10  11
HETATM   11  C11 UNL     1      15.308 -21.471   2.323  1.00  0.00     0.271 C 
HETATM   12  O2  UNL     1      15.926 -20.364   2.196  1.00  0.00    -0.264 OA
BRANCH  11  13
HETATM   13  C10 UNL     1      15.822 -22.429   3.353  1.00  0.00     0.164 C 
HETATM   14  C3  UNL     1      15.054 -23.726   3.293  1.00  0.00     0.043 C 
HETATM   15  C4  UNL     1      15.065 -23.726   4.819  1.00  0.00     0.087 C 
HETATM   16  C9  UNL     1      15.305 -22.242   4.714  1.00  0.00     0.149 C 
HETATM   17  O1  UNL     1      15.127 -21.333   5.462  1.00  0.00    -0.296 OA
BRANCH  14  18
HETATM   18  C2  UNL     1      15.770 -24.857   2.677  1.00  0.00    -0.030 C 
HETATM   19  C1  UNL     1      15.143 -25.661   1.849  1.00  0.00     0.007 C 
ENDBRANCH  14  18
BRANCH  15  20
HETATM   20  C5  UNL     1      13.721 -24.069   5.340  1.00  0.00    -0.018 C 
HETATM   21  C6  UNL     1      13.381 -24.185   6.596  1.00  0.00    -0.030 C 
BRANCH  21  22
HETATM   22  C7  UNL     1      14.313 -23.982   7.705  1.00  0.00     0.022 C 
HETATM   23  C8  UNL     1      14.108 -22.604   8.335  1.00  0.00     0.009 C 
ENDBRANCH  21  22
ENDBRANCH  15  20
ENDBRANCH  11  13
ENDBRANCH  10  11
ENDBRANCH   9  10
ENDBRANCH   7   9
ENDBRANCH   1   7
BRANCH   6  24
HETATM   24  C19 UNL     1      10.898 -19.021   5.602  1.00  0.00     0.059 C 
BRANCH  24  25
HETATM   25  C20 UNL     1       9.632 -19.273   4.876  1.00  0.00    -0.028 C 
HETATM   26  C21 UNL     1       9.062 -18.488   4.000  1.00  0.00    -0.030 C 
BRANCH  26  27
HETATM   27  C22 UNL     1       9.511 -17.177   3.509  1.00  0.00     0.032 C 
BRANCH  27  28
HETATM   28  C23 UNL     1       8.787 -16.870   2.235  1.00  0.00    -0.003 C 
HETATM   29  C24 UNL     1       8.688 -15.411   1.904  1.00  0.00    -0.009 C 
HETATM   30  C25 UNL     1       7.674 -15.317   0.752  1.00  0.00     0.010 C 
HETATM   31  C29 UNL     1       9.993 -14.837   1.432  1.00  0.00     0.010 C 
HETATM   32  C26 UNL     1       8.135 -16.138  -0.413  1.00  0.00    -0.013 C 
HETATM   33  C27 UNL     1       9.454 -15.570  -0.900  1.00  0.00     0.009 C 
HETATM   34  C32 UNL     1       8.349 -17.580  -0.035  1.00  0.00     0.010 C 
HETATM   35  C28 UNL     1      10.443 -15.597   0.220  1.00  0.00    -0.013 C 
HETATM   36  C30 UNL     1      10.670 -17.039   0.617  1.00  0.00     0.010 C 
HETATM   37  C31 UNL     1       9.384 -17.644   1.079  1.00  0.00    -0.009 C 
ENDBRANCH  27  28
ENDBRANCH  26  27
ENDBRANCH  24  25
ENDBRANCH   6  24
TORSDOF 12
ENDMDL
