MODEL 1
REMARK VINA RESULT: -7.853421433      0.000      0.000
REMARK  12 active torsions:
REMARK  status: ('A' for Active; 'I' for Inactive)
REMARK    1  A    between atoms: C4_4  and  C5_5 
REMARK    2  A    between atoms: C6_6  and  C7_7 
REMARK    3  A    between atoms: C7_7  and  C8_8 
REMARK    4  A    between atoms: C8_8  and  C9_9 
REMARK    5  A    between atoms: C10_10  and  C11_11 
REMARK    6  A    between atoms: C12_12  and  C13_13 
REMARK    7  A    between atoms: C13_13  and  C14_14 
REMARK    8  A    between atoms: C14_14  and  C15_15 
REMARK    9  A    between atoms: C16_16  and  C17_17 
REMARK   10  A    between atoms: C18_18  and  C19_19 
REMARK   11  A    between atoms: C23_24  and  C24_25 
REMARK   12  A    between atoms: C27_28  and  S1_29 
ROOT
HETATM    1  C1  UNL     1       8.767 -18.145   3.362  1.00  0.00     0.017 C 
HETATM    2  C2  UNL     1       9.117 -19.278   3.247  1.00  0.00    -0.089 C 
HETATM    3  C3  UNL     1       9.524 -20.628   3.079  1.00  0.00     0.063 C 
HETATM    4  C4  UNL     1       9.833 -21.427   4.081  1.00  0.00     0.009 C 
ENDROOT
BRANCH   4   5
HETATM    5  C5  UNL     1      10.243 -22.812   3.834  1.00  0.00    -0.003 C 
HETATM    6  C6  UNL     1      11.404 -23.289   4.196  1.00  0.00    -0.026 C 
BRANCH   6   7
HETATM    7  C7  UNL     1      11.766 -24.721   3.901  1.00  0.00     0.031 C 
BRANCH   7   8
HETATM    8  C8  UNL     1      13.271 -24.786   4.361  1.00  0.00     0.031 C 
BRANCH   8   9
HETATM    9  C9  UNL     1      13.240 -24.444   5.794  1.00  0.00    -0.026 C 
HETATM   10  C10 UNL     1      14.344 -24.006   6.406  1.00  0.00    -0.003 C 
BRANCH  10  11
HETATM   11  C11 UNL     1      14.215 -23.698   7.806  1.00  0.00     0.008 C 
HETATM   12  C12 UNL     1      14.262 -22.461   8.309  1.00  0.00     0.055 C 
BRANCH  12  13
HETATM   13  C13 UNL     1      14.437 -21.308   7.541  1.00  0.00    -0.128 C 
BRANCH  13  14
HETATM   14  C14 UNL     1      14.758 -20.387   6.794  1.00  0.00     0.055 C 
BRANCH  14  15
HETATM   15  C15 UNL     1      14.006 -19.101   6.860  1.00  0.00     0.008 C 
HETATM   16  C16 UNL     1      13.131 -18.790   5.953  1.00  0.00     0.001 C 
BRANCH  16  17
HETATM   17  C17 UNL     1      12.756 -19.576   4.802  1.00  0.00     0.000 C 
HETATM   18  C18 UNL     1      13.245 -19.262   3.609  1.00  0.00     0.002 C 
BRANCH  18  19
HETATM   19  C19 UNL     1      12.926 -19.988   2.403  1.00  0.00     0.033 C 
HETATM   20  C20 UNL     1      13.545 -21.081   2.042  1.00  0.00     0.081 C 
HETATM   21  C21 UNL     1      14.637 -21.825   2.686  1.00  0.00     0.206 C 
HETATM   22  N1  UNL     1      13.237 -21.825   0.841  1.00  0.00    -0.378 N 
HETATM   23  O1  UNL     1      15.216 -21.545   3.737  1.00  0.00    -0.285 OA
HETATM   24  C22 UNL     1      14.960 -23.010   1.849  1.00  0.00     0.013 C 
HETATM   25  C23 UNL     1      16.105 -23.657   1.912  1.00  0.00     0.024 C 
HETATM   26  C31 UNL     1      13.753 -23.190   1.017  1.00  0.00     0.165 C 
HETATM   27  C32 UNL     1      12.565 -21.364  -0.352  1.00  0.00     0.150 C 
BRANCH  25  28
HETATM   28  C24 UNL     1      16.382 -24.827   1.073  1.00  0.00    -0.035 A 
HETATM   29  C25 UNL     1      16.064 -26.090   1.499  1.00  0.00     0.013 A 
HETATM   30  C26 UNL     1      16.302 -27.205   0.707  1.00  0.00     0.024 A 
HETATM   31  C27 UNL     1      16.872 -27.054  -0.541  1.00  0.00     0.058 A 
HETATM   32  C29 UNL     1      17.183 -25.775  -0.950  1.00  0.00     0.024 A 
HETATM   33  C30 UNL     1      16.954 -24.665  -0.178  1.00  0.00     0.013 A 
BRANCH  31  34
HETATM   34  S1  UNL     1      17.206 -28.425  -1.605  1.00  0.00     0.171 S 
HETATM   35  C28 UNL     1      17.088 -27.807  -3.275  1.00  0.00     0.167 C 
HETATM   36  O2  UNL     1      16.216 -29.522  -1.341  1.00  0.00    -0.223 OA
HETATM   37  O3  UNL     1      18.621 -28.841  -1.355  1.00  0.00    -0.223 OA
ENDBRANCH  31  34
ENDBRANCH  25  28
ENDBRANCH  18  19
ENDBRANCH  16  17
ENDBRANCH  14  15
ENDBRANCH  13  14
ENDBRANCH  12  13
ENDBRANCH  10  11
ENDBRANCH   8   9
ENDBRANCH   7   8
ENDBRANCH   6   7
ENDBRANCH   4   5
TORSDOF 12
ENDMDL
MODEL 2
REMARK VINA RESULT: -7.784282043      4.300      5.474
REMARK  12 active torsions:
REMARK  status: ('A' for Active; 'I' for Inactive)
REMARK    1  A    between atoms: C4_4  and  C5_5 
REMARK    2  A    between atoms: C6_6  and  C7_7 
REMARK    3  A    between atoms: C7_7  and  C8_8 
REMARK    4  A    between atoms: C8_8  and  C9_9 
REMARK    5  A    between atoms: C10_10  and  C11_11 
REMARK    6  A    between atoms: C12_12  and  C13_13 
REMARK    7  A    between atoms: C13_13  and  C14_14 
REMARK    8  A    between atoms: C14_14  and  C15_15 
REMARK    9  A    between atoms: C16_16  and  C17_17 
REMARK   10  A    between atoms: C18_18  and  C19_19 
REMARK   11  A    between atoms: C23_24  and  C24_25 
REMARK   12  A    between atoms: C27_28  and  S1_29 
ROOT
HETATM    1  C1  UNL     1      10.218 -24.303  -2.582  1.00  0.00     0.017 C 
HETATM    2  C2  UNL     1      10.645 -24.360  -1.471  1.00  0.00    -0.089 C 
HETATM    3  C3  UNL     1      11.134 -24.405  -0.139  1.00  0.00     0.063 C 
HETATM    4  C4  UNL     1      12.225 -25.053   0.217  1.00  0.00     0.009 C 
ENDROOT
BRANCH   4   5
HETATM    5  C5  UNL     1      12.673 -25.054   1.612  1.00  0.00    -0.003 C 
HETATM    6  C6  UNL     1      11.856 -25.160   2.626  1.00  0.00    -0.026 C 
BRANCH   6   7
HETATM    7  C7  UNL     1      12.383 -25.144   4.036  1.00  0.00     0.031 C 
BRANCH   7   8
HETATM    8  C8  UNL     1      13.898 -24.771   3.822  1.00  0.00     0.031 C 
BRANCH   8   9
HETATM    9  C9  UNL     1      14.352 -24.281   5.137  1.00  0.00    -0.026 C 
HETATM   10  C10 UNL     1      13.559 -24.395   6.208  1.00  0.00    -0.003 C 
BRANCH  10  11
HETATM   11  C11 UNL     1      14.088 -23.888   7.446  1.00  0.00     0.008 C 
HETATM   12  C12 UNL     1      14.007 -22.612   7.831  1.00  0.00     0.055 C 
BRANCH  12  13
HETATM   13  C13 UNL     1      13.395 -21.604   7.082  1.00  0.00    -0.128 C 
BRANCH  13  14
HETATM   14  C14 UNL     1      13.017 -20.736   6.298  1.00  0.00     0.055 C 
BRANCH  14  15
HETATM   15  C15 UNL     1      11.565 -20.624   5.982  1.00  0.00     0.008 C 
HETATM   16  C16 UNL     1      11.093 -21.036   4.846  1.00  0.00     0.001 C 
BRANCH  16  17
HETATM   17  C17 UNL     1      11.835 -21.635   3.762  1.00  0.00     0.000 C 
HETATM   18  C18 UNL     1      11.957 -20.980   2.615  1.00  0.00     0.002 C 
BRANCH  18  19
HETATM   19  C19 UNL     1      12.678 -21.498   1.477  1.00  0.00     0.033 C 
HETATM   20  C20 UNL     1      13.909 -21.160   1.196  1.00  0.00     0.081 C 
HETATM   21  C21 UNL     1      14.835 -20.246   1.881  1.00  0.00     0.206 C 
HETATM   22  N1  UNL     1      14.650 -21.671   0.065  1.00  0.00    -0.378 N 
HETATM   23  O1  UNL     1      14.618 -19.584   2.897  1.00  0.00    -0.285 OA
HETATM   24  C22 UNL     1      16.122 -20.234   1.139  1.00  0.00     0.013 C 
HETATM   25  C23 UNL     1      17.011 -19.266   1.236  1.00  0.00     0.024 C 
HETATM   26  C31 UNL     1      16.080 -21.478   0.344  1.00  0.00     0.165 C 
HETATM   27  C32 UNL     1      14.137 -22.260  -1.151  1.00  0.00     0.150 C 
BRANCH  25  28
HETATM   28  C24 UNL     1      18.273 -19.294   0.490  1.00  0.00    -0.035 A 
HETATM   29  C25 UNL     1      18.355 -18.768  -0.772  1.00  0.00     0.013 A 
HETATM   30  C26 UNL     1      19.547 -18.770  -1.484  1.00  0.00     0.024 A 
HETATM   31  C27 UNL     1      20.685 -19.311  -0.918  1.00  0.00     0.058 A 
HETATM   32  C29 UNL     1      20.580 -19.833   0.353  1.00  0.00     0.024 A 
HETATM   33  C30 UNL     1      19.408 -19.839   1.066  1.00  0.00     0.013 A 
BRANCH  31  34
HETATM   34  S1  UNL     1      22.237 -19.351  -1.761  1.00  0.00     0.171 S 
HETATM   35  C28 UNL     1      21.863 -19.495  -3.500  1.00  0.00     0.167 C 
HETATM   36  O2  UNL     1      23.053 -20.510  -1.265  1.00  0.00    -0.223 OA
HETATM   37  O3  UNL     1      22.898 -18.029  -1.528  1.00  0.00    -0.223 OA
ENDBRANCH  31  34
ENDBRANCH  25  28
ENDBRANCH  18  19
ENDBRANCH  16  17
ENDBRANCH  14  15
ENDBRANCH  13  14
ENDBRANCH  12  13
ENDBRANCH  10  11
ENDBRANCH   8   9
ENDBRANCH   7   8
ENDBRANCH   6   7
ENDBRANCH   4   5
TORSDOF 12
ENDMDL
MODEL 3
REMARK VINA RESULT: -7.783153704      3.475      9.272
REMARK  12 active torsions:
REMARK  status: ('A' for Active; 'I' for Inactive)
REMARK    1  A    between atoms: C4_4  and  C5_5 
REMARK    2  A    between atoms: C6_6  and  C7_7 
REMARK    3  A    between atoms: C7_7  and  C8_8 
REMARK    4  A    between atoms: C8_8  and  C9_9 
REMARK    5  A    between atoms: C10_10  and  C11_11 
REMARK    6  A    between atoms: C12_12  and  C13_13 
REMARK    7  A    between atoms: C13_13  and  C14_14 
REMARK    8  A    between atoms: C14_14  and  C15_15 
REMARK    9  A    between atoms: C16_16  and  C17_17 
REMARK   10  A    between atoms: C18_18  and  C19_19 
REMARK   11  A    between atoms: C23_24  and  C24_25 
REMARK   12  A    between atoms: C27_28  and  S1_29 
ROOT
HETATM    1  C1  UNL     1      14.062 -23.457   7.858  1.00  0.00     0.017 C 
HETATM    2  C2  UNL     1      14.387 -23.699   6.737  1.00  0.00    -0.089 C 
HETATM    3  C3  UNL     1      14.776 -24.020   5.410  1.00  0.00     0.063 C 
HETATM    4  C4  UNL     1      15.168 -23.122   4.528  1.00  0.00     0.009 C 
ENDROOT
BRANCH   4   5
HETATM    5  C5  UNL     1      15.558 -23.525   3.174  1.00  0.00    -0.003 C 
HETATM    6  C6  UNL     1      15.832 -24.760   2.846  1.00  0.00    -0.026 C 
BRANCH   6   7
HETATM    7  C7  UNL     1      16.237 -25.104   1.437  1.00  0.00     0.031 C 
BRANCH   7   8
HETATM    8  C8  UNL     1      16.307 -26.677   1.484  1.00  0.00     0.031 C 
BRANCH   8   9
HETATM    9  C9  UNL     1      17.433 -27.027   0.598  1.00  0.00    -0.026 C 
HETATM   10  C10 UNL     1      17.389 -28.143  -0.136  1.00  0.00    -0.003 C 
BRANCH  10  11
HETATM   11  C11 UNL     1      18.534 -28.400  -0.969  1.00  0.00     0.008 C 
HETATM   12  C12 UNL     1      18.480 -29.033  -2.144  1.00  0.00     0.055 C 
BRANCH  12  13
HETATM   13  C13 UNL     1      17.304 -29.523  -2.718  1.00  0.00    -0.128 C 
BRANCH  13  14
HETATM   14  C14 UNL     1      16.281 -30.099  -3.079  1.00  0.00     0.055 C 
BRANCH  14  15
HETATM   15  C15 UNL     1      15.345 -30.632  -2.049  1.00  0.00     0.008 C 
HETATM   16  C16 UNL     1      14.395 -29.894  -1.561  1.00  0.00     0.001 C 
BRANCH  16  17
HETATM   17  C17 UNL     1      14.096 -28.524  -1.904  1.00  0.00     0.000 C 
HETATM   18  C18 UNL     1      13.792 -27.662  -0.942  1.00  0.00     0.002 C 
BRANCH  18  19
HETATM   19  C19 UNL     1      13.478 -26.275  -1.188  1.00  0.00     0.033 C 
HETATM   20  C20 UNL     1      13.001 -25.476  -0.270  1.00  0.00     0.081 C 
HETATM   21  C21 UNL     1      12.675 -25.721   1.142  1.00  0.00     0.206 C 
HETATM   22  N1  UNL     1      12.686 -24.083  -0.495  1.00  0.00    -0.378 N 
HETATM   23  O1  UNL     1      12.785 -26.779   1.764  1.00  0.00    -0.285 OA
HETATM   24  C22 UNL     1      12.169 -24.457   1.737  1.00  0.00     0.013 C 
HETATM   25  C23 UNL     1      11.439 -24.407   2.833  1.00  0.00     0.024 C 
HETATM   26  C31 UNL     1      12.661 -23.414   0.813  1.00  0.00     0.165 C 
HETATM   27  C32 UNL     1      12.417 -23.416  -1.748  1.00  0.00     0.150 C 
BRANCH  25  28
HETATM   28  C24 UNL     1      10.964 -23.137   3.390  1.00  0.00    -0.035 A 
HETATM   29  C25 UNL     1       9.745 -22.623   3.031  1.00  0.00     0.013 A 
HETATM   30  C26 UNL     1       9.273 -21.432   3.565  1.00  0.00     0.024 A 
HETATM   31  C27 UNL     1      10.038 -20.737   4.481  1.00  0.00     0.058 A 
HETATM   32  C29 UNL     1      11.260 -21.272   4.829  1.00  0.00     0.024 A 
HETATM   33  C30 UNL     1      11.739 -22.448   4.308  1.00  0.00     0.013 A 
BRANCH  31  34
HETATM   34  S1  UNL     1       9.506 -19.215   5.203  1.00  0.00     0.171 S 
HETATM   35  C28 UNL     1       9.013 -18.161   3.850  1.00  0.00     0.167 C 
HETATM   36  O2  UNL     1      10.627 -18.615   6.002  1.00  0.00    -0.223 OA
HETATM   37  O3  UNL     1       8.297 -19.519   6.029  1.00  0.00    -0.223 OA
ENDBRANCH  31  34
ENDBRANCH  25  28
ENDBRANCH  18  19
ENDBRANCH  16  17
ENDBRANCH  14  15
ENDBRANCH  13  14
ENDBRANCH  12  13
ENDBRANCH  10  11
ENDBRANCH   8   9
ENDBRANCH   7   8
ENDBRANCH   6   7
ENDBRANCH   4   5
TORSDOF 12
ENDMDL
MODEL 4
REMARK VINA RESULT: -7.777421660      3.116      8.477
REMARK  12 active torsions:
REMARK  status: ('A' for Active; 'I' for Inactive)
REMARK    1  A    between atoms: C4_4  and  C5_5 
REMARK    2  A    between atoms: C6_6  and  C7_7 
REMARK    3  A    between atoms: C7_7  and  C8_8 
REMARK    4  A    between atoms: C8_8  and  C9_9 
REMARK    5  A    between atoms: C10_10  and  C11_11 
REMARK    6  A    between atoms: C12_12  and  C13_13 
REMARK    7  A    between atoms: C13_13  and  C14_14 
REMARK    8  A    between atoms: C14_14  and  C15_15 
REMARK    9  A    between atoms: C16_16  and  C17_17 
REMARK   10  A    between atoms: C18_18  and  C19_19 
REMARK   11  A    between atoms: C23_24  and  C24_25 
REMARK   12  A    between atoms: C27_28  and  S1_29 
ROOT
HETATM    1  C1  UNL     1      13.846 -22.929   8.233  1.00  0.00     0.017 C 
HETATM    2  C2  UNL     1      13.728 -23.556   7.227  1.00  0.00    -0.089 C 
HETATM    3  C3  UNL     1      13.619 -24.306   6.027  1.00  0.00     0.063 C 
HETATM    4  C4  UNL     1      12.516 -24.382   5.310  1.00  0.00     0.009 C 
ENDROOT
BRANCH   4   5
HETATM    5  C5  UNL     1      12.476 -25.174   4.078  1.00  0.00    -0.003 C 
HETATM    6  C6  UNL     1      13.402 -25.114   3.159  1.00  0.00    -0.026 C 
BRANCH   6   7
HETATM    7  C7  UNL     1      13.294 -25.949   1.911  1.00  0.00     0.031 C 
BRANCH   7   8
HETATM    8  C8  UNL     1      14.793 -26.360   1.653  1.00  0.00     0.031 C 
BRANCH   8   9
HETATM    9  C9  UNL     1      14.725 -27.368   0.579  1.00  0.00    -0.026 C 
HETATM   10  C10 UNL     1      15.771 -28.162   0.333  1.00  0.00    -0.003 C 
BRANCH  10  11
HETATM   11  C11 UNL     1      15.610 -29.113  -0.734  1.00  0.00     0.008 C 
HETATM   12  C12 UNL     1      16.521 -29.334  -1.686  1.00  0.00     0.055 C 
BRANCH  12  13
HETATM   13  C13 UNL     1      17.749 -28.674  -1.766  1.00  0.00    -0.128 C 
BRANCH  13  14
HETATM   14  C14 UNL     1      18.813 -28.075  -1.633  1.00  0.00     0.055 C 
BRANCH  14  15
HETATM   15  C15 UNL     1      19.725 -27.943  -2.805  1.00  0.00     0.008 C 
HETATM   16  C16 UNL     1      20.458 -26.884  -2.967  1.00  0.00     0.001 C 
BRANCH  16  17
HETATM   17  C17 UNL     1      20.518 -25.728  -2.105  1.00  0.00     0.000 C 
HETATM   18  C18 UNL     1      19.950 -24.594  -2.493  1.00  0.00     0.002 C 
BRANCH  18  19
HETATM   19  C19 UNL     1      19.961 -23.388  -1.700  1.00  0.00     0.033 C 
HETATM   20  C20 UNL     1      19.040 -23.105  -0.816  1.00  0.00     0.081 C 
HETATM   21  C21 UNL     1      17.843 -23.851  -0.404  1.00  0.00     0.206 C 
HETATM   22  N1  UNL     1      19.036 -21.907  -0.008  1.00  0.00    -0.378 N 
HETATM   23  O1  UNL     1      17.449 -24.936  -0.838  1.00  0.00    -0.285 OA
HETATM   24  C22 UNL     1      17.143 -23.076   0.653  1.00  0.00     0.013 C 
HETATM   25  C23 UNL     1      15.873 -23.244   0.961  1.00  0.00     0.024 C 
HETATM   26  C31 UNL     1      18.184 -22.160   1.162  1.00  0.00     0.165 C 
HETATM   27  C32 UNL     1      19.709 -20.654  -0.260  1.00  0.00     0.150 C 
BRANCH  25  28
HETATM   28  C24 UNL     1      15.221 -22.461   2.015  1.00  0.00    -0.035 A 
HETATM   29  C25 UNL     1      14.068 -21.764   1.763  1.00  0.00     0.013 A 
HETATM   30  C26 UNL     1      13.429 -21.034   2.756  1.00  0.00     0.024 A 
HETATM   31  C27 UNL     1      13.954 -21.001   4.032  1.00  0.00     0.058 A 
HETATM   32  C29 UNL     1      15.114 -21.710   4.264  1.00  0.00     0.024 A 
HETATM   33  C30 UNL     1      15.756 -22.434   3.292  1.00  0.00     0.013 A 
BRANCH  31  34
HETATM   34  S1  UNL     1      13.199 -20.094   5.347  1.00  0.00     0.171 S 
HETATM   35  C28 UNL     1      12.649 -18.549   4.642  1.00  0.00     0.167 C 
HETATM   36  O2  UNL     1      14.193 -19.884   6.453  1.00  0.00    -0.223 OA
HETATM   37  O3  UNL     1      11.996 -20.869   5.781  1.00  0.00    -0.223 OA
ENDBRANCH  31  34
ENDBRANCH  25  28
ENDBRANCH  18  19
ENDBRANCH  16  17
ENDBRANCH  14  15
ENDBRANCH  13  14
ENDBRANCH  12  13
ENDBRANCH  10  11
ENDBRANCH   8   9
ENDBRANCH   7   8
ENDBRANCH   6   7
ENDBRANCH   4   5
TORSDOF 12
ENDMDL
MODEL 5
REMARK VINA RESULT: -7.705177522      2.572      4.079
REMARK  12 active torsions:
REMARK  status: ('A' for Active; 'I' for Inactive)
REMARK    1  A    between atoms: C4_4  and  C5_5 
REMARK    2  A    between atoms: C6_6  and  C7_7 
REMARK    3  A    between atoms: C7_7  and  C8_8 
REMARK    4  A    between atoms: C8_8  and  C9_9 
REMARK    5  A    between atoms: C10_10  and  C11_11 
REMARK    6  A    between atoms: C12_12  and  C13_13 
REMARK    7  A    between atoms: C13_13  and  C14_14 
REMARK    8  A    between atoms: C14_14  and  C15_15 
REMARK    9  A    between atoms: C16_16  and  C17_17 
REMARK   10  A    between atoms: C18_18  and  C19_19 
REMARK   11  A    between atoms: C23_24  and  C24_25 
REMARK   12  A    between atoms: C27_28  and  S1_29 
ROOT
HETATM    1  C1  UNL     1       8.930 -16.832  11.212  1.00  0.00     0.017 C 
HETATM    2  C2  UNL     1       8.817 -17.464  10.209  1.00  0.00    -0.089 C 
HETATM    3  C3  UNL     1       8.666 -18.239   9.029  1.00  0.00     0.063 C 
HETATM    4  C4  UNL     1       9.333 -18.011   7.915  1.00  0.00     0.009 C 
ENDROOT
BRANCH   4   5
HETATM    5  C5  UNL     1       9.128 -18.855   6.735  1.00  0.00    -0.003 C 
HETATM    6  C6  UNL     1       9.938 -18.860   5.709  1.00  0.00    -0.026 C 
BRANCH   6   7
HETATM    7  C7  UNL     1       9.663 -19.745   4.523  1.00  0.00     0.031 C 
BRANCH   7   8
HETATM    8  C8  UNL     1      11.056 -20.443   4.296  1.00  0.00     0.031 C 
BRANCH   8   9
HETATM    9  C9  UNL     1      10.797 -21.877   4.527  1.00  0.00    -0.026 C 
HETATM   10  C10 UNL     1      11.382 -22.799   3.756  1.00  0.00    -0.003 C 
BRANCH  10  11
HETATM   11  C11 UNL     1      11.068 -24.170   4.058  1.00  0.00     0.008 C 
HETATM   12  C12 UNL     1      11.769 -24.933   4.901  1.00  0.00     0.055 C 
BRANCH  12  13
HETATM   13  C13 UNL     1      12.895 -24.496   5.603  1.00  0.00    -0.128 C 
BRANCH  13  14
HETATM   14  C14 UNL     1      13.791 -24.188   6.385  1.00  0.00     0.055 C 
BRANCH  14  15
HETATM   15  C15 UNL     1      13.807 -22.815   6.967  1.00  0.00     0.008 C 
HETATM   16  C16 UNL     1      14.545 -21.879   6.454  1.00  0.00     0.001 C 
BRANCH  16  17
HETATM   17  C17 UNL     1      15.418 -21.990   5.310  1.00  0.00     0.000 C 
HETATM   18  C18 UNL     1      14.949 -21.708   4.101  1.00  0.00     0.002 C 
BRANCH  18  19
HETATM   19  C19 UNL     1      15.746 -21.790   2.901  1.00  0.00     0.033 C 
HETATM   20  C20 UNL     1      15.916 -22.900   2.230  1.00  0.00     0.081 C 
HETATM   21  C21 UNL     1      15.401 -24.255   2.469  1.00  0.00     0.206 C 
HETATM   22  N1  UNL     1      16.706 -23.002   1.024  1.00  0.00    -0.378 N 
HETATM   23  O1  UNL     1      14.682 -24.631   3.396  1.00  0.00    -0.285 OA
HETATM   24  C22 UNL     1      15.897 -25.147   1.388  1.00  0.00     0.013 C 
HETATM   25  C23 UNL     1      15.957 -26.458   1.494  1.00  0.00     0.024 C 
HETATM   26  C31 UNL     1      16.274 -24.211   0.309  1.00  0.00     0.165 C 
HETATM   27  C32 UNL     1      17.752 -22.120   0.560  1.00  0.00     0.150 C 
BRANCH  25  28
HETATM   28  C24 UNL     1      16.447 -27.303   0.401  1.00  0.00    -0.035 A 
HETATM   29  C25 UNL     1      17.786 -27.382   0.120  1.00  0.00     0.013 A 
HETATM   30  C26 UNL     1      18.268 -28.192  -0.899  1.00  0.00     0.024 A 
HETATM   31  C27 UNL     1      17.390 -28.942  -1.656  1.00  0.00     0.058 A 
HETATM   32  C29 UNL     1      16.047 -28.848  -1.355  1.00  0.00     0.024 A 
HETATM   33  C30 UNL     1      15.558 -28.051  -0.352  1.00  0.00     0.013 A 
BRANCH  31  34
HETATM   34  S1  UNL     1      17.927 -29.995  -2.969  1.00  0.00     0.171 S 
HETATM   35  C28 UNL     1      18.150 -28.946  -4.395  1.00  0.00     0.167 C 
HETATM   36  O2  UNL     1      16.899 -31.063  -3.213  1.00  0.00    -0.223 OA
HETATM   37  O3  UNL     1      19.260 -30.545  -2.575  1.00  0.00    -0.223 OA
ENDBRANCH  31  34
ENDBRANCH  25  28
ENDBRANCH  18  19
ENDBRANCH  16  17
ENDBRANCH  14  15
ENDBRANCH  13  14
ENDBRANCH  12  13
ENDBRANCH  10  11
ENDBRANCH   8   9
ENDBRANCH   7   8
ENDBRANCH   6   7
ENDBRANCH   4   5
TORSDOF 12
ENDMDL
