MODEL 1
REMARK VINA RESULT: -7.065735429      0.000      0.000
REMARK  4 active torsions:
REMARK  status: ('A' for Active; 'I' for Inactive)
REMARK    1  A    between atoms: C3_3  and  N1_4 
REMARK       I    between atoms: N1_4  and  C4_6 
REMARK    2  A    between atoms: C4_6  and  C5_8 
REMARK    3  A    between atoms: C8_11  and  N2_12 
REMARK       I    between atoms: N2_12  and  C9_14 
REMARK       I    between atoms: C9_14  and  N3_16 
REMARK    4  A    between atoms: N4_21  and  C13_22 
ROOT
HETATM    1  C1  UNL     1      10.664 -24.415 -17.873  1.00  0.00     0.014 C 
HETATM    2  C2  UNL     1      11.338 -23.543 -18.351  1.00  0.00    -0.098 C 
HETATM    3  C3  UNL     1      12.151 -22.467 -18.939  1.00  0.00     0.216 C 
ENDROOT
BRANCH   3   4
HETATM    4  N1  UNL     1      12.809 -21.727 -17.887  1.00  0.00    -0.350 N 
HETATM    5  C4  UNL     1      14.030 -21.091 -18.155  1.00  0.00     0.223 C 
HETATM    6  O1  UNL     1      14.530 -21.175 -19.306  1.00  0.00    -0.273 OA
ATOM      7  H1  UNL     1      12.389 -21.669 -16.959  1.00  0.00     0.163 HD
BRANCH   5   8
HETATM    8  C5  UNL     1      14.782 -20.307 -17.138  1.00  0.00     0.095 C 
HETATM    9  C6  UNL     1      13.897 -19.915 -16.011  1.00  0.00     0.042 C 
HETATM   10  C7  UNL     1      14.794 -19.237 -14.964  1.00  0.00     0.104 C 
HETATM   11  C8  UNL     1      15.742 -20.262 -14.386  1.00  0.00     0.115 C 
HETATM   12  N4  UNL     1      15.649 -18.401 -15.733  1.00  0.00    -0.396 N 
HETATM   13  C11 UNL     1      16.696 -20.421 -15.548  1.00  0.00     0.043 C 
HETATM   14  C12 UNL     1      16.965 -18.924 -15.803  1.00  0.00     0.126 C 
HETATM   15  C16 UNL     1      16.063 -20.976 -16.777  1.00  0.00     0.078 C 
HETATM   16 BR1  UNL     1      15.963 -22.901 -16.736  1.00  0.00    -0.090 Br
BRANCH  11  17
HETATM   17  N2  UNL     1      15.111 -21.470 -13.952  1.00  0.00    -0.336 N 
HETATM   18  C9  UNL     1      14.808 -21.615 -12.572  1.00  0.00     0.316 C 
HETATM   19  O2  UNL     1      15.096 -20.683 -11.735  1.00  0.00    -0.247 OA
HETATM   20  N3  UNL     1      14.187 -22.790 -12.108  1.00  0.00    -0.347 N 
HETATM   21  C10 UNL     1      13.865 -22.966 -10.703  1.00  0.00     0.151 C 
ATOM     22  H3  UNL     1      13.959 -23.531 -12.771  1.00  0.00     0.163 HD
ATOM     23  H2  UNL     1      14.883 -22.209 -14.618  1.00  0.00     0.164 HD
ENDBRANCH  11  17
BRANCH  12  24
HETATM   24  C13 UNL     1      15.527 -17.006 -15.506  1.00  0.00     0.211 C 
HETATM   25  C14 UNL     1      14.641 -16.767 -14.367  1.00  0.00    -0.098 C 
HETATM   26  C15 UNL     1      13.915 -16.571 -13.422  1.00  0.00     0.014 C 
ENDBRANCH  12  24
ENDBRANCH   5   8
ENDBRANCH   3   4
TORSDOF 4
ENDMDL
MODEL 2
REMARK VINA RESULT: -7.016006279      3.624      7.519
REMARK  4 active torsions:
REMARK  status: ('A' for Active; 'I' for Inactive)
REMARK    1  A    between atoms: C3_3  and  N1_4 
REMARK       I    between atoms: N1_4  and  C4_6 
REMARK    2  A    between atoms: C4_6  and  C5_8 
REMARK    3  A    between atoms: C8_11  and  N2_12 
REMARK       I    between atoms: N2_12  and  C9_14 
REMARK       I    between atoms: C9_14  and  N3_16 
REMARK    4  A    between atoms: N4_21  and  C13_22 
ROOT
HETATM    1  C1  UNL     1      13.342 -17.462 -13.872  1.00  0.00     0.014 C 
HETATM    2  C2  UNL     1      13.485 -17.445 -15.065  1.00  0.00    -0.098 C 
HETATM    3  C3  UNL     1      13.673 -17.429 -16.524  1.00  0.00     0.216 C 
ENDROOT
BRANCH   3   4
HETATM    4  N1  UNL     1      13.039 -18.590 -17.106  1.00  0.00    -0.350 N 
HETATM    5  C4  UNL     1      13.519 -19.096 -18.322  1.00  0.00     0.223 C 
HETATM    6  O1  UNL     1      14.492 -18.532 -18.885  1.00  0.00    -0.273 OA
ATOM      7  H1  UNL     1      12.251 -19.036 -16.636  1.00  0.00     0.163 HD
BRANCH   5   8
HETATM    8  C5  UNL     1      12.934 -20.285 -18.999  1.00  0.00     0.095 C 
HETATM    9  C6  UNL     1      13.379 -20.362 -20.414  1.00  0.00     0.042 C 
HETATM   10  C7  UNL     1      12.834 -21.685 -20.975  1.00  0.00     0.104 C 
HETATM   11  C8  UNL     1      13.523 -22.837 -20.279  1.00  0.00     0.115 C 
HETATM   12  N4  UNL     1      11.505 -21.750 -20.473  1.00  0.00    -0.396 N 
HETATM   13  C11 UNL     1      12.842 -22.774 -18.931  1.00  0.00     0.043 C 
HETATM   14  C12 UNL     1      11.386 -22.710 -19.436  1.00  0.00     0.126 C 
HETATM   15  C16 UNL     1      13.109 -21.516 -18.179  1.00  0.00     0.078 C 
HETATM   16 BR1  UNL     1      14.776 -21.589 -17.212  1.00  0.00    -0.090 Br
BRANCH  11  17
HETATM   17  N2  UNL     1      14.949 -22.735 -20.242  1.00  0.00    -0.336 N 
HETATM   18  C9  UNL     1      15.693 -23.271 -21.328  1.00  0.00     0.316 C 
HETATM   19  O2  UNL     1      15.096 -23.833 -22.318  1.00  0.00    -0.247 OA
HETATM   20  N3  UNL     1      17.098 -23.190 -21.326  1.00  0.00    -0.347 N 
HETATM   21  C10 UNL     1      17.883 -23.729 -22.422  1.00  0.00     0.151 C 
ATOM     22  H3  UNL     1      17.572 -22.745 -20.540  1.00  0.00     0.163 HD
ATOM     23  H2  UNL     1      15.421 -22.288 -19.456  1.00  0.00     0.164 HD
ENDBRANCH  11  17
BRANCH  12  24
HETATM   24  C13 UNL     1      10.471 -21.726 -21.444  1.00  0.00     0.211 C 
HETATM   25  C14 UNL     1      10.744 -22.720 -22.481  1.00  0.00    -0.098 C 
HETATM   26  C15 UNL     1      10.967 -23.547 -23.333  1.00  0.00     0.014 C 
ENDBRANCH  12  24
ENDBRANCH   5   8
ENDBRANCH   3   4
TORSDOF 4
ENDMDL
MODEL 3
REMARK VINA RESULT: -6.823525723      3.322      6.746
REMARK  4 active torsions:
REMARK  status: ('A' for Active; 'I' for Inactive)
REMARK    1  A    between atoms: C3_3  and  N1_4 
REMARK       I    between atoms: N1_4  and  C4_6 
REMARK    2  A    between atoms: C4_6  and  C5_8 
REMARK    3  A    between atoms: C8_11  and  N2_12 
REMARK       I    between atoms: N2_12  and  C9_14 
REMARK       I    between atoms: C9_14  and  N3_16 
REMARK    4  A    between atoms: N4_21  and  C13_22 
ROOT
HETATM    1  C1  UNL     1      14.574 -24.802 -14.516  1.00  0.00     0.014 C 
HETATM    2  C2  UNL     1      13.612 -25.065 -15.186  1.00  0.00    -0.098 C 
HETATM    3  C3  UNL     1      12.426 -25.384 -15.996  1.00  0.00     0.216 C 
ENDROOT
BRANCH   3   4
HETATM    4  N1  UNL     1      12.193 -24.323 -16.949  1.00  0.00    -0.350 N 
HETATM    5  C4  UNL     1      12.699 -24.448 -18.252  1.00  0.00     0.223 C 
HETATM    6  O1  UNL     1      13.345 -25.480 -18.567  1.00  0.00    -0.273 OA
ATOM      7  H1  UNL     1      11.666 -23.494 -16.678  1.00  0.00     0.163 HD
BRANCH   5   8
HETATM    8  C5  UNL     1      12.510 -23.412 -19.303  1.00  0.00     0.095 C 
HETATM    9  C6  UNL     1      11.280 -22.619 -19.050  1.00  0.00     0.042 C 
HETATM   10  C7  UNL     1      11.254 -21.501 -20.104  1.00  0.00     0.104 C 
HETATM   11  C8  UNL     1      12.400 -20.549 -19.843  1.00  0.00     0.115 C 
HETATM   12  N4  UNL     1      11.640 -22.152 -21.307  1.00  0.00    -0.396 N 
HETATM   13  C11 UNL     1      13.557 -21.395 -20.323  1.00  0.00     0.043 C 
HETATM   14  C12 UNL     1      12.962 -21.806 -21.686  1.00  0.00     0.126 C 
HETATM   15  C16 UNL     1      13.763 -22.640 -19.533  1.00  0.00     0.078 C 
HETATM   16 BR1  UNL     1      14.799 -22.323 -17.938  1.00  0.00    -0.090 Br
BRANCH  11  17
HETATM   17  N2  UNL     1      12.498 -20.103 -18.488  1.00  0.00    -0.336 N 
HETATM   18  C9  UNL     1      13.422 -19.067 -18.183  1.00  0.00     0.316 C 
HETATM   19  O2  UNL     1      14.149 -18.545 -19.105  1.00  0.00    -0.247 OA
HETATM   20  N3  UNL     1      13.547 -18.603 -16.861  1.00  0.00    -0.347 N 
HETATM   21  C10 UNL     1      14.482 -17.545 -16.520  1.00  0.00     0.151 C 
ATOM     22  H3  UNL     1      12.970 -19.017 -16.128  1.00  0.00     0.163 HD
ATOM     23  H2  UNL     1      11.920 -20.519 -17.757  1.00  0.00     0.164 HD
ENDBRANCH  11  17
BRANCH  12  24
HETATM   24  C13 UNL     1      10.667 -22.185 -22.339  1.00  0.00     0.211 C 
HETATM   25  C14 UNL     1      10.873 -23.367 -23.174  1.00  0.00    -0.098 C 
HETATM   26  C15 UNL     1      11.039 -24.349 -23.858  1.00  0.00     0.014 C 
ENDBRANCH  12  24
ENDBRANCH   5   8
ENDBRANCH   3   4
TORSDOF 4
ENDMDL
MODEL 4
REMARK VINA RESULT: -6.820333369      2.711      3.690
REMARK  4 active torsions:
REMARK  status: ('A' for Active; 'I' for Inactive)
REMARK    1  A    between atoms: C3_3  and  N1_4 
REMARK       I    between atoms: N1_4  and  C4_6 
REMARK    2  A    between atoms: C4_6  and  C5_8 
REMARK    3  A    between atoms: C8_11  and  N2_12 
REMARK       I    between atoms: N2_12  and  C9_14 
REMARK       I    between atoms: C9_14  and  N3_16 
REMARK    4  A    between atoms: N4_21  and  C13_22 
ROOT
HETATM    1  C1  UNL     1      10.622 -24.752 -17.592  1.00  0.00     0.014 C 
HETATM    2  C2  UNL     1      11.027 -23.960 -18.399  1.00  0.00    -0.098 C 
HETATM    3  C3  UNL     1      11.511 -22.988 -19.393  1.00  0.00     0.216 C 
ENDROOT
BRANCH   3   4
HETATM    4  N1  UNL     1      11.821 -21.740 -18.736  1.00  0.00    -0.350 N 
HETATM    5  C4  UNL     1      12.988 -21.642 -17.964  1.00  0.00     0.223 C 
HETATM    6  O1  UNL     1      13.744 -22.642 -17.858  1.00  0.00    -0.273 OA
ATOM      7  H1  UNL     1      11.198 -20.938 -18.833  1.00  0.00     0.163 HD
BRANCH   5   8
HETATM    8  C5  UNL     1      13.392 -20.400 -17.251  1.00  0.00     0.095 C 
HETATM    9  C6  UNL     1      14.481 -20.678 -16.279  1.00  0.00     0.042 C 
HETATM   10  C7  UNL     1      14.913 -19.320 -15.704  1.00  0.00     0.104 C 
HETATM   11  C8  UNL     1      15.558 -18.502 -16.799  1.00  0.00     0.115 C 
HETATM   12  N4  UNL     1      13.687 -18.640 -15.469  1.00  0.00    -0.396 N 
HETATM   13  C11 UNL     1      14.333 -18.119 -17.596  1.00  0.00     0.043 C 
HETATM   14  C12 UNL     1      13.470 -17.612 -16.422  1.00  0.00     0.126 C 
HETATM   15  C16 UNL     1      13.622 -19.278 -18.203  1.00  0.00     0.078 C 
HETATM   16 BR1  UNL     1      14.410 -19.815 -19.879  1.00  0.00    -0.090 Br
BRANCH  11  17
HETATM   17  N2  UNL     1      16.567 -19.197 -17.537  1.00  0.00    -0.336 N 
HETATM   18  C9  UNL     1      17.765 -19.562 -16.864  1.00  0.00     0.316 C 
HETATM   19  O2  UNL     1      17.935 -19.273 -15.624  1.00  0.00    -0.247 OA
HETATM   20  N3  UNL     1      18.781 -20.246 -17.558  1.00  0.00    -0.347 N 
HETATM   21  C10 UNL     1      20.014 -20.632 -16.897  1.00  0.00     0.151 C 
ATOM     22  H3  UNL     1      18.647 -20.474 -18.544  1.00  0.00     0.163 HD
ATOM     23  H2  UNL     1      16.431 -19.425 -18.522  1.00  0.00     0.164 HD
ENDBRANCH  11  17
BRANCH  12  24
HETATM   24  C13 UNL     1      13.396 -18.329 -14.116  1.00  0.00     0.211 C 
HETATM   25  C14 UNL     1      13.954 -17.020 -13.779  1.00  0.00    -0.098 C 
HETATM   26  C15 UNL     1      14.409 -15.935 -13.504  1.00  0.00     0.014 C 
ENDBRANCH  12  24
ENDBRANCH   5   8
ENDBRANCH   3   4
TORSDOF 4
ENDMDL
MODEL 5
REMARK VINA RESULT: -6.728739331      1.692      1.828
REMARK  4 active torsions:
REMARK  status: ('A' for Active; 'I' for Inactive)
REMARK    1  A    between atoms: C3_3  and  N1_4 
REMARK       I    between atoms: N1_4  and  C4_6 
REMARK    2  A    between atoms: C4_6  and  C5_8 
REMARK    3  A    between atoms: C8_11  and  N2_12 
REMARK       I    between atoms: N2_12  and  C9_14 
REMARK       I    between atoms: C9_14  and  N3_16 
REMARK    4  A    between atoms: N4_21  and  C13_22 
ROOT
HETATM    1  C1  UNL     1      10.442 -24.547 -17.920  1.00  0.00     0.014 C 
HETATM    2  C2  UNL     1      11.434 -24.691 -17.258  1.00  0.00    -0.098 C 
HETATM    3  C3  UNL     1      12.657 -24.865 -16.458  1.00  0.00     0.216 C 
ENDROOT
BRANCH   3   4
HETATM    4  N1  UNL     1      12.961 -23.635 -15.765  1.00  0.00    -0.350 N 
HETATM    5  C4  UNL     1      13.755 -22.669 -16.401  1.00  0.00     0.223 C 
HETATM    6  O1  UNL     1      14.187 -22.891 -17.561  1.00  0.00    -0.273 OA
ATOM      7  H1  UNL     1      12.603 -23.470 -14.825  1.00  0.00     0.163 HD
BRANCH   5   8
HETATM    8  C5  UNL     1      14.123 -21.372 -15.771  1.00  0.00     0.095 C 
HETATM    9  C6  UNL     1      13.270 -21.098 -14.586  1.00  0.00     0.042 C 
HETATM   10  C7  UNL     1      13.818 -19.817 -13.937  1.00  0.00     0.104 C 
HETATM   11  C8  UNL     1      15.195 -20.096 -13.379  1.00  0.00     0.115 C 
HETATM   12  N4  UNL     1      14.081 -18.959 -15.039  1.00  0.00    -0.396 N 
HETATM   13  C11 UNL     1      15.991 -20.152 -14.662  1.00  0.00     0.043 C 
HETATM   14  C12 UNL     1      15.472 -18.840 -15.287  1.00  0.00     0.126 C 
HETATM   15  C16 UNL     1      15.595 -21.265 -15.570  1.00  0.00     0.078 C 
HETATM   16 BR1  UNL     1      16.449 -22.927 -15.095  1.00  0.00    -0.090 Br
BRANCH  11  17
HETATM   17  N2  UNL     1      15.275 -21.270 -12.566  1.00  0.00    -0.336 N 
HETATM   18  C9  UNL     1      14.758 -21.211 -11.243  1.00  0.00     0.316 C 
HETATM   19  O2  UNL     1      14.233 -20.129 -10.791  1.00  0.00    -0.247 OA
HETATM   20  N3  UNL     1      14.819 -22.346 -10.413  1.00  0.00    -0.347 N 
HETATM   21  C10 UNL     1      14.299 -22.316  -9.058  1.00  0.00     0.151 C 
ATOM     22  H3  UNL     1      15.237 -23.206 -10.771  1.00  0.00     0.163 HD
ATOM     23  H2  UNL     1      15.692 -22.128 -12.926  1.00  0.00     0.164 HD
ENDBRANCH  11  17
BRANCH  12  24
HETATM   24  C13 UNL     1      13.318 -17.764 -15.095  1.00  0.00     0.211 C 
HETATM   25  C14 UNL     1      13.846 -16.795 -14.136  1.00  0.00    -0.098 C 
HETATM   26  C15 UNL     1      14.289 -15.993 -13.349  1.00  0.00     0.014 C 
ENDBRANCH  12  24
ENDBRANCH   5   8
ENDBRANCH   3   4
TORSDOF 4
ENDMDL
