MODEL 1
REMARK VINA RESULT: -6.257850601      0.000      0.000
REMARK  6 active torsions:
REMARK  status: ('A' for Active; 'I' for Inactive)
REMARK    1  A    between atoms: C2_2  and  C3_3 
REMARK    2  A    between atoms: N1_6  and  C6_7 
REMARK    3  A    between atoms: C6_7  and  O1_8 
REMARK    4  A    between atoms: C6_7  and  N2_10 
REMARK    5  A    between atoms: C13_21  and  N4_22 
REMARK       I    between atoms: N4_22  and  C14_24 
REMARK    6  A    between atoms: C14_24  and  C15_26 
ROOT
HETATM    1  C3  UNL     1      12.462 -23.072 -18.234  1.00  0.00     0.039 A 
HETATM    2  C4  UNL     1      13.190 -23.355 -19.533  1.00  0.00     0.044 A 
HETATM    3  C5  UNL     1      13.520 -22.183 -18.702  1.00  0.00     0.054 A 
HETATM    4  N1  UNL     1      13.144 -20.831 -19.039  1.00  0.00    -0.306 N 
HETATM    5  C8  UNL     1      14.131 -19.806 -18.599  1.00  0.00     0.312 C 
HETATM    6  N3  UNL     1      15.306 -20.067 -19.406  1.00  0.00    -0.051 N 
ATOM      7  H31 UNL     1      16.008 -19.329 -19.341  1.00  0.00     0.279 HD
ATOM      8  H32 UNL     1      15.129 -19.989 -20.408  1.00  0.00     0.279 HD
HETATM    9  C9  UNL     1      15.801 -21.349 -19.023  1.00  0.00     0.246 C 
HETATM   10  C10 UNL     1      14.877 -22.099 -18.069  1.00  0.00     0.008 C 
HETATM   11  C11 UNL     1      15.556 -23.399 -17.755  1.00  0.00     0.020 C 
HETATM   12  C12 UNL     1      14.726 -21.327 -16.776  1.00  0.00     0.042 C 
HETATM   13  C13 UNL     1      14.497 -19.893 -17.167  1.00  0.00     0.135 C 
ENDROOT
BRANCH   4  14
HETATM   14  C6  UNL     1      11.993 -20.430 -19.721  1.00  0.00     0.217 C 
BRANCH  14  15
HETATM   15  O1  UNL     1      11.145 -19.784 -18.958  1.00  0.00    -0.333 OA
ATOM     16  H1  UNL     1      10.240 -19.906 -19.222  1.00  0.00     0.220 HD
ENDBRANCH  14  15
BRANCH  14  17
HETATM   17  N2  UNL     1      11.566 -20.576 -21.028  1.00  0.00    -0.361 N 
HETATM   18  C7  UNL     1      10.603 -21.647 -21.363  1.00  0.00     0.150 C 
ATOM     19  H2  UNL     1      11.914 -19.950 -21.754  1.00  0.00     0.162 HD
ENDBRANCH  14  17
ENDBRANCH   4  14
BRANCH   1  20
HETATM   20  C2  UNL     1      12.638 -24.129 -17.194  1.00  0.00    -0.030 C 
HETATM   21  C1  UNL     1      11.589 -24.783 -16.688  1.00  0.00     0.007 C 
ENDBRANCH   1  20
BRANCH  13  22
HETATM   22  N4  UNL     1      13.595 -19.212 -16.275  1.00  0.00    -0.352 N 
HETATM   23  C14 UNL     1      13.906 -17.917 -15.783  1.00  0.00     0.228 C 
HETATM   24  O2  UNL     1      14.995 -17.348 -16.135  1.00  0.00    -0.273 OA
ATOM     25  H4  UNL     1      12.725 -19.665 -15.993  1.00  0.00     0.163 HD
BRANCH  23  26
HETATM   26  C15 UNL     1      13.035 -17.166 -14.872  1.00  0.00     0.187 C 
HETATM   27 BR1  UNL     1      14.123 -16.288 -13.552  1.00  0.00    -0.087 Br
ENDBRANCH  23  26
ENDBRANCH  13  22
TORSDOF 6
ENDMDL
MODEL 2
REMARK VINA RESULT: -6.150093589      1.819      2.240
REMARK  6 active torsions:
REMARK  status: ('A' for Active; 'I' for Inactive)
REMARK    1  A    between atoms: C2_2  and  C3_3 
REMARK    2  A    between atoms: N1_6  and  C6_7 
REMARK    3  A    between atoms: C6_7  and  O1_8 
REMARK    4  A    between atoms: C6_7  and  N2_10 
REMARK    5  A    between atoms: C13_21  and  N4_22 
REMARK       I    between atoms: N4_22  and  C14_24 
REMARK    6  A    between atoms: C14_24  and  C15_26 
ROOT
HETATM    1  C3  UNL     1      11.741 -23.879 -17.800  1.00  0.00     0.039 A 
HETATM    2  C4  UNL     1      11.637 -24.550 -19.154  1.00  0.00     0.044 A 
HETATM    3  C5  UNL     1      12.663 -23.528 -18.875  1.00  0.00     0.054 A 
HETATM    4  N1  UNL     1      12.605 -22.176 -19.379  1.00  0.00    -0.306 N 
HETATM    5  C8  UNL     1      13.941 -21.587 -19.668  1.00  0.00     0.312 C 
HETATM    6  N3  UNL     1      14.446 -22.366 -20.781  1.00  0.00    -0.051 N 
ATOM      7  H31 UNL     1      15.281 -21.963 -21.206  1.00  0.00     0.279 HD
ATOM      8  H32 UNL     1      13.847 -22.322 -21.605  1.00  0.00     0.279 HD
HETATM    9  C9  UNL     1      14.646 -23.696 -20.304  1.00  0.00     0.246 C 
HETATM   10  C10 UNL     1      14.108 -23.925 -18.895  1.00  0.00     0.008 C 
HETATM   11  C11 UNL     1      14.421 -25.350 -18.548  1.00  0.00     0.020 C 
HETATM   12  C12 UNL     1      14.835 -23.035 -17.909  1.00  0.00     0.042 C 
HETATM   13  C13 UNL     1      14.898 -21.671 -18.542  1.00  0.00     0.135 C 
ENDROOT
BRANCH   4  14
HETATM   14  C6  UNL     1      11.453 -21.423 -19.616  1.00  0.00     0.217 C 
BRANCH  14  15
HETATM   15  O1  UNL     1      11.431 -20.297 -18.944  1.00  0.00    -0.333 OA
ATOM     16  H1  UNL     1      11.758 -19.559 -19.446  1.00  0.00     0.220 HD
ENDBRANCH  14  15
BRANCH  14  17
HETATM   17  N2  UNL     1      10.338 -21.620 -20.408  1.00  0.00    -0.361 N 
HETATM   18  C7  UNL     1      10.511 -21.958 -21.837  1.00  0.00     0.150 C 
ATOM     19  H2  UNL     1       9.402 -21.533 -20.010  1.00  0.00     0.162 HD
ENDBRANCH  14  17
ENDBRANCH   4  14
BRANCH   1  20
HETATM   20  C2  UNL     1      12.059 -24.812 -16.679  1.00  0.00    -0.030 C 
HETATM   21  C1  UNL     1      12.557 -24.362 -15.523  1.00  0.00     0.007 C 
ENDBRANCH   1  20
BRANCH  13  22
HETATM   22  N4  UNL     1      14.786 -20.607 -17.579  1.00  0.00    -0.352 N 
HETATM   23  C14 UNL     1      15.791 -19.609 -17.486  1.00  0.00     0.228 C 
HETATM   24  O2  UNL     1      16.804 -19.652 -18.264  1.00  0.00    -0.273 OA
ATOM     25  H4  UNL     1      13.978 -20.571 -16.957  1.00  0.00     0.163 HD
BRANCH  23  26
HETATM   26  C15 UNL     1      15.743 -18.498 -16.529  1.00  0.00     0.187 C 
HETATM   27 BR1  UNL     1      14.093 -17.541 -16.767  1.00  0.00    -0.087 Br
ENDBRANCH  23  26
ENDBRANCH  13  22
TORSDOF 6
ENDMDL
MODEL 3
REMARK VINA RESULT: -6.134561147      1.003      1.015
REMARK  6 active torsions:
REMARK  status: ('A' for Active; 'I' for Inactive)
REMARK    1  A    between atoms: C2_2  and  C3_3 
REMARK    2  A    between atoms: N1_6  and  C6_7 
REMARK    3  A    between atoms: C6_7  and  O1_8 
REMARK    4  A    between atoms: C6_7  and  N2_10 
REMARK    5  A    between atoms: C13_21  and  N4_22 
REMARK       I    between atoms: N4_22  and  C14_24 
REMARK    6  A    between atoms: C14_24  and  C15_26 
ROOT
HETATM    1  C3  UNL     1      12.027 -23.435 -18.556  1.00  0.00     0.039 A 
HETATM    2  C4  UNL     1      12.676 -23.576 -19.918  1.00  0.00     0.044 A 
HETATM    3  C5  UNL     1      13.196 -22.636 -18.908  1.00  0.00     0.054 A 
HETATM    4  N1  UNL     1      13.020 -21.205 -18.980  1.00  0.00    -0.306 N 
HETATM    5  C8  UNL     1      14.159 -20.432 -18.412  1.00  0.00     0.312 C 
HETATM    6  N3  UNL     1      15.264 -20.706 -19.308  1.00  0.00    -0.051 N 
ATOM      7  H31 UNL     1      16.070 -20.102 -19.147  1.00  0.00     0.279 HD
ATOM      8  H32 UNL     1      15.079 -20.421 -20.270  1.00  0.00     0.279 HD
HETATM    9  C9  UNL     1      15.570 -22.094 -19.184  1.00  0.00     0.246 C 
HETATM   10  C10 UNL     1      14.563 -22.867 -18.337  1.00  0.00     0.008 C 
HETATM   11  C11 UNL     1      15.046 -24.285 -18.293  1.00  0.00     0.020 C 
HETATM   12  C12 UNL     1      14.557 -22.332 -16.921  1.00  0.00     0.042 C 
HETATM   13  C13 UNL     1      14.538 -20.832 -17.038  1.00  0.00     0.135 C 
ENDROOT
BRANCH   4  14
HETATM   14  C6  UNL     1      11.928 -20.526 -19.523  1.00  0.00     0.217 C 
BRANCH  14  15
HETATM   15  O1  UNL     1      11.402 -19.657 -18.693  1.00  0.00    -0.333 OA
ATOM     16  H1  UNL     1      11.999 -18.953 -18.465  1.00  0.00     0.220 HD
ENDBRANCH  14  15
BRANCH  14  17
HETATM   17  N2  UNL     1      11.292 -20.580 -20.749  1.00  0.00    -0.361 N 
HETATM   18  C7  UNL     1      12.100 -20.641 -21.986  1.00  0.00     0.150 C 
ATOM     19  H2  UNL     1      10.273 -20.579 -20.800  1.00  0.00     0.162 HD
ENDBRANCH  14  17
ENDBRANCH   4  14
BRANCH   1  20
HETATM   20  C2  UNL     1      12.064 -24.679 -17.730  1.00  0.00    -0.030 C 
HETATM   21  C1  UNL     1      11.784 -24.651 -16.424  1.00  0.00     0.007 C 
ENDBRANCH   1  20
BRANCH  13  22
HETATM   22  N4  UNL     1      13.768 -20.204 -15.996  1.00  0.00    -0.352 N 
HETATM   23  C14 UNL     1      14.367 -19.256 -15.126  1.00  0.00     0.228 C 
HETATM   24  O2  UNL     1      15.601 -18.954 -15.268  1.00  0.00    -0.273 OA
ATOM     25  H4  UNL     1      12.782 -20.444 -15.882  1.00  0.00     0.163 HD
BRANCH  23  26
HETATM   26  C15 UNL     1      13.644 -18.578 -14.044  1.00  0.00     0.187 C 
HETATM   27 BR1  UNL     1      14.155 -16.725 -14.018  1.00  0.00    -0.087 Br
ENDBRANCH  23  26
ENDBRANCH  13  22
TORSDOF 6
ENDMDL
MODEL 4
REMARK VINA RESULT: -5.881595052      3.283      5.820
REMARK  6 active torsions:
REMARK  status: ('A' for Active; 'I' for Inactive)
REMARK    1  A    between atoms: C2_2  and  C3_3 
REMARK    2  A    between atoms: N1_6  and  C6_7 
REMARK    3  A    between atoms: C6_7  and  O1_8 
REMARK    4  A    between atoms: C6_7  and  N2_10 
REMARK    5  A    between atoms: C13_21  and  N4_22 
REMARK       I    between atoms: N4_22  and  C14_24 
REMARK    6  A    between atoms: C14_24  and  C15_26 
ROOT
HETATM    1  C3  UNL     1      13.523 -18.861 -14.313  1.00  0.00     0.039 A 
HETATM    2  C4  UNL     1      14.953 -19.133 -13.895  1.00  0.00     0.044 A 
HETATM    3  C5  UNL     1      14.512 -19.299 -15.292  1.00  0.00     0.054 A 
HETATM    4  N1  UNL     1      14.298 -20.582 -15.917  1.00  0.00    -0.306 N 
HETATM    5  C8  UNL     1      14.619 -20.602 -17.371  1.00  0.00     0.312 C 
HETATM    6  N3  UNL     1      16.054 -20.408 -17.426  1.00  0.00    -0.051 N 
ATOM      7  H31 UNL     1      16.446 -20.575 -18.353  1.00  0.00     0.279 HD
ATOM      8  H32 UNL     1      16.576 -21.132 -16.933  1.00  0.00     0.279 HD
HETATM    9  C9  UNL     1      16.318 -19.094 -16.935  1.00  0.00     0.246 C 
HETATM   10  C10 UNL     1      15.090 -18.405 -16.348  1.00  0.00     0.008 C 
HETATM   11  C11 UNL     1      15.538 -17.043 -15.908  1.00  0.00     0.020 C 
HETATM   12  C12 UNL     1      14.033 -18.226 -17.416  1.00  0.00     0.042 C 
HETATM   13  C13 UNL     1      13.955 -19.536 -18.154  1.00  0.00     0.135 C 
ENDROOT
BRANCH   4  14
HETATM   14  C6  UNL     1      13.849 -21.749 -15.295  1.00  0.00     0.217 C 
BRANCH  14  15
HETATM   15  O1  UNL     1      13.001 -22.427 -16.030  1.00  0.00    -0.333 OA
ATOM     16  H1  UNL     1      12.315 -22.842 -15.518  1.00  0.00     0.220 HD
ENDBRANCH  14  15
BRANCH  14  17
HETATM   17  N2  UNL     1      14.113 -22.332 -14.070  1.00  0.00    -0.361 N 
HETATM   18  C7  UNL     1      13.072 -22.321 -13.019  1.00  0.00     0.150 C 
ATOM     19  H2  UNL     1      15.019 -22.766 -13.891  1.00  0.00     0.162 HD
ENDBRANCH  14  17
ENDBRANCH   4  14
BRANCH   1  20
HETATM   20  C2  UNL     1      13.089 -17.446 -14.119  1.00  0.00    -0.030 C 
HETATM   21  C1  UNL     1      13.464 -16.749 -13.042  1.00  0.00     0.007 C 
ENDBRANCH   1  20
BRANCH  13  22
HETATM   22  N4  UNL     1      12.617 -19.851 -18.582  1.00  0.00    -0.352 N 
HETATM   23  C14 UNL     1      12.393 -20.533 -19.807  1.00  0.00     0.228 C 
HETATM   24  O2  UNL     1      13.387 -20.872 -20.537  1.00  0.00    -0.273 OA
ATOM     25  H4  UNL     1      11.823 -19.582 -18.001  1.00  0.00     0.163 HD
BRANCH  23  26
HETATM   26  C15 UNL     1      11.059 -20.886 -20.306  1.00  0.00     0.187 C 
HETATM   27 BR1  UNL     1      11.250 -21.950 -21.895  1.00  0.00    -0.087 Br
ENDBRANCH  23  26
ENDBRANCH  13  22
TORSDOF 6
ENDMDL
MODEL 5
REMARK VINA RESULT: -5.876246644      3.446      6.278
REMARK  6 active torsions:
REMARK  status: ('A' for Active; 'I' for Inactive)
REMARK    1  A    between atoms: C2_2  and  C3_3 
REMARK    2  A    between atoms: N1_6  and  C6_7 
REMARK    3  A    between atoms: C6_7  and  O1_8 
REMARK    4  A    between atoms: C6_7  and  N2_10 
REMARK    5  A    between atoms: C13_21  and  N4_22 
REMARK       I    between atoms: N4_22  and  C14_24 
REMARK    6  A    between atoms: C14_24  and  C15_26 
ROOT
HETATM    1  C3  UNL     1      15.068 -17.682 -14.857  1.00  0.00     0.039 A 
HETATM    2  C4  UNL     1      15.627 -16.828 -15.977  1.00  0.00     0.044 A 
HETATM    3  C5  UNL     1      15.212 -18.225 -16.203  1.00  0.00     0.054 A 
HETATM    4  N1  UNL     1      16.140 -19.318 -16.378  1.00  0.00    -0.306 N 
HETATM    5  C8  UNL     1      15.650 -20.377 -17.302  1.00  0.00     0.312 C 
HETATM    6  N3  UNL     1      15.603 -19.732 -18.599  1.00  0.00    -0.051 N 
ATOM      7  H31 UNL     1      15.454 -20.386 -19.367  1.00  0.00     0.279 HD
ATOM      8  H32 UNL     1      16.511 -19.379 -18.904  1.00  0.00     0.279 HD
HETATM    9  C9  UNL     1      14.603 -18.716 -18.525  1.00  0.00     0.246 C 
HETATM   10  C10 UNL     1      14.056 -18.501 -17.117  1.00  0.00     0.008 C 
HETATM   11  C11 UNL     1      13.012 -17.430 -17.227  1.00  0.00     0.020 C 
HETATM   12  C12 UNL     1      13.381 -19.762 -16.623  1.00  0.00     0.042 C 
HETATM   13  C13 UNL     1      14.305 -20.898 -16.970  1.00  0.00     0.135 C 
ENDROOT
BRANCH   4  14
HETATM   14  C6  UNL     1      17.399 -19.445 -15.788  1.00  0.00     0.217 C 
BRANCH  14  15
HETATM   15  O1  UNL     1      17.339 -19.749 -14.514  1.00  0.00    -0.333 OA
ATOM     16  H1  UNL     1      17.971 -20.414 -14.261  1.00  0.00     0.220 HD
ENDBRANCH  14  15
BRANCH  14  17
HETATM   17  N2  UNL     1      18.689 -19.317 -16.270  1.00  0.00    -0.361 N 
HETATM   18  C7  UNL     1      19.440 -20.527 -16.669  1.00  0.00     0.150 C 
ATOM     19  H2  UNL     1      19.118 -18.395 -16.349  1.00  0.00     0.162 HD
ENDBRANCH  14  17
ENDBRANCH   4  14
BRANCH   1  20
HETATM   20  C2  UNL     1      13.790 -17.171 -14.279  1.00  0.00    -0.030 C 
HETATM   21  C1  UNL     1      13.682 -16.889 -12.977  1.00  0.00     0.007 C 
ENDBRANCH   1  20
BRANCH  13  22
HETATM   22  N4  UNL     1      14.293 -21.943 -15.980  1.00  0.00    -0.352 N 
HETATM   23  C14 UNL     1      13.402 -23.042 -16.101  1.00  0.00     0.228 C 
HETATM   24  O2  UNL     1      12.603 -23.105 -17.097  1.00  0.00    -0.273 OA
ATOM     25  H4  UNL     1      14.931 -21.895 -15.185  1.00  0.00     0.163 HD
BRANCH  23  26
HETATM   26  C15 UNL     1      13.335 -24.141 -15.132  1.00  0.00     0.187 C 
HETATM   27 BR1  UNL     1      13.458 -25.812 -16.076  1.00  0.00    -0.087 Br
ENDBRANCH  23  26
ENDBRANCH  13  22
TORSDOF 6
ENDMDL
