MODEL 1
REMARK VINA RESULT: -6.817163105      0.000      0.000
REMARK  8 active torsions:
REMARK  status: ('A' for Active; 'I' for Inactive)
REMARK    1  A    between atoms: O1_1  and  C1_3 
REMARK    2  A    between atoms: C1_3  and  C2_4 
REMARK    3  A    between atoms: C2_4  and  N1_5 
REMARK    4  A    between atoms: N1_5  and  C3_8 
REMARK    5  A    between atoms: C3_8  and  C4_9 
REMARK    6  A    between atoms: C6_11  and  O2_12 
REMARK    7  A    between atoms: O2_12  and  C7_13 
REMARK    8  A    between atoms: C7_13  and  C8_14 
ROOT
HETATM    1  C4  UNL     1     -28.130 -12.282 -30.904  1.00  0.00     0.040 A 
HETATM    2  C5  UNL     1     -27.030 -12.533 -30.119  1.00  0.00     0.065 A 
HETATM    3  C6  UNL     1     -26.911 -11.580 -29.130  1.00  0.00     0.093 A 
HETATM    4  C11 UNL     1     -28.018 -10.719 -29.356  1.00  0.00     0.045 A 
HETATM    5  N2  UNL     1     -28.688 -11.179 -30.399  1.00  0.00    -0.350 N 
HETATM    6  C12 UNL     1     -29.877 -10.411 -30.788  1.00  0.00     0.129 C 
HETATM    7  C13 UNL     1     -30.716 -10.227 -29.551  1.00  0.00     0.021 C 
HETATM    8  C14 UNL     1     -29.963  -9.674 -28.386  1.00  0.00     0.008 C 
HETATM    9  C15 UNL     1     -28.484  -9.504 -28.663  1.00  0.00     0.060 C 
ENDROOT
BRANCH   1  10
HETATM   10  C3  UNL     1     -28.578 -13.076 -32.051  1.00  0.00     0.289 C 
BRANCH  10  11
HETATM   11  N1  UNL     1     -27.705 -14.166 -32.392  1.00  0.00    -0.067 N 
ATOM     12  H12 UNL     1     -28.200 -15.050 -32.513  1.00  0.00     0.277 HD
ATOM     13  H11 UNL     1     -27.106 -14.454 -31.619  1.00  0.00     0.277 HD
BRANCH  11  14
HETATM   14  C2  UNL     1     -26.959 -13.769 -33.571  1.00  0.00     0.270 C 
BRANCH  14  15
HETATM   15  C1  UNL     1     -25.546 -14.313 -33.545  1.00  0.00     0.082 A 
HETATM   16  C16 UNL     1     -25.532 -15.633 -32.766  1.00  0.00     0.039 A 
HETATM   17  C17 UNL     1     -25.133 -16.399 -34.022  1.00  0.00     0.006 A 
HETATM   18  C18 UNL     1     -25.187 -15.112 -34.777  1.00  0.00     0.039 A 
BRANCH  15  19
HETATM   19  O1  UNL     1     -24.588 -13.432 -33.105  1.00  0.00    -0.388 OA
ATOM     20  H1  UNL     1     -24.030 -13.757 -32.409  1.00  0.00     0.210 HD
ENDBRANCH  15  19
ENDBRANCH  14  15
ENDBRANCH  11  14
ENDBRANCH  10  11
ENDBRANCH   1  10
BRANCH   3  21
HETATM   21  O2  UNL     1     -26.053 -11.370 -28.138  1.00  0.00    -0.349 OA
BRANCH  21  22
HETATM   22  C7  UNL     1     -25.716 -11.723 -26.923  1.00  0.00     0.180 C 
BRANCH  22  23
HETATM   23  C8  UNL     1     -26.310 -12.986 -26.370  1.00  0.00     0.010 A 
HETATM   24  C9  UNL     1     -26.175 -14.337 -26.884  1.00  0.00     0.007 A 
HETATM   25  C10 UNL     1     -25.422 -13.942 -25.639  1.00  0.00     0.007 A 
ENDBRANCH  22  23
ENDBRANCH  21  22
ENDBRANCH   3  21
TORSDOF 8
ENDMDL
MODEL 2
REMARK VINA RESULT: -6.739512235      0.848      1.324
REMARK  8 active torsions:
REMARK  status: ('A' for Active; 'I' for Inactive)
REMARK    1  A    between atoms: O1_1  and  C1_3 
REMARK    2  A    between atoms: C1_3  and  C2_4 
REMARK    3  A    between atoms: C2_4  and  N1_5 
REMARK    4  A    between atoms: N1_5  and  C3_8 
REMARK    5  A    between atoms: C3_8  and  C4_9 
REMARK    6  A    between atoms: C6_11  and  O2_12 
REMARK    7  A    between atoms: O2_12  and  C7_13 
REMARK    8  A    between atoms: C7_13  and  C8_14 
ROOT
HETATM    1  C4  UNL     1     -27.979 -12.439 -31.008  1.00  0.00     0.040 A 
HETATM    2  C5  UNL     1     -26.906 -12.608 -30.164  1.00  0.00     0.065 A 
HETATM    3  C6  UNL     1     -26.883 -11.619 -29.205  1.00  0.00     0.093 A 
HETATM    4  C11 UNL     1     -28.018 -10.823 -29.511  1.00  0.00     0.045 A 
HETATM    5  N2  UNL     1     -28.613 -11.350 -30.567  1.00  0.00    -0.350 N 
HETATM    6  C12 UNL     1     -29.819 -10.657 -31.038  1.00  0.00     0.129 C 
HETATM    7  C13 UNL     1     -30.725 -10.476 -29.848  1.00  0.00     0.021 C 
HETATM    8  C14 UNL     1     -30.057  -9.847 -28.669  1.00  0.00     0.008 C 
HETATM    9  C15 UNL     1     -28.576  -9.612 -28.883  1.00  0.00     0.060 C 
ENDROOT
BRANCH   1  10
HETATM   10  C3  UNL     1     -28.331 -13.292 -32.146  1.00  0.00     0.289 C 
BRANCH  10  11
HETATM   11  N1  UNL     1     -27.402 -14.360 -32.394  1.00  0.00    -0.067 N 
ATOM     12  H12 UNL     1     -27.813 -15.284 -32.266  1.00  0.00     0.277 HD
ATOM     13  H11 UNL     1     -26.680 -14.435 -31.678  1.00  0.00     0.277 HD
BRANCH  11  14
HETATM   14  C2  UNL     1     -26.861 -14.161 -33.726  1.00  0.00     0.270 C 
BRANCH  14  15
HETATM   15  C1  UNL     1     -25.347 -14.147 -33.715  1.00  0.00     0.082 A 
HETATM   16  C16 UNL     1     -24.840 -13.748 -35.106  1.00  0.00     0.039 A 
HETATM   17  C17 UNL     1     -24.231 -12.468 -34.544  1.00  0.00     0.006 A 
HETATM   18  C18 UNL     1     -24.762 -12.850 -33.202  1.00  0.00     0.039 A 
BRANCH  15  19
HETATM   19  O1  UNL     1     -24.754 -15.294 -33.249  1.00  0.00    -0.388 OA
ATOM     20  H1  UNL     1     -23.917 -15.507 -33.645  1.00  0.00     0.210 HD
ENDBRANCH  15  19
ENDBRANCH  14  15
ENDBRANCH  11  14
ENDBRANCH  10  11
ENDBRANCH   1  10
BRANCH   3  21
HETATM   21  O2  UNL     1     -26.085 -11.334 -28.182  1.00  0.00    -0.349 OA
BRANCH  21  22
HETATM   22  C7  UNL     1     -25.740 -11.677 -26.966  1.00  0.00     0.180 C 
BRANCH  22  23
HETATM   23  C8  UNL     1     -26.319 -12.944 -26.404  1.00  0.00     0.010 A 
HETATM   24  C9  UNL     1     -26.107 -14.304 -26.864  1.00  0.00     0.007 A 
HETATM   25  C10 UNL     1     -25.441 -13.842 -25.593  1.00  0.00     0.007 A 
ENDBRANCH  22  23
ENDBRANCH  21  22
ENDBRANCH   3  21
TORSDOF 8
ENDMDL
MODEL 3
REMARK VINA RESULT: -6.558551879      1.216      1.395
REMARK  8 active torsions:
REMARK  status: ('A' for Active; 'I' for Inactive)
REMARK    1  A    between atoms: O1_1  and  C1_3 
REMARK    2  A    between atoms: C1_3  and  C2_4 
REMARK    3  A    between atoms: C2_4  and  N1_5 
REMARK    4  A    between atoms: N1_5  and  C3_8 
REMARK    5  A    between atoms: C3_8  and  C4_9 
REMARK    6  A    between atoms: C6_11  and  O2_12 
REMARK    7  A    between atoms: O2_12  and  C7_13 
REMARK    8  A    between atoms: C7_13  and  C8_14 
ROOT
HETATM    1  C4  UNL     1     -28.308 -11.963 -30.917  1.00  0.00     0.040 A 
HETATM    2  C5  UNL     1     -27.172 -12.317 -30.228  1.00  0.00     0.065 A 
HETATM    3  C6  UNL     1     -26.968 -11.470 -29.160  1.00  0.00     0.093 A 
HETATM    4  C11 UNL     1     -28.059 -10.564 -29.233  1.00  0.00     0.045 A 
HETATM    5  N2  UNL     1     -28.802 -10.902 -30.273  1.00  0.00    -0.350 N 
HETATM    6  C12 UNL     1     -29.988 -10.071 -30.513  1.00  0.00     0.129 C 
HETATM    7  C13 UNL     1     -30.748  -9.990 -29.215  1.00  0.00     0.021 C 
HETATM    8  C14 UNL     1     -29.912  -9.574 -28.049  1.00  0.00     0.008 C 
HETATM    9  C15 UNL     1     -28.447  -9.413 -28.398  1.00  0.00     0.060 C 
ENDROOT
BRANCH   1  10
HETATM   10  C3  UNL     1     -28.845 -12.628 -32.106  1.00  0.00     0.289 C 
BRANCH  10  11
HETATM   11  N1  UNL     1     -28.567 -14.036 -32.173  1.00  0.00    -0.067 N 
ATOM     12  H12 UNL     1     -29.311 -14.609 -31.776  1.00  0.00     0.277 HD
ATOM     13  H11 UNL     1     -27.824 -14.326 -31.537  1.00  0.00     0.277 HD
BRANCH  11  14
HETATM   14  C2  UNL     1     -28.283 -14.356 -33.559  1.00  0.00     0.270 C 
BRANCH  14  15
HETATM   15  C1  UNL     1     -27.337 -15.532 -33.677  1.00  0.00     0.082 A 
HETATM   16  C16 UNL     1     -26.518 -15.388 -34.966  1.00  0.00     0.039 A 
HETATM   17  C17 UNL     1     -25.232 -15.238 -34.161  1.00  0.00     0.006 A 
HETATM   18  C18 UNL     1     -26.046 -15.342 -32.914  1.00  0.00     0.039 A 
BRANCH  15  19
HETATM   19  O1  UNL     1     -27.922 -16.769 -33.562  1.00  0.00    -0.388 OA
ATOM     20  H1  UNL     1     -28.339 -17.094 -34.351  1.00  0.00     0.210 HD
ENDBRANCH  15  19
ENDBRANCH  14  15
ENDBRANCH  11  14
ENDBRANCH  10  11
ENDBRANCH   1  10
BRANCH   3  21
HETATM   21  O2  UNL     1     -26.047 -11.381 -28.207  1.00  0.00    -0.349 OA
BRANCH  21  22
HETATM   22  C7  UNL     1     -25.742 -11.721 -26.979  1.00  0.00     0.180 C 
BRANCH  22  23
HETATM   23  C8  UNL     1     -26.356 -12.975 -26.426  1.00  0.00     0.010 A 
HETATM   24  C9  UNL     1     -26.240 -14.328 -26.939  1.00  0.00     0.007 A 
HETATM   25  C10 UNL     1     -25.484 -13.943 -25.692  1.00  0.00     0.007 A 
ENDBRANCH  22  23
ENDBRANCH  21  22
ENDBRANCH   3  21
TORSDOF 8
ENDMDL
MODEL 4
REMARK VINA RESULT: -6.420406259      2.702      3.818
REMARK  8 active torsions:
REMARK  status: ('A' for Active; 'I' for Inactive)
REMARK    1  A    between atoms: O1_1  and  C1_3 
REMARK    2  A    between atoms: C1_3  and  C2_4 
REMARK    3  A    between atoms: C2_4  and  N1_5 
REMARK    4  A    between atoms: N1_5  and  C3_8 
REMARK    5  A    between atoms: C3_8  and  C4_9 
REMARK    6  A    between atoms: C6_11  and  O2_12 
REMARK    7  A    between atoms: O2_12  and  C7_13 
REMARK    8  A    between atoms: C7_13  and  C8_14 
ROOT
HETATM    1  C4  UNL     1     -28.503 -12.076 -31.027  1.00  0.00     0.040 A 
HETATM    2  C5  UNL     1     -27.358 -12.432 -30.353  1.00  0.00     0.065 A 
HETATM    3  C6  UNL     1     -27.119 -11.562 -29.310  1.00  0.00     0.093 A 
HETATM    4  C11 UNL     1     -28.197 -10.641 -29.384  1.00  0.00     0.045 A 
HETATM    5  N2  UNL     1     -28.966 -10.992 -30.400  1.00  0.00    -0.350 N 
HETATM    6  C12 UNL     1     -30.144 -10.148 -30.636  1.00  0.00     0.129 C 
HETATM    7  C13 UNL     1     -30.876 -10.023 -29.326  1.00  0.00     0.021 C 
HETATM    8  C14 UNL     1     -30.010  -9.592 -28.187  1.00  0.00     0.008 C 
HETATM    9  C15 UNL     1     -28.550  -9.464 -28.569  1.00  0.00     0.060 C 
ENDROOT
BRANCH   1  10
HETATM   10  C3  UNL     1     -29.074 -12.762 -32.189  1.00  0.00     0.289 C 
BRANCH  10  11
HETATM   11  N1  UNL     1     -29.616 -14.061 -31.901  1.00  0.00    -0.067 N 
ATOM     12  H12 UNL     1     -29.025 -14.610 -31.277  1.00  0.00     0.277 HD
ATOM     13  H11 UNL     1     -29.586 -14.692 -32.702  1.00  0.00     0.277 HD
BRANCH  11  14
HETATM   14  C2  UNL     1     -30.957 -13.866 -31.384  1.00  0.00     0.270 C 
BRANCH  14  15
HETATM   15  C1  UNL     1     -31.821 -15.090 -31.599  1.00  0.00     0.082 A 
HETATM   16  C16 UNL     1     -33.284 -14.725 -31.323  1.00  0.00     0.039 A 
HETATM   17  C17 UNL     1     -33.650 -14.984 -32.780  1.00  0.00     0.006 A 
HETATM   18  C18 UNL     1     -32.215 -15.300 -33.043  1.00  0.00     0.039 A 
BRANCH  15  19
HETATM   19  O1  UNL     1     -31.423 -16.215 -30.919  1.00  0.00    -0.388 OA
ATOM     20  H1  UNL     1     -31.610 -17.038 -31.354  1.00  0.00     0.210 HD
ENDBRANCH  15  19
ENDBRANCH  14  15
ENDBRANCH  11  14
ENDBRANCH  10  11
ENDBRANCH   1  10
BRANCH   3  21
HETATM   21  O2  UNL     1     -26.178 -11.465 -28.378  1.00  0.00    -0.349 OA
BRANCH  21  22
HETATM   22  C7  UNL     1     -25.874 -11.735 -27.133  1.00  0.00     0.180 C 
BRANCH  22  23
HETATM   23  C8  UNL     1     -26.424 -12.997 -26.534  1.00  0.00     0.010 A 
HETATM   24  C9  UNL     1     -26.230 -14.361 -26.991  1.00  0.00     0.007 A 
HETATM   25  C10 UNL     1     -25.509 -13.887 -25.755  1.00  0.00     0.007 A 
ENDBRANCH  22  23
ENDBRANCH  21  22
ENDBRANCH   3  21
TORSDOF 8
ENDMDL
MODEL 5
REMARK VINA RESULT: -6.403196966      2.679      5.414
REMARK  8 active torsions:
REMARK  status: ('A' for Active; 'I' for Inactive)
REMARK    1  A    between atoms: O1_1  and  C1_3 
REMARK    2  A    between atoms: C1_3  and  C2_4 
REMARK    3  A    between atoms: C2_4  and  N1_5 
REMARK    4  A    between atoms: N1_5  and  C3_8 
REMARK    5  A    between atoms: C3_8  and  C4_9 
REMARK    6  A    between atoms: C6_11  and  O2_12 
REMARK    7  A    between atoms: O2_12  and  C7_13 
REMARK    8  A    between atoms: C7_13  and  C8_14 
ROOT
HETATM    1  C4  UNL     1     -29.414 -11.537 -30.050  1.00  0.00     0.040 A 
HETATM    2  C5  UNL     1     -28.712 -11.537 -28.867  1.00  0.00     0.065 A 
HETATM    3  C6  UNL     1     -27.356 -11.491 -29.108  1.00  0.00     0.093 A 
HETATM    4  C11 UNL     1     -27.264 -11.461 -30.525  1.00  0.00     0.045 A 
HETATM    5  N2  UNL     1     -28.492 -11.489 -31.015  1.00  0.00    -0.350 N 
HETATM    6  C12 UNL     1     -28.602 -11.465 -32.479  1.00  0.00     0.129 C 
HETATM    7  C13 UNL     1     -27.770 -10.309 -32.971  1.00  0.00     0.021 C 
HETATM    8  C14 UNL     1     -26.373 -10.301 -32.443  1.00  0.00     0.008 C 
HETATM    9  C15 UNL     1     -26.111 -11.407 -31.442  1.00  0.00     0.060 C 
ENDROOT
BRANCH   1  10
HETATM   10  C3  UNL     1     -30.872 -11.579 -30.194  1.00  0.00     0.289 C 
BRANCH  10  11
HETATM   11  N1  UNL     1     -31.461 -10.337 -30.612  1.00  0.00    -0.067 N 
ATOM     12  H12 UNL     1     -32.383 -10.454 -31.032  1.00  0.00     0.277 HD
ATOM     13  H11 UNL     1     -30.997  -9.929 -31.424  1.00  0.00     0.277 HD
BRANCH  11  14
HETATM   14  C2  UNL     1     -31.470  -9.454 -29.461  1.00  0.00     0.270 C 
BRANCH  14  15
HETATM   15  C1  UNL     1     -30.890  -8.096 -29.796  1.00  0.00     0.082 A 
HETATM   16  C16 UNL     1     -29.566  -7.919 -29.044  1.00  0.00     0.039 A 
HETATM   17  C17 UNL     1     -28.796  -7.875 -30.359  1.00  0.00     0.006 A 
HETATM   18  C18 UNL     1     -30.087  -8.086 -31.077  1.00  0.00     0.039 A 
BRANCH  15  19
HETATM   19  O1  UNL     1     -31.742  -7.035 -29.616  1.00  0.00    -0.388 OA
ATOM     20  H1  UNL     1     -31.843  -6.745 -28.718  1.00  0.00     0.210 HD
ENDBRANCH  15  19
ENDBRANCH  14  15
ENDBRANCH  11  14
ENDBRANCH  10  11
ENDBRANCH   1  10
BRANCH   3  21
HETATM   21  O2  UNL     1     -26.274 -11.469 -28.338  1.00  0.00    -0.349 OA
BRANCH  21  22
HETATM   22  C7  UNL     1     -25.795 -11.776 -27.159  1.00  0.00     0.180 C 
BRANCH  22  23
HETATM   23  C8  UNL     1     -26.341 -12.996 -26.476  1.00  0.00     0.010 A 
HETATM   24  C9  UNL     1     -26.169 -14.387 -26.856  1.00  0.00     0.007 A 
HETATM   25  C10 UNL     1     -25.417 -13.847 -25.666  1.00  0.00     0.007 A 
ENDBRANCH  22  23
ENDBRANCH  21  22
ENDBRANCH   3  21
TORSDOF 8
ENDMDL
