MODEL 1
REMARK VINA RESULT: -6.427717696      0.000      0.000
REMARK  8 active torsions:
REMARK  status: ('A' for Active; 'I' for Inactive)
REMARK    1  A    between atoms: C2_2  and  C3_3 
REMARK    2  A    between atoms: C3_3  and  C4_4 
REMARK    3  A    between atoms: C4_4  and  N1_6 
REMARK    4  A    between atoms: N1_6  and  C6_8 
REMARK    5  A    between atoms: C6_8  and  C7_9 
REMARK    6  A    between atoms: C6_8  and  C8_12 
REMARK    7  A    between atoms: C7_9  and  O1_10 
REMARK    8  A    between atoms: N2_13  and  C9_15 
ROOT
HETATM    1  C8  UNL     1     -20.595   2.954  -2.896  1.00  0.00     0.083 C 
HETATM    2  N2  UNL     1     -21.512   1.949  -3.029  1.00  0.00    -0.386 N 
ATOM      3  H2  UNL     1     -21.439   1.204  -2.336  1.00  0.00     0.159 HD
ENDROOT
BRANCH   1   4
HETATM    4  C6  UNL     1     -20.991   4.241  -2.197  1.00  0.00     0.138 C 
BRANCH   4   5
HETATM    5  N1  UNL     1     -19.857   5.057  -2.159  1.00  0.00    -0.407 N 
ATOM      6  H1  UNL     1     -18.999   4.602  -2.470  1.00  0.00     0.154 HD
BRANCH   5   7
HETATM    7  C4  UNL     1     -19.701   6.354  -1.780  1.00  0.00     0.073 C 
HETATM    8  C5  UNL     1     -18.996   7.050  -2.998  1.00  0.00     0.031 C 
BRANCH   7   9
HETATM    9  C3  UNL     1     -18.962   6.805  -0.579  1.00  0.00     0.024 C 
BRANCH   9  10
HETATM   10  C2  UNL     1     -19.925   7.041   0.593  1.00  0.00    -0.003 C 
HETATM   11  C1  UNL     1     -19.678   6.110   1.725  1.00  0.00     0.005 C 
ENDBRANCH   9  10
ENDBRANCH   7   9
ENDBRANCH   5   7
ENDBRANCH   4   5
BRANCH   4  12
HETATM   12  C7  UNL     1     -21.335   3.859  -0.740  1.00  0.00     0.194 C 
BRANCH  12  13
HETATM   13  O1  UNL     1     -20.549   2.850  -0.240  1.00  0.00    -0.398 OA
ATOM     14  H1  UNL     1     -20.517   2.833   0.709  1.00  0.00     0.209 HD
ENDBRANCH  12  13
ENDBRANCH   4  12
ENDBRANCH   1   4
BRANCH   2  15
HETATM   15  C9  UNL     1     -22.524   1.789  -3.960  1.00  0.00     0.095 C 
HETATM   16  C10 UNL     1     -22.792   0.253  -4.206  1.00  0.00     0.037 C 
HETATM   17  C11 UNL     1     -24.258   0.081  -4.536  1.00  0.00     0.007 C 
HETATM   18  C12 UNL     1     -24.811   1.341  -5.198  1.00  0.00    -0.009 C 
HETATM   19  C13 UNL     1     -25.009   2.323  -4.050  1.00  0.00     0.007 C 
HETATM   20  C15 UNL     1     -23.784   1.968  -6.076  1.00  0.00     0.086 C 
HETATM   21  C14 UNL     1     -23.782   2.254  -3.229  1.00  0.00     0.037 C 
HETATM   22  C16 UNL     1     -22.503   2.365  -5.311  1.00  0.00     0.268 C 
HETATM   23  F1  UNL     1     -21.522   1.823  -6.145  1.00  0.00    -0.204 F 
HETATM   24  F2  UNL     1     -22.358   3.724  -5.328  1.00  0.00    -0.204 F 
ENDBRANCH   2  15
TORSDOF 8
ENDMDL
MODEL 2
REMARK VINA RESULT: -6.327196702      0.938      1.462
REMARK  8 active torsions:
REMARK  status: ('A' for Active; 'I' for Inactive)
REMARK    1  A    between atoms: C2_2  and  C3_3 
REMARK    2  A    between atoms: C3_3  and  C4_4 
REMARK    3  A    between atoms: C4_4  and  N1_6 
REMARK    4  A    between atoms: N1_6  and  C6_8 
REMARK    5  A    between atoms: C6_8  and  C7_9 
REMARK    6  A    between atoms: C6_8  and  C8_12 
REMARK    7  A    between atoms: C7_9  and  O1_10 
REMARK    8  A    between atoms: N2_13  and  C9_15 
ROOT
HETATM    1  C8  UNL     1     -20.399   2.828  -3.004  1.00  0.00     0.083 C 
HETATM    2  N2  UNL     1     -21.257   1.800  -3.276  1.00  0.00    -0.386 N 
ATOM      3  H2  UNL     1     -21.299   1.072  -2.562  1.00  0.00     0.159 HD
ENDROOT
BRANCH   1   4
HETATM    4  C6  UNL     1     -20.941   4.121  -2.424  1.00  0.00     0.138 C 
BRANCH   4   5
HETATM    5  N1  UNL     1     -19.859   4.991  -2.270  1.00  0.00    -0.407 N 
ATOM      6  H1  UNL     1     -18.959   4.600  -2.549  1.00  0.00     0.154 HD
BRANCH   5   7
HETATM    7  C4  UNL     1     -19.797   6.270  -1.811  1.00  0.00     0.073 C 
HETATM    8  C5  UNL     1     -19.102   7.081  -2.963  1.00  0.00     0.031 C 
BRANCH   7   9
HETATM    9  C3  UNL     1     -19.126   6.695  -0.563  1.00  0.00     0.024 C 
BRANCH   9  10
HETATM   10  C2  UNL     1     -20.120   6.721   0.606  1.00  0.00    -0.003 C 
HETATM   11  C1  UNL     1     -19.735   5.791   1.700  1.00  0.00     0.005 C 
ENDBRANCH   9  10
ENDBRANCH   7   9
ENDBRANCH   5   7
ENDBRANCH   4   5
BRANCH   4  12
HETATM   12  C7  UNL     1     -21.467   3.781  -1.011  1.00  0.00     0.194 C 
BRANCH  12  13
HETATM   13  O1  UNL     1     -20.658   2.908  -0.324  1.00  0.00    -0.398 OA
ATOM     14  H1  UNL     1     -21.122   2.150   0.012  1.00  0.00     0.209 HD
ENDBRANCH  12  13
ENDBRANCH   4  12
ENDBRANCH   1   4
BRANCH   2  15
HETATM   15  C9  UNL     1     -22.076   1.594  -4.373  1.00  0.00     0.095 C 
HETATM   16  C10 UNL     1     -21.201   1.275  -5.647  1.00  0.00     0.037 C 
HETATM   17  C11 UNL     1     -21.995   0.345  -6.538  1.00  0.00     0.007 C 
HETATM   18  C12 UNL     1     -23.494   0.567  -6.348  1.00  0.00    -0.009 C 
HETATM   19  C13 UNL     1     -23.822  -0.133  -5.035  1.00  0.00     0.007 C 
HETATM   20  C15 UNL     1     -23.785   2.008  -6.107  1.00  0.00     0.086 C 
HETATM   21  C14 UNL     1     -22.769   0.264  -4.078  1.00  0.00     0.037 C 
HETATM   22  C16 UNL     1     -23.067   2.564  -4.858  1.00  0.00     0.268 C 
HETATM   23  F1  UNL     1     -22.510   3.735  -5.375  1.00  0.00    -0.204 F 
HETATM   24  F2  UNL     1     -23.991   2.924  -3.916  1.00  0.00    -0.204 F 
ENDBRANCH   2  15
TORSDOF 8
ENDMDL
MODEL 3
REMARK VINA RESULT: -6.293638288      4.906      7.390
REMARK  8 active torsions:
REMARK  status: ('A' for Active; 'I' for Inactive)
REMARK    1  A    between atoms: C2_2  and  C3_3 
REMARK    2  A    between atoms: C3_3  and  C4_4 
REMARK    3  A    between atoms: C4_4  and  N1_6 
REMARK    4  A    between atoms: N1_6  and  C6_8 
REMARK    5  A    between atoms: C6_8  and  C7_9 
REMARK    6  A    between atoms: C6_8  and  C8_12 
REMARK    7  A    between atoms: C7_9  and  O1_10 
REMARK    8  A    between atoms: N2_13  and  C9_15 
ROOT
HETATM    1  C8  UNL     1     -19.065   8.386   0.746  1.00  0.00     0.083 C 
HETATM    2  N2  UNL     1     -19.772   7.962   1.836  1.00  0.00    -0.386 N 
ATOM      3  H2  UNL     1     -20.016   8.693   2.504  1.00  0.00     0.159 HD
ENDROOT
BRANCH   1   4
HETATM    4  C6  UNL     1     -19.791   8.648  -0.561  1.00  0.00     0.138 C 
BRANCH   4   5
HETATM    5  N1  UNL     1     -19.018   8.092  -1.582  1.00  0.00    -0.407 N 
ATOM      6  H1  UNL     1     -18.330   8.727  -1.986  1.00  0.00     0.154 HD
BRANCH   5   7
HETATM    7  C4  UNL     1     -19.024   6.847  -2.132  1.00  0.00     0.073 C 
HETATM    8  C5  UNL     1     -19.384   7.074  -3.644  1.00  0.00     0.031 C 
BRANCH   7   9
HETATM    9  C3  UNL     1     -19.875   5.723  -1.683  1.00  0.00     0.024 C 
BRANCH   9  10
HETATM   10  C2  UNL     1     -20.490   4.994  -2.886  1.00  0.00    -0.003 C 
HETATM   11  C1  UNL     1     -21.318   3.828  -2.480  1.00  0.00     0.005 C 
ENDBRANCH   9  10
ENDBRANCH   7   9
ENDBRANCH   5   7
ENDBRANCH   4   5
BRANCH   4  12
HETATM   12  C7  UNL     1     -19.789  10.181  -0.762  1.00  0.00     0.194 C 
BRANCH  12  13
HETATM   13  O1  UNL     1     -19.837  10.557  -2.082  1.00  0.00    -0.398 OA
ATOM     14  H1  UNL     1     -19.391  11.377  -2.257  1.00  0.00     0.209 HD
ENDBRANCH  12  13
ENDBRANCH   4  12
ENDBRANCH   1   4
BRANCH   2  15
HETATM   15  C9  UNL     1     -20.205   6.690   2.172  1.00  0.00     0.095 C 
HETATM   16  C10 UNL     1     -21.583   6.386   1.465  1.00  0.00     0.037 C 
HETATM   17  C11 UNL     1     -21.645   4.901   1.181  1.00  0.00     0.007 C 
HETATM   18  C12 UNL     1     -20.819   4.124   2.203  1.00  0.00    -0.009 C 
HETATM   19  C13 UNL     1     -19.374   4.321   1.760  1.00  0.00     0.007 C 
HETATM   20  C15 UNL     1     -20.907   4.762   3.546  1.00  0.00     0.086 C 
HETATM   21  C14 UNL     1     -19.228   5.760   1.455  1.00  0.00     0.037 C 
HETATM   22  C16 UNL     1     -20.404   6.222   3.550  1.00  0.00     0.268 C 
HETATM   23  F1  UNL     1     -21.450   6.858   4.221  1.00  0.00    -0.204 F 
HETATM   24  F2  UNL     1     -19.286   6.322   4.331  1.00  0.00    -0.204 F 
ENDBRANCH   2  15
TORSDOF 8
ENDMDL
MODEL 4
REMARK VINA RESULT: -6.276747799      1.117      1.719
REMARK  8 active torsions:
REMARK  status: ('A' for Active; 'I' for Inactive)
REMARK    1  A    between atoms: C2_2  and  C3_3 
REMARK    2  A    between atoms: C3_3  and  C4_4 
REMARK    3  A    between atoms: C4_4  and  N1_6 
REMARK    4  A    between atoms: N1_6  and  C6_8 
REMARK    5  A    between atoms: C6_8  and  C7_9 
REMARK    6  A    between atoms: C6_8  and  C8_12 
REMARK    7  A    between atoms: C7_9  and  O1_10 
REMARK    8  A    between atoms: N2_13  and  C9_15 
ROOT
HETATM    1  C8  UNL     1     -20.561   3.171  -2.708  1.00  0.00     0.083 C 
HETATM    2  N2  UNL     1     -21.388   2.102  -2.908  1.00  0.00    -0.386 N 
ATOM      3  H2  UNL     1     -21.217   1.302  -2.298  1.00  0.00     0.159 HD
ENDROOT
BRANCH   1   4
HETATM    4  C6  UNL     1     -21.037   4.340  -1.867  1.00  0.00     0.138 C 
BRANCH   4   5
HETATM    5  N1  UNL     1     -19.909   5.090  -1.524  1.00  0.00    -0.407 N 
ATOM      6  H1  UNL     1     -19.021   4.643  -1.748  1.00  0.00     0.154 HD
BRANCH   5   7
HETATM    7  C4  UNL     1     -19.792   6.314  -0.942  1.00  0.00     0.073 C 
HETATM    8  C5  UNL     1     -18.749   7.085  -1.828  1.00  0.00     0.031 C 
BRANCH   7   9
HETATM    9  C3  UNL     1     -19.381   6.554   0.459  1.00  0.00     0.024 C 
BRANCH   9  10
HETATM   10  C2  UNL     1     -20.609   6.686   1.370  1.00  0.00    -0.003 C 
HETATM   11  C1  UNL     1     -20.626   5.667   2.452  1.00  0.00     0.005 C 
ENDBRANCH   9  10
ENDBRANCH   7   9
ENDBRANCH   5   7
ENDBRANCH   4   5
BRANCH   4  12
HETATM   12  C7  UNL     1     -21.606   3.737  -0.563  1.00  0.00     0.194 C 
BRANCH  12  13
HETATM   13  O1  UNL     1     -20.709   2.943   0.108  1.00  0.00    -0.398 OA
ATOM     14  H1  UNL     1     -20.390   2.213  -0.410  1.00  0.00     0.209 HD
ENDBRANCH  12  13
ENDBRANCH   4  12
ENDBRANCH   1   4
BRANCH   2  15
HETATM   15  C9  UNL     1     -22.424   1.939  -3.812  1.00  0.00     0.095 C 
HETATM   16  C10 UNL     1     -23.811   2.128  -3.083  1.00  0.00     0.037 C 
HETATM   17  C11 UNL     1     -24.788   2.710  -4.080  1.00  0.00     0.007 C 
HETATM   18  C12 UNL     1     -24.422   2.289  -5.501  1.00  0.00    -0.009 C 
HETATM   19  C13 UNL     1     -23.244   3.181  -5.875  1.00  0.00     0.007 C 
HETATM   20  C15 UNL     1     -23.881   0.901  -5.514  1.00  0.00     0.086 C 
HETATM   21  C14 UNL     1     -22.330   3.169  -4.715  1.00  0.00     0.037 C 
HETATM   22  C16 UNL     1     -22.619   0.741  -4.639  1.00  0.00     0.268 C 
HETATM   23  F1  UNL     1     -22.949  -0.404  -3.910  1.00  0.00    -0.204 F 
HETATM   24  F2  UNL     1     -21.545   0.436  -5.428  1.00  0.00    -0.204 F 
ENDBRANCH   2  15
TORSDOF 8
ENDMDL
MODEL 5
REMARK VINA RESULT: -6.198259109      1.650      2.422
REMARK  8 active torsions:
REMARK  status: ('A' for Active; 'I' for Inactive)
REMARK    1  A    between atoms: C2_2  and  C3_3 
REMARK    2  A    between atoms: C3_3  and  C4_4 
REMARK    3  A    between atoms: C4_4  and  N1_6 
REMARK    4  A    between atoms: N1_6  and  C6_8 
REMARK    5  A    between atoms: C6_8  and  C7_9 
REMARK    6  A    between atoms: C6_8  and  C8_12 
REMARK    7  A    between atoms: C7_9  and  O1_10 
REMARK    8  A    between atoms: N2_13  and  C9_15 
ROOT
HETATM    1  C8  UNL     1     -20.359   2.660  -2.421  1.00  0.00     0.083 C 
HETATM    2  N2  UNL     1     -21.237   1.774  -2.978  1.00  0.00    -0.386 N 
ATOM      3  H2  UNL     1     -21.075   0.796  -2.739  1.00  0.00     0.159 HD
ENDROOT
BRANCH   1   4
HETATM    4  C6  UNL     1     -20.752   3.417  -1.166  1.00  0.00     0.138 C 
BRANCH   4   5
HETATM    5  N1  UNL     1     -20.086   4.644  -1.197  1.00  0.00    -0.407 N 
ATOM      6  H1  UNL     1     -19.449   4.759  -1.986  1.00  0.00     0.154 HD
BRANCH   5   7
HETATM    7  C4  UNL     1     -20.139   5.712  -0.356  1.00  0.00     0.073 C 
HETATM    8  C5  UNL     1     -19.272   6.821  -1.054  1.00  0.00     0.031 C 
BRANCH   7   9
HETATM    9  C3  UNL     1     -19.711   5.702   1.060  1.00  0.00     0.024 C 
BRANCH   9  10
HETATM   10  C2  UNL     1     -20.928   5.701   1.995  1.00  0.00    -0.003 C 
HETATM   11  C1  UNL     1     -20.822   4.673   3.063  1.00  0.00     0.005 C 
ENDBRANCH   9  10
ENDBRANCH   7   9
ENDBRANCH   5   7
ENDBRANCH   4   5
BRANCH   4  12
HETATM   12  C7  UNL     1     -20.186   2.612   0.025  1.00  0.00     0.194 C 
BRANCH  12  13
HETATM   13  O1  UNL     1     -19.668   1.392  -0.337  1.00  0.00    -0.398 OA
ATOM     14  H1  UNL     1     -20.010   0.670   0.178  1.00  0.00     0.209 HD
ENDBRANCH  12  13
ENDBRANCH   4  12
ENDBRANCH   1   4
BRANCH   2  15
HETATM   15  C9  UNL     1     -22.314   2.002  -3.818  1.00  0.00     0.095 C 
HETATM   16  C10 UNL     1     -22.241   3.465  -4.405  1.00  0.00     0.037 C 
HETATM   17  C11 UNL     1     -22.856   3.446  -5.786  1.00  0.00     0.007 C 
HETATM   18  C12 UNL     1     -23.912   2.347  -5.890  1.00  0.00    -0.009 C 
HETATM   19  C13 UNL     1     -23.112   1.059  -6.042  1.00  0.00     0.007 C 
HETATM   20  C15 UNL     1     -24.647   2.202  -4.603  1.00  0.00     0.086 C 
HETATM   21  C14 UNL     1     -22.033   1.120  -5.033  1.00  0.00     0.037 C 
HETATM   22  C16 UNL     1     -23.720   1.850  -3.419  1.00  0.00     0.268 C 
HETATM   23  F1  UNL     1     -24.145   2.781  -2.468  1.00  0.00    -0.204 F 
HETATM   24  F2  UNL     1     -24.027   0.604  -2.947  1.00  0.00    -0.204 F 
ENDBRANCH   2  15
TORSDOF 8
ENDMDL
