MODEL 1
REMARK VINA RESULT: -6.991283173      0.000      0.000
REMARK  9 active torsions:
REMARK  status: ('A' for Active; 'I' for Inactive)
REMARK    1  A    between atoms: C2_2  and  C3_3 
REMARK    2  A    between atoms: C3_3  and  C4_4 
REMARK    3  A    between atoms: C4_4  and  N1_5 
REMARK    4  A    between atoms: C9_12  and  C10_13 
REMARK    5  A    between atoms: C10_13  and  C11_14 
REMARK    6  A    between atoms: C11_14  and  N2_16 
REMARK    7  A    between atoms: N2_16  and  C13_18 
REMARK    8  A    between atoms: C13_18  and  C14_19 
REMARK    9  A    between atoms: C15_22  and  N3_23 
ROOT
HETATM    1  N1  UNL     1      10.575  61.306  24.511  1.00  0.00    -0.376 N 
ATOM      2  H1  UNL     1      10.829  61.533  25.472  1.00  0.00     0.164 HD
HETATM    3  C5  UNL     1      10.970  60.184  24.122  1.00  0.00    -0.010 C 
HETATM    4  C6  UNL     1      10.639  59.804  22.752  1.00  0.00     0.089 C 
HETATM    5  C7  UNL     1      10.393  58.357  22.496  1.00  0.00     0.175 C 
HETATM    6  F1  UNL     1      10.911  57.995  21.274  1.00  0.00    -0.249 F 
HETATM    7  C8  UNL     1      10.681  57.415  23.617  1.00  0.00     0.044 C 
HETATM    8  C9  UNL     1      12.031  57.208  24.088  1.00  0.00     0.021 C 
HETATM    9  C15 UNL     1      12.726  58.520  24.532  1.00  0.00     0.193 C 
HETATM   10  C16 UNL     1      11.740  59.439  25.187  1.00  0.00     0.085 C 
ENDROOT
BRANCH   8  11
HETATM   11  C10 UNL     1      13.010  56.306  23.485  1.00  0.00     0.031 C 
BRANCH  11  12
HETATM   12  C11 UNL     1      12.609  54.937  23.052  1.00  0.00     0.077 C 
HETATM   13  C12 UNL     1      12.237  54.852  21.639  1.00  0.00     0.032 C 
BRANCH  12  14
HETATM   14  N2  UNL     1      13.608  54.020  23.501  1.00  0.00    -0.393 N 
ATOM     15  H2  UNL     1      14.340  54.337  24.139  1.00  0.00     0.159 HD
BRANCH  14  16
HETATM   16  C13 UNL     1      13.588  52.693  23.071  1.00  0.00     0.126 C 
BRANCH  16  17
HETATM   17  C14 UNL     1      14.687  51.784  23.518  1.00  0.00     0.391 C 
HETATM   18  F2  UNL     1      14.961  51.763  24.842  1.00  0.00    -0.209 F 
HETATM   19  F3  UNL     1      14.312  50.481  23.156  1.00  0.00    -0.209 F 
ENDBRANCH  16  17
ENDBRANCH  14  16
ENDBRANCH  12  14
ENDBRANCH  11  12
ENDBRANCH   8  11
BRANCH   9  20
HETATM   20  N3  UNL     1      13.409  59.159  23.455  1.00  0.00    -0.074 N 
ATOM     21  H33 UNL     1      13.450  58.557  22.633  1.00  0.00     0.274 HD
ATOM     22  H32 UNL     1      12.856  59.924  23.068  1.00  0.00     0.274 HD
ATOM     23  H31 UNL     1      14.340  59.478  23.724  1.00  0.00     0.274 HD
ENDBRANCH   9  20
BRANCH   1  24
HETATM   24  C4  UNL     1       9.843  62.304  23.851  1.00  0.00     0.060 C 
BRANCH  24  25
HETATM   25  C3  UNL     1       9.664  63.585  24.605  1.00  0.00     0.044 C 
BRANCH  25  26
HETATM   26  C2  UNL     1       8.609  63.323  25.689  1.00  0.00     0.001 C 
HETATM   27  C1  UNL     1       7.261  63.481  25.006  1.00  0.00     0.005 C 
ENDBRANCH  25  26
ENDBRANCH  24  25
ENDBRANCH   1  24
TORSDOF 9
ENDMDL
MODEL 2
REMARK VINA RESULT: -6.653367625      2.869      8.564
REMARK  9 active torsions:
REMARK  status: ('A' for Active; 'I' for Inactive)
REMARK    1  A    between atoms: C2_2  and  C3_3 
REMARK    2  A    between atoms: C3_3  and  C4_4 
REMARK    3  A    between atoms: C4_4  and  N1_5 
REMARK    4  A    between atoms: C9_12  and  C10_13 
REMARK    5  A    between atoms: C10_13  and  C11_14 
REMARK    6  A    between atoms: C11_14  and  N2_16 
REMARK    7  A    between atoms: N2_16  and  C13_18 
REMARK    8  A    between atoms: C13_18  and  C14_19 
REMARK    9  A    between atoms: C15_22  and  N3_23 
ROOT
HETATM    1  N1  UNL     1      13.192  55.284  23.126  1.00  0.00    -0.376 N 
ATOM      2  H1  UNL     1      14.187  55.502  23.098  1.00  0.00     0.164 HD
HETATM    3  C5  UNL     1      12.442  56.284  23.167  1.00  0.00    -0.010 C 
HETATM    4  C6  UNL     1      11.005  56.032  23.212  1.00  0.00     0.089 C 
HETATM    5  C7  UNL     1      10.126  57.026  22.534  1.00  0.00     0.175 C 
HETATM    6  F1  UNL     1       8.974  57.218  23.260  1.00  0.00    -0.249 F 
HETATM    7  C8  UNL     1      10.779  58.271  22.030  1.00  0.00     0.044 C 
HETATM    8  C9  UNL     1      11.343  59.238  22.943  1.00  0.00     0.021 C 
HETATM    9  C15 UNL     1      12.409  58.629  23.888  1.00  0.00     0.193 C 
HETATM   10  C16 UNL     1      13.210  57.585  23.172  1.00  0.00     0.085 C 
ENDROOT
BRANCH   8  11
HETATM   11  C10 UNL     1      10.594  60.280  23.643  1.00  0.00     0.031 C 
BRANCH  11  12
HETATM   12  C11 UNL     1      11.076  61.691  23.632  1.00  0.00     0.077 C 
HETATM   13  C12 UNL     1      12.264  61.902  22.804  1.00  0.00     0.032 C 
BRANCH  12  14
HETATM   14  N2  UNL     1       9.956  62.538  23.364  1.00  0.00    -0.393 N 
ATOM     15  H2  UNL     1       9.323  62.317  22.595  1.00  0.00     0.159 HD
BRANCH  14  16
HETATM   16  C13 UNL     1       9.726  63.667  24.151  1.00  0.00     0.126 C 
BRANCH  16  17
HETATM   17  C14 UNL     1       8.624  63.618  25.159  1.00  0.00     0.391 C 
HETATM   18  F2  UNL     1       7.436  63.123  24.741  1.00  0.00    -0.209 F 
HETATM   19  F3  UNL     1       9.065  62.796  26.208  1.00  0.00    -0.209 F 
ENDBRANCH  16  17
ENDBRANCH  14  16
ENDBRANCH  12  14
ENDBRANCH  11  12
ENDBRANCH   8  11
BRANCH   9  20
HETATM   20  N3  UNL     1      11.835  58.121  25.092  1.00  0.00    -0.074 N 
ATOM     21  H33 UNL     1      11.184  58.790  25.502  1.00  0.00     0.274 HD
ATOM     22  H32 UNL     1      11.184  57.360  24.898  1.00  0.00     0.274 HD
ATOM     23  H31 UNL     1      12.544  57.835  25.766  1.00  0.00     0.274 HD
ENDBRANCH   9  20
BRANCH   1  24
HETATM   24  C4  UNL     1      12.898  53.912  23.112  1.00  0.00     0.060 C 
BRANCH  24  25
HETATM   25  C3  UNL     1      13.912  53.023  23.763  1.00  0.00     0.044 C 
BRANCH  25  26
HETATM   26  C2  UNL     1      14.028  51.764  22.893  1.00  0.00     0.001 C 
HETATM   27  C1  UNL     1      14.950  50.820  23.646  1.00  0.00     0.005 C 
ENDBRANCH  25  26
ENDBRANCH  24  25
ENDBRANCH   1  24
TORSDOF 9
ENDMDL
MODEL 3
REMARK VINA RESULT: -6.520037233      3.292      8.440
REMARK  9 active torsions:
REMARK  status: ('A' for Active; 'I' for Inactive)
REMARK    1  A    between atoms: C2_2  and  C3_3 
REMARK    2  A    between atoms: C3_3  and  C4_4 
REMARK    3  A    between atoms: C4_4  and  N1_5 
REMARK    4  A    between atoms: C9_12  and  C10_13 
REMARK    5  A    between atoms: C10_13  and  C11_14 
REMARK    6  A    between atoms: C11_14  and  N2_16 
REMARK    7  A    between atoms: N2_16  and  C13_18 
REMARK    8  A    between atoms: C13_18  and  C14_19 
REMARK    9  A    between atoms: C15_22  and  N3_23 
ROOT
HETATM    1  N1  UNL     1      11.711  56.589  23.120  1.00  0.00    -0.376 N 
ATOM      2  H1  UNL     1      10.789  56.221  22.886  1.00  0.00     0.164 HD
HETATM    3  C5  UNL     1      11.714  57.785  23.486  1.00  0.00    -0.010 C 
HETATM    4  C6  UNL     1      13.007  58.369  23.830  1.00  0.00     0.089 C 
HETATM    5  C7  UNL     1      13.016  59.398  24.908  1.00  0.00     0.175 C 
HETATM    6  F1  UNL     1      13.915  60.395  24.608  1.00  0.00    -0.249 F 
HETATM    7  C8  UNL     1      11.688  59.862  25.407  1.00  0.00     0.044 C 
HETATM    8  C9  UNL     1      10.793  60.612  24.555  1.00  0.00     0.021 C 
HETATM    9  C15 UNL     1      10.444  59.871  23.241  1.00  0.00     0.193 C 
HETATM   10  C16 UNL     1      10.333  58.397  23.484  1.00  0.00     0.085 C 
ENDROOT
BRANCH   8  11
HETATM   11  C10 UNL     1      10.862  62.051  24.312  1.00  0.00     0.031 C 
BRANCH  11  12
HETATM   12  C11 UNL     1       9.614  62.846  24.127  1.00  0.00     0.077 C 
HETATM   13  C12 UNL     1       8.922  63.155  25.379  1.00  0.00     0.032 C 
BRANCH  12  14
HETATM   14  N2  UNL     1       9.919  63.956  23.280  1.00  0.00    -0.393 N 
ATOM     15  H2  UNL     1       9.239  64.709  23.163  1.00  0.00     0.159 HD
BRANCH  14  16
HETATM   16  C13 UNL     1      11.141  64.014  22.611  1.00  0.00     0.126 C 
BRANCH  16  17
HETATM   17  C14 UNL     1      11.134  64.045  21.116  1.00  0.00     0.391 C 
HETATM   18  F2  UNL     1      10.787  62.900  20.485  1.00  0.00    -0.209 F 
HETATM   19  F3  UNL     1      10.204  65.023  20.733  1.00  0.00    -0.209 F 
ENDBRANCH  16  17
ENDBRANCH  14  16
ENDBRANCH  12  14
ENDBRANCH  11  12
ENDBRANCH   8  11
BRANCH   9  20
HETATM   20  N3  UNL     1      11.370  60.164  22.195  1.00  0.00    -0.074 N 
ATOM     21  H33 UNL     1      12.190  60.654  22.553  1.00  0.00     0.274 HD
ATOM     22  H32 UNL     1      11.823  59.317  21.854  1.00  0.00     0.274 HD
ATOM     23  H31 UNL     1      10.936  60.683  21.431  1.00  0.00     0.274 HD
ENDBRANCH   9  20
BRANCH   1  24
HETATM   24  C4  UNL     1      12.758  55.667  22.975  1.00  0.00     0.060 C 
BRANCH  24  25
HETATM   25  C3  UNL     1      12.545  54.596  21.951  1.00  0.00     0.044 C 
BRANCH  25  26
HETATM   26  C2  UNL     1      12.336  53.281  22.716  1.00  0.00     0.001 C 
HETATM   27  C1  UNL     1      13.652  52.994  23.420  1.00  0.00     0.005 C 
ENDBRANCH  25  26
ENDBRANCH  24  25
ENDBRANCH   1  24
TORSDOF 9
ENDMDL
MODEL 4
REMARK VINA RESULT: -6.516557774      2.958      8.338
REMARK  9 active torsions:
REMARK  status: ('A' for Active; 'I' for Inactive)
REMARK    1  A    between atoms: C2_2  and  C3_3 
REMARK    2  A    between atoms: C3_3  and  C4_4 
REMARK    3  A    between atoms: C4_4  and  N1_5 
REMARK    4  A    between atoms: C9_12  and  C10_13 
REMARK    5  A    between atoms: C10_13  and  C11_14 
REMARK    6  A    between atoms: C11_14  and  N2_16 
REMARK    7  A    between atoms: N2_16  and  C13_18 
REMARK    8  A    between atoms: C13_18  and  C14_19 
REMARK    9  A    between atoms: C15_22  and  N3_23 
ROOT
HETATM    1  N1  UNL     1      13.203  55.220  23.093  1.00  0.00    -0.376 N 
ATOM      2  H1  UNL     1      14.195  55.445  23.025  1.00  0.00     0.164 HD
HETATM    3  C5  UNL     1      12.448  56.216  23.152  1.00  0.00    -0.010 C 
HETATM    4  C6  UNL     1      11.015  55.955  23.254  1.00  0.00     0.089 C 
HETATM    5  C7  UNL     1      10.105  56.936  22.599  1.00  0.00     0.175 C 
HETATM    6  F1  UNL     1       8.979  57.128  23.367  1.00  0.00    -0.249 F 
HETATM    7  C8  UNL     1      10.729  58.179  22.058  1.00  0.00     0.044 C 
HETATM    8  C9  UNL     1      11.321  59.160  22.939  1.00  0.00     0.021 C 
HETATM    9  C15 UNL     1      12.426  58.569  23.849  1.00  0.00     0.193 C 
HETATM   10  C16 UNL     1      13.206  57.522  23.114  1.00  0.00     0.085 C 
ENDROOT
BRANCH   8  11
HETATM   11  C10 UNL     1      10.592  60.204  23.655  1.00  0.00     0.031 C 
BRANCH  11  12
HETATM   12  C11 UNL     1      10.615  61.613  23.165  1.00  0.00     0.077 C 
HETATM   13  C12 UNL     1       9.935  62.557  24.053  1.00  0.00     0.032 C 
BRANCH  12  14
HETATM   14  N2  UNL     1      11.962  61.934  22.809  1.00  0.00    -0.393 N 
ATOM     15  H2  UNL     1      12.727  61.333  23.116  1.00  0.00     0.159 HD
BRANCH  14  16
HETATM   16  C13 UNL     1      12.233  63.068  22.043  1.00  0.00     0.126 C 
BRANCH  16  17
HETATM   17  C14 UNL     1      11.658  63.148  20.665  1.00  0.00     0.391 C 
HETATM   18  F2  UNL     1      11.313  61.979  20.079  1.00  0.00    -0.209 F 
HETATM   19  F3  UNL     1      10.492  63.924  20.753  1.00  0.00    -0.209 F 
ENDBRANCH  16  17
ENDBRANCH  14  16
ENDBRANCH  12  14
ENDBRANCH  11  12
ENDBRANCH   8  11
BRANCH   9  20
HETATM   20  N3  UNL     1      11.901  58.069  25.079  1.00  0.00    -0.074 N 
ATOM     21  H33 UNL     1      11.728  58.825  25.741  1.00  0.00     0.274 HD
ATOM     22  H32 UNL     1      10.945  57.733  24.963  1.00  0.00     0.274 HD
ATOM     23  H31 UNL     1      12.498  57.350  25.488  1.00  0.00     0.274 HD
ENDBRANCH   9  20
BRANCH   1  24
HETATM   24  C4  UNL     1      12.919  53.847  23.105  1.00  0.00     0.060 C 
BRANCH  24  25
HETATM   25  C3  UNL     1      13.951  52.974  23.748  1.00  0.00     0.044 C 
BRANCH  25  26
HETATM   26  C2  UNL     1      14.058  51.703  22.895  1.00  0.00     0.001 C 
HETATM   27  C1  UNL     1      14.973  50.761  23.660  1.00  0.00     0.005 C 
ENDBRANCH  25  26
ENDBRANCH  24  25
ENDBRANCH   1  24
TORSDOF 9
ENDMDL
MODEL 5
REMARK VINA RESULT: -6.477294669      3.037      7.874
REMARK  9 active torsions:
REMARK  status: ('A' for Active; 'I' for Inactive)
REMARK    1  A    between atoms: C2_2  and  C3_3 
REMARK    2  A    between atoms: C3_3  and  C4_4 
REMARK    3  A    between atoms: C4_4  and  N1_5 
REMARK    4  A    between atoms: C9_12  and  C10_13 
REMARK    5  A    between atoms: C10_13  and  C11_14 
REMARK    6  A    between atoms: C11_14  and  N2_16 
REMARK    7  A    between atoms: N2_16  and  C13_18 
REMARK    8  A    between atoms: C13_18  and  C14_19 
REMARK    9  A    between atoms: C15_22  and  N3_23 
ROOT
HETATM    1  N1  UNL     1      12.892  54.928  23.077  1.00  0.00    -0.376 N 
ATOM      2  H1  UNL     1      13.896  55.066  22.965  1.00  0.00     0.164 HD
HETATM    3  C5  UNL     1      12.225  55.986  23.127  1.00  0.00    -0.010 C 
HETATM    4  C6  UNL     1      10.781  55.851  23.289  1.00  0.00     0.089 C 
HETATM    5  C7  UNL     1       9.930  56.883  22.632  1.00  0.00     0.175 C 
HETATM    6  F1  UNL     1       8.856  57.195  23.432  1.00  0.00    -0.249 F 
HETATM    7  C8  UNL     1      10.635  58.050  22.025  1.00  0.00     0.044 C 
HETATM    8  C9  UNL     1      11.340  59.006  22.848  1.00  0.00     0.021 C 
HETATM    9  C15 UNL     1      12.426  58.354  23.739  1.00  0.00     0.193 C 
HETATM   10  C16 UNL     1      13.088  57.221  23.014  1.00  0.00     0.085 C 
ENDROOT
BRANCH   8  11
HETATM   11  C10 UNL     1      10.729  60.132  23.551  1.00  0.00     0.031 C 
BRANCH  11  12
HETATM   12  C11 UNL     1      10.718  61.490  22.936  1.00  0.00     0.077 C 
HETATM   13  C12 UNL     1      10.184  62.531  23.815  1.00  0.00     0.032 C 
BRANCH  12  14
HETATM   14  N2  UNL     1      12.011  61.733  22.377  1.00  0.00    -0.393 N 
ATOM     15  H2  UNL     1      12.268  61.308  21.486  1.00  0.00     0.159 HD
BRANCH  14  16
HETATM   16  C13 UNL     1      12.922  62.549  23.047  1.00  0.00     0.126 C 
BRANCH  16  17
HETATM   17  C14 UNL     1      14.244  61.970  23.436  1.00  0.00     0.391 C 
HETATM   18  F2  UNL     1      15.206  62.843  23.811  1.00  0.00    -0.209 F 
HETATM   19  F3  UNL     1      14.012  61.119  24.528  1.00  0.00    -0.209 F 
ENDBRANCH  16  17
ENDBRANCH  14  16
ENDBRANCH  12  14
ENDBRANCH  11  12
ENDBRANCH   8  11
BRANCH   9  20
HETATM   20  N3  UNL     1      11.910  57.941  25.003  1.00  0.00    -0.074 N 
ATOM     21  H33 UNL     1      11.119  57.308  24.891  1.00  0.00     0.274 HD
ATOM     22  H32 UNL     1      12.556  57.311  25.478  1.00  0.00     0.274 HD
ATOM     23  H31 UNL     1      11.666  58.734  25.597  1.00  0.00     0.274 HD
ENDBRANCH   9  20
BRANCH   1  24
HETATM   24  C4  UNL     1      12.494  53.585  23.148  1.00  0.00     0.060 C 
BRANCH  24  25
HETATM   25  C3  UNL     1      13.494  52.584  22.658  1.00  0.00     0.044 C 
BRANCH  25  26
HETATM   26  C2  UNL     1      14.401  52.238  23.847  1.00  0.00     0.001 C 
HETATM   27  C1  UNL     1      14.865  50.809  23.617  1.00  0.00     0.005 C 
ENDBRANCH  25  26
ENDBRANCH  24  25
ENDBRANCH   1  24
TORSDOF 9
ENDMDL
