MODEL 1
REMARK VINA RESULT: -7.194668610      0.000      0.000
REMARK  10 active torsions:
REMARK  status: ('A' for Active; 'I' for Inactive)
REMARK    1  A    between atoms: C2_2  and  C3_3 
REMARK    2  A    between atoms: C5_5  and  C6_6 
REMARK    3  A    between atoms: C9_10  and  C10_11 
REMARK    4  A    between atoms: C10_11  and  N1_12 
REMARK    5  A    between atoms: N1_12  and  C11_14 
REMARK    6  A    between atoms: C11_14  and  C12_15 
REMARK    7  A    between atoms: C12_15  and  N2_16 
REMARK    8  A    between atoms: C14_21  and  O1_22 
REMARK    9  A    between atoms: O1_22  and  C15_23 
REMARK   10  A    between atoms: C15_23  and  O2_24 
ROOT
HETATM    1  C6  UNL     1      12.784  61.887  22.969  1.00  0.00     0.002 A 
HETATM    2  C7  UNL     1      12.829  63.063  22.173  1.00  0.00     0.044 A 
HETATM    3 CL1  UNL     1      11.316  63.621  21.430  1.00  0.00    -0.084 Cl
HETATM    4  C8  UNL     1      13.991  63.741  21.991  1.00  0.00     0.033 A 
HETATM    5  C9  UNL     1      15.188  63.329  22.566  1.00  0.00    -0.037 A 
HETATM    6  C13 UNL     1      15.154  62.202  23.339  1.00  0.00     0.046 A 
HETATM    7  C14 UNL     1      13.965  61.477  23.549  1.00  0.00     0.083 A 
ENDROOT
BRANCH   5   8
HETATM    8  C10 UNL     1      16.456  64.047  22.213  1.00  0.00     0.153 C 
BRANCH   8   9
HETATM    9  N1  UNL     1      17.534  63.109  22.406  1.00  0.00    -0.416 N 
ATOM     10  H1  UNL     1      17.473  62.343  23.078  1.00  0.00     0.153 HD
BRANCH   9  11
HETATM   11  C11 UNL     1      18.686  63.319  21.600  1.00  0.00     0.141 C 
BRANCH  11  12
HETATM   12  C12 UNL     1      20.032  63.337  22.231  1.00  0.00     0.248 C 
BRANCH  12  13
HETATM   13  N2  UNL     1      20.220  62.509  23.382  1.00  0.00    -0.078 N 
ATOM     14  H23 UNL     1      19.343  62.037  23.609  1.00  0.00     0.274 HD
ATOM     15  H22 UNL     1      20.805  61.710  23.135  1.00  0.00     0.274 HD
ATOM     16  H21 UNL     1      20.591  62.957  24.219  1.00  0.00     0.274 HD
ENDBRANCH  12  13
ENDBRANCH  11  12
ENDBRANCH   9  11
ENDBRANCH   8   9
ENDBRANCH   5   8
BRANCH   7  17
HETATM   17  O1  UNL     1      13.982  60.349  24.329  1.00  0.00    -0.293 OA
BRANCH  17  18
HETATM   18  C15 UNL     1      14.384  60.099  25.615  1.00  0.00     0.460 C 
HETATM   19  F1  UNL     1      14.075  58.864  26.124  1.00  0.00    -0.189 F 
BRANCH  18  20
HETATM   20  O2  UNL     1      15.808  60.238  25.732  1.00  0.00    -0.346 OA
ATOM     21  H2  UNL     1      16.085  61.089  25.413  1.00  0.00     0.215 HD
ENDBRANCH  18  20
ENDBRANCH  17  18
ENDBRANCH   7  17
BRANCH   1  22
HETATM   22  C5  UNL     1      11.538  61.164  23.013  1.00  0.00     0.027 A 
HETATM   23  C3  UNL     1      11.271  60.050  24.004  1.00  0.00    -0.006 A 
HETATM   24  C4  UNL     1      10.406  61.313  23.903  1.00  0.00     0.015 A 
BRANCH  23  25
HETATM   25  C2  UNL     1      10.733  58.757  23.415  1.00  0.00     0.001 C 
HETATM   26  C1  UNL     1      11.819  57.845  23.004  1.00  0.00     0.005 C 
ENDBRANCH  23  25
ENDBRANCH   1  22
TORSDOF 10
ENDMDL
MODEL 2
REMARK VINA RESULT: -7.140810185      1.226      1.695
REMARK  10 active torsions:
REMARK  status: ('A' for Active; 'I' for Inactive)
REMARK    1  A    between atoms: C2_2  and  C3_3 
REMARK    2  A    between atoms: C5_5  and  C6_6 
REMARK    3  A    between atoms: C9_10  and  C10_11 
REMARK    4  A    between atoms: C10_11  and  N1_12 
REMARK    5  A    between atoms: N1_12  and  C11_14 
REMARK    6  A    between atoms: C11_14  and  C12_15 
REMARK    7  A    between atoms: C12_15  and  N2_16 
REMARK    8  A    between atoms: C14_21  and  O1_22 
REMARK    9  A    between atoms: O1_22  and  C15_23 
REMARK   10  A    between atoms: C15_23  and  O2_24 
ROOT
HETATM    1  C6  UNL     1      12.687  61.785  22.979  1.00  0.00     0.002 A 
HETATM    2  C7  UNL     1      12.503  62.998  22.262  1.00  0.00     0.044 A 
HETATM    3 CL1  UNL     1      10.922  63.281  21.504  1.00  0.00    -0.084 Cl
HETATM    4  C8  UNL     1      13.501  63.914  22.165  1.00  0.00     0.033 A 
HETATM    5  C9  UNL     1      14.745  63.719  22.754  1.00  0.00    -0.037 A 
HETATM    6  C13 UNL     1      14.931  62.558  23.452  1.00  0.00     0.046 A 
HETATM    7  C14 UNL     1      13.916  61.589  23.573  1.00  0.00     0.083 A 
ENDROOT
BRANCH   5   8
HETATM    8  C10 UNL     1      15.842  64.707  22.492  1.00  0.00     0.153 C 
BRANCH   8   9
HETATM    9  N1  UNL     1      17.019  63.944  22.156  1.00  0.00    -0.416 N 
ATOM     10  H1  UNL     1      17.596  63.495  22.868  1.00  0.00     0.153 HD
BRANCH   9  11
HETATM   11  C11 UNL     1      17.322  63.857  20.770  1.00  0.00     0.141 C 
BRANCH  11  12
HETATM   12  C12 UNL     1      16.932  62.643  20.006  1.00  0.00     0.248 C 
BRANCH  12  13
HETATM   13  N2  UNL     1      15.651  62.661  19.371  1.00  0.00    -0.078 N 
ATOM     14  H23 UNL     1      15.308  61.705  19.269  1.00  0.00     0.274 HD
ATOM     15  H22 UNL     1      14.957  63.042  20.015  1.00  0.00     0.274 HD
ATOM     16  H21 UNL     1      15.584  63.144  18.476  1.00  0.00     0.274 HD
ENDBRANCH  12  13
ENDBRANCH  11  12
ENDBRANCH   9  11
ENDBRANCH   8   9
ENDBRANCH   5   8
BRANCH   7  17
HETATM   17  O1  UNL     1      14.152  60.437  24.279  1.00  0.00    -0.293 OA
BRANCH  17  18
HETATM   18  C15 UNL     1      14.500  60.185  25.580  1.00  0.00     0.460 C 
HETATM   19  F1  UNL     1      14.115  58.973  26.092  1.00  0.00    -0.189 F 
BRANCH  18  20
HETATM   20  O2  UNL     1      15.924  60.258  25.742  1.00  0.00    -0.346 OA
ATOM     21  H2  UNL     1      16.359  60.130  24.908  1.00  0.00     0.215 HD
ENDBRANCH  18  20
ENDBRANCH  17  18
ENDBRANCH   7  17
BRANCH   1  22
HETATM   22  C5  UNL     1      11.619  60.819  22.932  1.00  0.00     0.027 A 
HETATM   23  C3  UNL     1      11.535  59.644  23.885  1.00  0.00    -0.006 A 
HETATM   24  C4  UNL     1      10.433  60.703  23.755  1.00  0.00     0.015 A 
BRANCH  23  25
HETATM   25  C2  UNL     1      11.313  58.286  23.240  1.00  0.00     0.001 C 
HETATM   26  C1  UNL     1      12.481  57.399  23.408  1.00  0.00     0.005 C 
ENDBRANCH  23  25
ENDBRANCH   1  22
TORSDOF 10
ENDMDL
MODEL 3
REMARK VINA RESULT: -7.099879624      2.063      2.839
REMARK  10 active torsions:
REMARK  status: ('A' for Active; 'I' for Inactive)
REMARK    1  A    between atoms: C2_2  and  C3_3 
REMARK    2  A    between atoms: C5_5  and  C6_6 
REMARK    3  A    between atoms: C9_10  and  C10_11 
REMARK    4  A    between atoms: C10_11  and  N1_12 
REMARK    5  A    between atoms: N1_12  and  C11_14 
REMARK    6  A    between atoms: C11_14  and  C12_15 
REMARK    7  A    between atoms: C12_15  and  N2_16 
REMARK    8  A    between atoms: C14_21  and  O1_22 
REMARK    9  A    between atoms: O1_22  and  C15_23 
REMARK   10  A    between atoms: C15_23  and  O2_24 
ROOT
HETATM    1  C6  UNL     1      12.680  61.789  23.007  1.00  0.00     0.002 A 
HETATM    2  C7  UNL     1      12.476  63.003  22.295  1.00  0.00     0.044 A 
HETATM    3 CL1  UNL     1      10.883  63.276  21.561  1.00  0.00    -0.084 Cl
HETATM    4  C8  UNL     1      13.467  63.925  22.185  1.00  0.00     0.033 A 
HETATM    5  C9  UNL     1      14.720  63.738  22.756  1.00  0.00    -0.037 A 
HETATM    6  C13 UNL     1      14.925  62.577  23.449  1.00  0.00     0.046 A 
HETATM    7  C14 UNL     1      13.918  61.601  23.582  1.00  0.00     0.083 A 
ENDROOT
BRANCH   5   8
HETATM    8  C10 UNL     1      15.807  64.734  22.481  1.00  0.00     0.153 C 
BRANCH   8   9
HETATM    9  N1  UNL     1      15.733  65.730  23.521  1.00  0.00    -0.416 N 
ATOM     10  H1  UNL     1      15.989  65.526  24.487  1.00  0.00     0.153 HD
BRANCH   9  11
HETATM   11  C11 UNL     1      15.278  67.014  23.113  1.00  0.00     0.141 C 
BRANCH  11  12
HETATM   12  C12 UNL     1      14.143  67.654  23.827  1.00  0.00     0.248 C 
BRANCH  12  13
HETATM   13  N2  UNL     1      14.438  68.298  25.069  1.00  0.00    -0.078 N 
ATOM     14  H23 UNL     1      15.312  68.819  24.983  1.00  0.00     0.274 HD
ATOM     15  H22 UNL     1      13.778  69.061  25.223  1.00  0.00     0.274 HD
ATOM     16  H21 UNL     1      14.475  67.707  25.900  1.00  0.00     0.274 HD
ENDBRANCH  12  13
ENDBRANCH  11  12
ENDBRANCH   9  11
ENDBRANCH   8   9
ENDBRANCH   5   8
BRANCH   7  17
HETATM   17  O1  UNL     1      14.172  60.449  24.281  1.00  0.00    -0.293 OA
BRANCH  17  18
HETATM   18  C15 UNL     1      14.528  60.195  25.581  1.00  0.00     0.460 C 
HETATM   19  F1  UNL     1      14.143  58.984  26.095  1.00  0.00    -0.189 F 
BRANCH  18  20
HETATM   20  O2  UNL     1      15.954  60.263  25.733  1.00  0.00    -0.346 OA
ATOM     21  H2  UNL     1      16.180  60.554  26.608  1.00  0.00     0.215 HD
ENDBRANCH  18  20
ENDBRANCH  17  18
ENDBRANCH   7  17
BRANCH   1  22
HETATM   22  C5  UNL     1      11.618  60.816  22.973  1.00  0.00     0.027 A 
HETATM   23  C3  UNL     1      11.509  59.687  23.977  1.00  0.00    -0.006 A 
HETATM   24  C4  UNL     1      10.407  60.732  23.762  1.00  0.00     0.015 A 
BRANCH  23  25
HETATM   25  C2  UNL     1      11.314  58.298  23.392  1.00  0.00     0.001 C 
HETATM   26  C1  UNL     1      12.542  57.485  23.480  1.00  0.00     0.005 C 
ENDBRANCH  23  25
ENDBRANCH   1  22
TORSDOF 10
ENDMDL
MODEL 4
REMARK VINA RESULT: -7.045758705      3.478      4.459
REMARK  10 active torsions:
REMARK  status: ('A' for Active; 'I' for Inactive)
REMARK    1  A    between atoms: C2_2  and  C3_3 
REMARK    2  A    between atoms: C5_5  and  C6_6 
REMARK    3  A    between atoms: C9_10  and  C10_11 
REMARK    4  A    between atoms: C10_11  and  N1_12 
REMARK    5  A    between atoms: N1_12  and  C11_14 
REMARK    6  A    between atoms: C11_14  and  C12_15 
REMARK    7  A    between atoms: C12_15  and  N2_16 
REMARK    8  A    between atoms: C14_21  and  O1_22 
REMARK    9  A    between atoms: O1_22  and  C15_23 
REMARK   10  A    between atoms: C15_23  and  O2_24 
ROOT
HETATM    1  C6  UNL     1      11.552  61.639  23.686  1.00  0.00     0.002 A 
HETATM    2  C7  UNL     1      10.568  62.632  23.429  1.00  0.00     0.044 A 
HETATM    3 CL1  UNL     1       8.900  62.297  23.939  1.00  0.00    -0.084 Cl
HETATM    4  C8  UNL     1      10.893  63.800  22.819  1.00  0.00     0.033 A 
HETATM    5  C9  UNL     1      12.191  64.089  22.416  1.00  0.00    -0.037 A 
HETATM    6  C13 UNL     1      13.148  63.144  22.664  1.00  0.00     0.046 A 
HETATM    7  C14 UNL     1      12.843  61.923  23.296  1.00  0.00     0.083 A 
ENDROOT
BRANCH   5   8
HETATM    8  C10 UNL     1      12.454  65.337  21.628  1.00  0.00     0.153 C 
BRANCH   8   9
HETATM    9  N1  UNL     1      11.468  65.382  20.577  1.00  0.00    -0.416 N 
ATOM     10  H1  UNL     1      10.587  65.886  20.680  1.00  0.00     0.153 HD
BRANCH   9  11
HETATM   11  C11 UNL     1      11.801  64.676  19.388  1.00  0.00     0.141 C 
BRANCH  11  12
HETATM   12  C12 UNL     1      10.972  63.519  18.962  1.00  0.00     0.248 C 
BRANCH  12  13
HETATM   13  N2  UNL     1      10.156  63.698  17.801  1.00  0.00    -0.078 N 
ATOM     14  H23 UNL     1       9.584  62.866  17.655  1.00  0.00     0.274 HD
ATOM     15  H22 UNL     1       9.434  64.392  17.996  1.00  0.00     0.274 HD
ATOM     16  H21 UNL     1      10.634  63.940  16.933  1.00  0.00     0.274 HD
ENDBRANCH  12  13
ENDBRANCH  11  12
ENDBRANCH   9  11
ENDBRANCH   8   9
ENDBRANCH   5   8
BRANCH   7  17
HETATM   17  O1  UNL     1      13.836  61.003  23.518  1.00  0.00    -0.293 OA
BRANCH  17  18
HETATM   18  C15 UNL     1      14.907  60.960  24.373  1.00  0.00     0.460 C 
HETATM   19  F1  UNL     1      14.855  60.024  25.373  1.00  0.00    -0.189 F 
BRANCH  18  20
HETATM   20  O2  UNL     1      16.119  60.708  23.646  1.00  0.00    -0.346 OA
ATOM     21  H2  UNL     1      16.864  61.076  24.105  1.00  0.00     0.215 HD
ENDBRANCH  18  20
ENDBRANCH  17  18
ENDBRANCH   7  17
BRANCH   1  22
HETATM   22  C5  UNL     1      11.100  60.383  24.228  1.00  0.00     0.027 A 
HETATM   23  C3  UNL     1      11.563  59.045  23.690  1.00  0.00    -0.006 A 
HETATM   24  C4  UNL     1      11.755  59.477  25.149  1.00  0.00     0.015 A 
BRANCH  23  25
HETATM   25  C2  UNL     1      10.464  58.045  23.371  1.00  0.00     0.001 C 
HETATM   26  C1  UNL     1      10.790  57.228  22.186  1.00  0.00     0.005 C 
ENDBRANCH  23  25
ENDBRANCH   1  22
TORSDOF 10
ENDMDL
MODEL 5
REMARK VINA RESULT: -6.963913031      2.002      2.811
REMARK  10 active torsions:
REMARK  status: ('A' for Active; 'I' for Inactive)
REMARK    1  A    between atoms: C2_2  and  C3_3 
REMARK    2  A    between atoms: C5_5  and  C6_6 
REMARK    3  A    between atoms: C9_10  and  C10_11 
REMARK    4  A    between atoms: C10_11  and  N1_12 
REMARK    5  A    between atoms: N1_12  and  C11_14 
REMARK    6  A    between atoms: C11_14  and  C12_15 
REMARK    7  A    between atoms: C12_15  and  N2_16 
REMARK    8  A    between atoms: C14_21  and  O1_22 
REMARK    9  A    between atoms: O1_22  and  C15_23 
REMARK   10  A    between atoms: C15_23  and  O2_24 
ROOT
HETATM    1  C6  UNL     1      12.642  61.792  22.987  1.00  0.00     0.002 A 
HETATM    2  C7  UNL     1      12.408  63.005  22.286  1.00  0.00     0.044 A 
HETATM    3 CL1  UNL     1      10.807  63.245  21.555  1.00  0.00    -0.084 Cl
HETATM    4  C8  UNL     1      13.374  63.953  22.183  1.00  0.00     0.033 A 
HETATM    5  C9  UNL     1      14.633  63.792  22.751  1.00  0.00    -0.037 A 
HETATM    6  C13 UNL     1      14.867  62.631  23.434  1.00  0.00     0.046 A 
HETATM    7  C14 UNL     1      13.885  61.629  23.560  1.00  0.00     0.083 A 
ENDROOT
BRANCH   5   8
HETATM    8  C10 UNL     1      15.694  64.817  22.484  1.00  0.00     0.153 C 
BRANCH   8   9
HETATM    9  N1  UNL     1      15.533  65.853  23.474  1.00  0.00    -0.416 N 
ATOM     10  H1  UNL     1      15.753  65.701  24.459  1.00  0.00     0.153 HD
BRANCH   9  11
HETATM   11  C11 UNL     1      15.048  67.099  22.990  1.00  0.00     0.141 C 
BRANCH  11  12
HETATM   12  C12 UNL     1      14.874  67.303  21.528  1.00  0.00     0.248 C 
BRANCH  12  13
HETATM   13  N2  UNL     1      13.542  67.527  21.059  1.00  0.00    -0.078 N 
ATOM     14  H23 UNL     1      13.113  66.635  20.812  1.00  0.00     0.274 HD
ATOM     15  H22 UNL     1      12.950  67.813  21.838  1.00  0.00     0.274 HD
ATOM     16  H21 UNL     1      13.428  68.184  20.287  1.00  0.00     0.274 HD
ENDBRANCH  12  13
ENDBRANCH  11  12
ENDBRANCH   9  11
ENDBRANCH   8   9
ENDBRANCH   5   8
BRANCH   7  17
HETATM   17  O1  UNL     1      14.168  60.478  24.250  1.00  0.00    -0.293 OA
BRANCH  17  18
HETATM   18  C15 UNL     1      14.529  60.223  25.548  1.00  0.00     0.460 C 
HETATM   19  F1  UNL     1      14.144  59.012  26.063  1.00  0.00    -0.189 F 
BRANCH  18  20
HETATM   20  O2  UNL     1      15.956  60.288  25.693  1.00  0.00    -0.346 OA
ATOM     21  H2  UNL     1      16.196  60.982  26.295  1.00  0.00     0.215 HD
ENDBRANCH  18  20
ENDBRANCH  17  18
ENDBRANCH   7  17
BRANCH   1  22
HETATM   22  C5  UNL     1      11.605  60.793  22.946  1.00  0.00     0.027 A 
HETATM   23  C3  UNL     1      11.532  59.646  23.934  1.00  0.00    -0.006 A 
HETATM   24  C4  UNL     1      10.402  60.666  23.743  1.00  0.00     0.015 A 
BRANCH  23  25
HETATM   25  C2  UNL     1      11.366  58.262  23.329  1.00  0.00     0.001 C 
HETATM   26  C1  UNL     1      12.592  57.452  23.464  1.00  0.00     0.005 C 
ENDBRANCH  23  25
ENDBRANCH   1  22
TORSDOF 10
ENDMDL
