MODEL 1
REMARK VINA RESULT: -8.589404885      0.000      0.000
REMARK  0 active torsions:
REMARK  status: ('A' for Active; 'I' for Inactive)
ROOT
HETATM    1  C1  UNL     1       2.208  -7.136 -11.478  1.00  0.00     0.015 C 
HETATM    2  C2  UNL     1       2.272  -8.500 -10.721  1.00  0.00    -0.043 C 
HETATM    3  C3  UNL     1       1.534  -8.029  -9.432  1.00  0.00     0.015 C 
HETATM    4  C4  UNL     1       3.674  -8.598 -10.271  1.00  0.00     0.009 C 
HETATM    5  C5  UNL     1       3.899  -9.104  -8.868  1.00  0.00     0.001 C 
HETATM    6  C6  UNL     1       3.661 -10.513  -8.595  1.00  0.00     0.000 C 
HETATM    7  C7  UNL     1       3.787 -11.351  -9.821  1.00  0.00     0.007 C 
HETATM    8  C8  UNL     1       2.415 -11.698 -10.382  1.00  0.00     0.018 C 
HETATM    9  C9  UNL     1       2.395 -13.171 -10.414  1.00  0.00     0.142 C 
HETATM   10  N1  UNL     1       3.093 -13.850 -11.464  1.00  0.00    -0.092 NA
HETATM   11  O1  UNL     1       2.198 -14.882 -11.305  1.00  0.00    -0.279 OA
HETATM   12  C10 UNL     1       1.257 -13.878 -10.973  1.00  0.00     0.169 C 
HETATM   13  C11 UNL     1       0.880 -13.143 -12.222  1.00  0.00     0.036 C 
HETATM   14  C12 UNL     1       0.731 -11.678 -12.064  1.00  0.00     0.013 C 
HETATM   15  C13 UNL     1       1.982 -10.947 -11.555  1.00  0.00    -0.031 C 
HETATM   16  C14 UNL     1       2.861 -10.892 -12.746  1.00  0.00     0.010 C 
HETATM   17  C15 UNL     1       2.095  -9.931 -13.649  1.00  0.00     0.001 C 
HETATM   18  C16 UNL     1       1.107  -9.197 -12.788  1.00  0.00     0.006 C 
HETATM   19  C17 UNL     1       1.534  -9.541 -11.353  1.00  0.00     0.002 C 
ENDROOT
TORSDOF 0
ENDMDL
MODEL 2
REMARK VINA RESULT: -8.392194964      2.902      5.210
REMARK  0 active torsions:
REMARK  status: ('A' for Active; 'I' for Inactive)
ROOT
HETATM    1  C1  UNL     1       3.089 -13.466 -10.650  1.00  0.00     0.015 C 
HETATM    2  C2  UNL     1       2.057 -12.467 -11.262  1.00  0.00    -0.043 C 
HETATM    3  C3  UNL     1       0.977 -13.526 -11.638  1.00  0.00     0.015 C 
HETATM    4  C4  UNL     1       2.632 -12.113 -12.574  1.00  0.00     0.009 C 
HETATM    5  C5  UNL     1       1.672 -12.048 -13.736  1.00  0.00     0.001 C 
HETATM    6  C6  UNL     1       0.731 -10.941 -13.794  1.00  0.00     0.000 C 
HETATM    7  C7  UNL     1       1.217  -9.751 -13.038  1.00  0.00     0.007 C 
HETATM    8  C8  UNL     1       0.537  -9.660 -11.679  1.00  0.00     0.018 C 
HETATM    9  C9  UNL     1      -0.100  -8.331 -11.677  1.00  0.00     0.142 C 
HETATM   10  N1  UNL     1       0.712  -7.174 -11.446  1.00  0.00    -0.092 NA
HETATM   11  O1  UNL     1      -0.413  -6.562 -10.949  1.00  0.00    -0.279 OA
HETATM   12  C10 UNL     1      -0.788  -7.849 -10.493  1.00  0.00     0.169 C 
HETATM   13  C11 UNL     1       0.077  -8.214  -9.327  1.00  0.00     0.036 C 
HETATM   14  C12 UNL     1       0.523  -9.626  -9.299  1.00  0.00     0.013 C 
HETATM   15  C13 UNL     1       1.326 -10.081 -10.526  1.00  0.00    -0.031 C 
HETATM   16  C14 UNL     1       2.664  -9.486 -10.306  1.00  0.00     0.010 C 
HETATM   17  C15 UNL     1       3.161 -10.281  -9.104  1.00  0.00     0.001 C 
HETATM   18  C16 UNL     1       2.306 -11.511  -8.995  1.00  0.00     0.006 C 
HETATM   19  C17 UNL     1       1.526 -11.542 -10.318  1.00  0.00     0.002 C 
ENDROOT
TORSDOF 0
ENDMDL
MODEL 3
REMARK VINA RESULT: -8.353539063      2.714      5.198
REMARK  0 active torsions:
REMARK  status: ('A' for Active; 'I' for Inactive)
ROOT
HETATM    1  C1  UNL     1       2.234 -13.816 -10.173  1.00  0.00     0.015 C 
HETATM    2  C2  UNL     1       1.848 -12.551 -11.003  1.00  0.00    -0.043 C 
HETATM    3  C3  UNL     1       0.441 -13.048 -11.452  1.00  0.00     0.015 C 
HETATM    4  C4  UNL     1       2.643 -12.674 -12.240  1.00  0.00     0.009 C 
HETATM    5  C5  UNL     1       1.939 -12.338 -13.531  1.00  0.00     0.001 C 
HETATM    6  C6  UNL     1       1.631 -10.944 -13.808  1.00  0.00     0.000 C 
HETATM    7  C7  UNL     1       2.539 -10.013 -13.080  1.00  0.00     0.007 C 
HETATM    8  C8  UNL     1       1.854  -9.444 -11.846  1.00  0.00     0.018 C 
HETATM    9  C9  UNL     1       1.910  -7.984 -12.036  1.00  0.00     0.142 C 
HETATM   10  N1  UNL     1       3.142  -7.299 -11.776  1.00  0.00    -0.092 NA
HETATM   11  O1  UNL     1       2.388  -6.184 -11.497  1.00  0.00    -0.279 OA
HETATM   12  C10 UNL     1       1.417  -7.089 -11.005  1.00  0.00     0.169 C 
HETATM   13  C11 UNL     1       1.898  -7.647  -9.701  1.00  0.00     0.036 C 
HETATM   14  C12 UNL     1       1.631  -9.090  -9.502  1.00  0.00     0.013 C 
HETATM   15  C13 UNL     1       2.243 -10.018 -10.562  1.00  0.00    -0.031 C 
HETATM   16  C14 UNL     1       3.677 -10.067 -10.194  1.00  0.00     0.010 C 
HETATM   17  C15 UNL     1       3.630 -10.832  -8.876  1.00  0.00     0.001 C 
HETATM   18  C16 UNL     1       2.295 -11.517  -8.802  1.00  0.00     0.006 C 
HETATM   19  C17 UNL     1       1.720 -11.369 -10.218  1.00  0.00     0.002 C 
ENDROOT
TORSDOF 0
ENDMDL
MODEL 4
REMARK VINA RESULT: -8.267718444      1.497      3.154
REMARK  0 active torsions:
REMARK  status: ('A' for Active; 'I' for Inactive)
ROOT
HETATM    1  C1  UNL     1       0.766  -7.288 -10.917  1.00  0.00     0.015 C 
HETATM    2  C2  UNL     1       1.400  -8.587 -11.509  1.00  0.00    -0.043 C 
HETATM    3  C3  UNL     1       2.777  -7.962 -11.888  1.00  0.00     0.015 C 
HETATM    4  C4  UNL     1       0.745  -8.741 -12.822  1.00  0.00     0.009 C 
HETATM    5  C5  UNL     1       1.630  -9.145 -13.975  1.00  0.00     0.001 C 
HETATM    6  C6  UNL     1       2.139 -10.507 -14.012  1.00  0.00     0.000 C 
HETATM    7  C7  UNL     1       1.275 -11.450 -13.246  1.00  0.00     0.007 C 
HETATM    8  C8  UNL     1       1.878 -11.748 -11.881  1.00  0.00     0.018 C 
HETATM    9  C9  UNL     1       2.026 -13.214 -11.858  1.00  0.00     0.142 C 
HETATM   10  N1  UNL     1       0.868 -14.023 -11.621  1.00  0.00    -0.092 NA
HETATM   11  O1  UNL     1       1.716 -14.975 -11.108  1.00  0.00    -0.279 OA
HETATM   12  C10 UNL     1       2.504 -13.885 -10.663  1.00  0.00     0.169 C 
HETATM   13  C11 UNL     1       1.809 -13.232  -9.509  1.00  0.00     0.036 C 
HETATM   14  C12 UNL     1       1.870 -11.752  -9.500  1.00  0.00     0.013 C 
HETATM   15  C13 UNL     1       1.274 -11.068 -10.739  1.00  0.00    -0.031 C 
HETATM   16  C14 UNL     1      -0.187 -11.170 -10.524  1.00  0.00     0.010 C 
HETATM   17  C15 UNL     1      -0.389 -10.238  -9.335  1.00  0.00     0.001 C 
HETATM   18  C16 UNL     1       0.833  -9.370  -9.233  1.00  0.00     0.006 C 
HETATM   19  C17 UNL     1       1.582  -9.623 -10.550  1.00  0.00     0.002 C 
ENDROOT
TORSDOF 0
ENDMDL
MODEL 5
REMARK VINA RESULT: -8.267327265      1.204      3.206
REMARK  0 active torsions:
REMARK  status: ('A' for Active; 'I' for Inactive)
ROOT
HETATM    1  C1  UNL     1       3.675  -7.580  -9.494  1.00  0.00     0.015 C 
HETATM    2  C2  UNL     1       3.298  -8.590 -10.624  1.00  0.00    -0.043 C 
HETATM    3  C3  UNL     1       4.340  -8.091 -11.671  1.00  0.00     0.015 C 
HETATM    4  C4  UNL     1       2.026  -8.071 -11.163  1.00  0.00     0.009 C 
HETATM    5  C5  UNL     1       1.873  -8.085 -12.663  1.00  0.00     0.001 C 
HETATM    6  C6  UNL     1       1.690  -9.365 -13.328  1.00  0.00     0.000 C 
HETATM    7  C7  UNL     1       1.113 -10.393 -12.415  1.00  0.00     0.007 C 
HETATM    8  C8  UNL     1       2.198 -11.331 -11.904  1.00  0.00     0.018 C 
HETATM    9  C9  UNL     1       1.742 -12.673 -12.309  1.00  0.00     0.142 C 
HETATM   10  N1  UNL     1       0.709 -13.311 -11.549  1.00  0.00    -0.092 NA
HETATM   11  O1  UNL     1       1.242 -14.512 -11.955  1.00  0.00    -0.279 OA
HETATM   12  C10 UNL     1       2.494 -13.852 -11.919  1.00  0.00     0.169 C 
HETATM   13  C11 UNL     1       2.886 -13.646 -10.489  1.00  0.00     0.036 C 
HETATM   14  C12 UNL     1       3.516 -12.338 -10.197  1.00  0.00     0.013 C 
HETATM   15  C13 UNL     1       2.659 -11.110 -10.537  1.00  0.00    -0.031 C 
HETATM   16  C14 UNL     1       1.670 -11.061  -9.437  1.00  0.00     0.010 C 
HETATM   17  C15 UNL     1       2.551 -10.698  -8.247  1.00  0.00     0.001 C 
HETATM   18  C16 UNL     1       3.843 -10.159  -8.793  1.00  0.00     0.006 C 
HETATM   19  C17 UNL     1       3.558  -9.949 -10.287  1.00  0.00     0.002 C 
ENDROOT
TORSDOF 0
ENDMDL
