MODEL 1
REMARK VINA RESULT: -6.485946007      0.000      0.000
REMARK  3 active torsions:
REMARK  status: ('A' for Active; 'I' for Inactive)
REMARK    1  A    between atoms: C2_2  and  C3_3 
REMARK    2  A    between atoms: C12_12  and  N1_13 
REMARK    3  A    between atoms: N1_13  and  C13_16 
ROOT
HETATM    1  C3  UNL     1      22.987 -45.420  -9.324  1.00  0.00     0.016 C 
HETATM    2  C4  UNL     1      24.368 -44.846  -9.668  1.00  0.00    -0.006 C 
HETATM    3  C5  UNL     1      24.307 -43.636 -10.516  1.00  0.00     0.012 C 
HETATM    4  C6  UNL     1      23.939 -43.810 -11.950  1.00  0.00     0.017 C 
HETATM    5  C7  UNL     1      24.229 -45.156 -12.509  1.00  0.00     0.011 C 
HETATM    6  C8  UNL     1      23.705 -46.145 -11.459  1.00  0.00    -0.009 C 
HETATM    7  C9  UNL     1      24.844 -46.104 -10.419  1.00  0.00     0.010 C 
HETATM    8  C10 UNL     1      22.494 -45.659 -10.728  1.00  0.00    -0.000 C 
HETATM    9  C11 UNL     1      21.699 -44.581 -11.328  1.00  0.00     0.039 C 
HETATM   10  C12 UNL     1      22.445 -43.585 -12.163  1.00  0.00     0.190 C 
ENDROOT
BRANCH  10  11
HETATM   11  N1  UNL     1      22.181 -43.891 -13.572  1.00  0.00    -0.071 N 
ATOM     12  H12 UNL     1      22.912 -44.484 -13.966  1.00  0.00     0.277 HD
ATOM     13  H11 UNL     1      21.388 -44.526 -13.671  1.00  0.00     0.277 HD
BRANCH  11  14
HETATM   14  C13 UNL     1      21.995 -42.687 -14.364  1.00  0.00     0.228 C 
HETATM   15  C14 UNL     1      21.151 -43.086 -15.573  1.00  0.00     0.034 C 
ENDBRANCH  11  14
ENDBRANCH  10  11
BRANCH   1  16
HETATM   16  C2  UNL     1      22.189 -44.547  -8.489  1.00  0.00    -0.031 C 
HETATM   17  C1  UNL     1      22.808 -43.802  -7.570  1.00  0.00     0.007 C 
ENDBRANCH   1  16
TORSDOF 3
ENDMDL
MODEL 2
REMARK VINA RESULT: -6.425822299      2.112      4.059
REMARK  3 active torsions:
REMARK  status: ('A' for Active; 'I' for Inactive)
REMARK    1  A    between atoms: C2_2  and  C3_3 
REMARK    2  A    between atoms: C12_12  and  N1_13 
REMARK    3  A    between atoms: N1_13  and  C13_16 
ROOT
HETATM    1  C3  UNL     1      23.265 -43.278 -11.123  1.00  0.00     0.016 C 
HETATM    2  C4  UNL     1      23.169 -44.135  -9.854  1.00  0.00    -0.006 C 
HETATM    3  C5  UNL     1      24.330 -45.031  -9.660  1.00  0.00     0.012 C 
HETATM    4  C6  UNL     1      24.445 -46.222 -10.547  1.00  0.00     0.017 C 
HETATM    5  C7  UNL     1      23.159 -46.705 -11.113  1.00  0.00     0.011 C 
HETATM    6  C8  UNL     1      22.445 -45.443 -11.616  1.00  0.00    -0.009 C 
HETATM    7  C9  UNL     1      21.889 -44.870 -10.295  1.00  0.00     0.010 C 
HETATM    8  C10 UNL     1      23.377 -44.392 -12.132  1.00  0.00    -0.000 C 
HETATM    9  C11 UNL     1      24.739 -44.788 -12.511  1.00  0.00     0.039 C 
HETATM   10  C12 UNL     1      25.341 -45.928 -11.746  1.00  0.00     0.190 C 
ENDROOT
BRANCH  10  11
HETATM   11  N1  UNL     1      25.289 -47.119 -12.599  1.00  0.00    -0.071 N 
ATOM     12  H12 UNL     1      24.836 -47.898 -12.121  1.00  0.00     0.277 HD
ATOM     13  H11 UNL     1      24.630 -46.996 -13.368  1.00  0.00     0.277 HD
BRANCH  11  14
HETATM   14  C13 UNL     1      26.606 -47.495 -13.088  1.00  0.00     0.228 C 
HETATM   15  C14 UNL     1      27.601 -47.120 -11.992  1.00  0.00     0.034 C 
ENDBRANCH  11  14
ENDBRANCH  10  11
BRANCH   1  16
HETATM   16  C2  UNL     1      24.345 -42.314 -11.089  1.00  0.00    -0.031 C 
HETATM   17  C1  UNL     1      24.137 -41.105 -11.617  1.00  0.00     0.007 C 
ENDBRANCH   1  16
TORSDOF 3
ENDMDL
MODEL 3
REMARK VINA RESULT: -6.391789809      2.147      4.361
REMARK  3 active torsions:
REMARK  status: ('A' for Active; 'I' for Inactive)
REMARK    1  A    between atoms: C2_2  and  C3_3 
REMARK    2  A    between atoms: C12_12  and  N1_13 
REMARK    3  A    between atoms: N1_13  and  C13_16 
ROOT
HETATM    1  C3  UNL     1      24.473 -41.142 -12.917  1.00  0.00     0.016 C 
HETATM    2  C4  UNL     1      25.727 -41.924 -12.507  1.00  0.00    -0.006 C 
HETATM    3  C5  UNL     1      25.608 -43.382 -12.727  1.00  0.00     0.012 C 
HETATM    4  C6  UNL     1      24.731 -44.156 -11.804  1.00  0.00     0.017 C 
HETATM    5  C7  UNL     1      24.535 -43.539 -10.466  1.00  0.00     0.011 C 
HETATM    6  C8  UNL     1      24.234 -42.060 -10.749  1.00  0.00    -0.009 C 
HETATM    7  C9  UNL     1      25.651 -41.515 -11.023  1.00  0.00     0.010 C 
HETATM    8  C10 UNL     1      23.479 -41.835 -12.021  1.00  0.00    -0.000 C 
HETATM    9  C11 UNL     1      22.751 -42.963 -12.613  1.00  0.00     0.039 C 
HETATM   10  C12 UNL     1      23.333 -44.326 -12.390  1.00  0.00     0.190 C 
ENDROOT
BRANCH  10  11
HETATM   11  N1  UNL     1      22.534 -44.994 -11.358  1.00  0.00    -0.071 N 
ATOM     12  H12 UNL     1      22.673 -46.005 -11.379  1.00  0.00     0.277 HD
ATOM     13  H11 UNL     1      22.897 -44.800 -10.425  1.00  0.00     0.277 HD
BRANCH  11  14
HETATM   14  C13 UNL     1      21.124 -44.653 -11.457  1.00  0.00     0.228 C 
HETATM   15  C14 UNL     1      20.430 -45.854 -12.097  1.00  0.00     0.034 C 
ENDBRANCH  11  14
ENDBRANCH  10  11
BRANCH   1  16
HETATM   16  C2  UNL     1      24.208 -41.177 -14.340  1.00  0.00    -0.031 C 
HETATM   17  C1  UNL     1      23.414 -40.240 -14.864  1.00  0.00     0.007 C 
ENDBRANCH   1  16
TORSDOF 3
ENDMDL
MODEL 4
REMARK VINA RESULT: -6.355920858      2.030      4.141
REMARK  3 active torsions:
REMARK  status: ('A' for Active; 'I' for Inactive)
REMARK    1  A    between atoms: C2_2  and  C3_3 
REMARK    2  A    between atoms: C12_12  and  N1_13 
REMARK    3  A    between atoms: N1_13  and  C13_16 
ROOT
HETATM    1  C3  UNL     1      22.505 -44.991 -12.296  1.00  0.00     0.016 C 
HETATM    2  C4  UNL     1      22.138 -45.579 -10.927  1.00  0.00    -0.006 C 
HETATM    3  C5  UNL     1      22.199 -44.591  -9.828  1.00  0.00     0.012 C 
HETATM    4  C6  UNL     1      23.545 -44.150  -9.363  1.00  0.00     0.017 C 
HETATM    5  C7  UNL     1      24.641 -45.120  -9.617  1.00  0.00     0.011 C 
HETATM    6  C8  UNL     1      24.444 -45.573 -11.071  1.00  0.00    -0.009 C 
HETATM    7  C9  UNL     1      23.297 -46.594 -10.911  1.00  0.00     0.010 C 
HETATM    8  C10 UNL     1      23.892 -44.506 -11.962  1.00  0.00    -0.000 C 
HETATM    9  C11 UNL     1      24.002 -43.107 -11.531  1.00  0.00     0.039 C 
HETATM   10  C12 UNL     1      23.967 -42.857 -10.054  1.00  0.00     0.190 C 
ENDROOT
BRANCH  10  11
HETATM   11  N1  UNL     1      25.337 -42.583  -9.610  1.00  0.00    -0.071 N 
ATOM     12  H12 UNL     1      25.559 -43.095  -8.756  1.00  0.00     0.277 HD
ATOM     13  H11 UNL     1      26.021 -43.010 -10.236  1.00  0.00     0.277 HD
BRANCH  11  14
HETATM   14  C13 UNL     1      25.583 -41.160  -9.453  1.00  0.00     0.228 C 
HETATM   15  C14 UNL     1      26.868 -40.852 -10.219  1.00  0.00     0.034 C 
ENDBRANCH  11  14
ENDBRANCH  10  11
BRANCH   1  16
HETATM   16  C2  UNL     1      21.561 -44.002 -12.772  1.00  0.00    -0.031 C 
HETATM   17  C1  UNL     1      21.548 -43.709 -14.075  1.00  0.00     0.007 C 
ENDBRANCH   1  16
TORSDOF 3
ENDMDL
MODEL 5
REMARK VINA RESULT: -6.307829196      1.359      3.042
REMARK  3 active torsions:
REMARK  status: ('A' for Active; 'I' for Inactive)
REMARK    1  A    between atoms: C2_2  and  C3_3 
REMARK    2  A    between atoms: C12_12  and  N1_13 
REMARK    3  A    between atoms: N1_13  and  C13_16 
ROOT
HETATM    1  C3  UNL     1      24.797 -46.108 -10.388  1.00  0.00     0.016 C 
HETATM    2  C4  UNL     1      23.377 -46.684 -10.315  1.00  0.00    -0.006 C 
HETATM    3  C5  UNL     1      22.582 -46.445 -11.540  1.00  0.00     0.012 C 
HETATM    4  C6  UNL     1      22.089 -45.061 -11.789  1.00  0.00     0.017 C 
HETATM    5  C7  UNL     1      21.937 -44.224 -10.571  1.00  0.00     0.011 C 
HETATM    6  C8  UNL     1      23.230 -44.443  -9.773  1.00  0.00    -0.009 C 
HETATM    7  C9  UNL     1      22.948 -45.813  -9.120  1.00  0.00     0.010 C 
HETATM    8  C10 UNL     1      24.435 -44.665 -10.632  1.00  0.00    -0.000 C 
HETATM    9  C11 UNL     1      24.382 -44.239 -12.036  1.00  0.00     0.039 C 
HETATM   10  C12 UNL     1      23.041 -44.296 -12.702  1.00  0.00     0.190 C 
ENDROOT
BRANCH  10  11
HETATM   11  N1  UNL     1      22.521 -42.928 -12.784  1.00  0.00    -0.071 N 
ATOM     12  H12 UNL     1      21.661 -42.891 -13.332  1.00  0.00     0.277 HD
ATOM     13  H11 UNL     1      22.153 -42.617 -11.885  1.00  0.00     0.277 HD
BRANCH  11  14
HETATM   14  C13 UNL     1      23.514 -41.999 -13.297  1.00  0.00     0.228 C 
HETATM   15  C14 UNL     1      22.891 -41.326 -14.519  1.00  0.00     0.034 C 
ENDBRANCH  11  14
ENDBRANCH  10  11
BRANCH   1  16
HETATM   16  C2  UNL     1      25.632 -46.750 -11.380  1.00  0.00    -0.031 C 
HETATM   17  C1  UNL     1      26.887 -47.064 -11.050  1.00  0.00     0.007 C 
ENDBRANCH   1  16
TORSDOF 3
ENDMDL
