MODEL 1
REMARK VINA RESULT: -5.097945150      0.000      0.000
REMARK  4 active torsions:
REMARK  status: ('A' for Active; 'I' for Inactive)
REMARK    1  A    between atoms: C1_2  and  C2_3 
REMARK       I    between atoms: C1_2  and  N1_9 
REMARK    2  A    between atoms: C2_3  and  C3_4 
REMARK    3  A    between atoms: C3_4  and  C4_5 
REMARK    4  A    between atoms: N1_9  and  C7_11 
ROOT
HETATM    1  O1  UNL     1     125.585 106.048 -40.385  1.00  0.00    -0.274 OA
HETATM    2  C1  UNL     1     124.845 105.510 -41.220  1.00  0.00     0.218 C 
HETATM    3  N1  UNL     1     124.407 106.261 -42.333  1.00  0.00    -0.356 N 
ATOM      4  H1  UNL     1     123.798 105.821 -43.024  1.00  0.00     0.162 HD
ENDROOT
BRANCH   2   5
HETATM    5  C2  UNL     1     124.420 104.123 -41.078  1.00  0.00     0.113 C 
BRANCH   5   6
HETATM    6  C3  UNL     1     125.155 103.083 -41.832  1.00  0.00    -0.023 A 
HETATM    7  C5  UNL     1     126.549 102.662 -41.430  1.00  0.00     0.011 A 
HETATM    8  C6  UNL     1     125.370 101.696 -41.440  1.00  0.00     0.011 A 
BRANCH   6   9
HETATM    9  C4  UNL     1     125.048 103.307 -43.360  1.00  0.00     0.095 C 
HETATM   10 BR1  UNL     1     125.062 101.629 -44.299  1.00  0.00    -0.096 Br
ENDBRANCH   6   9
ENDBRANCH   5   6
ENDBRANCH   2   5
BRANCH   3  11
HETATM   11  C7  UNL     1     124.801 107.627 -42.511  1.00  0.00     0.084 C 
HETATM   12  C8  UNL     1     123.580 108.550 -42.533  1.00  0.00     0.025 C 
HETATM   13  C9  UNL     1     124.173 109.801 -43.148  1.00  0.00     0.002 C 
HETATM   14  C10 UNL     1     125.107 109.271 -44.186  1.00  0.00     0.002 C 
HETATM   15  C11 UNL     1     125.315 107.805 -43.924  1.00  0.00     0.025 C 
ENDBRANCH   3  11
TORSDOF 4
ENDMDL
MODEL 2
REMARK VINA RESULT: -4.999177647      2.525      3.266
REMARK  4 active torsions:
REMARK  status: ('A' for Active; 'I' for Inactive)
REMARK    1  A    between atoms: C1_2  and  C2_3 
REMARK       I    between atoms: C1_2  and  N1_9 
REMARK    2  A    between atoms: C2_3  and  C3_4 
REMARK    3  A    between atoms: C3_4  and  C4_5 
REMARK    4  A    between atoms: N1_9  and  C7_11 
ROOT
HETATM    1  O1  UNL     1     122.956 105.238 -45.563  1.00  0.00    -0.274 OA
HETATM    2  C1  UNL     1     124.134 104.856 -45.529  1.00  0.00     0.218 C 
HETATM    3  N1  UNL     1     125.139 105.768 -45.138  1.00  0.00    -0.356 N 
ATOM      4  H1  UNL     1     126.111 105.458 -45.108  1.00  0.00     0.162 HD
ENDROOT
BRANCH   2   5
HETATM    5  C2  UNL     1     124.502 103.491 -45.883  1.00  0.00     0.113 C 
BRANCH   5   6
HETATM    6  C3  UNL     1     124.721 102.518 -44.789  1.00  0.00    -0.023 A 
HETATM    7  C5  UNL     1     125.797 102.736 -43.751  1.00  0.00     0.011 A 
HETATM    8  C6  UNL     1     124.317 102.654 -43.395  1.00  0.00     0.011 A 
BRANCH   6   9
HETATM    9  C4  UNL     1     124.725 101.062 -45.315  1.00  0.00     0.095 C 
HETATM   10 BR1  UNL     1     124.448 101.022 -47.217  1.00  0.00    -0.096 Br
ENDBRANCH   6   9
ENDBRANCH   5   6
ENDBRANCH   2   5
BRANCH   3  11
HETATM   11  C7  UNL     1     124.821 107.120 -44.782  1.00  0.00     0.084 C 
HETATM   12  C8  UNL     1     126.053 108.021 -44.900  1.00  0.00     0.025 C 
HETATM   13  C9  UNL     1     125.611 109.222 -44.090  1.00  0.00     0.002 C 
HETATM   14  C10 UNL     1     124.858 108.619 -42.951  1.00  0.00     0.002 C 
HETATM   15  C11 UNL     1     124.566 107.183 -43.291  1.00  0.00     0.025 C 
ENDBRANCH   3  11
TORSDOF 4
ENDMDL
MODEL 3
REMARK VINA RESULT: -4.978867081      2.246      2.890
REMARK  4 active torsions:
REMARK  status: ('A' for Active; 'I' for Inactive)
REMARK    1  A    between atoms: C1_2  and  C2_3 
REMARK       I    between atoms: C1_2  and  N1_9 
REMARK    2  A    between atoms: C2_3  and  C3_4 
REMARK    3  A    between atoms: C3_4  and  C4_5 
REMARK    4  A    between atoms: N1_9  and  C7_11 
ROOT
HETATM    1  O1  UNL     1     125.680 105.576 -45.584  1.00  0.00    -0.274 OA
HETATM    2  C1  UNL     1     124.728 105.004 -45.034  1.00  0.00     0.218 C 
HETATM    3  N1  UNL     1     123.998 105.690 -44.038  1.00  0.00    -0.356 N 
ATOM      4  H1  UNL     1     123.213 105.223 -43.583  1.00  0.00     0.162 HD
ENDROOT
BRANCH   2   5
HETATM    5  C2  UNL     1     124.348 103.643 -45.393  1.00  0.00     0.113 C 
BRANCH   5   6
HETATM    6  C3  UNL     1     124.744 102.543 -44.486  1.00  0.00    -0.023 A 
HETATM    7  C5  UNL     1     125.924 102.684 -43.552  1.00  0.00     0.011 A 
HETATM    8  C6  UNL     1     124.502 102.453 -43.052  1.00  0.00     0.011 A 
BRANCH   6   9
HETATM    9  C4  UNL     1     124.761 101.180 -45.219  1.00  0.00     0.095 C 
HETATM   10 BR1  UNL     1     124.407 101.409 -47.096  1.00  0.00    -0.096 Br
ENDBRANCH   6   9
ENDBRANCH   5   6
ENDBRANCH   2   5
BRANCH   3  11
HETATM   11  C7  UNL     1     124.338 107.029 -43.655  1.00  0.00     0.084 C 
HETATM   12  C8  UNL     1     124.853 107.072 -42.214  1.00  0.00     0.025 C 
HETATM   13  C9  UNL     1     124.724 108.548 -41.904  1.00  0.00     0.002 C 
HETATM   14  C10 UNL     1     123.447 108.937 -42.573  1.00  0.00     0.002 C 
HETATM   15  C11 UNL     1     123.063 107.835 -43.523  1.00  0.00     0.025 C 
ENDBRANCH   3  11
TORSDOF 4
ENDMDL
MODEL 4
REMARK VINA RESULT: -4.970815160      3.133      5.830
REMARK  4 active torsions:
REMARK  status: ('A' for Active; 'I' for Inactive)
REMARK    1  A    between atoms: C1_2  and  C2_3 
REMARK       I    between atoms: C1_2  and  N1_9 
REMARK    2  A    between atoms: C2_3  and  C3_4 
REMARK    3  A    between atoms: C3_4  and  C4_5 
REMARK    4  A    between atoms: N1_9  and  C7_11 
ROOT
HETATM    1  O1  UNL     1     125.841 106.802 -45.364  1.00  0.00    -0.274 OA
HETATM    2  C1  UNL     1     124.693 106.757 -44.900  1.00  0.00     0.218 C 
HETATM    3  N1  UNL     1     124.058 105.503 -44.764  1.00  0.00    -0.356 N 
ATOM      4  H1  UNL     1     123.112 105.460 -44.382  1.00  0.00     0.162 HD
ENDROOT
BRANCH   2   5
HETATM    5  C2  UNL     1     123.988 107.966 -44.493  1.00  0.00     0.113 C 
BRANCH   5   6
HETATM    6  C3  UNL     1     123.913 108.281 -43.049  1.00  0.00    -0.023 A 
HETATM    7  C5  UNL     1     124.780 107.560 -42.044  1.00  0.00     0.011 A 
HETATM    8  C6  UNL     1     124.861 109.066 -42.269  1.00  0.00     0.011 A 
BRANCH   6   9
HETATM    9  C4  UNL     1     122.446 108.383 -42.565  1.00  0.00     0.095 C 
HETATM   10 BR1  UNL     1     121.225 108.164 -44.034  1.00  0.00    -0.096 Br
ENDBRANCH   6   9
ENDBRANCH   5   6
ENDBRANCH   2   5
BRANCH   3  11
HETATM   11  C7  UNL     1     124.714 104.289 -45.152  1.00  0.00     0.084 C 
HETATM   12  C8  UNL     1     123.908 103.549 -46.223  1.00  0.00     0.025 C 
HETATM   13  C9  UNL     1     124.526 102.169 -46.148  1.00  0.00     0.002 C 
HETATM   14  C10 UNL     1     124.759 101.969 -44.687  1.00  0.00     0.002 C 
HETATM   15  C11 UNL     1     124.631 103.304 -44.005  1.00  0.00     0.025 C 
ENDBRANCH   3  11
TORSDOF 4
ENDMDL
MODEL 5
REMARK VINA RESULT: -4.877942300      3.495      6.213
REMARK  4 active torsions:
REMARK  status: ('A' for Active; 'I' for Inactive)
REMARK    1  A    between atoms: C1_2  and  C2_3 
REMARK       I    between atoms: C1_2  and  N1_9 
REMARK    2  A    between atoms: C2_3  and  C3_4 
REMARK    3  A    between atoms: C3_4  and  C4_5 
REMARK    4  A    between atoms: N1_9  and  C7_11 
ROOT
HETATM    1  O1  UNL     1     125.415 106.601 -45.311  1.00  0.00    -0.274 OA
HETATM    2  C1  UNL     1     124.666 106.337 -44.361  1.00  0.00     0.218 C 
HETATM    3  N1  UNL     1     124.326 104.989 -44.109  1.00  0.00    -0.356 N 
ATOM      4  H1  UNL     1     123.710 104.766 -43.328  1.00  0.00     0.162 HD
ENDROOT
BRANCH   2   5
HETATM    5  C2  UNL     1     124.130 107.384 -43.500  1.00  0.00     0.113 C 
BRANCH   5   6
HETATM    6  C3  UNL     1     122.805 107.955 -43.831  1.00  0.00    -0.023 A 
HETATM    7  C5  UNL     1     122.598 108.781 -45.079  1.00  0.00     0.011 A 
HETATM    8  C6  UNL     1     121.862 107.469 -44.831  1.00  0.00     0.011 A 
BRANCH   6   9
HETATM    9  C4  UNL     1     122.145 108.615 -42.597  1.00  0.00     0.095 C 
HETATM   10 BR1  UNL     1     120.269 108.909 -42.899  1.00  0.00    -0.096 Br
ENDBRANCH   6   9
ENDBRANCH   5   6
ENDBRANCH   2   5
BRANCH   3  11
HETATM   11  C7  UNL     1     124.830 103.928 -44.931  1.00  0.00     0.084 C 
HETATM   12  C8  UNL     1     123.885 103.647 -46.102  1.00  0.00     0.025 C 
HETATM   13  C9  UNL     1     124.365 102.278 -46.539  1.00  0.00     0.002 C 
HETATM   14  C10 UNL     1     124.674 101.588 -45.251  1.00  0.00     0.002 C 
HETATM   15  C11 UNL     1     124.725 102.628 -44.164  1.00  0.00     0.025 C 
ENDBRANCH   3  11
TORSDOF 4
ENDMDL
