MODEL 1
REMARK VINA RESULT: -3.940941836      0.000      0.000
REMARK  4 active torsions:
REMARK  status: ('A' for Active; 'I' for Inactive)
REMARK    1  A    between atoms: C2_2  and  C3_3 
REMARK    2  A    between atoms: C3_3  and  C4_5 
REMARK    3  A    between atoms: C5_6  and  O1_7 
REMARK    4  A    between atoms: C6_9  and  C7_11 
ROOT
HETATM    1  C4  UNL     1      87.814  87.575 -38.976  1.00  0.00     0.057 A 
HETATM    2  C5  UNL     1      88.037  86.256 -38.416  1.00  0.00     0.145 A 
HETATM    3  C6  UNL     1      86.700  86.531 -39.003  1.00  0.00     0.061 A 
HETATM    4 BR1  UNL     1      86.305  85.677 -40.688  1.00  0.00    -0.081 Br
ENDROOT
BRANCH   1   5
HETATM    5  C3  UNL     1      88.191  88.144 -40.268  1.00  0.00     0.090 C 
HETATM    6 CL1  UNL     1      87.127  89.602 -40.517  1.00  0.00    -0.124 Cl
BRANCH   5   7
HETATM    7  C2  UNL     1      89.548  88.622 -40.539  1.00  0.00     0.016 C 
HETATM    8  C1  UNL     1      90.706  87.709 -40.462  1.00  0.00     0.006 C 
ENDBRANCH   5   7
ENDBRANCH   1   5
BRANCH   2   9
HETATM    9  O1  UNL     1      88.760  85.233 -39.004  1.00  0.00    -0.393 OA
ATOM     10  H1  UNL     1      89.395  84.676 -38.570  1.00  0.00     0.210 HD
ENDBRANCH   2   9
BRANCH   3  11
HETATM   11  C7  UNL     1      85.512  86.883 -38.185  1.00  0.00     0.109 C 
HETATM   12 BR2  UNL     1      85.277  85.803 -36.630  1.00  0.00    -0.095 Br
ENDBRANCH   3  11
TORSDOF 4
ENDMDL
MODEL 2
REMARK VINA RESULT: -3.907446550      2.362      3.099
REMARK  4 active torsions:
REMARK  status: ('A' for Active; 'I' for Inactive)
REMARK    1  A    between atoms: C2_2  and  C3_3 
REMARK    2  A    between atoms: C3_3  and  C4_5 
REMARK    3  A    between atoms: C5_6  and  O1_7 
REMARK    4  A    between atoms: C6_9  and  C7_11 
ROOT
HETATM    1  C4  UNL     1      87.710  88.461 -39.093  1.00  0.00     0.057 A 
HETATM    2  C5  UNL     1      89.010  88.267 -39.705  1.00  0.00     0.145 A 
HETATM    3  C6  UNL     1      88.182  87.057 -39.463  1.00  0.00     0.061 A 
HETATM    4 BR1  UNL     1      87.398  86.223 -41.017  1.00  0.00    -0.081 Br
ENDROOT
BRANCH   1   5
HETATM    5  C3  UNL     1      86.433  88.881 -39.667  1.00  0.00     0.090 C 
HETATM    6 CL1  UNL     1      85.205  88.763 -38.326  1.00  0.00    -0.124 Cl
BRANCH   5   7
HETATM    7  C2  UNL     1      86.239  90.217 -40.234  1.00  0.00     0.016 C 
HETATM    8  C1  UNL     1      85.635  91.302 -39.436  1.00  0.00     0.006 C 
ENDBRANCH   5   7
ENDBRANCH   1   5
BRANCH   2   9
HETATM    9  O1  UNL     1      89.335  88.526 -41.025  1.00  0.00    -0.393 OA
ATOM     10  H1  UNL     1      89.047  89.273 -41.536  1.00  0.00     0.210 HD
ENDBRANCH   2   9
BRANCH   3  11
HETATM   11  C7  UNL     1      88.385  86.154 -38.301  1.00  0.00     0.109 C 
HETATM   12 BR2  UNL     1      86.782  85.385 -37.612  1.00  0.00    -0.095 Br
ENDBRANCH   3  11
TORSDOF 4
ENDMDL
MODEL 3
REMARK VINA RESULT: -3.842568155      2.892      4.454
REMARK  4 active torsions:
REMARK  status: ('A' for Active; 'I' for Inactive)
REMARK    1  A    between atoms: C2_2  and  C3_3 
REMARK    2  A    between atoms: C3_3  and  C4_5 
REMARK    3  A    between atoms: C5_6  and  O1_7 
REMARK    4  A    between atoms: C6_9  and  C7_11 
ROOT
HETATM    1  C4  UNL     1      86.617  87.238 -38.887  1.00  0.00     0.057 A 
HETATM    2  C5  UNL     1      85.938  87.921 -39.971  1.00  0.00     0.145 A 
HETATM    3  C6  UNL     1      87.335  87.477 -40.214  1.00  0.00     0.061 A 
HETATM    4 BR1  UNL     1      87.568  85.969 -41.396  1.00  0.00    -0.081 Br
ENDROOT
BRANCH   1   5
HETATM    5  C3  UNL     1      86.548  85.850 -38.436  1.00  0.00     0.090 C 
HETATM    6 CL1  UNL     1      88.101  85.525 -37.538  1.00  0.00    -0.124 Cl
BRANCH   5   7
HETATM    7  C2  UNL     1      85.492  85.378 -37.538  1.00  0.00     0.016 C 
HETATM    8  C1  UNL     1      85.039  86.199 -36.398  1.00  0.00     0.006 C 
ENDBRANCH   5   7
ENDBRANCH   1   5
BRANCH   2   9
HETATM    9  O1  UNL     1      84.974  87.374 -40.800  1.00  0.00    -0.393 OA
ATOM     10  H1  UNL     1      85.112  86.687 -41.442  1.00  0.00     0.210 HD
ENDBRANCH   2   9
BRANCH   3  11
HETATM   11  C7  UNL     1      88.504  88.388 -40.122  1.00  0.00     0.109 C 
HETATM   12 BR2  UNL     1      90.195  87.519 -40.269  1.00  0.00    -0.095 Br
ENDBRANCH   3  11
TORSDOF 4
ENDMDL
MODEL 4
REMARK VINA RESULT: -3.657861273     11.740     13.135
REMARK  4 active torsions:
REMARK  status: ('A' for Active; 'I' for Inactive)
REMARK    1  A    between atoms: C2_2  and  C3_3 
REMARK    2  A    between atoms: C3_3  and  C4_5 
REMARK    3  A    between atoms: C5_6  and  O1_7 
REMARK    4  A    between atoms: C6_9  and  C7_11 
ROOT
HETATM    1  C4  UNL     1      91.575  98.917 -42.873  1.00  0.00     0.057 A 
HETATM    2  C5  UNL     1      91.571 100.235 -42.268  1.00  0.00     0.145 A 
HETATM    3  C6  UNL     1      90.524  99.947 -43.284  1.00  0.00     0.061 A 
HETATM    4 BR1  UNL     1      88.725  99.711 -42.625  1.00  0.00    -0.081 Br
ENDROOT
BRANCH   1   5
HETATM    5  C3  UNL     1      91.063  97.638 -42.387  1.00  0.00     0.090 C 
HETATM    6 CL1  UNL     1      91.101  96.497 -43.808  1.00  0.00    -0.124 Cl
BRANCH   5   7
HETATM    7  C2  UNL     1      91.715  96.903 -41.301  1.00  0.00     0.016 C 
HETATM    8  C1  UNL     1      91.668  95.429 -41.244  1.00  0.00     0.006 C 
ENDBRANCH   5   7
ENDBRANCH   1   5
BRANCH   2   9
HETATM    9  O1  UNL     1      91.116 100.547 -40.999  1.00  0.00    -0.393 OA
ATOM     10  H1  UNL     1      91.507 100.265 -40.180  1.00  0.00     0.210 HD
ENDBRANCH   2   9
BRANCH   3  11
HETATM   11  C7  UNL     1      90.622 100.390 -44.697  1.00  0.00     0.109 C 
HETATM   12 BR2  UNL     1      89.423  99.502 -45.886  1.00  0.00    -0.095 Br
ENDBRANCH   3  11
TORSDOF 4
ENDMDL
MODEL 5
REMARK VINA RESULT: -3.642064841      2.813      3.246
REMARK  4 active torsions:
REMARK  status: ('A' for Active; 'I' for Inactive)
REMARK    1  A    between atoms: C2_2  and  C3_3 
REMARK    2  A    between atoms: C3_3  and  C4_5 
REMARK    3  A    between atoms: C5_6  and  O1_7 
REMARK    4  A    between atoms: C6_9  and  C7_11 
ROOT
HETATM    1  C4  UNL     1      87.430  87.802 -40.539  1.00  0.00     0.057 A 
HETATM    2  C5  UNL     1      87.429  88.965 -39.674  1.00  0.00     0.145 A 
HETATM    3  C6  UNL     1      86.163  88.194 -39.783  1.00  0.00     0.061 A 
HETATM    4 BR1  UNL     1      85.664  87.134 -38.248  1.00  0.00    -0.081 Br
ENDROOT
BRANCH   1   5
HETATM    5  C3  UNL     1      87.915  86.441 -40.316  1.00  0.00     0.090 C 
HETATM    6 CL1  UNL     1      87.688  85.551 -41.890  1.00  0.00    -0.124 Cl
BRANCH   5   7
HETATM    7  C2  UNL     1      89.299  86.165 -39.927  1.00  0.00     0.016 C 
HETATM    8  C1  UNL     1      90.389  87.094 -40.283  1.00  0.00     0.006 C 
ENDBRANCH   5   7
ENDBRANCH   1   5
BRANCH   2   9
HETATM    9  O1  UNL     1      87.988  89.040 -38.410  1.00  0.00    -0.393 OA
ATOM     10  H1  UNL     1      87.513  89.156 -37.595  1.00  0.00     0.210 HD
ENDBRANCH   2   9
BRANCH   3  11
HETATM   11  C7  UNL     1      85.034  88.608 -40.654  1.00  0.00     0.109 C 
HETATM   12 BR2  UNL     1      84.689  90.484 -40.659  1.00  0.00    -0.095 Br
ENDBRANCH   3  11
TORSDOF 4
ENDMDL
