MODEL 1
REMARK VINA RESULT: -6.783845880      0.000      0.000
REMARK  17 active torsions:
REMARK  status: ('A' for Active; 'I' for Inactive)
REMARK    1  A    between atoms: C2_2  and  O2_4 
REMARK    2  A    between atoms: O2_4  and  C3_5 
REMARK    3  A    between atoms: C9_11  and  O3_12 
REMARK    4  A    between atoms: O3_12  and  C10_13 
REMARK    5  A    between atoms: C12_16  and  O5_17 
REMARK    6  A    between atoms: O5_17  and  C13_18 
REMARK    7  A    between atoms: C16_22  and  C18_24 
REMARK    8  A    between atoms: C18_24  and  C19_25 
REMARK    9  A    between atoms: C19_25  and  C20_26 
REMARK   10  A    between atoms: C20_26  and  C21_27 
REMARK   11  A    between atoms: C24_30  and  C25_31 
REMARK   12  A    between atoms: C26_32  and  C27_33 
REMARK   13  A    between atoms: C27_33  and  O7_35 
REMARK   14  A    between atoms: C27_33  and  C31_39 
REMARK   15  A    between atoms: O7_35  and  C29_36 
REMARK   16  A    between atoms: C31_39  and  C33_41 
REMARK   17  A    between atoms: C33_41  and  O9_42 
ROOT
HETATM    1  C3  UNL     1      28.190   9.212  -4.971  1.00  0.00     0.140 C 
HETATM    2  C4  UNL     1      28.961   8.333  -5.927  1.00  0.00     0.038 C 
HETATM    3  C5  UNL     1      28.497   8.509  -7.347  1.00  0.00    -0.001 C 
HETATM    4  C6  UNL     1      29.295   7.611  -8.258  1.00  0.00     0.011 C 
HETATM    5  C7  UNL     1      27.008   8.309  -7.453  1.00  0.00     0.013 C 
HETATM    6  C8  UNL     1      26.771   7.823  -8.882  1.00  0.00     0.023 C 
HETATM    7  C9  UNL     1      26.589   7.184  -6.574  1.00  0.00     0.174 C 
HETATM    8  C12 UNL     1      26.275   7.627  -5.167  1.00  0.00     0.170 C 
HETATM    9  C15 UNL     1      26.728   9.021  -5.002  1.00  0.00     0.060 C 
HETATM   10  C16 UNL     1      25.971  10.032  -5.893  1.00  0.00    -0.011 C 
HETATM   11  C17 UNL     1      26.659  11.382  -5.571  1.00  0.00     0.021 C 
HETATM   12  C24 UNL     1      26.253   9.598  -7.267  1.00  0.00    -0.060 C 
ENDROOT
BRANCH  12  13
HETATM   13  C25 UNL     1      25.164   9.736  -8.293  1.00  0.00     0.003 C 
HETATM   14  C26 UNL     1      24.865  10.882  -8.879  1.00  0.00     0.012 C 
BRANCH  14  15
HETATM   15  C27 UNL     1      23.895  11.278  -9.864  1.00  0.00     0.090 C 
HETATM   16  C28 UNL     1      23.671  12.780  -9.722  1.00  0.00     0.051 C 
BRANCH  15  17
HETATM   17  O7  UNL     1      24.200  10.913 -11.155  1.00  0.00    -0.306 OA
BRANCH  17  18
HETATM   18  C29 UNL     1      25.359  10.800 -11.828  1.00  0.00     0.255 C 
HETATM   19  C30 UNL     1      26.203  11.946 -12.283  1.00  0.00     0.126 C 
HETATM   20  O8  UNL     1      25.772   9.656 -12.102  1.00  0.00    -0.266 OA
ENDBRANCH  17  18
ENDBRANCH  15  17
BRANCH  15  21
HETATM   21  C31 UNL     1      22.572  10.564  -9.530  1.00  0.00     0.044 C 
HETATM   22  C32 UNL     1      21.465  11.589  -9.270  1.00  0.00     0.015 C 
BRANCH  21  23
HETATM   23  C33 UNL     1      22.117   9.623 -10.588  1.00  0.00     0.171 C 
BRANCH  23  24
HETATM   24  O9  UNL     1      22.710   8.378 -10.598  1.00  0.00    -0.400 OA
ATOM     25  H9  UNL     1      22.137   7.639 -10.766  1.00  0.00     0.209 HD
ENDBRANCH  23  24
ENDBRANCH  21  23
ENDBRANCH  15  21
ENDBRANCH  14  15
ENDBRANCH  12  13
BRANCH  10  26
HETATM   26  C18 UNL     1      24.579  10.045  -5.343  1.00  0.00     0.014 C 
BRANCH  26  27
HETATM   27  C19 UNL     1      23.950  11.270  -4.875  1.00  0.00     0.001 C 
BRANCH  27  28
HETATM   28  C20 UNL     1      23.154  12.093  -5.845  1.00  0.00     0.004 C 
BRANCH  28  29
HETATM   29  C21 UNL     1      23.196  13.558  -5.799  1.00  0.00    -0.023 C 
HETATM   30  C22 UNL     1      22.045  14.121  -6.718  1.00  0.00     0.009 C 
HETATM   31  C23 UNL     1      24.491  14.123  -6.373  1.00  0.00     0.009 C 
ENDBRANCH  28  29
ENDBRANCH  27  28
ENDBRANCH  26  27
ENDBRANCH  10  26
BRANCH   7  32
HETATM   32  O3  UNL     1      25.525   6.417  -7.124  1.00  0.00    -0.312 OA
BRANCH  32  33
HETATM   33  C10 UNL     1      25.563   5.038  -7.267  1.00  0.00     0.255 C 
HETATM   34  C11 UNL     1      26.530   4.163  -6.567  1.00  0.00     0.126 C 
HETATM   35  O4  UNL     1      24.688   4.555  -8.063  1.00  0.00    -0.266 OA
ENDBRANCH  32  33
ENDBRANCH   7  32
BRANCH   8  36
HETATM   36  O5  UNL     1      26.965   6.812  -4.221  1.00  0.00    -0.313 OA
BRANCH  36  37
HETATM   37  C13 UNL     1      26.481   6.523  -2.964  1.00  0.00     0.255 C 
HETATM   38  C14 UNL     1      25.022   6.693  -2.685  1.00  0.00     0.126 C 
HETATM   39  O6  UNL     1      27.271   6.127  -2.092  1.00  0.00    -0.266 OA
ENDBRANCH  36  37
ENDBRANCH   8  36
BRANCH   1  40
HETATM   40  O2  UNL     1      28.752   8.969  -3.675  1.00  0.00    -0.316 OA
BRANCH  40  41
HETATM   41  C2  UNL     1      28.400   9.719  -2.566  1.00  0.00     0.255 C 
HETATM   42  C1  UNL     1      28.255  11.194  -2.681  1.00  0.00     0.126 C 
HETATM   43  O1  UNL     1      28.202   9.151  -1.458  1.00  0.00    -0.266 OA
ENDBRANCH  40  41
ENDBRANCH   1  40
TORSDOF 17
ENDMDL
MODEL 2
REMARK VINA RESULT: -6.663722922      0.932      1.321
REMARK  17 active torsions:
REMARK  status: ('A' for Active; 'I' for Inactive)
REMARK    1  A    between atoms: C2_2  and  O2_4 
REMARK    2  A    between atoms: O2_4  and  C3_5 
REMARK    3  A    between atoms: C9_11  and  O3_12 
REMARK    4  A    between atoms: O3_12  and  C10_13 
REMARK    5  A    between atoms: C12_16  and  O5_17 
REMARK    6  A    between atoms: O5_17  and  C13_18 
REMARK    7  A    between atoms: C16_22  and  C18_24 
REMARK    8  A    between atoms: C18_24  and  C19_25 
REMARK    9  A    between atoms: C19_25  and  C20_26 
REMARK   10  A    between atoms: C20_26  and  C21_27 
REMARK   11  A    between atoms: C24_30  and  C25_31 
REMARK   12  A    between atoms: C26_32  and  C27_33 
REMARK   13  A    between atoms: C27_33  and  O7_35 
REMARK   14  A    between atoms: C27_33  and  C31_39 
REMARK   15  A    between atoms: O7_35  and  C29_36 
REMARK   16  A    between atoms: C31_39  and  C33_41 
REMARK   17  A    between atoms: C33_41  and  O9_42 
ROOT
HETATM    1  C3  UNL     1      28.064   9.416  -5.139  1.00  0.00     0.140 C 
HETATM    2  C4  UNL     1      28.857   8.455  -5.992  1.00  0.00     0.038 C 
HETATM    3  C5  UNL     1      28.417   8.491  -7.431  1.00  0.00    -0.001 C 
HETATM    4  C6  UNL     1      29.236   7.515  -8.237  1.00  0.00     0.011 C 
HETATM    5  C7  UNL     1      26.932   8.272  -7.543  1.00  0.00     0.013 C 
HETATM    6  C8  UNL     1      26.722   7.650  -8.923  1.00  0.00     0.023 C 
HETATM    7  C9  UNL     1      26.502   7.234  -6.569  1.00  0.00     0.174 C 
HETATM    8  C12 UNL     1      26.161   7.807  -5.216  1.00  0.00     0.170 C 
HETATM    9  C15 UNL     1      26.603   9.214  -5.177  1.00  0.00     0.060 C 
HETATM   10  C16 UNL     1      25.858  10.130  -6.174  1.00  0.00    -0.011 C 
HETATM   11  C17 UNL     1      26.533  11.509  -5.971  1.00  0.00     0.021 C 
HETATM   12  C24 UNL     1      26.166   9.568  -7.495  1.00  0.00    -0.060 C 
ENDROOT
BRANCH  12  13
HETATM   13  C25 UNL     1      25.095   9.600  -8.549  1.00  0.00     0.003 C 
HETATM   14  C26 UNL     1      25.109  10.443  -9.566  1.00  0.00     0.012 C 
BRANCH  14  15
HETATM   15  C27 UNL     1      24.230  10.678 -10.680  1.00  0.00     0.090 C 
HETATM   16  C28 UNL     1      22.936  11.273 -10.136  1.00  0.00     0.051 C 
BRANCH  15  17
HETATM   17  O7  UNL     1      24.770  11.436 -11.693  1.00  0.00    -0.306 OA
BRANCH  17  18
HETATM   18  C29 UNL     1      25.860  12.221 -11.772  1.00  0.00     0.255 C 
HETATM   19  C30 UNL     1      25.960  13.608 -11.227  1.00  0.00     0.126 C 
HETATM   20  O8  UNL     1      26.872  11.768 -12.343  1.00  0.00    -0.266 OA
ENDBRANCH  17  18
ENDBRANCH  15  17
BRANCH  15  21
HETATM   21  C31 UNL     1      23.900   9.312 -11.311  1.00  0.00     0.044 C 
HETATM   22  C32 UNL     1      22.387   9.082 -11.320  1.00  0.00     0.015 C 
BRANCH  21  23
HETATM   23  C33 UNL     1      24.420   9.153 -12.696  1.00  0.00     0.171 C 
BRANCH  23  24
HETATM   24  O9  UNL     1      25.774   8.926 -12.821  1.00  0.00    -0.400 OA
ATOM     25  H9  UNL     1      26.037   8.030 -12.996  1.00  0.00     0.209 HD
ENDBRANCH  23  24
ENDBRANCH  21  23
ENDBRANCH  15  21
ENDBRANCH  14  15
ENDBRANCH  12  13
BRANCH  10  26
HETATM   26  C18 UNL     1      24.455  10.186  -5.652  1.00  0.00     0.014 C 
BRANCH  26  27
HETATM   27  C19 UNL     1      23.773  11.449  -5.422  1.00  0.00     0.001 C 
BRANCH  27  28
HETATM   28  C20 UNL     1      23.019  12.083  -6.554  1.00  0.00     0.004 C 
BRANCH  28  29
HETATM   29  C21 UNL     1      23.162  13.512  -6.845  1.00  0.00    -0.023 C 
HETATM   30  C22 UNL     1      24.368  13.703  -7.842  1.00  0.00     0.009 C 
HETATM   31  C23 UNL     1      23.520  14.328  -5.608  1.00  0.00     0.009 C 
ENDBRANCH  28  29
ENDBRANCH  27  28
ENDBRANCH  26  27
ENDBRANCH  10  26
BRANCH   7  32
HETATM   32  O3  UNL     1      25.452   6.411  -7.060  1.00  0.00    -0.312 OA
BRANCH  32  33
HETATM   33  C10 UNL     1      25.511   5.026  -7.097  1.00  0.00     0.255 C 
HETATM   34  C11 UNL     1      26.391   4.215  -6.226  1.00  0.00     0.126 C 
HETATM   35  O4  UNL     1      24.738   4.475  -7.954  1.00  0.00    -0.266 OA
ENDBRANCH  32  33
ENDBRANCH   7  32
BRANCH   8  36
HETATM   36  O5  UNL     1      26.838   7.091  -4.184  1.00  0.00    -0.313 OA
BRANCH  36  37
HETATM   37  C13 UNL     1      26.242   6.707  -3.003  1.00  0.00     0.255 C 
HETATM   38  C14 UNL     1      24.750   6.656  -2.918  1.00  0.00     0.126 C 
HETATM   39  O6  UNL     1      26.961   6.412  -2.035  1.00  0.00    -0.266 OA
ENDBRANCH  36  37
ENDBRANCH   8  36
BRANCH   1  40
HETATM   40  O2  UNL     1      28.603   9.303  -3.817  1.00  0.00    -0.316 OA
BRANCH  40  41
HETATM   41  C2  UNL     1      28.200  10.129  -2.782  1.00  0.00     0.255 C 
HETATM   42  C1  UNL     1      28.285  11.606  -2.932  1.00  0.00     0.126 C 
HETATM   43  O1  UNL     1      27.760   9.629  -1.710  1.00  0.00    -0.266 OA
ENDBRANCH  40  41
ENDBRANCH   1  40
TORSDOF 17
ENDMDL
MODEL 3
REMARK VINA RESULT: -6.517553456      1.842      7.924
REMARK  17 active torsions:
REMARK  status: ('A' for Active; 'I' for Inactive)
REMARK    1  A    between atoms: C2_2  and  O2_4 
REMARK    2  A    between atoms: O2_4  and  C3_5 
REMARK    3  A    between atoms: C9_11  and  O3_12 
REMARK    4  A    between atoms: O3_12  and  C10_13 
REMARK    5  A    between atoms: C12_16  and  O5_17 
REMARK    6  A    between atoms: O5_17  and  C13_18 
REMARK    7  A    between atoms: C16_22  and  C18_24 
REMARK    8  A    between atoms: C18_24  and  C19_25 
REMARK    9  A    between atoms: C19_25  and  C20_26 
REMARK   10  A    between atoms: C20_26  and  C21_27 
REMARK   11  A    between atoms: C24_30  and  C25_31 
REMARK   12  A    between atoms: C26_32  and  C27_33 
REMARK   13  A    between atoms: C27_33  and  O7_35 
REMARK   14  A    between atoms: C27_33  and  C31_39 
REMARK   15  A    between atoms: O7_35  and  C29_36 
REMARK   16  A    between atoms: C31_39  and  C33_41 
REMARK   17  A    between atoms: C33_41  and  O9_42 
ROOT
HETATM    1  C3  UNL     1      26.293   9.235 -10.447  1.00  0.00     0.140 C 
HETATM    2  C4  UNL     1      26.399  10.738 -10.344  1.00  0.00     0.038 C 
HETATM    3  C5  UNL     1      26.898  11.173  -8.992  1.00  0.00    -0.001 C 
HETATM    4  C6  UNL     1      26.983  12.677  -8.942  1.00  0.00     0.011 C 
HETATM    5  C7  UNL     1      26.059  10.576  -7.894  1.00  0.00     0.013 C 
HETATM    6  C8  UNL     1      26.166  11.560  -6.730  1.00  0.00     0.023 C 
HETATM    7  C9  UNL     1      24.626  10.588  -8.294  1.00  0.00     0.174 C 
HETATM    8  C12 UNL     1      24.223   9.354  -9.063  1.00  0.00     0.170 C 
HETATM    9  C15 UNL     1      25.442   8.605  -9.420  1.00  0.00     0.060 C 
HETATM   10  C16 UNL     1      26.216   8.054  -8.200  1.00  0.00    -0.011 C 
HETATM   11  C17 UNL     1      27.452   7.370  -8.836  1.00  0.00     0.021 C 
HETATM   12  C24 UNL     1      26.595   9.248  -7.433  1.00  0.00    -0.060 C 
ENDROOT
BRANCH  12  13
HETATM   13  C25 UNL     1      26.595   9.158  -5.933  1.00  0.00     0.003 C 
HETATM   14  C26 UNL     1      27.467   8.435  -5.253  1.00  0.00     0.012 C 
BRANCH  14  15
HETATM   15  C27 UNL     1      27.679   8.182  -3.853  1.00  0.00     0.090 C 
HETATM   16  C28 UNL     1      29.173   8.314  -3.576  1.00  0.00     0.051 C 
BRANCH  15  17
HETATM   17  O7  UNL     1      26.918   8.951  -3.004  1.00  0.00    -0.306 OA
BRANCH  17  18
HETATM   18  C29 UNL     1      27.217   9.950  -2.154  1.00  0.00     0.255 C 
HETATM   19  C30 UNL     1      27.500  11.362  -2.552  1.00  0.00     0.126 C 
HETATM   20  O8  UNL     1      27.265   9.691  -0.935  1.00  0.00    -0.266 OA
ENDBRANCH  17  18
ENDBRANCH  15  17
BRANCH  15  21
HETATM   21  C31 UNL     1      27.269   6.723  -3.575  1.00  0.00     0.044 C 
HETATM   22  C32 UNL     1      27.929   6.221  -2.288  1.00  0.00     0.015 C 
BRANCH  21  23
HETATM   23  C33 UNL     1      25.798   6.527  -3.470  1.00  0.00     0.171 C 
BRANCH  23  24
HETATM   24  O9  UNL     1      25.266   6.540  -2.198  1.00  0.00    -0.400 OA
ATOM     25  H9  UNL     1      25.858   6.318  -1.489  1.00  0.00     0.209 HD
ENDBRANCH  23  24
ENDBRANCH  21  23
ENDBRANCH  15  21
ENDBRANCH  14  15
ENDBRANCH  12  13
BRANCH  10  26
HETATM   26  C18 UNL     1      25.313   7.007  -7.628  1.00  0.00     0.014 C 
BRANCH  26  27
HETATM   27  C19 UNL     1      25.330   5.634  -8.107  1.00  0.00     0.001 C 
BRANCH  27  28
HETATM   28  C20 UNL     1      25.729   4.540  -7.161  1.00  0.00     0.004 C 
BRANCH  28  29
HETATM   29  C21 UNL     1      27.015   3.852  -7.305  1.00  0.00    -0.023 C 
HETATM   30  C22 UNL     1      28.090   4.611  -6.437  1.00  0.00     0.009 C 
HETATM   31  C23 UNL     1      27.542   3.893  -8.736  1.00  0.00     0.009 C 
ENDBRANCH  28  29
ENDBRANCH  27  28
ENDBRANCH  26  27
ENDBRANCH  10  26
BRANCH   7  32
HETATM   32  O3  UNL     1      23.746  10.827  -7.203  1.00  0.00    -0.312 OA
BRANCH  32  33
HETATM   33  C10 UNL     1      22.621  11.634  -7.282  1.00  0.00     0.255 C 
HETATM   34  C11 UNL     1      22.621  13.081  -6.970  1.00  0.00     0.126 C 
HETATM   35  O4  UNL     1      21.553  11.036  -7.651  1.00  0.00    -0.266 OA
ENDBRANCH  32  33
ENDBRANCH   7  32
BRANCH   8  36
HETATM   36  O5  UNL     1      23.544   9.713 -10.265  1.00  0.00    -0.313 OA
BRANCH  36  37
HETATM   37  C13 UNL     1      22.417   9.069 -10.727  1.00  0.00     0.255 C 
HETATM   38  C14 UNL     1      21.179   9.863 -10.995  1.00  0.00     0.126 C 
HETATM   39  O6  UNL     1      22.459   7.842 -10.911  1.00  0.00    -0.266 OA
ENDBRANCH  36  37
ENDBRANCH   8  36
BRANCH   1  40
HETATM   40  O2  UNL     1      25.843   8.964 -11.780  1.00  0.00    -0.316 OA
BRANCH  40  41
HETATM   41  C2  UNL     1      25.633   7.676 -12.240  1.00  0.00     0.255 C 
HETATM   42  C1  UNL     1      24.745   7.438 -13.409  1.00  0.00     0.126 C 
HETATM   43  O1  UNL     1      26.195   6.702 -11.668  1.00  0.00    -0.266 OA
ENDBRANCH  40  41
ENDBRANCH   1  40
TORSDOF 17
ENDMDL
MODEL 4
REMARK VINA RESULT: -6.390114420      0.783      1.212
REMARK  17 active torsions:
REMARK  status: ('A' for Active; 'I' for Inactive)
REMARK    1  A    between atoms: C2_2  and  O2_4 
REMARK    2  A    between atoms: O2_4  and  C3_5 
REMARK    3  A    between atoms: C9_11  and  O3_12 
REMARK    4  A    between atoms: O3_12  and  C10_13 
REMARK    5  A    between atoms: C12_16  and  O5_17 
REMARK    6  A    between atoms: O5_17  and  C13_18 
REMARK    7  A    between atoms: C16_22  and  C18_24 
REMARK    8  A    between atoms: C18_24  and  C19_25 
REMARK    9  A    between atoms: C19_25  and  C20_26 
REMARK   10  A    between atoms: C20_26  and  C21_27 
REMARK   11  A    between atoms: C24_30  and  C25_31 
REMARK   12  A    between atoms: C26_32  and  C27_33 
REMARK   13  A    between atoms: C27_33  and  O7_35 
REMARK   14  A    between atoms: C27_33  and  C31_39 
REMARK   15  A    between atoms: O7_35  and  C29_36 
REMARK   16  A    between atoms: C31_39  and  C33_41 
REMARK   17  A    between atoms: C33_41  and  O9_42 
ROOT
HETATM    1  C3  UNL     1      28.185   9.175  -4.792  1.00  0.00     0.140 C 
HETATM    2  C4  UNL     1      29.011   8.324  -5.727  1.00  0.00     0.038 C 
HETATM    3  C5  UNL     1      28.670   8.585  -7.170  1.00  0.00    -0.001 C 
HETATM    4  C6  UNL     1      29.519   7.712  -8.059  1.00  0.00     0.011 C 
HETATM    5  C7  UNL     1      27.191   8.434  -7.406  1.00  0.00     0.013 C 
HETATM    6  C8  UNL     1      27.061   8.027  -8.873  1.00  0.00     0.023 C 
HETATM    7  C9  UNL     1      26.673   7.278  -6.626  1.00  0.00     0.174 C 
HETATM    8  C12 UNL     1      26.255   7.658  -5.227  1.00  0.00     0.170 C 
HETATM    9  C15 UNL     1      26.726   9.028  -4.952  1.00  0.00     0.060 C 
HETATM   10  C16 UNL     1      26.070  10.104  -5.847  1.00  0.00    -0.011 C 
HETATM   11  C17 UNL     1      26.762  11.416  -5.399  1.00  0.00     0.021 C 
HETATM   12  C24 UNL     1      26.454   9.732  -7.215  1.00  0.00    -0.060 C 
ENDROOT
BRANCH  12  13
HETATM   13  C25 UNL     1      25.457   9.953  -8.317  1.00  0.00     0.003 C 
HETATM   14  C26 UNL     1      25.562  10.932  -9.199  1.00  0.00     0.012 C 
BRANCH  14  15
HETATM   15  C27 UNL     1      24.766  11.356 -10.320  1.00  0.00     0.090 C 
HETATM   16  C28 UNL     1      25.623  12.281 -11.177  1.00  0.00     0.051 C 
BRANCH  15  17
HETATM   17  O7  UNL     1      24.206  10.334 -11.051  1.00  0.00    -0.306 OA
BRANCH  17  18
HETATM   18  C29 UNL     1      24.635   9.104 -11.389  1.00  0.00     0.255 C 
HETATM   19  C30 UNL     1      23.977   7.825 -10.987  1.00  0.00     0.126 C 
HETATM   20  O8  UNL     1      25.661   9.010 -12.092  1.00  0.00    -0.266 OA
ENDBRANCH  17  18
ENDBRANCH  15  17
BRANCH  15  21
HETATM   21  C31 UNL     1      23.582  12.174  -9.770  1.00  0.00     0.044 C 
HETATM   22  C32 UNL     1      23.573  13.575 -10.386  1.00  0.00     0.015 C 
BRANCH  21  23
HETATM   23  C33 UNL     1      22.259  11.537 -10.002  1.00  0.00     0.171 C 
BRANCH  23  24
HETATM   24  O9  UNL     1      21.935  10.477  -9.182  1.00  0.00    -0.400 OA
ATOM     25  H9  UNL     1      21.843  10.671  -8.256  1.00  0.00     0.209 HD
ENDBRANCH  23  24
ENDBRANCH  21  23
ENDBRANCH  15  21
ENDBRANCH  14  15
ENDBRANCH  12  13
BRANCH  10  26
HETATM   26  C18 UNL     1      24.638  10.129  -5.412  1.00  0.00     0.014 C 
BRANCH  26  27
HETATM   27  C19 UNL     1      23.981  11.361  -5.008  1.00  0.00     0.001 C 
BRANCH  27  28
HETATM   28  C20 UNL     1      23.150  12.104  -6.013  1.00  0.00     0.004 C 
BRANCH  28  29
HETATM   29  C21 UNL     1      23.179  13.568  -6.077  1.00  0.00    -0.023 C 
HETATM   30  C22 UNL     1      21.984  14.054  -6.984  1.00  0.00     0.009 C 
HETATM   31  C23 UNL     1      24.442  14.100  -6.745  1.00  0.00     0.009 C 
ENDBRANCH  28  29
ENDBRANCH  27  28
ENDBRANCH  26  27
ENDBRANCH  10  26
BRANCH   7  32
HETATM   32  O3  UNL     1      25.640   6.571  -7.299  1.00  0.00    -0.312 OA
BRANCH  32  33
HETATM   33  C10 UNL     1      25.583   5.188  -7.386  1.00  0.00     0.255 C 
HETATM   34  C11 UNL     1      26.575   4.281  -6.766  1.00  0.00     0.126 C 
HETATM   35  O4  UNL     1      24.593   4.730  -8.052  1.00  0.00    -0.266 OA
ENDBRANCH  32  33
ENDBRANCH   7  32
BRANCH   8  36
HETATM   36  O5  UNL     1      26.845   6.776  -4.272  1.00  0.00    -0.313 OA
BRANCH  36  37
HETATM   37  C13 UNL     1      26.305   6.524  -3.030  1.00  0.00     0.255 C 
HETATM   38  C14 UNL     1      24.826   6.632  -2.838  1.00  0.00     0.126 C 
HETATM   39  O6  UNL     1      27.064   6.212  -2.098  1.00  0.00    -0.266 OA
ENDBRANCH  36  37
ENDBRANCH   8  36
BRANCH   1  40
HETATM   40  O2  UNL     1      28.631   8.851  -3.470  1.00  0.00    -0.316 OA
BRANCH  40  41
HETATM   41  C2  UNL     1      28.364   9.663  -2.381  1.00  0.00     0.255 C 
HETATM   42  C1  UNL     1      28.374  11.142  -2.535  1.00  0.00     0.126 C 
HETATM   43  O1  UNL     1      28.112   9.148  -1.258  1.00  0.00    -0.266 OA
ENDBRANCH  40  41
ENDBRANCH   1  40
TORSDOF 17
ENDMDL
MODEL 5
REMARK VINA RESULT: -6.373686306      1.408      1.899
REMARK  17 active torsions:
REMARK  status: ('A' for Active; 'I' for Inactive)
REMARK    1  A    between atoms: C2_2  and  O2_4 
REMARK    2  A    between atoms: O2_4  and  C3_5 
REMARK    3  A    between atoms: C9_11  and  O3_12 
REMARK    4  A    between atoms: O3_12  and  C10_13 
REMARK    5  A    between atoms: C12_16  and  O5_17 
REMARK    6  A    between atoms: O5_17  and  C13_18 
REMARK    7  A    between atoms: C16_22  and  C18_24 
REMARK    8  A    between atoms: C18_24  and  C19_25 
REMARK    9  A    between atoms: C19_25  and  C20_26 
REMARK   10  A    between atoms: C20_26  and  C21_27 
REMARK   11  A    between atoms: C24_30  and  C25_31 
REMARK   12  A    between atoms: C26_32  and  C27_33 
REMARK   13  A    between atoms: C27_33  and  O7_35 
REMARK   14  A    between atoms: C27_33  and  C31_39 
REMARK   15  A    between atoms: O7_35  and  C29_36 
REMARK   16  A    between atoms: C31_39  and  C33_41 
REMARK   17  A    between atoms: C33_41  and  O9_42 
ROOT
HETATM    1  C3  UNL     1      28.506   9.196  -5.065  1.00  0.00     0.140 C 
HETATM    2  C4  UNL     1      29.465   8.276  -5.783  1.00  0.00     0.038 C 
HETATM    3  C5  UNL     1      29.121   8.137  -7.241  1.00  0.00    -0.001 C 
HETATM    4  C6  UNL     1      30.105   7.209  -7.909  1.00  0.00     0.011 C 
HETATM    5  C7  UNL     1      27.684   7.722  -7.416  1.00  0.00     0.013 C 
HETATM    6  C8  UNL     1      27.645   6.966  -8.743  1.00  0.00     0.023 C 
HETATM    7  C9  UNL     1      27.320   6.721  -6.377  1.00  0.00     0.174 C 
HETATM    8  C12 UNL     1      26.822   7.357  -5.102  1.00  0.00     0.170 C 
HETATM    9  C15 UNL     1      27.087   8.806  -5.166  1.00  0.00     0.060 C 
HETATM   10  C16 UNL     1      26.303   9.535  -6.282  1.00  0.00    -0.011 C 
HETATM   11  C17 UNL     1      26.791  11.000  -6.167  1.00  0.00     0.021 C 
HETATM   12  C24 UNL     1      26.765   8.909  -7.527  1.00  0.00    -0.060 C 
ENDROOT
BRANCH  12  13
HETATM   13  C25 UNL     1      25.771   8.718  -8.638  1.00  0.00     0.003 C 
HETATM   14  C26 UNL     1      25.790   9.426  -9.753  1.00  0.00     0.012 C 
BRANCH  14  15
HETATM   15  C27 UNL     1      24.975   9.444 -10.938  1.00  0.00     0.090 C 
HETATM   16  C28 UNL     1      23.651  10.112 -10.584  1.00  0.00     0.051 C 
BRANCH  15  17
HETATM   17  O7  UNL     1      25.570  10.011 -12.041  1.00  0.00    -0.306 OA
BRANCH  17  18
HETATM   18  C29 UNL     1      25.585  11.263 -12.534  1.00  0.00     0.255 C 
HETATM   19  C30 UNL     1      26.265  12.430 -11.896  1.00  0.00     0.126 C 
HETATM   20  O8  UNL     1      24.988  11.480 -13.608  1.00  0.00    -0.266 OA
ENDBRANCH  17  18
ENDBRANCH  15  17
BRANCH  15  21
HETATM   21  C31 UNL     1      24.683   7.982 -11.327  1.00  0.00     0.044 C 
HETATM   22  C32 UNL     1      23.229   7.627 -11.008  1.00  0.00     0.015 C 
BRANCH  21  23
HETATM   23  C33 UNL     1      24.949   7.682 -12.759  1.00  0.00     0.171 C 
BRANCH  23  24
HETATM   24  O9  UNL     1      26.219   7.243 -13.069  1.00  0.00    -0.400 OA
ATOM     25  H9  UNL     1      26.539   7.454 -13.939  1.00  0.00     0.209 HD
ENDBRANCH  23  24
ENDBRANCH  21  23
ENDBRANCH  15  21
ENDBRANCH  14  15
ENDBRANCH  12  13
BRANCH  10  26
HETATM   26  C18 UNL     1      24.873   9.455  -5.846  1.00  0.00     0.014 C 
BRANCH  26  27
HETATM   27  C19 UNL     1      24.073  10.648  -5.621  1.00  0.00     0.001 C 
BRANCH  27  28
HETATM   28  C20 UNL     1      23.242  11.189  -6.747  1.00  0.00     0.004 C 
BRANCH  28  29
HETATM   29  C21 UNL     1      23.265  12.615  -7.082  1.00  0.00    -0.023 C 
HETATM   30  C22 UNL     1      24.368  12.855  -8.183  1.00  0.00     0.009 C 
HETATM   31  C23 UNL     1      23.674  13.486  -5.898  1.00  0.00     0.009 C 
ENDBRANCH  28  29
ENDBRANCH  27  28
ENDBRANCH  26  27
ENDBRANCH  10  26
BRANCH   7  32
HETATM   32  O3  UNL     1      26.414   5.734  -6.850  1.00  0.00    -0.312 OA
BRANCH  32  33
HETATM   33  C10 UNL     1      26.646   4.369  -6.761  1.00  0.00     0.255 C 
HETATM   34  C11 UNL     1      27.579   3.633  -7.642  1.00  0.00     0.126 C 
HETATM   35  O4  UNL     1      25.984   3.769  -5.847  1.00  0.00    -0.266 OA
ENDBRANCH  32  33
ENDBRANCH   7  32
BRANCH   8  36
HETATM   36  O5  UNL     1      27.512   6.820  -3.974  1.00  0.00    -0.313 OA
BRANCH  36  37
HETATM   37  C13 UNL     1      26.910   6.567  -2.761  1.00  0.00     0.255 C 
HETATM   38  C14 UNL     1      25.433   6.753  -2.623  1.00  0.00     0.126 C 
HETATM   39  O6  UNL     1      27.612   6.190  -1.809  1.00  0.00    -0.266 OA
ENDBRANCH  36  37
ENDBRANCH   8  36
BRANCH   1  40
HETATM   40  O2  UNL     1      28.966   9.261  -3.710  1.00  0.00    -0.316 OA
BRANCH  40  41
HETATM   41  C2  UNL     1      28.442  10.159  -2.795  1.00  0.00     0.255 C 
HETATM   42  C1  UNL     1      28.031   9.691  -1.445  1.00  0.00     0.126 C 
HETATM   43  O1  UNL     1      28.314  11.374  -3.107  1.00  0.00    -0.266 OA
ENDBRANCH  40  41
ENDBRANCH   1  40
TORSDOF 17
ENDMDL
