MODEL 1
REMARK VINA RESULT: -9.489829272      0.000      0.000
REMARK  14 active torsions:
REMARK  status: ('A' for Active; 'I' for Inactive)
REMARK    1  A    between atoms: C2_2  and  C4_4 
REMARK    2  A    between atoms: C4_4  and  C5_6 
REMARK    3  A    between atoms: C5_6  and  O2_7 
REMARK    4  A    between atoms: O2_7  and  C6_8 
REMARK    5  A    between atoms: C10_13  and  O4_14 
REMARK    6  A    between atoms: C15_21  and  C17_23 
REMARK    7  A    between atoms: C17_23  and  C18_25 
REMARK    8  A    between atoms: C19_26  and  C21_28 
REMARK    9  A    between atoms: C21_28  and  C22_29 
REMARK   10  A    between atoms: C22_29  and  C23_30 
REMARK   11  A    between atoms: C28_35  and  O7_36 
REMARK   12  A    between atoms: O7_36  and  C29_37 
REMARK   13  A    between atoms: C29_37  and  C30_39 
REMARK   14  A    between atoms: C30_39  and  C31_40 
ROOT
HETATM    1  C5  UNL     1      26.470   5.164  -7.265  1.00  0.00     0.136 C 
HETATM    2  C8  UNL     1      25.919   4.539  -6.009  1.00  0.00     0.050 C 
HETATM    3  C9  UNL     1      25.631   5.499  -4.905  1.00  0.00     0.050 C 
HETATM    4  C10 UNL     1      26.821   6.406  -4.612  1.00  0.00     0.125 C 
HETATM    5  C11 UNL     1      26.394   7.283  -3.506  1.00  0.00     0.170 C 
HETATM    6  O5  UNL     1      25.947   6.626  -2.556  1.00  0.00    -0.294 OA
HETATM    7  C12 UNL     1      26.418   8.779  -3.372  1.00  0.00     0.031 C 
HETATM    8  C13 UNL     1      26.044   9.054  -1.900  1.00  0.00     0.024 C 
HETATM    9  C14 UNL     1      25.351   9.412  -4.179  1.00  0.00     0.024 C 
HETATM   10  C15 UNL     1      27.809   9.236  -3.532  1.00  0.00     0.037 C 
HETATM   11  C16 UNL     1      28.716   8.368  -2.691  1.00  0.00     0.025 C 
HETATM   12  C27 UNL     1      28.307   9.240  -4.949  1.00  0.00     0.051 C 
HETATM   13  C28 UNL     1      28.519   7.892  -5.572  1.00  0.00     0.140 C 
HETATM   14  C33 UNL     1      27.266   7.116  -5.850  1.00  0.00     0.060 C 
HETATM   15  C34 UNL     1      27.647   6.049  -6.855  1.00  0.00     0.057 C 
ENDROOT
BRANCH  10  16
HETATM   16  C17 UNL     1      27.921  10.664  -3.058  1.00  0.00     0.159 C 
HETATM   17  O6  UNL     1      28.495  10.813  -1.946  1.00  0.00    -0.292 OA
BRANCH  16  18
HETATM   18  C18 UNL     1      27.418  11.789  -3.790  1.00  0.00     0.053 C 
HETATM   19  C19 UNL     1      27.624  13.052  -3.677  1.00  0.00    -0.080 C 
HETATM   20  C20 UNL     1      26.906  13.978  -4.650  1.00  0.00     0.043 C 
BRANCH  19  21
HETATM   21  C21 UNL     1      28.479  13.750  -2.720  1.00  0.00     0.037 C 
BRANCH  21  22
HETATM   22  C22 UNL     1      27.812  13.906  -1.361  1.00  0.00     0.031 C 
BRANCH  22  23
HETATM   23  C23 UNL     1      28.861  13.899  -0.296  1.00  0.00    -0.024 C 
HETATM   24  C24 UNL     1      28.780  13.146   0.781  1.00  0.00    -0.091 C 
HETATM   25  C25 UNL     1      29.855  13.192   1.792  1.00  0.00     0.042 C 
HETATM   26  C26 UNL     1      27.608  12.264   0.961  1.00  0.00     0.042 C 
ENDBRANCH  22  23
ENDBRANCH  21  22
ENDBRANCH  19  21
ENDBRANCH  16  18
ENDBRANCH  10  16
BRANCH  13  27
HETATM   27  O7  UNL     1      29.111   8.173  -6.851  1.00  0.00    -0.316 OA
BRANCH  27  28
HETATM   28  C29 UNL     1      30.406   7.828  -7.099  1.00  0.00     0.259 C 
HETATM   29  O8  UNL     1      31.298   8.112  -6.269  1.00  0.00    -0.265 OA
BRANCH  28  30
HETATM   30  C30 UNL     1      30.798   7.116  -8.339  1.00  0.00     0.111 C 
BRANCH  30  31
HETATM   31  C31 UNL     1      32.202   7.451  -8.765  1.00  0.00     0.005 C 
HETATM   32  C32 UNL     1      32.278   8.624  -9.694  1.00  0.00     0.005 C 
ENDBRANCH  30  31
ENDBRANCH  28  30
ENDBRANCH  27  28
ENDBRANCH  13  27
BRANCH   4  33
HETATM   33  O4  UNL     1      27.853   5.575  -4.191  1.00  0.00    -0.382 OA
ATOM     34  H4  UNL     1      28.662   6.020  -4.410  1.00  0.00     0.211 HD
ENDBRANCH   4  33
BRANCH   1  35
HETATM   35  C4  UNL     1      25.497   5.896  -8.056  1.00  0.00     0.189 C 
HETATM   36  O1  UNL     1      24.341   5.322  -8.203  1.00  0.00    -0.289 OA
BRANCH  35  37
HETATM   37  C2  UNL     1      25.648   7.168  -8.690  1.00  0.00    -0.022 C 
HETATM   38  C1  UNL     1      25.399   8.362  -8.229  1.00  0.00     0.022 C 
HETATM   39  C3  UNL     1      26.233   7.165 -10.106  1.00  0.00     0.051 C 
ENDBRANCH  35  37
ENDBRANCH   1  35
BRANCH   1  40
HETATM   40  O2  UNL     1      27.072   4.139  -8.025  1.00  0.00    -0.302 OA
BRANCH  40  41
HETATM   41  C6  UNL     1      27.956   3.195  -7.509  1.00  0.00     0.256 C 
HETATM   42  C7  UNL     1      27.996   1.797  -7.988  1.00  0.00     0.126 C 
HETATM   43  O3  UNL     1      28.738   3.560  -6.605  1.00  0.00    -0.266 OA
ENDBRANCH  40  41
ENDBRANCH   1  40
TORSDOF 14
ENDMDL
MODEL 2
REMARK VINA RESULT: -9.215199654      1.243      2.337
REMARK  14 active torsions:
REMARK  status: ('A' for Active; 'I' for Inactive)
REMARK    1  A    between atoms: C2_2  and  C4_4 
REMARK    2  A    between atoms: C4_4  and  C5_6 
REMARK    3  A    between atoms: C5_6  and  O2_7 
REMARK    4  A    between atoms: O2_7  and  C6_8 
REMARK    5  A    between atoms: C10_13  and  O4_14 
REMARK    6  A    between atoms: C15_21  and  C17_23 
REMARK    7  A    between atoms: C17_23  and  C18_25 
REMARK    8  A    between atoms: C19_26  and  C21_28 
REMARK    9  A    between atoms: C21_28  and  C22_29 
REMARK   10  A    between atoms: C22_29  and  C23_30 
REMARK   11  A    between atoms: C28_35  and  O7_36 
REMARK   12  A    between atoms: O7_36  and  C29_37 
REMARK   13  A    between atoms: C29_37  and  C30_39 
REMARK   14  A    between atoms: C30_39  and  C31_40 
ROOT
HETATM    1  C5  UNL     1      26.590   5.124  -7.287  1.00  0.00     0.136 C 
HETATM    2  C8  UNL     1      26.041   4.543  -6.009  1.00  0.00     0.050 C 
HETATM    3  C9  UNL     1      25.673   5.548  -4.971  1.00  0.00     0.050 C 
HETATM    4  C10 UNL     1      26.805   6.535  -4.705  1.00  0.00     0.125 C 
HETATM    5  C11 UNL     1      26.303   7.450  -3.663  1.00  0.00     0.170 C 
HETATM    6  O5  UNL     1      25.868   6.825  -2.686  1.00  0.00    -0.294 OA
HETATM    7  C12 UNL     1      26.243   8.950  -3.617  1.00  0.00     0.031 C 
HETATM    8  C13 UNL     1      25.817   9.289  -2.173  1.00  0.00     0.024 C 
HETATM    9  C14 UNL     1      25.164   9.476  -4.484  1.00  0.00     0.024 C 
HETATM   10  C15 UNL     1      27.611   9.473  -3.773  1.00  0.00     0.037 C 
HETATM   11  C16 UNL     1      28.541   8.708  -2.862  1.00  0.00     0.025 C 
HETATM   12  C27 UNL     1      28.144   9.423  -5.177  1.00  0.00     0.051 C 
HETATM   13  C28 UNL     1      28.444   8.055  -5.713  1.00  0.00     0.140 C 
HETATM   14  C33 UNL     1      27.242   7.196  -5.972  1.00  0.00     0.060 C 
HETATM   15  C34 UNL     1      27.706   6.096  -6.904  1.00  0.00     0.057 C 
ENDROOT
BRANCH  10  16
HETATM   16  C17 UNL     1      27.633  10.931  -3.382  1.00  0.00     0.159 C 
HETATM   17  O6  UNL     1      27.271  11.731  -4.287  1.00  0.00    -0.292 OA
BRANCH  16  18
HETATM   18  C18 UNL     1      28.033  11.405  -2.090  1.00  0.00     0.053 C 
HETATM   19  C19 UNL     1      28.129  12.587  -1.598  1.00  0.00    -0.080 C 
HETATM   20  C20 UNL     1      28.599  12.719  -0.154  1.00  0.00     0.043 C 
BRANCH  19  21
HETATM   21  C21 UNL     1      27.839  13.865  -2.243  1.00  0.00     0.037 C 
BRANCH  21  22
HETATM   22  C22 UNL     1      29.016  14.375  -3.063  1.00  0.00     0.031 C 
BRANCH  22  23
HETATM   23  C23 UNL     1      28.643  15.675  -3.701  1.00  0.00    -0.024 C 
HETATM   24  C24 UNL     1      29.531  16.494  -4.225  1.00  0.00    -0.091 C 
HETATM   25  C25 UNL     1      29.089  17.762  -4.838  1.00  0.00     0.042 C 
HETATM   26  C26 UNL     1      30.962  16.128  -4.190  1.00  0.00     0.042 C 
ENDBRANCH  22  23
ENDBRANCH  21  22
ENDBRANCH  19  21
ENDBRANCH  16  18
ENDBRANCH  10  16
BRANCH  13  27
HETATM   27  O7  UNL     1      29.052   8.294  -6.993  1.00  0.00    -0.316 OA
BRANCH  27  28
HETATM   28  C29 UNL     1      30.334   7.896  -7.229  1.00  0.00     0.259 C 
HETATM   29  O8  UNL     1      31.218   8.089  -6.364  1.00  0.00    -0.265 OA
BRANCH  28  30
HETATM   30  C30 UNL     1      30.723   7.232  -8.496  1.00  0.00     0.111 C 
BRANCH  30  31
HETATM   31  C31 UNL     1      32.196   7.364  -8.776  1.00  0.00     0.005 C 
HETATM   32  C32 UNL     1      32.551   8.614  -9.522  1.00  0.00     0.005 C 
ENDBRANCH  30  31
ENDBRANCH  28  30
ENDBRANCH  27  28
ENDBRANCH  13  27
BRANCH   4  33
HETATM   33  O4  UNL     1      27.869   5.788  -4.213  1.00  0.00    -0.382 OA
ATOM     34  H4  UNL     1      28.548   6.410  -3.980  1.00  0.00     0.211 HD
ENDBRANCH   4  33
BRANCH   1  35
HETATM   35  C4  UNL     1      25.599   5.755  -8.141  1.00  0.00     0.189 C 
HETATM   36  O1  UNL     1      24.395   5.269  -8.065  1.00  0.00    -0.289 OA
BRANCH  35  37
HETATM   37  C2  UNL     1      25.777   6.841  -9.052  1.00  0.00    -0.022 C 
HETATM   38  C1  UNL     1      26.272   6.841 -10.259  1.00  0.00     0.022 C 
HETATM   39  C3  UNL     1      25.275   8.213  -8.592  1.00  0.00     0.051 C 
ENDBRANCH  35  37
ENDBRANCH   1  35
BRANCH   1  40
HETATM   40  O2  UNL     1      27.265   4.092  -7.971  1.00  0.00    -0.302 OA
BRANCH  40  41
HETATM   41  C6  UNL     1      28.054   3.125  -7.353  1.00  0.00     0.256 C 
HETATM   42  C7  UNL     1      28.080   1.715  -7.798  1.00  0.00     0.126 C 
HETATM   43  O3  UNL     1      28.760   3.480  -6.385  1.00  0.00    -0.266 OA
ENDBRANCH  40  41
ENDBRANCH   1  40
TORSDOF 14
ENDMDL
MODEL 3
REMARK VINA RESULT: -8.879518408      2.866      5.627
REMARK  14 active torsions:
REMARK  status: ('A' for Active; 'I' for Inactive)
REMARK    1  A    between atoms: C2_2  and  C4_4 
REMARK    2  A    between atoms: C4_4  and  C5_6 
REMARK    3  A    between atoms: C5_6  and  O2_7 
REMARK    4  A    between atoms: O2_7  and  C6_8 
REMARK    5  A    between atoms: C10_13  and  O4_14 
REMARK    6  A    between atoms: C15_21  and  C17_23 
REMARK    7  A    between atoms: C17_23  and  C18_25 
REMARK    8  A    between atoms: C19_26  and  C21_28 
REMARK    9  A    between atoms: C21_28  and  C22_29 
REMARK   10  A    between atoms: C22_29  and  C23_30 
REMARK   11  A    between atoms: C28_35  and  O7_36 
REMARK   12  A    between atoms: O7_36  and  C29_37 
REMARK   13  A    between atoms: C29_37  and  C30_39 
REMARK   14  A    between atoms: C30_39  and  C31_40 
ROOT
HETATM    1  C5  UNL     1      24.685   9.209 -10.826  1.00  0.00     0.136 C 
HETATM    2  C8  UNL     1      25.619   8.166 -11.383  1.00  0.00     0.050 C 
HETATM    3  C9  UNL     1      26.092   7.155 -10.395  1.00  0.00     0.050 C 
HETATM    4  C10 UNL     1      26.654   7.807  -9.136  1.00  0.00     0.125 C 
HETATM    5  C11 UNL     1      27.084   6.695  -8.267  1.00  0.00     0.170 C 
HETATM    6  O5  UNL     1      27.831   5.913  -8.871  1.00  0.00    -0.294 OA
HETATM    7  C12 UNL     1      26.762   6.389  -6.832  1.00  0.00     0.031 C 
HETATM    8  C13 UNL     1      27.695   5.217  -6.455  1.00  0.00     0.024 C 
HETATM    9  C14 UNL     1      25.386   5.863  -6.686  1.00  0.00     0.024 C 
HETATM   10  C15 UNL     1      27.189   7.531  -6.007  1.00  0.00     0.037 C 
HETATM   11  C16 UNL     1      28.582   7.946  -6.416  1.00  0.00     0.025 C 
HETATM   12  C27 UNL     1      26.279   8.725  -6.075  1.00  0.00     0.051 C 
HETATM   13  C28 UNL     1      26.276   9.472  -7.376  1.00  0.00     0.140 C 
HETATM   14  C33 UNL     1      25.656   8.738  -8.528  1.00  0.00     0.060 C 
HETATM   15  C34 UNL     1      25.342   9.788  -9.573  1.00  0.00     0.057 C 
ENDROOT
BRANCH  10  16
HETATM   16  C17 UNL     1      27.208   7.117  -4.556  1.00  0.00     0.159 C 
HETATM   17  O6  UNL     1      27.822   6.043  -4.316  1.00  0.00    -0.292 OA
BRANCH  16  18
HETATM   18  C18 UNL     1      26.581   7.863  -3.505  1.00  0.00     0.053 C 
HETATM   19  C19 UNL     1      27.009   8.802  -2.741  1.00  0.00    -0.080 C 
HETATM   20  C20 UNL     1      26.044   9.375  -1.711  1.00  0.00     0.043 C 
BRANCH  19  21
HETATM   21  C21 UNL     1      28.332   9.420  -2.718  1.00  0.00     0.037 C 
BRANCH  21  22
HETATM   22  C22 UNL     1      28.659  10.031  -1.363  1.00  0.00     0.031 C 
BRANCH  22  23
HETATM   23  C23 UNL     1      28.582  11.520  -1.465  1.00  0.00    -0.024 C 
HETATM   24  C24 UNL     1      28.099  12.278  -0.502  1.00  0.00    -0.091 C 
HETATM   25  C25 UNL     1      28.054  13.743  -0.672  1.00  0.00     0.042 C 
HETATM   26  C26 UNL     1      27.606  11.644   0.739  1.00  0.00     0.042 C 
ENDBRANCH  22  23
ENDBRANCH  21  22
ENDBRANCH  19  21
ENDBRANCH  16  18
ENDBRANCH  10  16
BRANCH  13  27
HETATM   27  O7  UNL     1      25.444  10.618  -7.133  1.00  0.00    -0.316 OA
BRANCH  27  28
HETATM   28  C29 UNL     1      25.996  11.787  -6.701  1.00  0.00     0.259 C 
HETATM   29  O8  UNL     1      26.768  12.428  -7.448  1.00  0.00    -0.265 OA
BRANCH  28  30
HETATM   30  C30 UNL     1      25.705  12.333  -5.353  1.00  0.00     0.111 C 
BRANCH  30  31
HETATM   31  C31 UNL     1      26.954  12.499  -4.528  1.00  0.00     0.005 C 
HETATM   32  C32 UNL     1      27.318  13.930  -4.281  1.00  0.00     0.005 C 
ENDBRANCH  30  31
ENDBRANCH  28  30
ENDBRANCH  27  28
ENDBRANCH  13  27
BRANCH   4  33
HETATM   33  O4  UNL     1      27.757   8.551  -9.539  1.00  0.00    -0.382 OA
ATOM     34  H4  UNL     1      28.506   7.971  -9.485  1.00  0.00     0.211 HD
ENDBRANCH   4  33
BRANCH   1  35
HETATM   35  C4  UNL     1      23.339   8.735 -10.556  1.00  0.00     0.189 C 
HETATM   36  O1  UNL     1      23.214   7.451 -10.393  1.00  0.00    -0.289 OA
BRANCH  35  37
HETATM   37  C2  UNL     1      22.136   9.499 -10.443  1.00  0.00    -0.022 C 
HETATM   38  C1  UNL     1      21.723  10.260  -9.468  1.00  0.00     0.022 C 
HETATM   39  C3  UNL     1      21.195   9.481 -11.652  1.00  0.00     0.051 C 
ENDBRANCH  35  37
ENDBRANCH   1  35
BRANCH   1  40
HETATM   40  O2  UNL     1      24.667  10.294 -11.726  1.00  0.00    -0.302 OA
BRANCH  40  41
HETATM   41  C6  UNL     1      24.979  10.196 -13.080  1.00  0.00     0.256 C 
HETATM   42  C7  UNL     1      24.036   9.642 -14.076  1.00  0.00     0.126 C 
HETATM   43  O3  UNL     1      26.104  10.594 -13.451  1.00  0.00    -0.266 OA
ENDBRANCH  40  41
ENDBRANCH   1  40
TORSDOF 14
ENDMDL
MODEL 4
REMARK VINA RESULT: -8.847614691      2.499      8.044
REMARK  14 active torsions:
REMARK  status: ('A' for Active; 'I' for Inactive)
REMARK    1  A    between atoms: C2_2  and  C4_4 
REMARK    2  A    between atoms: C4_4  and  C5_6 
REMARK    3  A    between atoms: C5_6  and  O2_7 
REMARK    4  A    between atoms: O2_7  and  C6_8 
REMARK    5  A    between atoms: C10_13  and  O4_14 
REMARK    6  A    between atoms: C15_21  and  C17_23 
REMARK    7  A    between atoms: C17_23  and  C18_25 
REMARK    8  A    between atoms: C19_26  and  C21_28 
REMARK    9  A    between atoms: C21_28  and  C22_29 
REMARK   10  A    between atoms: C22_29  and  C23_30 
REMARK   11  A    between atoms: C28_35  and  O7_36 
REMARK   12  A    between atoms: O7_36  and  C29_37 
REMARK   13  A    between atoms: C29_37  and  C30_39 
REMARK   14  A    between atoms: C30_39  and  C31_40 
ROOT
HETATM    1  C5  UNL     1      27.105   9.482  -1.672  1.00  0.00     0.136 C 
HETATM    2  C8  UNL     1      27.458   8.022  -1.550  1.00  0.00     0.050 C 
HETATM    3  C9  UNL     1      27.961   7.391  -2.803  1.00  0.00     0.050 C 
HETATM    4  C10 UNL     1      27.035   7.654  -3.987  1.00  0.00     0.125 C 
HETATM    5  C11 UNL     1      27.652   6.970  -5.137  1.00  0.00     0.170 C 
HETATM    6  O5  UNL     1      27.900   5.784  -4.878  1.00  0.00    -0.294 OA
HETATM    7  C12 UNL     1      28.006   7.475  -6.507  1.00  0.00     0.031 C 
HETATM    8  C13 UNL     1      28.412   6.216  -7.304  1.00  0.00     0.024 C 
HETATM    9  C14 UNL     1      29.214   8.330  -6.473  1.00  0.00     0.024 C 
HETATM   10  C15 UNL     1      26.781   7.983  -7.145  1.00  0.00     0.037 C 
HETATM   11  C16 UNL     1      25.668   6.980  -6.954  1.00  0.00     0.025 C 
HETATM   12  C27 UNL     1      26.325   9.325  -6.643  1.00  0.00     0.051 C 
HETATM   13  C28 UNL     1      25.788   9.351  -5.244  1.00  0.00     0.140 C 
HETATM   14  C33 UNL     1      26.808   9.120  -4.167  1.00  0.00     0.060 C 
HETATM   15  C34 UNL     1      26.185   9.630  -2.884  1.00  0.00     0.057 C 
ENDROOT
BRANCH  10  16
HETATM   16  C17 UNL     1      27.028   8.165  -8.623  1.00  0.00     0.159 C 
HETATM   17  O6  UNL     1      27.775   9.136  -8.923  1.00  0.00    -0.292 OA
BRANCH  16  18
HETATM   18  C18 UNL     1      26.467   7.320  -9.636  1.00  0.00     0.053 C 
HETATM   19  C19 UNL     1      25.466   7.469 -10.425  1.00  0.00    -0.080 C 
HETATM   20  C20 UNL     1      25.152   6.338 -11.396  1.00  0.00     0.043 C 
BRANCH  19  21
HETATM   21  C21 UNL     1      24.555   8.606 -10.530  1.00  0.00     0.037 C 
BRANCH  21  22
HETATM   22  C22 UNL     1      25.110   9.707 -11.422  1.00  0.00     0.031 C 
BRANCH  22  23
HETATM   23  C23 UNL     1      25.347  10.933 -10.599  1.00  0.00    -0.024 C 
HETATM   24  C24 UNL     1      25.954  12.003 -11.069  1.00  0.00    -0.091 C 
HETATM   25  C25 UNL     1      26.154  13.177 -10.197  1.00  0.00     0.042 C 
HETATM   26  C26 UNL     1      26.429  12.009 -12.468  1.00  0.00     0.042 C 
ENDBRANCH  22  23
ENDBRANCH  21  22
ENDBRANCH  19  21
ENDBRANCH  16  18
ENDBRANCH  10  16
BRANCH  13  27
HETATM   27  O7  UNL     1      25.311  10.695  -5.064  1.00  0.00    -0.316 OA
BRANCH  27  28
HETATM   28  C29 UNL     1      24.487  11.259  -5.991  1.00  0.00     0.259 C 
HETATM   29  O8  UNL     1      23.389  10.724  -6.262  1.00  0.00    -0.265 OA
BRANCH  28  30
HETATM   30  C30 UNL     1      24.855  12.508  -6.702  1.00  0.00     0.111 C 
BRANCH  30  31
HETATM   31  C31 UNL     1      26.172  13.063  -6.226  1.00  0.00     0.005 C 
HETATM   32  C32 UNL     1      26.024  14.182  -5.242  1.00  0.00     0.005 C 
ENDBRANCH  30  31
ENDBRANCH  28  30
ENDBRANCH  27  28
ENDBRANCH  13  27
BRANCH   4  33
HETATM   33  O4  UNL     1      25.818   7.059  -3.672  1.00  0.00    -0.382 OA
ATOM     34  H4  UNL     1      25.144   7.635  -4.012  1.00  0.00     0.211 HD
ENDBRANCH   4  33
BRANCH   1  35
HETATM   35  C4  UNL     1      28.247  10.377  -1.752  1.00  0.00     0.189 C 
HETATM   36  O1  UNL     1      29.381   9.883  -1.354  1.00  0.00    -0.289 OA
BRANCH  35  37
HETATM   37  C2  UNL     1      28.283  11.729  -2.215  1.00  0.00    -0.022 C 
HETATM   38  C1  UNL     1      28.462  12.190  -3.421  1.00  0.00     0.022 C 
HETATM   39  C3  UNL     1      28.025  12.819  -1.171  1.00  0.00     0.051 C 
ENDBRANCH  35  37
ENDBRANCH   1  35
BRANCH   1  40
HETATM   40  O2  UNL     1      26.277   9.816  -0.581  1.00  0.00    -0.302 OA
BRANCH  40  41
HETATM   41  C6  UNL     1      26.716   9.912   0.738  1.00  0.00     0.256 C 
HETATM   42  C7  UNL     1      26.510  11.125   1.559  1.00  0.00     0.126 C 
HETATM   43  O3  UNL     1      27.305   8.926   1.230  1.00  0.00    -0.266 OA
ENDBRANCH  40  41
ENDBRANCH   1  40
TORSDOF 14
ENDMDL
MODEL 5
REMARK VINA RESULT: -8.812190062      2.908      6.243
REMARK  14 active torsions:
REMARK  status: ('A' for Active; 'I' for Inactive)
REMARK    1  A    between atoms: C2_2  and  C4_4 
REMARK    2  A    between atoms: C4_4  and  C5_6 
REMARK    3  A    between atoms: C5_6  and  O2_7 
REMARK    4  A    between atoms: O2_7  and  C6_8 
REMARK    5  A    between atoms: C10_13  and  O4_14 
REMARK    6  A    between atoms: C15_21  and  C17_23 
REMARK    7  A    between atoms: C17_23  and  C18_25 
REMARK    8  A    between atoms: C19_26  and  C21_28 
REMARK    9  A    between atoms: C21_28  and  C22_29 
REMARK   10  A    between atoms: C22_29  and  C23_30 
REMARK   11  A    between atoms: C28_35  and  O7_36 
REMARK   12  A    between atoms: O7_36  and  C29_37 
REMARK   13  A    between atoms: C29_37  and  C30_39 
REMARK   14  A    between atoms: C30_39  and  C31_40 
ROOT
HETATM    1  C5  UNL     1      24.548   8.930 -11.081  1.00  0.00     0.136 C 
HETATM    2  C8  UNL     1      25.326   7.929 -11.895  1.00  0.00     0.050 C 
HETATM    3  C9  UNL     1      25.716   6.692 -11.160  1.00  0.00     0.050 C 
HETATM    4  C10 UNL     1      26.406   7.006  -9.837  1.00  0.00     0.125 C 
HETATM    5  C11 UNL     1      26.737   5.701  -9.238  1.00  0.00     0.170 C 
HETATM    6  O5  UNL     1      27.358   4.982 -10.033  1.00  0.00    -0.294 OA
HETATM    7  C12 UNL     1      26.443   5.143  -7.874  1.00  0.00     0.031 C 
HETATM    8  C13 UNL     1      27.244   3.825  -7.801  1.00  0.00     0.024 C 
HETATM    9  C14 UNL     1      25.022   4.751  -7.744  1.00  0.00     0.024 C 
HETATM   10  C15 UNL     1      27.039   6.039  -6.869  1.00  0.00     0.037 C 
HETATM   11  C16 UNL     1      28.453   6.375  -7.279  1.00  0.00     0.025 C 
HETATM   12  C27 UNL     1      26.277   7.313  -6.637  1.00  0.00     0.051 C 
HETATM   13  C28 UNL     1      26.307   8.306  -7.760  1.00  0.00     0.140 C 
HETATM   14  C33 UNL     1      25.554   7.896  -8.992  1.00  0.00     0.060 C 
HETATM   15  C34 UNL     1      25.323   9.166  -9.784  1.00  0.00     0.057 C 
ENDROOT
BRANCH  10  16
HETATM   16  C17 UNL     1      27.070   5.336  -5.533  1.00  0.00     0.159 C 
HETATM   17  O6  UNL     1      27.806   4.313  -5.487  1.00  0.00    -0.292 OA
BRANCH  16  18
HETATM   18  C18 UNL     1      26.329   5.769  -4.386  1.00  0.00     0.053 C 
HETATM   19  C19 UNL     1      26.613   6.581  -3.433  1.00  0.00    -0.080 C 
HETATM   20  C20 UNL     1      25.560   6.808  -2.356  1.00  0.00     0.043 C 
BRANCH  19  21
HETATM   21  C21 UNL     1      27.841   7.345  -3.228  1.00  0.00     0.037 C 
BRANCH  21  22
HETATM   22  C22 UNL     1      27.918   7.946  -1.832  1.00  0.00     0.031 C 
BRANCH  22  23
HETATM   23  C23 UNL     1      28.273   9.395  -1.940  1.00  0.00    -0.024 C 
HETATM   24  C24 UNL     1      27.741  10.320  -1.169  1.00  0.00    -0.091 C 
HETATM   25  C25 UNL     1      28.139  11.732  -1.333  1.00  0.00     0.042 C 
HETATM   26  C26 UNL     1      26.748   9.928  -0.148  1.00  0.00     0.042 C 
ENDBRANCH  22  23
ENDBRANCH  21  22
ENDBRANCH  19  21
ENDBRANCH  16  18
ENDBRANCH  10  16
BRANCH  13  27
HETATM   27  O7  UNL     1      25.629   9.462  -7.240  1.00  0.00    -0.316 OA
BRANCH  27  28
HETATM   28  C29 UNL     1      26.340  10.474  -6.668  1.00  0.00     0.259 C 
HETATM   29  O8  UNL     1      26.579  11.515  -7.319  1.00  0.00    -0.265 OA
BRANCH  28  30
HETATM   30  C30 UNL     1      26.846  10.380  -5.278  1.00  0.00     0.111 C 
BRANCH  30  31
HETATM   31  C31 UNL     1      25.847  10.893  -4.275  1.00  0.00     0.005 C 
HETATM   32  C32 UNL     1      24.832   9.869  -3.869  1.00  0.00     0.005 C 
ENDBRANCH  30  31
ENDBRANCH  28  30
ENDBRANCH  27  28
ENDBRANCH  13  27
BRANCH   4  33
HETATM   33  O4  UNL     1      27.572   7.694 -10.157  1.00  0.00    -0.382 OA
ATOM     34  H4  UNL     1      28.226   7.034 -10.355  1.00  0.00     0.211 HD
ENDBRANCH   4  33
BRANCH   1  35
HETATM   35  C4  UNL     1      23.167   8.560 -10.821  1.00  0.00     0.189 C 
HETATM   36  O1  UNL     1      22.946   7.291 -10.649  1.00  0.00    -0.289 OA
BRANCH  35  37
HETATM   37  C2  UNL     1      22.024   9.412 -10.727  1.00  0.00    -0.022 C 
HETATM   38  C1  UNL     1      21.624  10.161  -9.737  1.00  0.00     0.022 C 
HETATM   39  C3  UNL     1      21.144   9.521 -11.976  1.00  0.00     0.051 C 
ENDBRANCH  35  37
ENDBRANCH   1  35
BRANCH   1  40
HETATM   40  O2  UNL     1      24.621  10.173 -11.744  1.00  0.00    -0.302 OA
BRANCH  40  41
HETATM   41  C6  UNL     1      25.030  10.333 -13.066  1.00  0.00     0.256 C 
HETATM   42  C7  UNL     1      24.117  10.127 -14.212  1.00  0.00     0.126 C 
HETATM   43  O3  UNL     1      26.216  10.664 -13.275  1.00  0.00    -0.266 OA
ENDBRANCH  40  41
ENDBRANCH   1  40
TORSDOF 14
ENDMDL
