MODEL 1
REMARK VINA RESULT: -10.231849341      0.000      0.000
REMARK  7 active torsions:
REMARK  status: ('A' for Active; 'I' for Inactive)
REMARK    1  A    between atoms: C3_4  and  N1_5 
REMARK    2  A    between atoms: C10_14  and  C11_15 
REMARK    3  A    between atoms: C11_15  and  C12_16 
REMARK    4  A    between atoms: C12_16  and  N3_17 
REMARK    5  A    between atoms: N3_17  and  C13_19 
REMARK    6  A    between atoms: C13_19  and  C14_20 
REMARK    7  A    between atoms: C14_20  and  C15_21 
ROOT
HETATM    1  C12 UNL     1       0.684 -40.188  -5.070  1.00  0.00     0.044 C 
HETATM    2  C20 UNL     1      -0.459 -40.751  -5.218  1.00  0.00     0.126 C 
HETATM    3 CL2  UNL     1      -1.538 -40.124  -6.500  1.00  0.00    -0.069 Cl
HETATM    4 CL3  UNL     1      -1.115 -42.055  -4.289  1.00  0.00    -0.069 Cl
ENDROOT
BRANCH   1   5
HETATM    5  C11 UNL     1       1.727 -40.495  -4.130  1.00  0.00     0.117 C 
BRANCH   5   6
HETATM    6  C10 UNL     1       1.514 -40.238  -2.672  1.00  0.00     0.029 A 
HETATM    7  C2  UNL     1       1.399 -41.295  -1.763  1.00  0.00     0.005 A 
HETATM    8  C1  UNL     1       1.436 -42.768  -2.039  1.00  0.00     0.058 C 
HETATM    9  S1  UNL     1       1.224 -40.468  -0.289  1.00  0.00    -0.057 SA
HETATM   10  C3  UNL     1       1.301 -38.867  -0.860  1.00  0.00     0.147 A 
HETATM   11  N2  UNL     1       1.457 -39.043  -2.155  1.00  0.00    -0.339 N 
ATOM     12  H2  UNL     1       1.534 -38.229  -2.765  1.00  0.00     0.168 HD
BRANCH  10  13
HETATM   13  N1  UNL     1       1.210 -37.663  -0.090  1.00  0.00    -0.361 N 
HETATM   14  C4  UNL     1       1.266 -36.409  -0.800  1.00  0.00     0.125 C 
HETATM   15  C5  UNL     1       1.836 -35.295   0.039  1.00  0.00     0.024 C 
HETATM   16  C6  UNL     1       2.764 -35.804   1.114  1.00  0.00    -0.015 C 
HETATM   17  C7  UNL     1       3.183 -34.616   1.962  1.00  0.00     0.010 C 
HETATM   18  C8  UNL     1       2.124 -36.812   2.016  1.00  0.00     0.024 C 
HETATM   19  C9  UNL     1       1.069 -37.649   1.334  1.00  0.00     0.125 C 
ENDBRANCH  10  13
ENDBRANCH   5   6
ENDBRANCH   1   5
BRANCH   1  20
HETATM   20  N3  UNL     1       1.006 -39.064  -5.971  1.00  0.00    -0.391 N 
ATOM     21  H3  UNL     1       0.856 -38.112  -5.635  1.00  0.00     0.159 HD
BRANCH  20  22
HETATM   22  C13 UNL     1       1.515 -39.246  -7.280  1.00  0.00     0.124 C 
BRANCH  22  23
HETATM   23  C14 UNL     1       1.048 -38.231  -8.301  1.00  0.00     0.059 C 
BRANCH  23  24
HETATM   24  C15 UNL     1       0.479 -39.021  -9.445  1.00  0.00    -0.041 A 
HETATM   25  C16 UNL     1       1.243 -39.958 -10.106  1.00  0.00     0.012 A 
HETATM   26  C17 UNL     1       0.663 -40.665 -11.156  1.00  0.00     0.043 A 
HETATM   27  C18 UNL     1      -0.650 -40.446 -11.541  1.00  0.00     0.103 A 
HETATM   28 CL1  UNL     1      -1.338 -41.375 -12.880  1.00  0.00    -0.065 Cl
HETATM   29  N4  UNL     1      -1.356 -39.528 -10.870  1.00  0.00    -0.356 N 
HETATM   30  C19 UNL     1      -0.817 -38.833  -9.854  1.00  0.00     0.096 A 
ATOM     31  H4  UNL     1      -2.324 -39.352 -11.137  1.00  0.00     0.166 HD
ENDBRANCH  23  24
ENDBRANCH  22  23
ENDBRANCH  20  22
ENDBRANCH   1  20
TORSDOF 7
ENDMDL
MODEL 2
REMARK VINA RESULT: -9.389346994      1.098      1.172
REMARK  7 active torsions:
REMARK  status: ('A' for Active; 'I' for Inactive)
REMARK    1  A    between atoms: C3_4  and  N1_5 
REMARK    2  A    between atoms: C10_14  and  C11_15 
REMARK    3  A    between atoms: C11_15  and  C12_16 
REMARK    4  A    between atoms: C12_16  and  N3_17 
REMARK    5  A    between atoms: N3_17  and  C13_19 
REMARK    6  A    between atoms: C13_19  and  C14_20 
REMARK    7  A    between atoms: C14_20  and  C15_21 
ROOT
HETATM    1  C12 UNL     1       0.466 -40.143  -5.004  1.00  0.00     0.044 C 
HETATM    2  C20 UNL     1      -0.593 -40.857  -5.130  1.00  0.00     0.126 C 
HETATM    3 CL2  UNL     1      -1.823 -40.324  -6.315  1.00  0.00    -0.069 Cl
HETATM    4 CL3  UNL     1      -1.003 -42.291  -4.251  1.00  0.00    -0.069 Cl
ENDROOT
BRANCH   1   5
HETATM    5  C11 UNL     1       1.594 -40.346  -4.138  1.00  0.00     0.117 C 
BRANCH   5   6
HETATM    6  C10 UNL     1       1.454 -40.117  -2.667  1.00  0.00     0.029 A 
HETATM    7  C2  UNL     1       1.398 -41.191  -1.771  1.00  0.00     0.005 A 
HETATM    8  C1  UNL     1       1.438 -42.658  -2.075  1.00  0.00     0.058 C 
HETATM    9  S1  UNL     1       1.291 -40.391  -0.276  1.00  0.00    -0.057 SA
HETATM   10  C3  UNL     1       1.318 -38.779  -0.822  1.00  0.00     0.147 A 
HETATM   11  N2  UNL     1       1.409 -38.931  -2.126  1.00  0.00    -0.339 N 
ATOM     12  H2  UNL     1       1.445 -38.106  -2.725  1.00  0.00     0.168 HD
BRANCH  10  13
HETATM   13  N1  UNL     1       1.253 -37.589  -0.027  1.00  0.00    -0.361 N 
HETATM   14  C4  UNL     1       1.371 -36.323  -0.708  1.00  0.00     0.125 C 
HETATM   15  C5  UNL     1       1.961 -35.250   0.169  1.00  0.00     0.024 C 
HETATM   16  C6  UNL     1       2.845 -35.816   1.253  1.00  0.00    -0.015 C 
HETATM   17  C7  UNL     1       3.287 -34.663   2.137  1.00  0.00     0.010 C 
HETATM   18  C8  UNL     1       2.148 -36.819   2.117  1.00  0.00     0.024 C 
HETATM   19  C9  UNL     1       1.079 -37.602   1.394  1.00  0.00     0.125 C 
ENDBRANCH  10  13
ENDBRANCH   5   6
ENDBRANCH   1   5
BRANCH   1  20
HETATM   20  N3  UNL     1       0.572 -38.937  -5.848  1.00  0.00    -0.391 N 
ATOM     21  H3  UNL     1      -0.048 -38.151  -5.654  1.00  0.00     0.159 HD
BRANCH  20  22
HETATM   22  C13 UNL     1       1.497 -38.822  -6.915  1.00  0.00     0.124 C 
BRANCH  22  23
HETATM   23  C14 UNL     1       1.451 -39.940  -7.933  1.00  0.00     0.059 C 
BRANCH  23  24
HETATM   24  C15 UNL     1       1.025 -39.310  -9.228  1.00  0.00    -0.041 A 
HETATM   25  C16 UNL     1       1.358 -39.884 -10.436  1.00  0.00     0.012 A 
HETATM   26  C17 UNL     1       0.933 -39.260 -11.606  1.00  0.00     0.043 A 
HETATM   27  C18 UNL     1       0.192 -38.089 -11.577  1.00  0.00     0.103 A 
HETATM   28 CL1  UNL     1      -0.324 -37.340 -13.094  1.00  0.00    -0.065 Cl
HETATM   29  N4  UNL     1      -0.109 -37.567 -10.382  1.00  0.00    -0.356 N 
HETATM   30  C19 UNL     1       0.290 -38.152  -9.239  1.00  0.00     0.096 A 
ATOM     31  H4  UNL     1      -0.655 -36.707 -10.338  1.00  0.00     0.166 HD
ENDBRANCH  23  24
ENDBRANCH  22  23
ENDBRANCH  20  22
ENDBRANCH   1  20
TORSDOF 7
ENDMDL
MODEL 3
REMARK VINA RESULT: -8.328831686      1.702      1.862
REMARK  7 active torsions:
REMARK  status: ('A' for Active; 'I' for Inactive)
REMARK    1  A    between atoms: C3_4  and  N1_5 
REMARK    2  A    between atoms: C10_14  and  C11_15 
REMARK    3  A    between atoms: C11_15  and  C12_16 
REMARK    4  A    between atoms: C12_16  and  N3_17 
REMARK    5  A    between atoms: N3_17  and  C13_19 
REMARK    6  A    between atoms: C13_19  and  C14_20 
REMARK    7  A    between atoms: C14_20  and  C15_21 
ROOT
HETATM    1  C12 UNL     1       0.696 -39.891  -5.451  1.00  0.00     0.044 C 
HETATM    2  C20 UNL     1       1.750 -39.496  -6.066  1.00  0.00     0.126 C 
HETATM    3 CL2  UNL     1       1.563 -38.220  -7.306  1.00  0.00    -0.069 Cl
HETATM    4 CL3  UNL     1       3.366 -40.080  -5.862  1.00  0.00    -0.069 Cl
ENDROOT
BRANCH   1   5
HETATM    5  C11 UNL     1       0.571 -40.886  -4.423  1.00  0.00     0.117 C 
BRANCH   5   6
HETATM    6  C10 UNL     1       0.859 -40.527  -3.000  1.00  0.00     0.029 A 
HETATM    7  C2  UNL     1       1.280 -41.496  -2.082  1.00  0.00     0.005 A 
HETATM    8  C1  UNL     1       1.485 -42.964  -2.308  1.00  0.00     0.058 C 
HETATM    9  S1  UNL     1       1.504 -40.569  -0.675  1.00  0.00    -0.057 SA
HETATM   10  C3  UNL     1       1.070 -39.039  -1.282  1.00  0.00     0.147 A 
HETATM   11  N2  UNL     1       0.774 -39.312  -2.534  1.00  0.00    -0.339 N 
ATOM     12  H2  UNL     1       0.472 -38.559  -3.153  1.00  0.00     0.168 HD
BRANCH  10  13
HETATM   13  N1  UNL     1       1.044 -37.796  -0.570  1.00  0.00    -0.361 N 
HETATM   14  C4  UNL     1       2.031 -36.804  -0.920  1.00  0.00     0.125 C 
HETATM   15  C5  UNL     1       2.377 -35.902   0.234  1.00  0.00     0.024 C 
HETATM   16  C6  UNL     1       2.151 -36.565   1.571  1.00  0.00    -0.015 C 
HETATM   17  C7  UNL     1       2.419 -35.533   2.651  1.00  0.00     0.010 C 
HETATM   18  C8  UNL     1       0.752 -37.068   1.749  1.00  0.00     0.024 C 
HETATM   19  C9  UNL     1       0.095 -37.499   0.460  1.00  0.00     0.125 C 
ENDBRANCH  10  13
ENDBRANCH   5   6
ENDBRANCH   1   5
BRANCH   1  20
HETATM   20  N3  UNL     1      -0.583 -39.258  -5.826  1.00  0.00    -0.391 N 
ATOM     21  H3  UNL     1      -1.205 -38.938  -5.084  1.00  0.00     0.159 HD
BRANCH  20  22
HETATM   22  C13 UNL     1      -0.987 -39.074  -7.172  1.00  0.00     0.124 C 
BRANCH  22  23
HETATM   23  C14 UNL     1      -1.086 -40.340  -7.995  1.00  0.00     0.059 C 
BRANCH  23  24
HETATM   24  C15 UNL     1      -0.762 -39.946  -9.408  1.00  0.00    -0.041 A 
HETATM   25  C16 UNL     1      -0.030 -40.780 -10.223  1.00  0.00     0.012 A 
HETATM   26  C17 UNL     1       0.237 -40.368 -11.526  1.00  0.00     0.043 A 
HETATM   27  C18 UNL     1      -0.216 -39.151 -12.009  1.00  0.00     0.103 A 
HETATM   28 CL1  UNL     1       0.150 -38.677 -13.674  1.00  0.00    -0.065 Cl
HETATM   29  N4  UNL     1      -0.924 -38.372 -11.183  1.00  0.00    -0.356 N 
HETATM   30  C19 UNL     1      -1.193 -38.749  -9.921  1.00  0.00     0.096 A 
ATOM     31  H4  UNL     1      -1.268 -37.473 -11.519  1.00  0.00     0.166 HD
ENDBRANCH  23  24
ENDBRANCH  22  23
ENDBRANCH  20  22
ENDBRANCH   1  20
TORSDOF 7
ENDMDL
MODEL 4
REMARK VINA RESULT: -8.321047127      1.263      1.666
REMARK  7 active torsions:
REMARK  status: ('A' for Active; 'I' for Inactive)
REMARK    1  A    between atoms: C3_4  and  N1_5 
REMARK    2  A    between atoms: C10_14  and  C11_15 
REMARK    3  A    between atoms: C11_15  and  C12_16 
REMARK    4  A    between atoms: C12_16  and  N3_17 
REMARK    5  A    between atoms: N3_17  and  C13_19 
REMARK    6  A    between atoms: C13_19  and  C14_20 
REMARK    7  A    between atoms: C14_20  and  C15_21 
ROOT
HETATM    1  C12 UNL     1       0.759 -39.774  -5.771  1.00  0.00     0.044 C 
HETATM    2  C20 UNL     1      -0.500 -40.013  -5.846  1.00  0.00     0.126 C 
HETATM    3 CL2  UNL     1      -1.472 -39.020  -6.973  1.00  0.00    -0.069 Cl
HETATM    4 CL3  UNL     1      -1.401 -41.186  -4.948  1.00  0.00    -0.069 Cl
ENDROOT
BRANCH   1   5
HETATM    5  C11 UNL     1       1.753 -40.419  -4.959  1.00  0.00     0.117 C 
BRANCH   5   6
HETATM    6  C10 UNL     1       1.562 -40.507  -3.478  1.00  0.00     0.029 A 
HETATM    7  C2  UNL     1       1.325 -41.736  -2.853  1.00  0.00     0.005 A 
HETATM    8  C1  UNL     1       1.200 -43.091  -3.482  1.00  0.00     0.058 C 
HETATM    9  S1  UNL     1       1.236 -41.283  -1.217  1.00  0.00    -0.057 SA
HETATM   10  C3  UNL     1       1.492 -39.608  -1.381  1.00  0.00     0.147 A 
HETATM   11  N2  UNL     1       1.635 -39.476  -2.682  1.00  0.00    -0.339 N 
ATOM     12  H2  UNL     1       1.805 -38.551  -3.076  1.00  0.00     0.168 HD
BRANCH  10  13
HETATM   13  N1  UNL     1       1.531 -38.628  -0.337  1.00  0.00    -0.361 N 
HETATM   14  C4  UNL     1       1.406 -39.093   1.022  1.00  0.00     0.125 C 
HETATM   15  C5  UNL     1       0.790 -38.062   1.930  1.00  0.00     0.024 C 
HETATM   16  C6  UNL     1      -0.102 -37.098   1.185  1.00  0.00    -0.015 C 
HETATM   17  C7  UNL     1      -0.571 -36.045   2.172  1.00  0.00     0.010 C 
HETATM   18  C8  UNL     1       0.597 -36.400   0.061  1.00  0.00     0.024 C 
HETATM   19  C9  UNL     1       1.686 -37.226  -0.581  1.00  0.00     0.125 C 
ENDBRANCH  10  13
ENDBRANCH   5   6
ENDBRANCH   1   5
BRANCH   1  20
HETATM   20  N3  UNL     1       1.293 -38.692  -6.620  1.00  0.00    -0.391 N 
ATOM     21  H3  UNL     1       1.347 -37.750  -6.232  1.00  0.00     0.159 HD
BRANCH  20  22
HETATM   22  C13 UNL     1       1.735 -38.902  -7.950  1.00  0.00     0.124 C 
BRANCH  22  23
HETATM   23  C14 UNL     1       0.988 -38.120  -9.008  1.00  0.00     0.059 C 
BRANCH  23  24
HETATM   24  C15 UNL     1       0.528 -39.126 -10.024  1.00  0.00    -0.041 A 
HETATM   25  C16 UNL     1       1.342 -40.171 -10.403  1.00  0.00     0.012 A 
HETATM   26  C17 UNL     1       0.863 -41.078 -11.344  1.00  0.00     0.043 A 
HETATM   27  C18 UNL     1      -0.400 -40.949 -11.899  1.00  0.00     0.103 A 
HETATM   28 CL1  UNL     1      -0.960 -42.132 -13.090  1.00  0.00    -0.065 Cl
HETATM   29  N4  UNL     1      -1.158 -39.920 -11.502  1.00  0.00    -0.356 N 
HETATM   30  C19 UNL     1      -0.716 -39.032 -10.595  1.00  0.00     0.096 A 
ATOM     31  H4  UNL     1      -2.091 -39.808 -11.897  1.00  0.00     0.166 HD
ENDBRANCH  23  24
ENDBRANCH  22  23
ENDBRANCH  20  22
ENDBRANCH   1  20
TORSDOF 7
ENDMDL
MODEL 5
REMARK VINA RESULT: -8.319334190      4.576      6.883
REMARK  7 active torsions:
REMARK  status: ('A' for Active; 'I' for Inactive)
REMARK    1  A    between atoms: C3_4  and  N1_5 
REMARK    2  A    between atoms: C10_14  and  C11_15 
REMARK    3  A    between atoms: C11_15  and  C12_16 
REMARK    4  A    between atoms: C12_16  and  N3_17 
REMARK    5  A    between atoms: N3_17  and  C13_19 
REMARK    6  A    between atoms: C13_19  and  C14_20 
REMARK    7  A    between atoms: C14_20  and  C15_21 
ROOT
HETATM    1  C12 UNL     1       1.556 -40.849 -11.192  1.00  0.00     0.044 C 
HETATM    2  C20 UNL     1       2.453 -41.587 -11.736  1.00  0.00     0.126 C 
HETATM    3 CL2  UNL     1       1.994 -43.250 -12.207  1.00  0.00    -0.069 Cl
HETATM    4 CL3  UNL     1       4.104 -41.172 -12.051  1.00  0.00    -0.069 Cl
ENDROOT
BRANCH   1   5
HETATM    5  C11 UNL     1       1.661 -39.494 -10.729  1.00  0.00     0.117 C 
BRANCH   5   6
HETATM    6  C10 UNL     1       0.854 -39.044  -9.553  1.00  0.00     0.029 A 
HETATM    7  C2  UNL     1      -0.179 -38.111  -9.700  1.00  0.00     0.005 A 
HETATM    8  C1  UNL     1      -0.631 -37.414 -10.947  1.00  0.00     0.058 C 
HETATM    9  S1  UNL     1      -0.775 -37.999  -8.112  1.00  0.00    -0.057 SA
HETATM   10  C3  UNL     1       0.271 -39.102  -7.346  1.00  0.00     0.147 A 
HETATM   11  N2  UNL     1       1.028 -39.503  -8.345  1.00  0.00    -0.339 N 
ATOM     12  H2  UNL     1       1.765 -40.186  -8.170  1.00  0.00     0.168 HD
BRANCH  10  13
HETATM   13  N1  UNL     1       0.289 -39.466  -5.961  1.00  0.00    -0.361 N 
HETATM   14  C4  UNL     1       1.550 -39.390  -5.266  1.00  0.00     0.125 C 
HETATM   15  C5  UNL     1       1.642 -40.373  -4.129  1.00  0.00     0.024 C 
HETATM   16  C6  UNL     1       0.762 -41.580  -4.340  1.00  0.00    -0.015 C 
HETATM   17  C7  UNL     1       0.847 -42.438  -3.090  1.00  0.00     0.010 C 
HETATM   18  C8  UNL     1      -0.676 -41.228  -4.562  1.00  0.00     0.024 C 
HETATM   19  C9  UNL     1      -0.874 -39.897  -5.247  1.00  0.00     0.125 C 
ENDBRANCH  10  13
ENDBRANCH   5   6
ENDBRANCH   1   5
BRANCH   1  20
HETATM   20  N3  UNL     1       0.219 -41.444 -10.997  1.00  0.00    -0.391 N 
ATOM     21  H3  UNL     1       0.098 -42.137 -10.259  1.00  0.00     0.159 HD
BRANCH  20  22
HETATM   22  C13 UNL     1      -0.903 -41.096 -11.788  1.00  0.00     0.124 C 
BRANCH  22  23
HETATM   23  C14 UNL     1      -0.799 -41.463 -13.252  1.00  0.00     0.059 C 
BRANCH  23  24
HETATM   24  C15 UNL     1      -0.811 -40.167 -14.010  1.00  0.00    -0.041 A 
HETATM   25  C16 UNL     1       0.365 -39.526 -14.334  1.00  0.00     0.012 A 
HETATM   26  C17 UNL     1       0.296 -38.330 -15.042  1.00  0.00     0.043 A 
HETATM   27  C18 UNL     1      -0.918 -37.780 -15.422  1.00  0.00     0.103 A 
HETATM   28 CL1  UNL     1      -0.948 -36.258 -16.323  1.00  0.00    -0.065 Cl
HETATM   29  N4  UNL     1      -2.036 -38.436 -15.088  1.00  0.00    -0.356 N 
HETATM   30  C19 UNL     1      -1.994 -39.592 -14.404  1.00  0.00     0.096 A 
ATOM     31  H4  UNL     1      -2.940 -38.049 -15.359  1.00  0.00     0.166 HD
ENDBRANCH  23  24
ENDBRANCH  22  23
ENDBRANCH  20  22
ENDBRANCH   1  20
TORSDOF 7
ENDMDL
