MODEL 1
REMARK VINA RESULT: -7.109798936      0.000      0.000
REMARK  6 active torsions:
REMARK  status: ('A' for Active; 'I' for Inactive)
REMARK    1  A    between atoms: C2_2  and  N1_4 
REMARK    2  A    between atoms: N2_7  and  C6_8 
REMARK    3  A    between atoms: C6_8  and  C7_9 
REMARK    4  A    between atoms: C7_9  and  C8_10 
REMARK    5  A    between atoms: C8_10  and  O1_11 
REMARK    6  A    between atoms: O1_11  and  C9_12 
ROOT
HETATM    1  C8  UNL     1      -0.406 -37.358 -11.371  1.00  0.00     0.177 C 
ENDROOT
BRANCH   1   2
HETATM    2  C7  UNL     1      -0.819 -38.180 -10.168  1.00  0.00     0.057 C 
BRANCH   2   3
HETATM    3  C6  UNL     1       0.224 -37.900  -9.110  1.00  0.00     0.275 C 
BRANCH   3   4
HETATM    4  N2  UNL     1       0.705 -39.044  -8.403  1.00  0.00     0.095 N 
HETATM    5  C5  UNL     1       1.678 -38.679  -7.397  1.00  0.00     0.317 C 
HETATM    6  C4  UNL     1       1.693 -39.585  -6.212  1.00  0.00     0.089 C 
HETATM    7  N1  UNL     1       0.442 -39.868  -5.661  1.00  0.00    -0.377 N 
HETATM    8  C17 UNL     1      -0.684 -39.750  -6.482  1.00  0.00     0.051 C 
HETATM    9  C16 UNL     1      -0.278 -39.963  -7.925  1.00  0.00     0.302 C 
HETATM   10  C18 UNL     1      -1.706 -40.831  -6.106  1.00  0.00     0.040 C 
HETATM   11  C19 UNL     1      -1.430 -38.434  -6.322  1.00  0.00     0.040 C 
BRANCH   7  12
HETATM   12  C2  UNL     1       0.377 -40.470  -4.406  1.00  0.00     0.076 C 
HETATM   13  C1  UNL     1       1.262 -41.710  -4.336  1.00  0.00     0.032 C 
HETATM   14  C3  UNL     1       0.835 -39.581  -3.260  1.00  0.00     0.032 C 
ENDBRANCH   7  12
ENDBRANCH   3   4
ENDBRANCH   2   3
ENDBRANCH   1   2
BRANCH   1  15
HETATM   15  O1  UNL     1       0.146 -38.035 -12.434  1.00  0.00    -0.347 OA
BRANCH  15  16
HETATM   16  C9  UNL     1       0.480 -39.352 -12.536  1.00  0.00     0.116 A 
HETATM   17  C10 UNL     1       1.744 -39.742 -12.063  1.00  0.00     0.093 A 
HETATM   18 CL1  UNL     1       2.835 -38.581 -11.382  1.00  0.00    -0.079 Cl
HETATM   19  C11 UNL     1       2.144 -41.076 -12.133  1.00  0.00     0.087 A 
HETATM   20 CL2  UNL     1       3.735 -41.549 -11.538  1.00  0.00    -0.080 Cl
HETATM   21  C12 UNL     1       1.309 -42.019 -12.666  1.00  0.00     0.089 A 
HETATM   22  C13 UNL     1       0.078 -41.660 -13.132  1.00  0.00     0.123 A 
HETATM   23  N3  UNL     1       1.509 -43.441 -12.839  1.00  0.00    -0.364 N 
HETATM   24  C14 UNL     1      -0.324 -40.312 -13.060  1.00  0.00     0.104 A 
HETATM   25  O2  UNL     1      -0.526 -42.814 -13.605  1.00  0.00    -0.328 OA
HETATM   26 CL3  UNL     1      -1.907 -39.922 -13.704  1.00  0.00    -0.078 Cl
HETATM   27  C15 UNL     1       0.269 -43.949 -13.342  1.00  0.00     0.298 C 
ATOM     28  H3  UNL     1       2.357 -43.972 -12.643  1.00  0.00     0.162 HD
ENDBRANCH  15  16
ENDBRANCH   1  15
TORSDOF 6
ENDMDL
MODEL 2
REMARK VINA RESULT: -6.965209912      1.304      2.349
REMARK  6 active torsions:
REMARK  status: ('A' for Active; 'I' for Inactive)
REMARK    1  A    between atoms: C2_2  and  N1_4 
REMARK    2  A    between atoms: N2_7  and  C6_8 
REMARK    3  A    between atoms: C6_8  and  C7_9 
REMARK    4  A    between atoms: C7_9  and  C8_10 
REMARK    5  A    between atoms: C8_10  and  O1_11 
REMARK    6  A    between atoms: O1_11  and  C9_12 
ROOT
HETATM    1  C8  UNL     1      -0.661 -37.409 -11.152  1.00  0.00     0.177 C 
ENDROOT
BRANCH   1   2
HETATM    2  C7  UNL     1      -1.060 -38.198  -9.922  1.00  0.00     0.057 C 
BRANCH   2   3
HETATM    3  C6  UNL     1       0.025 -37.933  -8.903  1.00  0.00     0.275 C 
BRANCH   3   4
HETATM    4  N2  UNL     1       0.534 -39.087  -8.232  1.00  0.00     0.095 N 
HETATM    5  C5  UNL     1       1.560 -38.737  -7.275  1.00  0.00     0.317 C 
HETATM    6  C4  UNL     1       1.630 -39.654  -6.101  1.00  0.00     0.089 C 
HETATM    7  N1  UNL     1       0.408 -39.935  -5.488  1.00  0.00    -0.377 N 
HETATM    8  C17 UNL     1      -0.758 -39.801  -6.248  1.00  0.00     0.051 C 
HETATM    9  C16 UNL     1      -0.429 -40.004  -7.712  1.00  0.00     0.302 C 
HETATM   10  C18 UNL     1      -1.766 -40.879  -5.829  1.00  0.00     0.040 C 
HETATM   11  C19 UNL     1      -1.486 -38.482  -6.038  1.00  0.00     0.040 C 
BRANCH   7  12
HETATM   12  C2  UNL     1       0.405 -40.548  -4.237  1.00  0.00     0.076 C 
HETATM   13  C1  UNL     1       1.261 -41.809  -4.232  1.00  0.00     0.032 C 
HETATM   14  C3  UNL     1       0.953 -39.682  -3.113  1.00  0.00     0.032 C 
ENDBRANCH   7  12
ENDBRANCH   3   4
ENDBRANCH   2   3
ENDBRANCH   1   2
BRANCH   1  15
HETATM   15  O1  UNL     1      -0.186 -38.123 -12.229  1.00  0.00    -0.347 OA
BRANCH  15  16
HETATM   16  C9  UNL     1       0.465 -39.319 -12.248  1.00  0.00     0.116 A 
HETATM   17  C10 UNL     1      -0.238 -40.434 -12.733  1.00  0.00     0.093 A 
HETATM   18 CL1  UNL     1      -1.875 -40.285 -13.280  1.00  0.00    -0.079 Cl
HETATM   19  C11 UNL     1       0.373 -41.688 -12.785  1.00  0.00     0.087 A 
HETATM   20 CL2  UNL     1      -0.524 -43.078 -13.394  1.00  0.00    -0.080 Cl
HETATM   21  C12 UNL     1       1.664 -41.842 -12.360  1.00  0.00     0.089 A 
HETATM   22  C13 UNL     1       2.362 -40.771 -11.883  1.00  0.00     0.123 A 
HETATM   23  N3  UNL     1       2.489 -43.029 -12.320  1.00  0.00    -0.364 N 
HETATM   24  C14 UNL     1       1.743 -39.507 -11.833  1.00  0.00     0.104 A 
HETATM   25  O2  UNL     1       3.621 -41.234 -11.535  1.00  0.00    -0.328 OA
HETATM   26 CL3  UNL     1       2.693 -38.185 -11.183  1.00  0.00    -0.078 Cl
HETATM   27  C15 UNL     1       3.781 -42.590 -11.891  1.00  0.00     0.298 C 
ATOM     28  H3  UNL     1       2.209 -43.982 -12.551  1.00  0.00     0.162 HD
ENDBRANCH  15  16
ENDBRANCH   1  15
TORSDOF 6
ENDMDL
MODEL 3
REMARK VINA RESULT: -6.687417967      1.444      2.339
REMARK  6 active torsions:
REMARK  status: ('A' for Active; 'I' for Inactive)
REMARK    1  A    between atoms: C2_2  and  N1_4 
REMARK    2  A    between atoms: N2_7  and  C6_8 
REMARK    3  A    between atoms: C6_8  and  C7_9 
REMARK    4  A    between atoms: C7_9  and  C8_10 
REMARK    5  A    between atoms: C8_10  and  O1_11 
REMARK    6  A    between atoms: O1_11  and  C9_12 
ROOT
HETATM    1  C8  UNL     1      -0.381 -37.350 -10.300  1.00  0.00     0.177 C 
ENDROOT
BRANCH   1   2
HETATM    2  C7  UNL     1      -0.740 -38.079  -9.022  1.00  0.00     0.057 C 
BRANCH   2   3
HETATM    3  C6  UNL     1       0.518 -38.064  -8.182  1.00  0.00     0.275 C 
BRANCH   3   4
HETATM    4  N2  UNL     1       0.861 -39.306  -7.565  1.00  0.00     0.095 N 
HETATM    5  C5  UNL     1       1.892 -39.137  -6.566  1.00  0.00     0.317 C 
HETATM    6  C4  UNL     1       1.813 -40.117  -5.444  1.00  0.00     0.089 C 
HETATM    7  N1  UNL     1       0.548 -40.277  -4.877  1.00  0.00    -0.377 N 
HETATM    8  C17 UNL     1      -0.570 -39.959  -5.657  1.00  0.00     0.051 C 
HETATM    9  C16 UNL     1      -0.223 -40.123  -7.122  1.00  0.00     0.302 C 
HETATM   10  C18 UNL     1      -1.715 -40.925  -5.324  1.00  0.00     0.040 C 
HETATM   11  C19 UNL     1      -1.137 -38.574  -5.390  1.00  0.00     0.040 C 
BRANCH   7  12
HETATM   12  C2  UNL     1       0.430 -40.950  -3.664  1.00  0.00     0.076 C 
HETATM   13  C1  UNL     1       1.095 -42.321  -3.721  1.00  0.00     0.032 C 
HETATM   14  C3  UNL     1       1.074 -40.237  -2.485  1.00  0.00     0.032 C 
ENDBRANCH   7  12
ENDBRANCH   3   4
ENDBRANCH   2   3
ENDBRANCH   1   2
BRANCH   1  15
HETATM   15  O1  UNL     1       0.655 -37.862 -11.046  1.00  0.00    -0.347 OA
BRANCH  15  16
HETATM   16  C9  UNL     1       0.638 -38.862 -11.970  1.00  0.00     0.116 A 
HETATM   17  C10 UNL     1      -0.006 -38.609 -13.192  1.00  0.00     0.093 A 
HETATM   18 CL1  UNL     1      -0.754 -37.077 -13.502  1.00  0.00    -0.079 Cl
HETATM   19  C11 UNL     1      -0.056 -39.590 -14.182  1.00  0.00     0.087 A 
HETATM   20 CL2  UNL     1      -0.870 -39.257 -15.710  1.00  0.00    -0.080 Cl
HETATM   21  C12 UNL     1       0.523 -40.812 -13.971  1.00  0.00     0.089 A 
HETATM   22  C13 UNL     1       1.151 -41.078 -12.789  1.00  0.00     0.123 A 
HETATM   23  N3  UNL     1       0.594 -41.965 -14.841  1.00  0.00    -0.364 N 
HETATM   24  C14 UNL     1       1.199 -40.085 -11.791  1.00  0.00     0.104 A 
HETATM   25  O2  UNL     1       1.629 -42.376 -12.871  1.00  0.00    -0.328 OA
HETATM   26 CL3  UNL     1       1.999 -40.509 -10.290  1.00  0.00    -0.078 Cl
HETATM   27  C15 UNL     1       1.409 -42.919 -14.154  1.00  0.00     0.298 C 
ATOM     28  H3  UNL     1       0.155 -42.075 -15.755  1.00  0.00     0.162 HD
ENDBRANCH  15  16
ENDBRANCH   1  15
TORSDOF 6
ENDMDL
MODEL 4
REMARK VINA RESULT: -6.679154416      1.152      2.141
REMARK  6 active torsions:
REMARK  status: ('A' for Active; 'I' for Inactive)
REMARK    1  A    between atoms: C2_2  and  N1_4 
REMARK    2  A    between atoms: N2_7  and  C6_8 
REMARK    3  A    between atoms: C6_8  and  C7_9 
REMARK    4  A    between atoms: C7_9  and  C8_10 
REMARK    5  A    between atoms: C8_10  and  O1_11 
REMARK    6  A    between atoms: O1_11  and  C9_12 
ROOT
HETATM    1  C8  UNL     1      -0.412 -36.830 -12.950  1.00  0.00     0.177 C 
ENDROOT
BRANCH   1   2
HETATM    2  C7  UNL     1      -0.350 -36.228 -11.561  1.00  0.00     0.057 C 
BRANCH   2   3
HETATM    3  C6  UNL     1      -1.111 -37.186 -10.672  1.00  0.00     0.275 C 
BRANCH   3   4
HETATM    4  N2  UNL     1      -0.707 -37.206  -9.302  1.00  0.00     0.095 N 
HETATM    5  C5  UNL     1      -1.822 -37.480  -8.422  1.00  0.00     0.317 C 
HETATM    6  C4  UNL     1      -1.443 -38.199  -7.172  1.00  0.00     0.089 C 
HETATM    7  N1  UNL     1      -0.622 -39.314  -7.348  1.00  0.00    -0.377 N 
HETATM    8  C17 UNL     1       0.168 -39.376  -8.500  1.00  0.00     0.051 C 
HETATM    9  C16 UNL     1       0.457 -37.972  -8.988  1.00  0.00     0.302 C 
HETATM   10  C18 UNL     1       1.504 -40.052  -8.166  1.00  0.00     0.040 C 
HETATM   11  C19 UNL     1      -0.429 -40.221  -9.615  1.00  0.00     0.040 C 
BRANCH   7  12
HETATM   12  C2  UNL     1      -0.445 -40.198  -6.286  1.00  0.00     0.076 C 
HETATM   13  C1  UNL     1       0.122 -39.491  -5.061  1.00  0.00     0.032 C 
HETATM   14  C3  UNL     1      -1.724 -40.869  -5.809  1.00  0.00     0.032 C 
ENDBRANCH   7  12
ENDBRANCH   3   4
ENDBRANCH   2   3
ENDBRANCH   1   2
BRANCH   1  15
HETATM   15  O1  UNL     1       0.625 -37.653 -13.325  1.00  0.00    -0.347 OA
BRANCH  15  16
HETATM   16  C9  UNL     1       0.760 -38.998 -13.157  1.00  0.00     0.116 A 
HETATM   17  C10 UNL     1       1.809 -39.450 -12.341  1.00  0.00     0.093 A 
HETATM   18 CL1  UNL     1       2.892 -38.330 -11.582  1.00  0.00    -0.079 Cl
HETATM   19  C11 UNL     1       1.999 -40.815 -12.124  1.00  0.00     0.087 A 
HETATM   20 CL2  UNL     1       3.322 -41.366 -11.098  1.00  0.00    -0.080 Cl
HETATM   21  C12 UNL     1       1.164 -41.728 -12.707  1.00  0.00     0.089 A 
HETATM   22  C13 UNL     1       0.140 -41.308 -13.506  1.00  0.00     0.123 A 
HETATM   23  N3  UNL     1       1.169 -43.172 -12.626  1.00  0.00    -0.364 N 
HETATM   24  C14 UNL     1      -0.049 -39.929 -13.723  1.00  0.00     0.104 A 
HETATM   25  O2  UNL     1      -0.519 -42.445 -13.946  1.00  0.00    -0.328 OA
HETATM   26 CL3  UNL     1      -1.367 -39.467 -14.782  1.00  0.00    -0.078 Cl
HETATM   27  C15 UNL     1       0.008 -43.605 -13.341  1.00  0.00     0.298 C 
ATOM     28  H3  UNL     1       1.858 -43.760 -12.157  1.00  0.00     0.162 HD
ENDBRANCH  15  16
ENDBRANCH   1  15
TORSDOF 6
ENDMDL
MODEL 5
REMARK VINA RESULT: -6.586854075      2.531      3.903
REMARK  6 active torsions:
REMARK  status: ('A' for Active; 'I' for Inactive)
REMARK    1  A    between atoms: C2_2  and  N1_4 
REMARK    2  A    between atoms: N2_7  and  C6_8 
REMARK    3  A    between atoms: C6_8  and  C7_9 
REMARK    4  A    between atoms: C7_9  and  C8_10 
REMARK    5  A    between atoms: C8_10  and  O1_11 
REMARK    6  A    between atoms: O1_11  and  C9_12 
ROOT
HETATM    1  C8  UNL     1      -1.029 -38.809  -8.694  1.00  0.00     0.177 C 
ENDROOT
BRANCH   1   2
HETATM    2  C7  UNL     1      -0.632 -38.916  -7.236  1.00  0.00     0.057 C 
BRANCH   2   3
HETATM    3  C6  UNL     1      -1.025 -40.313  -6.812  1.00  0.00     0.275 C 
BRANCH   3   4
HETATM    4  N2  UNL     1      -1.161 -40.513  -5.404  1.00  0.00     0.095 N 
HETATM    5  C5  UNL     1      -1.044 -41.910  -5.051  1.00  0.00     0.317 C 
HETATM    6  C4  UNL     1      -0.474 -42.145  -3.692  1.00  0.00     0.089 C 
HETATM    7  N1  UNL     1       0.685 -41.425  -3.397  1.00  0.00    -0.377 N 
HETATM    8  C17 UNL     1       0.922 -40.238  -4.100  1.00  0.00     0.051 C 
HETATM    9  C16 UNL     1      -0.398 -39.654  -4.557  1.00  0.00     0.302 C 
HETATM   10  C18 UNL     1       1.601 -39.223  -3.171  1.00  0.00     0.040 C 
HETATM   11  C19 UNL     1       1.877 -40.394  -5.273  1.00  0.00     0.040 C 
BRANCH   7  12
HETATM   12  C2  UNL     1       1.435 -41.779  -2.278  1.00  0.00     0.076 C 
HETATM   13  C1  UNL     1       0.816 -41.231  -0.997  1.00  0.00     0.032 C 
HETATM   14  C3  UNL     1       1.562 -43.278  -2.057  1.00  0.00     0.032 C 
ENDBRANCH   7  12
ENDBRANCH   3   4
ENDBRANCH   2   3
ENDBRANCH   1   2
BRANCH   1  15
HETATM   15  O1  UNL     1      -0.028 -38.546  -9.600  1.00  0.00    -0.347 OA
BRANCH  15  16
HETATM   16  C9  UNL     1      -0.067 -38.588 -10.961  1.00  0.00     0.116 A 
HETATM   17  C10 UNL     1       0.271 -39.800 -11.585  1.00  0.00     0.093 A 
HETATM   18 CL1  UNL     1       0.725 -41.186 -10.649  1.00  0.00    -0.079 Cl
HETATM   19  C11 UNL     1       0.246 -39.911 -12.976  1.00  0.00     0.087 A 
HETATM   20 CL2  UNL     1       0.675 -41.439 -13.743  1.00  0.00    -0.080 Cl
HETATM   21  C12 UNL     1      -0.107 -38.838 -13.746  1.00  0.00     0.089 A 
HETATM   22  C13 UNL     1      -0.436 -37.651 -13.159  1.00  0.00     0.123 A 
HETATM   23  N3  UNL     1      -0.201 -38.721 -15.185  1.00  0.00    -0.364 N 
HETATM   24  C14 UNL     1      -0.410 -37.542 -11.754  1.00  0.00     0.104 A 
HETATM   25  O2  UNL     1      -0.742 -36.767 -14.181  1.00  0.00    -0.328 OA
HETATM   26 CL3  UNL     1      -0.818 -35.979 -11.074  1.00  0.00    -0.078 Cl
HETATM   27  C15 UNL     1      -0.720 -37.412 -15.435  1.00  0.00     0.298 C 
ATOM     28  H3  UNL     1       0.050 -39.427 -15.877  1.00  0.00     0.162 HD
ENDBRANCH  15  16
ENDBRANCH   1  15
TORSDOF 6
ENDMDL
