MODEL 1
REMARK VINA RESULT: -7.366592879      0.000      0.000
REMARK  18 active torsions:
REMARK  status: ('A' for Active; 'I' for Inactive)
REMARK    1  A    between atoms: N1_1  and  C1_4 
REMARK    2  A    between atoms: C2_7  and  N3_8 
REMARK    3  A    between atoms: C4_10  and  C5_11 
REMARK    4  A    between atoms: C5_11  and  N4_12 
REMARK    5  A    between atoms: C6_16  and  O1_17 
REMARK    6  A    between atoms: C7_19  and  O2_20 
REMARK    7  A    between atoms: C8_22  and  O3_23 
REMARK    8  A    between atoms: N7_34  and  C13_35 
REMARK    9  A    between atoms: C13_35  and  C14_36 
REMARK   10  A    between atoms: C14_36  and  O5_37 
REMARK   11  A    between atoms: C14_36  and  N8_39 
REMARK   12  A    between atoms: N8_39  and  C15_41 
REMARK   13  A    between atoms: C15_41  and  C16_42 
REMARK   14  A    between atoms: C15_41  and  C17_45 
REMARK   15  A    between atoms: C16_42  and  O6_43 
REMARK   16  A    between atoms: C17_45  and  C18_47 
REMARK   17  A    between atoms: C18_47  and  O8_48 
REMARK   18  A    between atoms: C18_47  and  O9_50 
ROOT
HETATM    1  C1  UNL     1     -16.762 -66.672 -51.669  1.00  0.00     0.144 C 
HETATM    2  N2  UNL     1     -17.205 -65.894 -50.676  1.00  0.00    -0.175 N 
ATOM      3  H2  UNL     1     -16.488 -65.338 -50.209  1.00  0.00     0.186 HD
HETATM    4  C2  UNL     1     -18.468 -65.732 -50.195  1.00  0.00     0.687 C 
HETATM    5  N5  UNL     1     -19.544 -66.305 -50.746  1.00  0.00    -0.154 N 
ATOM      6  H5  UNL     1     -20.410 -65.787 -50.599  1.00  0.00     0.187 HD
HETATM    7  C9  UNL     1     -19.701 -67.455 -51.471  1.00  0.00     0.289 C 
HETATM    8  O4  UNL     1     -20.817 -67.979 -51.450  1.00  0.00    -0.265 OA
HETATM    9  C10 UNL     1     -18.751 -68.110 -52.230  1.00  0.00     0.136 A 
HETATM   10  C11 UNL     1     -17.400 -67.733 -52.289  1.00  0.00     0.110 A 
HETATM   11  N6  UNL     1     -16.795 -68.614 -53.102  1.00  0.00    -0.347 N 
ATOM     12  H6  UNL     1     -15.805 -68.608 -53.346  1.00  0.00     0.167 HD
HETATM   13  C12 UNL     1     -17.692 -69.499 -53.538  1.00  0.00     0.184 A 
HETATM   14  N7  UNL     1     -18.920 -69.196 -53.002  1.00  0.00    -0.329 N 
ENDROOT
BRANCH   4  15
HETATM   15  N3  UNL     1     -18.651 -64.912 -49.051  1.00  0.00    -0.188 N 
HETATM   16  C3  UNL     1     -18.926 -63.492 -49.175  1.00  0.00     0.153 C 
HETATM   17  C4  UNL     1     -20.225 -63.124 -48.497  1.00  0.00     0.061 C 
HETATM   18  C6  UNL     1     -20.653 -64.088 -47.435  1.00  0.00     0.158 C 
HETATM   19  C7  UNL     1     -19.522 -64.804 -46.760  1.00  0.00     0.196 C 
HETATM   20  C8  UNL     1     -18.564 -65.442 -47.706  1.00  0.00     0.268 C 
BRANCH  17  21
HETATM   21  C5  UNL     1     -20.045 -61.705 -47.949  1.00  0.00     0.238 C 
BRANCH  21  22
HETATM   22  N4  UNL     1     -18.630 -61.497 -47.777  1.00  0.00    -0.079 N 
ATOM     23  H43 UNL     1     -18.373 -61.259 -46.819  1.00  0.00     0.274 HD
ATOM     24  H42 UNL     1     -18.086 -62.358 -47.848  1.00  0.00     0.274 HD
ATOM     25  H41 UNL     1     -18.349 -60.789 -48.456  1.00  0.00     0.274 HD
ENDBRANCH  21  22
ENDBRANCH  17  21
BRANCH  18  26
HETATM   26  O1  UNL     1     -21.603 -64.978 -47.977  1.00  0.00    -0.392 OA
ATOM     27  H1  UNL     1     -22.399 -64.934 -47.461  1.00  0.00     0.210 HD
ENDBRANCH  18  26
BRANCH  19  28
HETATM   28  O2  UNL     1     -18.880 -63.940 -45.888  1.00  0.00    -0.389 OA
ATOM     29  H2  UNL     1     -18.225 -63.439 -46.361  1.00  0.00     0.210 HD
ENDBRANCH  19  28
BRANCH  20  30
HETATM   30  O3  UNL     1     -18.626 -66.835 -47.704  1.00  0.00    -0.373 OA
ATOM     31  H3  UNL     1     -17.853 -67.217 -48.104  1.00  0.00     0.212 HD
ENDBRANCH  20  30
ENDBRANCH   4  15
BRANCH   1  32
HETATM   32  N1  UNL     1     -15.579 -66.436 -52.151  1.00  0.00    -0.383 N 
ATOM     33  H12 UNL     1     -15.138 -65.610 -51.744  1.00  0.00     0.157 HD
ATOM     34  H11 UNL     1     -15.213 -67.071 -52.860  1.00  0.00     0.157 HD
ENDBRANCH   1  32
BRANCH  14  35
HETATM   35  C13 UNL     1     -20.135 -69.900 -53.240  1.00  0.00     0.213 C 
BRANCH  35  36
HETATM   36  C14 UNL     1     -20.175 -71.170 -52.393  1.00  0.00     0.130 C 
BRANCH  36  37
HETATM   37  O5  UNL     1     -19.027 -71.910 -52.415  1.00  0.00    -0.348 OA
ATOM     38  H5  UNL     1     -19.136 -72.806 -52.711  1.00  0.00     0.219 HD
ENDBRANCH  36  37
BRANCH  36  39
HETATM   39  N8  UNL     1     -20.790 -70.991 -51.129  1.00  0.00    -0.359 N 
ATOM     40  H8  UNL     1     -21.643 -70.441 -51.035  1.00  0.00     0.162 HD
BRANCH  39  41
HETATM   41  C15 UNL     1     -20.181 -71.605 -49.989  1.00  0.00     0.181 C 
BRANCH  41  42
HETATM   42  C16 UNL     1     -20.381 -73.109 -49.977  1.00  0.00     0.197 C 
BRANCH  42  43
HETATM   43  O6  UNL     1     -21.738 -73.373 -49.977  1.00  0.00    -0.398 OA
ATOM     44  H6  UNL     1     -21.879 -74.236 -49.608  1.00  0.00     0.209 HD
ENDBRANCH  42  43
ENDBRANCH  41  42
BRANCH  41  45
HETATM   45  C17 UNL     1     -20.870 -71.050 -48.797  1.00  0.00     0.205 C 
HETATM   46  O7  UNL     1     -21.084 -71.825 -47.865  1.00  0.00    -0.290 OA
BRANCH  45  47
HETATM   47  C18 UNL     1     -21.303 -69.663 -48.683  1.00  0.00     0.327 C 
BRANCH  47  48
HETATM   48  O8  UNL     1     -20.215 -68.768 -48.742  1.00  0.00    -0.365 OA
ATOM     49  H8  UNL     1     -19.975 -68.447 -47.881  1.00  0.00     0.213 HD
ENDBRANCH  47  48
BRANCH  47  50
HETATM   50  O9  UNL     1     -22.304 -69.248 -49.525  1.00  0.00    -0.365 OA
ATOM     51  H9  UNL     1     -22.046 -68.770 -50.304  1.00  0.00     0.213 HD
ENDBRANCH  47  50
ENDBRANCH  45  47
ENDBRANCH  41  45
ENDBRANCH  39  41
ENDBRANCH  36  39
ENDBRANCH  35  36
ENDBRANCH  14  35
TORSDOF 18
ENDMDL
MODEL 2
REMARK VINA RESULT: -7.139985253      4.548      6.050
REMARK  18 active torsions:
REMARK  status: ('A' for Active; 'I' for Inactive)
REMARK    1  A    between atoms: N1_1  and  C1_4 
REMARK    2  A    between atoms: C2_7  and  N3_8 
REMARK    3  A    between atoms: C4_10  and  C5_11 
REMARK    4  A    between atoms: C5_11  and  N4_12 
REMARK    5  A    between atoms: C6_16  and  O1_17 
REMARK    6  A    between atoms: C7_19  and  O2_20 
REMARK    7  A    between atoms: C8_22  and  O3_23 
REMARK    8  A    between atoms: N7_34  and  C13_35 
REMARK    9  A    between atoms: C13_35  and  C14_36 
REMARK   10  A    between atoms: C14_36  and  O5_37 
REMARK   11  A    between atoms: C14_36  and  N8_39 
REMARK   12  A    between atoms: N8_39  and  C15_41 
REMARK   13  A    between atoms: C15_41  and  C16_42 
REMARK   14  A    between atoms: C15_41  and  C17_45 
REMARK   15  A    between atoms: C16_42  and  O6_43 
REMARK   16  A    between atoms: C17_45  and  C18_47 
REMARK   17  A    between atoms: C18_47  and  O8_48 
REMARK   18  A    between atoms: C18_47  and  O9_50 
ROOT
HETATM    1  C1  UNL     1     -16.945 -66.958 -46.144  1.00  0.00     0.144 C 
HETATM    2  N2  UNL     1     -15.613 -66.843 -46.145  1.00  0.00    -0.175 N 
ATOM      3  H2  UNL     1     -15.170 -66.932 -45.230  1.00  0.00     0.186 HD
HETATM    4  C2  UNL     1     -14.760 -66.625 -47.183  1.00  0.00     0.687 C 
HETATM    5  N5  UNL     1     -15.152 -66.580 -48.461  1.00  0.00    -0.154 N 
ATOM      6  H5  UNL     1     -14.429 -66.854 -49.126  1.00  0.00     0.187 HD
HETATM    7  C9  UNL     1     -16.342 -66.237 -49.044  1.00  0.00     0.289 C 
HETATM    8  O4  UNL     1     -16.296 -65.836 -50.209  1.00  0.00    -0.265 OA
HETATM    9  C10 UNL     1     -17.602 -66.285 -48.480  1.00  0.00     0.136 A 
HETATM   10  C11 UNL     1     -17.846 -66.606 -47.135  1.00  0.00     0.110 A 
HETATM   11  N6  UNL     1     -19.175 -66.523 -46.961  1.00  0.00    -0.347 N 
ATOM     12  H6  UNL     1     -19.667 -66.699 -46.085  1.00  0.00     0.167 HD
HETATM   13  C12 UNL     1     -19.750 -66.173 -48.111  1.00  0.00     0.184 A 
HETATM   14  N7  UNL     1     -18.779 -66.021 -49.071  1.00  0.00    -0.329 N 
ENDROOT
BRANCH   4  15
HETATM   15  N3  UNL     1     -13.382 -66.439 -46.892  1.00  0.00    -0.188 N 
HETATM   16  C3  UNL     1     -12.883 -65.177 -46.375  1.00  0.00     0.153 C 
HETATM   17  C4  UNL     1     -12.182 -65.367 -45.051  1.00  0.00     0.061 C 
HETATM   18  C6  UNL     1     -11.678 -66.758 -44.822  1.00  0.00     0.158 C 
HETATM   19  C7  UNL     1     -11.328 -67.501 -46.075  1.00  0.00     0.196 C 
HETATM   20  C8  UNL     1     -12.406 -67.487 -47.104  1.00  0.00     0.268 C 
BRANCH  17  21
HETATM   21  C5  UNL     1     -11.056 -64.330 -45.000  1.00  0.00     0.238 C 
BRANCH  21  22
HETATM   22  N4  UNL     1     -11.262 -63.545 -43.809  1.00  0.00    -0.079 N 
ATOM     23  H43 UNL     1     -10.617 -62.759 -43.731  1.00  0.00     0.274 HD
ATOM     24  H42 UNL     1     -12.126 -63.004 -43.829  1.00  0.00     0.274 HD
ATOM     25  H41 UNL     1     -11.210 -64.187 -43.018  1.00  0.00     0.274 HD
ENDBRANCH  21  22
ENDBRANCH  17  21
BRANCH  18  26
HETATM   26  O1  UNL     1     -12.606 -67.458 -44.025  1.00  0.00    -0.392 OA
ATOM     27  H1  UNL     1     -12.801 -66.943 -43.251  1.00  0.00     0.210 HD
ENDBRANCH  18  26
BRANCH  19  28
HETATM   28  O2  UNL     1     -10.132 -67.020 -46.583  1.00  0.00    -0.389 OA
ATOM     29  H2  UNL     1     -10.211 -66.898 -47.521  1.00  0.00     0.210 HD
ENDBRANCH  19  28
BRANCH  20  30
HETATM   30  O3  UNL     1     -13.021 -68.726 -47.281  1.00  0.00    -0.373 OA
ATOM     31  H3  UNL     1     -12.465 -69.435 -46.980  1.00  0.00     0.212 HD
ENDBRANCH  20  30
ENDBRANCH   4  15
BRANCH   1  32
HETATM   32  N1  UNL     1     -17.515 -67.465 -45.093  1.00  0.00    -0.383 N 
ATOM     33  H12 UNL     1     -17.952 -68.370 -45.272  1.00  0.00     0.157 HD
ATOM     34  H11 UNL     1     -17.474 -66.937 -44.222  1.00  0.00     0.157 HD
ENDBRANCH   1  32
BRANCH  14  35
HETATM   35  C13 UNL     1     -18.995 -65.665 -50.433  1.00  0.00     0.213 C 
BRANCH  35  36
HETATM   36  C14 UNL     1     -19.216 -66.923 -51.270  1.00  0.00     0.130 C 
BRANCH  36  37
HETATM   37  O5  UNL     1     -18.148 -67.773 -51.322  1.00  0.00    -0.348 OA
ATOM     38  H5  UNL     1     -17.481 -67.538 -51.956  1.00  0.00     0.219 HD
ENDBRANCH  36  37
BRANCH  36  39
HETATM   39  N8  UNL     1     -20.489 -67.515 -51.081  1.00  0.00    -0.359 N 
ATOM     40  H8  UNL     1     -21.338 -67.047 -51.398  1.00  0.00     0.162 HD
BRANCH  39  41
HETATM   41  C15 UNL     1     -20.551 -68.789 -50.433  1.00  0.00     0.181 C 
BRANCH  41  42
HETATM   42  C16 UNL     1     -20.689 -69.927 -51.427  1.00  0.00     0.197 C 
BRANCH  42  43
HETATM   43  O6  UNL     1     -20.913 -71.099 -50.729  1.00  0.00    -0.398 OA
ATOM     44  H6  UNL     1     -20.580 -71.826 -51.241  1.00  0.00     0.209 HD
ENDBRANCH  42  43
ENDBRANCH  41  42
BRANCH  41  45
HETATM   45  C17 UNL     1     -21.777 -68.774 -49.596  1.00  0.00     0.205 C 
HETATM   46  O7  UNL     1     -21.764 -69.458 -48.573  1.00  0.00    -0.290 OA
BRANCH  45  47
HETATM   47  C18 UNL     1     -22.973 -68.008 -49.923  1.00  0.00     0.327 C 
BRANCH  47  48
HETATM   48  O8  UNL     1     -22.782 -66.626 -49.719  1.00  0.00    -0.365 OA
ATOM     49  H8  UNL     1     -22.438 -66.199 -50.495  1.00  0.00     0.213 HD
ENDBRANCH  47  48
BRANCH  47  50
HETATM   50  O9  UNL     1     -23.543 -68.231 -51.152  1.00  0.00    -0.365 OA
ATOM     51  H9  UNL     1     -24.299 -67.705 -51.382  1.00  0.00     0.213 HD
ENDBRANCH  47  50
ENDBRANCH  45  47
ENDBRANCH  41  45
ENDBRANCH  39  41
ENDBRANCH  36  39
ENDBRANCH  35  36
ENDBRANCH  14  35
TORSDOF 18
ENDMDL
MODEL 3
REMARK VINA RESULT: -7.135138283      4.511      6.439
REMARK  18 active torsions:
REMARK  status: ('A' for Active; 'I' for Inactive)
REMARK    1  A    between atoms: N1_1  and  C1_4 
REMARK    2  A    between atoms: C2_7  and  N3_8 
REMARK    3  A    between atoms: C4_10  and  C5_11 
REMARK    4  A    between atoms: C5_11  and  N4_12 
REMARK    5  A    between atoms: C6_16  and  O1_17 
REMARK    6  A    between atoms: C7_19  and  O2_20 
REMARK    7  A    between atoms: C8_22  and  O3_23 
REMARK    8  A    between atoms: N7_34  and  C13_35 
REMARK    9  A    between atoms: C13_35  and  C14_36 
REMARK   10  A    between atoms: C14_36  and  O5_37 
REMARK   11  A    between atoms: C14_36  and  N8_39 
REMARK   12  A    between atoms: N8_39  and  C15_41 
REMARK   13  A    between atoms: C15_41  and  C16_42 
REMARK   14  A    between atoms: C15_41  and  C17_45 
REMARK   15  A    between atoms: C16_42  and  O6_43 
REMARK   16  A    between atoms: C17_45  and  C18_47 
REMARK   17  A    between atoms: C18_47  and  O8_48 
REMARK   18  A    between atoms: C18_47  and  O9_50 
ROOT
HETATM    1  C1  UNL     1     -16.986 -66.959 -45.980  1.00  0.00     0.144 C 
HETATM    2  N2  UNL     1     -15.658 -66.818 -46.039  1.00  0.00    -0.175 N 
ATOM      3  H2  UNL     1     -15.178 -66.851 -45.139  1.00  0.00     0.186 HD
HETATM    4  C2  UNL     1     -14.850 -66.638 -47.121  1.00  0.00     0.687 C 
HETATM    5  N5  UNL     1     -15.293 -66.666 -48.382  1.00  0.00    -0.154 N 
ATOM      6  H5  UNL     1     -14.589 -66.959 -49.061  1.00  0.00     0.187 HD
HETATM    7  C9  UNL     1     -16.511 -66.377 -48.934  1.00  0.00     0.289 C 
HETATM    8  O4  UNL     1     -16.519 -66.035 -50.119  1.00  0.00    -0.265 OA
HETATM    9  C10 UNL     1     -17.747 -66.420 -48.319  1.00  0.00     0.136 A 
HETATM   10  C11 UNL     1     -17.932 -66.677 -46.951  1.00  0.00     0.110 A 
HETATM   11  N6  UNL     1     -19.254 -66.611 -46.729  1.00  0.00    -0.347 N 
ATOM     12  H6  UNL     1     -19.709 -66.752 -45.826  1.00  0.00     0.167 HD
HETATM   13  C12 UNL     1     -19.881 -66.332 -47.872  1.00  0.00     0.184 A 
HETATM   14  N7  UNL     1     -18.951 -66.210 -48.875  1.00  0.00    -0.329 N 
ENDROOT
BRANCH   4  15
HETATM   15  N3  UNL     1     -13.467 -66.409 -46.894  1.00  0.00    -0.188 N 
HETATM   16  C3  UNL     1     -12.976 -65.115 -46.457  1.00  0.00     0.153 C 
HETATM   17  C4  UNL     1     -12.219 -65.227 -45.154  1.00  0.00     0.061 C 
HETATM   18  C6  UNL     1     -11.676 -66.595 -44.881  1.00  0.00     0.158 C 
HETATM   19  C7  UNL     1     -11.359 -67.390 -46.112  1.00  0.00     0.196 C 
HETATM   20  C8  UNL     1     -12.476 -67.447 -47.096  1.00  0.00     0.268 C 
BRANCH  17  21
HETATM   21  C5  UNL     1     -11.116 -64.166 -45.196  1.00  0.00     0.238 C 
BRANCH  21  22
HETATM   22  N4  UNL     1     -11.115 -63.510 -43.914  1.00  0.00    -0.079 N 
ATOM     23  H43 UNL     1     -11.229 -64.156 -43.133  1.00  0.00     0.274 HD
ATOM     24  H42 UNL     1     -10.200 -63.146 -43.650  1.00  0.00     0.274 HD
ATOM     25  H41 UNL     1     -11.838 -62.791 -43.948  1.00  0.00     0.274 HD
ENDBRANCH  21  22
ENDBRANCH  17  21
BRANCH  18  26
HETATM   26  O1  UNL     1     -12.556 -67.276 -44.016  1.00  0.00    -0.392 OA
ATOM     27  H1  UNL     1     -12.296 -68.188 -43.965  1.00  0.00     0.210 HD
ENDBRANCH  18  26
BRANCH  19  28
HETATM   28  O2  UNL     1     -10.195 -66.908 -46.689  1.00  0.00    -0.389 OA
ATOM     29  H2  UNL     1     -10.343 -66.740 -47.612  1.00  0.00     0.210 HD
ENDBRANCH  19  28
BRANCH  20  30
HETATM   30  O3  UNL     1     -13.070 -68.705 -47.190  1.00  0.00    -0.373 OA
ATOM     31  H3  UNL     1     -13.536 -68.807 -48.012  1.00  0.00     0.212 HD
ENDBRANCH  20  30
ENDBRANCH   4  15
BRANCH   1  32
HETATM   32  N1  UNL     1     -17.504 -67.423 -44.883  1.00  0.00    -0.383 N 
ATOM     33  H12 UNL     1     -17.463 -68.441 -44.820  1.00  0.00     0.157 HD
ATOM     34  H11 UNL     1     -17.886 -66.757 -44.213  1.00  0.00     0.157 HD
ENDBRANCH   1  32
BRANCH  14  35
HETATM   35  C13 UNL     1     -19.227 -65.929 -50.244  1.00  0.00     0.213 C 
BRANCH  35  36
HETATM   36  C14 UNL     1     -19.829 -67.161 -50.918  1.00  0.00     0.130 C 
BRANCH  36  37
HETATM   37  O5  UNL     1     -21.194 -67.217 -50.894  1.00  0.00    -0.348 OA
ATOM     38  H5  UNL     1     -21.562 -67.653 -50.135  1.00  0.00     0.219 HD
ENDBRANCH  36  37
BRANCH  36  39
HETATM   39  N8  UNL     1     -19.201 -67.504 -52.140  1.00  0.00    -0.359 N 
ATOM     40  H8  UNL     1     -19.207 -66.861 -52.931  1.00  0.00     0.162 HD
BRANCH  39  41
HETATM   41  C15 UNL     1     -18.558 -68.779 -52.234  1.00  0.00     0.181 C 
BRANCH  41  42
HETATM   42  C16 UNL     1     -17.122 -68.658 -52.712  1.00  0.00     0.197 C 
BRANCH  42  43
HETATM   43  O6  UNL     1     -16.344 -69.549 -51.997  1.00  0.00    -0.398 OA
ATOM     44  H6  UNL     1     -15.492 -69.156 -51.847  1.00  0.00     0.209 HD
ENDBRANCH  42  43
ENDBRANCH  41  42
BRANCH  41  45
HETATM   45  C17 UNL     1     -19.307 -69.551 -53.257  1.00  0.00     0.205 C 
HETATM   46  O7  UNL     1     -18.648 -70.079 -54.152  1.00  0.00    -0.290 OA
BRANCH  45  47
HETATM   47  C18 UNL     1     -20.756 -69.706 -53.255  1.00  0.00     0.327 C 
BRANCH  47  48
HETATM   48  O8  UNL     1     -21.236 -70.135 -52.000  1.00  0.00    -0.365 OA
ATOM     49  H8  UNL     1     -22.175 -70.015 -51.922  1.00  0.00     0.213 HD
ENDBRANCH  47  48
BRANCH  47  50
HETATM   50  O9  UNL     1     -21.500 -68.646 -53.709  1.00  0.00    -0.365 OA
ATOM     51  H9  UNL     1     -21.591 -68.551 -54.650  1.00  0.00     0.213 HD
ENDBRANCH  47  50
ENDBRANCH  45  47
ENDBRANCH  41  45
ENDBRANCH  39  41
ENDBRANCH  36  39
ENDBRANCH  35  36
ENDBRANCH  14  35
TORSDOF 18
ENDMDL
MODEL 4
REMARK VINA RESULT: -7.078798777      2.738      4.330
REMARK  18 active torsions:
REMARK  status: ('A' for Active; 'I' for Inactive)
REMARK    1  A    between atoms: N1_1  and  C1_4 
REMARK    2  A    between atoms: C2_7  and  N3_8 
REMARK    3  A    between atoms: C4_10  and  C5_11 
REMARK    4  A    between atoms: C5_11  and  N4_12 
REMARK    5  A    between atoms: C6_16  and  O1_17 
REMARK    6  A    between atoms: C7_19  and  O2_20 
REMARK    7  A    between atoms: C8_22  and  O3_23 
REMARK    8  A    between atoms: N7_34  and  C13_35 
REMARK    9  A    between atoms: C13_35  and  C14_36 
REMARK   10  A    between atoms: C14_36  and  O5_37 
REMARK   11  A    between atoms: C14_36  and  N8_39 
REMARK   12  A    between atoms: N8_39  and  C15_41 
REMARK   13  A    between atoms: C15_41  and  C16_42 
REMARK   14  A    between atoms: C15_41  and  C17_45 
REMARK   15  A    between atoms: C16_42  and  O6_43 
REMARK   16  A    between atoms: C17_45  and  C18_47 
REMARK   17  A    between atoms: C18_47  and  O8_48 
REMARK   18  A    between atoms: C18_47  and  O9_50 
ROOT
HETATM    1  C1  UNL     1     -19.971 -69.004 -52.059  1.00  0.00     0.144 C 
HETATM    2  N2  UNL     1     -19.963 -67.797 -51.484  1.00  0.00    -0.175 N 
ATOM      3  H2  UNL     1     -19.565 -67.049 -52.052  1.00  0.00     0.186 HD
HETATM    4  C2  UNL     1     -20.407 -67.417 -50.254  1.00  0.00     0.687 C 
HETATM    5  N5  UNL     1     -21.044 -68.241 -49.415  1.00  0.00    -0.154 N 
ATOM      6  H5  UNL     1     -21.684 -67.768 -48.776  1.00  0.00     0.187 HD
HETATM    7  C9  UNL     1     -20.999 -69.598 -49.251  1.00  0.00     0.289 C 
HETATM    8  O4  UNL     1     -21.306 -70.037 -48.140  1.00  0.00    -0.265 OA
HETATM    9  C10 UNL     1     -20.646 -70.550 -50.189  1.00  0.00     0.136 A 
HETATM   10  C11 UNL     1     -20.161 -70.243 -51.471  1.00  0.00     0.110 A 
HETATM   11  N6  UNL     1     -19.909 -71.417 -52.071  1.00  0.00    -0.347 N 
ATOM     12  H6  UNL     1     -19.544 -71.530 -53.017  1.00  0.00     0.167 HD
HETATM   13  C12 UNL     1     -20.209 -72.413 -51.237  1.00  0.00     0.184 A 
HETATM   14  N7  UNL     1     -20.673 -71.885 -50.057  1.00  0.00    -0.329 N 
ENDROOT
BRANCH   4  15
HETATM   15  N3  UNL     1     -20.183 -66.076 -49.844  1.00  0.00    -0.188 N 
HETATM   16  C3  UNL     1     -21.268 -65.243 -49.358  1.00  0.00     0.153 C 
HETATM   17  C4  UNL     1     -20.985 -64.734 -47.963  1.00  0.00     0.061 C 
HETATM   18  C6  UNL     1     -19.532 -64.712 -47.605  1.00  0.00     0.158 C 
HETATM   19  C7  UNL     1     -18.612 -64.526 -48.774  1.00  0.00     0.196 C 
HETATM   20  C8  UNL     1     -18.870 -65.467 -49.899  1.00  0.00     0.268 C 
BRANCH  17  21
HETATM   21  C5  UNL     1     -21.624 -63.346 -47.866  1.00  0.00     0.238 C 
BRANCH  21  22
HETATM   22  N4  UNL     1     -21.822 -62.879 -49.215  1.00  0.00    -0.079 N 
ATOM     23  H43 UNL     1     -21.586 -61.895 -49.337  1.00  0.00     0.274 HD
ATOM     24  H42 UNL     1     -21.143 -63.259 -49.874  1.00  0.00     0.274 HD
ATOM     25  H41 UNL     1     -22.787 -63.095 -49.465  1.00  0.00     0.274 HD
ENDBRANCH  21  22
ENDBRANCH  17  21
BRANCH  18  26
HETATM   26  O1  UNL     1     -19.224 -65.869 -46.861  1.00  0.00    -0.392 OA
ATOM     27  H1  UNL     1     -18.535 -65.663 -46.240  1.00  0.00     0.210 HD
ENDBRANCH  18  26
BRANCH  19  28
HETATM   28  O2  UNL     1     -18.655 -63.206 -49.193  1.00  0.00    -0.389 OA
ATOM     29  H2  UNL     1     -18.812 -63.173 -50.129  1.00  0.00     0.210 HD
ENDBRANCH  19  28
BRANCH  20  30
HETATM   30  O3  UNL     1     -17.871 -66.427 -50.061  1.00  0.00    -0.373 OA
ATOM     31  H3  UNL     1     -18.041 -66.980 -50.815  1.00  0.00     0.212 HD
ENDBRANCH  20  30
ENDBRANCH   4  15
BRANCH   1  32
HETATM   32  N1  UNL     1     -19.781 -69.072 -53.341  1.00  0.00    -0.383 N 
ATOM     33  H12 UNL     1     -19.136 -68.362 -53.689  1.00  0.00     0.157 HD
ATOM     34  H11 UNL     1     -20.270 -69.800 -53.862  1.00  0.00     0.157 HD
ENDBRANCH   1  32
BRANCH  14  35
HETATM   35  C13 UNL     1     -21.108 -72.627 -48.921  1.00  0.00     0.213 C 
BRANCH  35  36
HETATM   36  C14 UNL     1     -20.697 -74.091 -49.066  1.00  0.00     0.130 C 
BRANCH  36  37
HETATM   37  O5  UNL     1     -19.943 -74.579 -48.037  1.00  0.00    -0.348 OA
ATOM     38  H5  UNL     1     -19.086 -74.180 -47.946  1.00  0.00     0.219 HD
ENDBRANCH  36  37
BRANCH  36  39
HETATM   39  N8  UNL     1     -21.734 -74.928 -49.545  1.00  0.00    -0.359 N 
ATOM     40  H8  UNL     1     -21.546 -75.650 -50.241  1.00  0.00     0.162 HD
BRANCH  39  41
HETATM   41  C15 UNL     1     -23.053 -74.735 -49.025  1.00  0.00     0.181 C 
BRANCH  41  42
HETATM   42  C16 UNL     1     -23.235 -75.402 -47.674  1.00  0.00     0.197 C 
BRANCH  42  43
HETATM   43  O6  UNL     1     -23.445 -76.753 -47.874  1.00  0.00    -0.398 OA
ATOM     44  H6  UNL     1     -24.280 -76.991 -47.488  1.00  0.00     0.209 HD
ENDBRANCH  42  43
ENDBRANCH  41  42
BRANCH  41  45
HETATM   45  C17 UNL     1     -23.980 -75.393 -49.979  1.00  0.00     0.205 C 
HETATM   46  O7  UNL     1     -23.474 -76.099 -50.852  1.00  0.00    -0.290 OA
BRANCH  45  47
HETATM   47  C18 UNL     1     -25.429 -75.242 -49.938  1.00  0.00     0.327 C 
BRANCH  47  48
HETATM   48  O8  UNL     1     -25.956 -74.900 -51.201  1.00  0.00    -0.365 OA
ATOM     49  H8  UNL     1     -26.802 -74.475 -51.127  1.00  0.00     0.213 HD
ENDBRANCH  47  48
BRANCH  47  50
HETATM   50  O9  UNL     1     -26.150 -76.271 -49.386  1.00  0.00    -0.365 OA
ATOM     51  H9  UNL     1     -27.072 -76.323 -49.610  1.00  0.00     0.213 HD
ENDBRANCH  47  50
ENDBRANCH  45  47
ENDBRANCH  41  45
ENDBRANCH  39  41
ENDBRANCH  36  39
ENDBRANCH  35  36
ENDBRANCH  14  35
TORSDOF 18
ENDMDL
MODEL 5
REMARK VINA RESULT: -7.051186247      2.784      4.457
REMARK  18 active torsions:
REMARK  status: ('A' for Active; 'I' for Inactive)
REMARK    1  A    between atoms: N1_1  and  C1_4 
REMARK    2  A    between atoms: C2_7  and  N3_8 
REMARK    3  A    between atoms: C4_10  and  C5_11 
REMARK    4  A    between atoms: C5_11  and  N4_12 
REMARK    5  A    between atoms: C6_16  and  O1_17 
REMARK    6  A    between atoms: C7_19  and  O2_20 
REMARK    7  A    between atoms: C8_22  and  O3_23 
REMARK    8  A    between atoms: N7_34  and  C13_35 
REMARK    9  A    between atoms: C13_35  and  C14_36 
REMARK   10  A    between atoms: C14_36  and  O5_37 
REMARK   11  A    between atoms: C14_36  and  N8_39 
REMARK   12  A    between atoms: N8_39  and  C15_41 
REMARK   13  A    between atoms: C15_41  and  C16_42 
REMARK   14  A    between atoms: C15_41  and  C17_45 
REMARK   15  A    between atoms: C16_42  and  O6_43 
REMARK   16  A    between atoms: C17_45  and  C18_47 
REMARK   17  A    between atoms: C18_47  and  O8_48 
REMARK   18  A    between atoms: C18_47  and  O9_50 
ROOT
HETATM    1  C1  UNL     1     -20.017 -68.755 -51.576  1.00  0.00     0.144 C 
HETATM    2  N2  UNL     1     -20.013 -67.661 -50.808  1.00  0.00    -0.175 N 
ATOM      3  H2  UNL     1     -19.627 -66.824 -51.247  1.00  0.00     0.186 HD
HETATM    4  C2  UNL     1     -20.448 -67.495 -49.527  1.00  0.00     0.687 C 
HETATM    5  N5  UNL     1     -21.069 -68.453 -48.832  1.00  0.00    -0.154 N 
ATOM      6  H5  UNL     1     -21.706 -68.099 -48.118  1.00  0.00     0.187 HD
HETATM    7  C9  UNL     1     -21.012 -69.819 -48.897  1.00  0.00     0.289 C 
HETATM    8  O4  UNL     1     -21.304 -70.439 -47.872  1.00  0.00    -0.265 OA
HETATM    9  C10 UNL     1     -20.662 -70.597 -49.984  1.00  0.00     0.136 A 
HETATM   10  C11 UNL     1     -20.192 -70.076 -51.201  1.00  0.00     0.110 A 
HETATM   11  N6  UNL     1     -19.936 -71.131 -51.991  1.00  0.00    -0.347 N 
ATOM     12  H6  UNL     1     -19.580 -71.081 -52.945  1.00  0.00     0.167 HD
HETATM   13  C12 UNL     1     -20.221 -72.255 -51.332  1.00  0.00     0.184 A 
HETATM   14  N7  UNL     1     -20.676 -71.936 -50.076  1.00  0.00    -0.329 N 
ENDROOT
BRANCH   4  15
HETATM   15  N3  UNL     1     -20.230 -66.239 -48.902  1.00  0.00    -0.188 N 
HETATM   16  C3  UNL     1     -18.957 -65.913 -48.285  1.00  0.00     0.153 C 
HETATM   17  C4  UNL     1     -18.357 -64.666 -48.892  1.00  0.00     0.061 C 
HETATM   18  C6  UNL     1     -19.356 -63.766 -49.549  1.00  0.00     0.158 C 
HETATM   19  C7  UNL     1     -20.733 -63.838 -48.960  1.00  0.00     0.196 C 
HETATM   20  C8  UNL     1     -21.263 -65.226 -48.838  1.00  0.00     0.268 C 
BRANCH  17  21
HETATM   21  C5  UNL     1     -17.592 -63.957 -47.770  1.00  0.00     0.238 C 
BRANCH  21  22
HETATM   22  N4  UNL     1     -18.179 -64.386 -46.526  1.00  0.00    -0.079 N 
ATOM     23  H43 UNL     1     -18.638 -65.295 -46.592  1.00  0.00     0.274 HD
ATOM     24  H42 UNL     1     -17.485 -64.642 -45.823  1.00  0.00     0.274 HD
ATOM     25  H41 UNL     1     -18.804 -63.641 -46.220  1.00  0.00     0.274 HD
ENDBRANCH  21  22
ENDBRANCH  17  21
BRANCH  18  26
HETATM   26  O1  UNL     1     -19.355 -64.013 -50.938  1.00  0.00    -0.392 OA
ATOM     27  H1  UNL     1     -19.827 -63.316 -51.376  1.00  0.00     0.210 HD
ENDBRANCH  18  26
BRANCH  19  28
HETATM   28  O2  UNL     1     -20.752 -63.176 -47.744  1.00  0.00    -0.389 OA
ATOM     29  H2  UNL     1     -21.175 -62.331 -47.848  1.00  0.00     0.210 HD
ENDBRANCH  19  28
BRANCH  20  30
HETATM   30  O3  UNL     1     -22.303 -65.504 -49.725  1.00  0.00    -0.373 OA
ATOM     31  H3  UNL     1     -22.948 -64.807 -49.731  1.00  0.00     0.212 HD
ENDBRANCH  20  30
ENDBRANCH   4  15
BRANCH   1  32
HETATM   32  N1  UNL     1     -19.840 -68.606 -52.853  1.00  0.00    -0.383 N 
ATOM     33  H12 UNL     1     -19.439 -67.701 -53.099  1.00  0.00     0.157 HD
ATOM     34  H11 UNL     1     -20.104 -69.376 -53.468  1.00  0.00     0.157 HD
ENDBRANCH   1  32
BRANCH  14  35
HETATM   35  C13 UNL     1     -21.094 -72.861 -49.076  1.00  0.00     0.213 C 
BRANCH  35  36
HETATM   36  C14 UNL     1     -20.774 -74.287 -49.520  1.00  0.00     0.130 C 
BRANCH  36  37
HETATM   37  O5  UNL     1     -19.902 -74.957 -48.709  1.00  0.00    -0.348 OA
ATOM     38  H5  UNL     1     -20.025 -75.899 -48.683  1.00  0.00     0.219 HD
ENDBRANCH  36  37
BRANCH  36  39
HETATM   39  N8  UNL     1     -21.906 -75.011 -49.968  1.00  0.00    -0.359 N 
ATOM     40  H8  UNL     1     -21.834 -75.666 -50.746  1.00  0.00     0.162 HD
BRANCH  39  41
HETATM   41  C15 UNL     1     -23.153 -74.797 -49.300  1.00  0.00     0.181 C 
BRANCH  41  42
HETATM   42  C16 UNL     1     -23.188 -75.461 -47.936  1.00  0.00     0.197 C 
BRANCH  42  43
HETATM   43  O6  UNL     1     -23.550 -76.786 -48.100  1.00  0.00    -0.398 OA
ATOM     44  H6  UNL     1     -22.867 -77.228 -48.591  1.00  0.00     0.209 HD
ENDBRANCH  42  43
ENDBRANCH  41  42
BRANCH  41  45
HETATM   45  C17 UNL     1     -24.194 -75.441 -50.140  1.00  0.00     0.205 C 
HETATM   46  O7  UNL     1     -23.803 -76.176 -51.047  1.00  0.00    -0.290 OA
BRANCH  45  47
HETATM   47  C18 UNL     1     -25.625 -75.245 -49.950  1.00  0.00     0.327 C 
BRANCH  47  48
HETATM   48  O8  UNL     1     -26.260 -74.838 -51.142  1.00  0.00    -0.365 OA
ATOM     49  H8  UNL     1     -26.031 -73.947 -51.377  1.00  0.00     0.213 HD
ENDBRANCH  47  48
BRANCH  47  50
HETATM   50  O9  UNL     1     -26.326 -76.271 -49.366  1.00  0.00    -0.365 OA
ATOM     51  H9  UNL     1     -26.864 -76.808 -49.936  1.00  0.00     0.213 HD
ENDBRANCH  47  50
ENDBRANCH  45  47
ENDBRANCH  41  45
ENDBRANCH  39  41
ENDBRANCH  36  39
ENDBRANCH  35  36
ENDBRANCH  14  35
TORSDOF 18
ENDMDL
