MODEL 1
REMARK VINA RESULT: -5.294522704      0.000      0.000
REMARK  1 active torsions:
REMARK  status: ('A' for Active; 'I' for Inactive)
REMARK    1  A    between atoms: O1_3  and  C2_4 
ROOT
HETATM    1  N1  UNL     1      15.621  -6.073 -31.853  1.00  0.00    -0.164 NA
HETATM    2  C1  UNL     1      15.052  -5.391 -32.595  1.00  0.00     0.230 C 
HETATM    3  O1  UNL     1      14.399  -4.587 -33.481  1.00  0.00    -0.249 OA
ENDROOT
BRANCH   3   4
HETATM    4  C2  UNL     1      13.291  -5.077 -34.153  1.00  0.00     0.340 C 
HETATM    5  C3  UNL     1      12.009  -4.516 -33.526  1.00  0.00     0.063 C 
HETATM    6  C4  UNL     1      10.812  -5.183 -34.171  1.00  0.00     0.006 C 
HETATM    7  C5  UNL     1      10.877  -6.688 -34.009  1.00  0.00     0.028 C 
HETATM    8  C6  UNL     1      12.166  -7.135 -34.693  1.00  0.00     0.235 C 
HETATM    9  N2  UNL     1      13.257  -6.525 -33.961  1.00  0.00    -0.048 N 
ATOM     10  H22 UNL     1      14.152  -6.953 -34.201  1.00  0.00     0.280 HD
ATOM     11  H21 UNL     1      13.224  -6.770 -32.972  1.00  0.00     0.280 HD
ENDBRANCH   3   4
TORSDOF 1
ENDMDL
MODEL 2
REMARK VINA RESULT: -5.286492210      1.267      1.281
REMARK  1 active torsions:
REMARK  status: ('A' for Active; 'I' for Inactive)
REMARK    1  A    between atoms: O1_3  and  C2_4 
ROOT
HETATM    1  N1  UNL     1      15.685  -5.755 -31.873  1.00  0.00    -0.164 NA
HETATM    2  C1  UNL     1      14.999  -6.308 -32.624  1.00  0.00     0.230 C 
HETATM    3  O1  UNL     1      14.185  -6.971 -33.493  1.00  0.00    -0.249 OA
ENDROOT
BRANCH   3   4
HETATM    4  C2  UNL     1      13.164  -6.282 -34.125  1.00  0.00     0.340 C 
HETATM    5  C3  UNL     1      12.390  -5.440 -33.104  1.00  0.00     0.063 C 
HETATM    6  C4  UNL     1      11.188  -4.820 -33.785  1.00  0.00     0.006 C 
HETATM    7  C5  UNL     1      10.297  -5.886 -34.390  1.00  0.00     0.028 C 
HETATM    8  C6  UNL     1      11.156  -6.633 -35.405  1.00  0.00     0.235 C 
HETATM    9  N2  UNL     1      12.225  -7.266 -34.661  1.00  0.00    -0.048 N 
ATOM     10  H22 UNL     1      12.704  -7.970 -35.222  1.00  0.00     0.280 HD
ATOM     11  H21 UNL     1      11.859  -7.870 -33.925  1.00  0.00     0.280 HD
ENDBRANCH   3   4
TORSDOF 1
ENDMDL
MODEL 3
REMARK VINA RESULT: -5.286411415      1.758      2.024
REMARK  1 active torsions:
REMARK  status: ('A' for Active; 'I' for Inactive)
REMARK    1  A    between atoms: O1_3  and  C2_4 
ROOT
HETATM    1  N1  UNL     1      14.020  -3.553 -31.878  1.00  0.00    -0.164 NA
HETATM    2  C1  UNL     1      13.042  -3.751 -32.464  1.00  0.00     0.230 C 
HETATM    3  O1  UNL     1      11.889  -3.964 -33.160  1.00  0.00    -0.249 OA
ENDROOT
BRANCH   3   4
HETATM    4  C2  UNL     1      11.902  -4.824 -34.246  1.00  0.00     0.340 C 
HETATM    5  C3  UNL     1      10.581  -5.599 -34.315  1.00  0.00     0.063 C 
HETATM    6  C4  UNL     1      10.677  -6.641 -35.410  1.00  0.00     0.006 C 
HETATM    7  C5  UNL     1      11.840  -7.580 -35.166  1.00  0.00     0.028 C 
HETATM    8  C6  UNL     1      13.094  -6.710 -35.149  1.00  0.00     0.235 C 
HETATM    9  N2  UNL     1      12.959  -5.808 -34.024  1.00  0.00    -0.048 N 
ATOM     10  H22 UNL     1      13.846  -5.357 -33.800  1.00  0.00     0.280 HD
ATOM     11  H21 UNL     1      12.816  -6.319 -33.153  1.00  0.00     0.280 HD
ENDBRANCH   3   4
TORSDOF 1
ENDMDL
MODEL 4
REMARK VINA RESULT: -5.147929841      1.432      1.459
REMARK  1 active torsions:
REMARK  status: ('A' for Active; 'I' for Inactive)
REMARK    1  A    between atoms: O1_3  and  C2_4 
ROOT
HETATM    1  N1  UNL     1      14.047  -3.782 -32.017  1.00  0.00    -0.164 NA
HETATM    2  C1  UNL     1      13.705  -3.840 -33.121  1.00  0.00     0.230 C 
HETATM    3  O1  UNL     1      13.323  -3.913 -34.428  1.00  0.00    -0.249 OA
ENDROOT
BRANCH   3   4
HETATM    4  C2  UNL     1      12.474  -4.931 -34.830  1.00  0.00     0.340 C 
HETATM    5  C3  UNL     1      11.045  -4.638 -34.359  1.00  0.00     0.063 C 
HETATM    6  C4  UNL     1      10.168  -5.832 -34.671  1.00  0.00     0.006 C 
HETATM    7  C5  UNL     1      10.705  -7.087 -34.015  1.00  0.00     0.028 C 
HETATM    8  C6  UNL     1      12.107  -7.296 -34.579  1.00  0.00     0.235 C 
HETATM    9  N2  UNL     1      12.898  -6.158 -34.159  1.00  0.00    -0.048 N 
ATOM     10  H22 UNL     1      13.895  -6.329 -34.290  1.00  0.00     0.280 HD
ATOM     11  H21 UNL     1      12.887  -6.051 -33.145  1.00  0.00     0.280 HD
ENDBRANCH   3   4
TORSDOF 1
ENDMDL
MODEL 5
REMARK VINA RESULT: -5.027316276      1.039      1.216
REMARK  1 active torsions:
REMARK  status: ('A' for Active; 'I' for Inactive)
REMARK    1  A    between atoms: O1_3  and  C2_4 
ROOT
HETATM    1  N1  UNL     1      15.410  -7.030 -31.002  1.00  0.00    -0.164 NA
HETATM    2  C1  UNL     1      15.390  -6.302 -31.901  1.00  0.00     0.230 C 
HETATM    3  O1  UNL     1      15.384  -5.453 -32.968  1.00  0.00    -0.249 OA
ENDROOT
BRANCH   3   4
HETATM    4  C2  UNL     1      14.324  -5.492 -33.859  1.00  0.00     0.340 C 
HETATM    5  C3  UNL     1      13.450  -4.244 -33.686  1.00  0.00     0.063 C 
HETATM    6  C4  UNL     1      12.218  -4.381 -34.556  1.00  0.00     0.006 C 
HETATM    7  C5  UNL     1      11.443  -5.636 -34.206  1.00  0.00     0.028 C 
HETATM    8  C6  UNL     1      12.394  -6.804 -34.445  1.00  0.00     0.235 C 
HETATM    9  N2  UNL     1      13.493  -6.643 -33.515  1.00  0.00    -0.048 N 
ATOM     10  H22 UNL     1      14.049  -7.495 -33.444  1.00  0.00     0.280 HD
ATOM     11  H21 UNL     1      13.161  -6.588 -32.553  1.00  0.00     0.280 HD
ENDBRANCH   3   4
TORSDOF 1
ENDMDL
