MODEL 1
REMARK VINA RESULT: -5.115130476      0.000      0.000
REMARK  1 active torsions:
REMARK  status: ('A' for Active; 'I' for Inactive)
REMARK    1  A    between atoms: C2_2  and  C3_3 
ROOT
HETATM    1  C3  UNL     1      12.947  -5.559 -34.241  1.00  0.00     0.309 C 
HETATM    2  O1  UNL     1      12.678  -5.543 -35.584  1.00  0.00    -0.247 OA
HETATM    3  N1  UNL     1      11.677  -6.428 -35.821  1.00  0.00    -0.066 NA
HETATM    4  C4  UNL     1      10.907  -6.396 -34.610  1.00  0.00     0.241 C 
HETATM    5  C5  UNL     1       9.764  -5.415 -34.651  1.00  0.00     0.060 C 
HETATM    6  O2  UNL     1      11.770  -5.982 -33.595  1.00  0.00    -0.333 OA
ENDROOT
BRANCH   1   7
HETATM    7  C2  UNL     1      13.186  -4.161 -33.787  1.00  0.00     0.024 C 
HETATM    8  C1  UNL     1      12.690  -3.718 -32.638  1.00  0.00     0.012 C 
ENDBRANCH   1   7
TORSDOF 1
ENDMDL
MODEL 2
REMARK VINA RESULT: -5.063169380      2.681      3.558
REMARK  1 active torsions:
REMARK  status: ('A' for Active; 'I' for Inactive)
REMARK    1  A    between atoms: C2_2  and  C3_3 
ROOT
HETATM    1  C3  UNL     1      14.729  -5.348 -33.504  1.00  0.00     0.309 C 
HETATM    2  O1  UNL     1      14.715  -5.063 -32.164  1.00  0.00    -0.247 OA
HETATM    3  N1  UNL     1      14.158  -3.836 -32.003  1.00  0.00    -0.066 NA
HETATM    4  C4  UNL     1      13.228  -3.743 -33.091  1.00  0.00     0.241 C 
HETATM    5  C5  UNL     1      11.835  -4.188 -32.730  1.00  0.00     0.060 C 
HETATM    6  O2  UNL     1      13.690  -4.602 -34.090  1.00  0.00    -0.333 OA
ENDROOT
BRANCH   1   7
HETATM    7  C2  UNL     1      14.363  -6.780 -33.690  1.00  0.00     0.024 C 
HETATM    8  C1  UNL     1      13.383  -7.137 -34.511  1.00  0.00     0.012 C 
ENDBRANCH   1   7
TORSDOF 1
ENDMDL
MODEL 3
REMARK VINA RESULT: -4.894972338      2.492      3.278
REMARK  1 active torsions:
REMARK  status: ('A' for Active; 'I' for Inactive)
REMARK    1  A    between atoms: C2_2  and  C3_3 
ROOT
HETATM    1  C3  UNL     1      13.246  -4.562 -32.674  1.00  0.00     0.309 C 
HETATM    2  O1  UNL     1      14.456  -4.255 -33.238  1.00  0.00    -0.247 OA
HETATM    3  N1  UNL     1      15.313  -5.273 -32.972  1.00  0.00    -0.066 NA
HETATM    4  C4  UNL     1      14.459  -6.425 -32.916  1.00  0.00     0.241 C 
HETATM    5  C5  UNL     1      14.341  -7.149 -34.232  1.00  0.00     0.060 C 
HETATM    6  O2  UNL     1      13.184  -5.965 -32.583  1.00  0.00    -0.333 OA
ENDROOT
BRANCH   1   7
HETATM    7  C2  UNL     1      12.166  -4.161 -33.618  1.00  0.00     0.024 C 
HETATM    8  C1  UNL     1      11.251  -5.034 -34.022  1.00  0.00     0.012 C 
ENDBRANCH   1   7
TORSDOF 1
ENDMDL
MODEL 4
REMARK VINA RESULT: -4.834655301      1.576      2.931
REMARK  1 active torsions:
REMARK  status: ('A' for Active; 'I' for Inactive)
REMARK    1  A    between atoms: C2_2  and  C3_3 
ROOT
HETATM    1  C3  UNL     1      12.076  -5.095 -34.810  1.00  0.00     0.309 C 
HETATM    2  O1  UNL     1      12.456  -5.881 -35.865  1.00  0.00    -0.247 OA
HETATM    3  N1  UNL     1      13.812  -5.912 -35.898  1.00  0.00    -0.066 NA
HETATM    4  C4  UNL     1      14.184  -5.779 -34.519  1.00  0.00     0.241 C 
HETATM    5  C5  UNL     1      14.383  -7.100 -33.821  1.00  0.00     0.060 C 
HETATM    6  O2  UNL     1      13.130  -5.128 -33.878  1.00  0.00    -0.333 OA
ENDROOT
BRANCH   1   7
HETATM    7  C2  UNL     1      10.910  -5.732 -34.137  1.00  0.00     0.024 C 
HETATM    8  C1  UNL     1       9.669  -5.495 -34.546  1.00  0.00     0.012 C 
ENDBRANCH   1   7
TORSDOF 1
ENDMDL
MODEL 5
REMARK VINA RESULT: -4.764909717      2.174      3.259
REMARK  1 active torsions:
REMARK  status: ('A' for Active; 'I' for Inactive)
REMARK    1  A    between atoms: C2_2  and  C3_3 
ROOT
HETATM    1  C3  UNL     1      12.246  -4.599 -33.060  1.00  0.00     0.309 C 
HETATM    2  O1  UNL     1      13.243  -3.974 -33.761  1.00  0.00    -0.247 OA
HETATM    3  N1  UNL     1      14.432  -4.399 -33.266  1.00  0.00    -0.066 NA
HETATM    4  C4  UNL     1      14.156  -5.737 -32.829  1.00  0.00     0.241 C 
HETATM    5  C5  UNL     1      14.456  -6.784 -33.871  1.00  0.00     0.060 C 
HETATM    6  O2  UNL     1      12.787  -5.799 -32.565  1.00  0.00    -0.333 OA
ENDROOT
BRANCH   1   7
HETATM    7  C2  UNL     1      11.169  -4.992 -34.010  1.00  0.00     0.024 C 
HETATM    8  C1  UNL     1      10.706  -6.236 -34.046  1.00  0.00     0.012 C 
ENDBRANCH   1   7
TORSDOF 1
ENDMDL
