MODEL 1
REMARK VINA RESULT: -5.653029573      0.000      0.000
REMARK  2 active torsions:
REMARK  status: ('A' for Active; 'I' for Inactive)
REMARK    1  A    between atoms: C2_3  and  C3_4 
REMARK    2  A    between atoms: C3_4  and  C4_5 
ROOT
HETATM    1  N1  UNL     1      34.856   4.128   4.466  1.00  0.00    -0.197 NA
HETATM    2  C1  UNL     1      35.494   3.225   4.790  1.00  0.00     0.059 C 
HETATM    3  C2  UNL     1      36.333   2.071   5.195  1.00  0.00     0.124 C 
ENDROOT
BRANCH   3   4
HETATM    4  C3  UNL     1      35.583   0.821   4.791  1.00  0.00     0.020 C 
BRANCH   4   5
HETATM    5  C4  UNL     1      36.588  -0.197   4.357  1.00  0.00     0.014 C 
HETATM    6  C5  UNL     1      35.934  -1.188   3.439  1.00  0.00     0.034 C 
HETATM    7  C6  UNL     1      36.440  -2.535   3.843  1.00  0.00     0.232 C 
HETATM    8  N2  UNL     1      37.436  -2.326   4.851  1.00  0.00    -0.075 N 
HETATM    9  C7  UNL     1      37.167  -1.025   5.471  1.00  0.00     0.237 C 
ATOM     10  H22 UNL     1      37.483  -3.087   5.528  1.00  0.00     0.277 HD
ATOM     11  H21 UNL     1      38.387  -2.407   4.493  1.00  0.00     0.277 HD
ENDBRANCH   4   5
ENDBRANCH   3   4
TORSDOF 2
ENDMDL
MODEL 2
REMARK VINA RESULT: -5.605173714      1.699      2.293
REMARK  2 active torsions:
REMARK  status: ('A' for Active; 'I' for Inactive)
REMARK    1  A    between atoms: C2_3  and  C3_4 
REMARK    2  A    between atoms: C3_4  and  C4_5 
ROOT
HETATM    1  N1  UNL     1      34.466   2.608   2.224  1.00  0.00    -0.197 NA
HETATM    2  C1  UNL     1      35.083   1.669   2.480  1.00  0.00     0.059 C 
HETATM    3  C2  UNL     1      35.885   0.460   2.789  1.00  0.00     0.124 C 
ENDROOT
BRANCH   3   4
HETATM    4  C3  UNL     1      34.918  -0.593   3.285  1.00  0.00     0.020 C 
BRANCH   4   5
HETATM    5  C4  UNL     1      35.552  -1.286   4.448  1.00  0.00     0.014 C 
HETATM    6  C5  UNL     1      36.131  -0.266   5.383  1.00  0.00     0.034 C 
HETATM    7  C6  UNL     1      37.464  -0.793   5.809  1.00  0.00     0.232 C 
HETATM    8  N2  UNL     1      37.591  -2.109   5.258  1.00  0.00    -0.075 N 
HETATM    9  C7  UNL     1      36.703  -2.186   4.094  1.00  0.00     0.237 C 
ATOM     10  H22 UNL     1      38.556  -2.358   5.040  1.00  0.00     0.277 HD
ATOM     11  H21 UNL     1      37.416  -2.845   5.942  1.00  0.00     0.277 HD
ENDBRANCH   4   5
ENDBRANCH   3   4
TORSDOF 2
ENDMDL
MODEL 3
REMARK VINA RESULT: -5.593470486      0.828      1.501
REMARK  2 active torsions:
REMARK  status: ('A' for Active; 'I' for Inactive)
REMARK    1  A    between atoms: C2_3  and  C3_4 
REMARK    2  A    between atoms: C3_4  and  C4_5 
ROOT
HETATM    1  N1  UNL     1      34.919   4.056   4.545  1.00  0.00    -0.197 NA
HETATM    2  C1  UNL     1      35.428   3.035   4.379  1.00  0.00     0.059 C 
HETATM    3  C2  UNL     1      36.096   1.731   4.150  1.00  0.00     0.124 C 
ENDROOT
BRANCH   3   4
HETATM    4  C3  UNL     1      35.001   0.718   3.892  1.00  0.00     0.020 C 
BRANCH   4   5
HETATM    5  C4  UNL     1      35.385  -0.556   4.573  1.00  0.00     0.014 C 
HETATM    6  C5  UNL     1      36.470  -0.282   5.573  1.00  0.00     0.034 C 
HETATM    7  C6  UNL     1      37.459  -1.395   5.438  1.00  0.00     0.232 C 
HETATM    8  N2  UNL     1      36.911  -2.334   4.506  1.00  0.00    -0.075 N 
HETATM    9  C7  UNL     1      35.954  -1.610   3.664  1.00  0.00     0.237 C 
ATOM     10  H22 UNL     1      37.626  -2.822   3.966  1.00  0.00     0.277 HD
ATOM     11  H21 UNL     1      36.504  -3.152   4.958  1.00  0.00     0.277 HD
ENDBRANCH   4   5
ENDBRANCH   3   4
TORSDOF 2
ENDMDL
MODEL 4
REMARK VINA RESULT: -5.491631990      1.287      1.287
REMARK  2 active torsions:
REMARK  status: ('A' for Active; 'I' for Inactive)
REMARK    1  A    between atoms: C2_3  and  C3_4 
REMARK    2  A    between atoms: C3_4  and  C4_5 
ROOT
HETATM    1  N1  UNL     1      34.461   2.341   2.172  1.00  0.00    -0.197 NA
HETATM    2  C1  UNL     1      35.290   2.288   2.971  1.00  0.00     0.059 C 
HETATM    3  C2  UNL     1      36.373   2.219   3.982  1.00  0.00     0.124 C 
ENDROOT
BRANCH   3   4
HETATM    4  C3  UNL     1      36.051   1.052   4.890  1.00  0.00     0.020 C 
BRANCH   4   5
HETATM    5  C4  UNL     1      36.789  -0.143   4.381  1.00  0.00     0.014 C 
HETATM    6  C5  UNL     1      35.844  -1.032   3.627  1.00  0.00     0.034 C 
HETATM    7  C6  UNL     1      36.166  -2.434   4.037  1.00  0.00     0.232 C 
HETATM    8  N2  UNL     1      37.322  -2.371   4.879  1.00  0.00    -0.075 N 
HETATM    9  C7  UNL     1      37.377  -1.022   5.450  1.00  0.00     0.237 C 
ATOM     10  H22 UNL     1      37.339  -3.104   5.587  1.00  0.00     0.277 HD
ATOM     11  H21 UNL     1      38.181  -2.633   4.395  1.00  0.00     0.277 HD
ENDBRANCH   4   5
ENDBRANCH   3   4
TORSDOF 2
ENDMDL
MODEL 5
REMARK VINA RESULT: -5.291183637      1.148      1.298
REMARK  2 active torsions:
REMARK  status: ('A' for Active; 'I' for Inactive)
REMARK    1  A    between atoms: C2_3  and  C3_4 
REMARK    2  A    between atoms: C3_4  and  C4_5 
ROOT
HETATM    1  N1  UNL     1      36.364   3.324   4.087  1.00  0.00    -0.197 NA
HETATM    2  C1  UNL     1      35.731   2.477   3.627  1.00  0.00     0.059 C 
HETATM    3  C2  UNL     1      34.899   1.403   3.033  1.00  0.00     0.124 C 
ENDROOT
BRANCH   3   4
HETATM    4  C3  UNL     1      34.844   0.280   4.046  1.00  0.00     0.020 C 
BRANCH   4   5
HETATM    5  C4  UNL     1      36.181  -0.389   4.063  1.00  0.00     0.014 C 
HETATM    6  C5  UNL     1      36.086  -1.715   3.367  1.00  0.00     0.034 C 
HETATM    7  C6  UNL     1      36.866  -2.684   4.197  1.00  0.00     0.232 C 
HETATM    8  N2  UNL     1      37.492  -1.933   5.243  1.00  0.00    -0.075 N 
HETATM    9  C7  UNL     1      36.708  -0.709   5.434  1.00  0.00     0.237 C 
ATOM     10  H22 UNL     1      37.608  -2.469   6.103  1.00  0.00     0.277 HD
ATOM     11  H21 UNL     1      38.479  -1.749   5.066  1.00  0.00     0.277 HD
ENDBRANCH   4   5
ENDBRANCH   3   4
TORSDOF 2
ENDMDL
