MODEL 1
REMARK VINA RESULT: -7.318568139      0.000      0.000
REMARK  6 active torsions:
REMARK  status: ('A' for Active; 'I' for Inactive)
REMARK       I    between atoms: C1_2  and  N1_3 
REMARK    1  A    between atoms: C1_2  and  C8_14 
REMARK    2  A    between atoms: N1_3  and  N2_5 
REMARK    3  A    between atoms: C2_7  and  C3_8 
REMARK    4  A    between atoms: C3_8  and  C4_9 
REMARK    5  A    between atoms: C10_16  and  N3_17 
REMARK    6  A    between atoms: C13_22  and  O4_23 
ROOT
HETATM    1  O1  UNL     1     -15.625 -29.657 -12.582  1.00  0.00    -0.266 OA
HETATM    2  C1  UNL     1     -16.349 -29.574 -11.520  1.00  0.00     0.272 C 
HETATM    3  N1  UNL     1     -16.679 -30.804 -10.933  1.00  0.00    -0.266 N 
ATOM      4  H1  UNL     1     -17.251 -30.816 -10.088  1.00  0.00     0.190 HD
ENDROOT
BRANCH   2   5
HETATM    5  C8  UNL     1     -16.716 -28.245 -11.084  1.00  0.00     0.069 A 
HETATM    6  C9  UNL     1     -17.403 -27.438 -12.008  1.00  0.00     0.056 A 
HETATM    7  C10 UNL     1     -17.801 -26.163 -11.705  1.00  0.00     0.104 A 
HETATM    8  C11 UNL     1     -17.506 -25.672 -10.438  1.00  0.00     0.039 A 
HETATM    9  C12 UNL     1     -16.837 -26.433  -9.515  1.00  0.00     0.040 A 
HETATM   10  C13 UNL     1     -16.435 -27.732  -9.832  1.00  0.00     0.081 A 
BRANCH   7  11
HETATM   11  N3  UNL     1     -18.493 -25.375 -12.662  1.00  0.00    -0.116 N 
HETATM   12  O2  UNL     1     -19.404 -25.896 -13.320  1.00  0.00    -0.532 OA
HETATM   13  O3  UNL     1     -18.182 -24.069 -12.875  1.00  0.00    -0.532 OA
ENDBRANCH   7  11
BRANCH  10  14
HETATM   14  O4  UNL     1     -15.764 -28.477  -8.882  1.00  0.00    -0.360 OA
ATOM     15  H4  UNL     1     -15.120 -29.131  -9.128  1.00  0.00     0.217 HD
ENDBRANCH  10  14
ENDBRANCH   2   5
BRANCH   3  16
HETATM   16  N2  UNL     1     -16.236 -32.030 -11.488  1.00  0.00    -0.313 N 
HETATM   17  C2  UNL     1     -15.262 -32.643 -10.942  1.00  0.00     0.081 C 
ATOM     18  H2  UNL     1     -16.691 -32.417 -12.315  1.00  0.00     0.185 HD
BRANCH  17  19
HETATM   19  C3  UNL     1     -14.722 -33.935 -11.445  1.00  0.00     0.061 C 
BRANCH  19  20
HETATM   20  C4  UNL     1     -13.228 -34.038 -11.245  1.00  0.00     0.052 C 
HETATM   21  C5  UNL     1     -12.519 -33.340 -12.321  1.00  0.00     0.016 C 
HETATM   22  C6  UNL     1     -11.782 -34.198 -13.219  1.00  0.00     0.011 C 
HETATM   23  C7  UNL     1     -12.187 -35.610 -13.176  1.00  0.00     0.074 C 
HETATM   24  S1  UNL     1     -12.748 -35.777 -11.435  1.00  0.00    -0.164 SA
ENDBRANCH  19  20
ENDBRANCH  17  19
ENDBRANCH   3  16
TORSDOF 6
ENDMDL
MODEL 2
REMARK VINA RESULT: -7.212281998      0.920      1.363
REMARK  6 active torsions:
REMARK  status: ('A' for Active; 'I' for Inactive)
REMARK       I    between atoms: C1_2  and  N1_3 
REMARK    1  A    between atoms: C1_2  and  C8_14 
REMARK    2  A    between atoms: N1_3  and  N2_5 
REMARK    3  A    between atoms: C2_7  and  C3_8 
REMARK    4  A    between atoms: C3_8  and  C4_9 
REMARK    5  A    between atoms: C10_16  and  N3_17 
REMARK    6  A    between atoms: C13_22  and  O4_23 
ROOT
HETATM    1  O1  UNL     1     -15.694 -29.681 -12.619  1.00  0.00    -0.266 OA
HETATM    2  C1  UNL     1     -16.362 -29.591 -11.521  1.00  0.00     0.272 C 
HETATM    3  N1  UNL     1     -16.659 -30.817 -10.908  1.00  0.00    -0.266 N 
ATOM      4  H1  UNL     1     -17.186 -30.823 -10.034  1.00  0.00     0.190 HD
ENDROOT
BRANCH   2   5
HETATM    5  C8  UNL     1     -16.710 -28.259 -11.077  1.00  0.00     0.069 A 
HETATM    6  C9  UNL     1     -17.389 -27.438 -11.995  1.00  0.00     0.056 A 
HETATM    7  C10 UNL     1     -17.768 -26.159 -11.684  1.00  0.00     0.104 A 
HETATM    8  C11 UNL     1     -17.462 -25.679 -10.416  1.00  0.00     0.039 A 
HETATM    9  C12 UNL     1     -16.801 -26.454  -9.499  1.00  0.00     0.040 A 
HETATM   10  C13 UNL     1     -16.418 -27.757  -9.824  1.00  0.00     0.081 A 
BRANCH   7  11
HETATM   11  N3  UNL     1     -18.453 -25.358 -12.635  1.00  0.00    -0.116 N 
HETATM   12  O2  UNL     1     -18.046 -24.209 -12.854  1.00  0.00    -0.532 OA
HETATM   13  O3  UNL     1     -19.541 -25.817 -13.308  1.00  0.00    -0.532 OA
ENDBRANCH   7  11
BRANCH  10  14
HETATM   14  O4  UNL     1     -15.753 -28.515  -8.879  1.00  0.00    -0.360 OA
ATOM     15  H4  UNL     1     -15.286 -28.111  -8.158  1.00  0.00     0.217 HD
ENDBRANCH  10  14
ENDBRANCH   2   5
BRANCH   3  16
HETATM   16  N2  UNL     1     -16.242 -32.046 -11.476  1.00  0.00    -0.313 N 
HETATM   17  C2  UNL     1     -15.225 -32.641 -10.991  1.00  0.00     0.081 C 
ATOM     18  H2  UNL     1     -16.749 -32.450 -12.263  1.00  0.00     0.185 HD
BRANCH  17  19
HETATM   19  C3  UNL     1     -14.706 -33.935 -11.512  1.00  0.00     0.061 C 
BRANCH  19  20
HETATM   20  C4  UNL     1     -13.801 -34.623 -10.518  1.00  0.00     0.052 C 
HETATM   21  C5  UNL     1     -13.166 -33.638  -9.637  1.00  0.00     0.016 C 
HETATM   22  C6  UNL     1     -11.740 -33.493  -9.818  1.00  0.00     0.011 C 
HETATM   23  C7  UNL     1     -11.235 -34.019 -11.094  1.00  0.00     0.074 C 
HETATM   24  S1  UNL     1     -12.426 -35.378 -11.428  1.00  0.00    -0.164 SA
ENDBRANCH  19  20
ENDBRANCH  17  19
ENDBRANCH   3  16
TORSDOF 6
ENDMDL
MODEL 3
REMARK VINA RESULT: -7.111044912      4.464      5.177
REMARK  6 active torsions:
REMARK  status: ('A' for Active; 'I' for Inactive)
REMARK       I    between atoms: C1_2  and  N1_3 
REMARK    1  A    between atoms: C1_2  and  C8_14 
REMARK    2  A    between atoms: N1_3  and  N2_5 
REMARK    3  A    between atoms: C2_7  and  C3_8 
REMARK    4  A    between atoms: C3_8  and  C4_9 
REMARK    5  A    between atoms: C10_16  and  N3_17 
REMARK    6  A    between atoms: C13_22  and  O4_23 
ROOT
HETATM    1  O1  UNL     1     -16.228 -30.547  -7.574  1.00  0.00    -0.266 OA
HETATM    2  C1  UNL     1     -15.440 -29.876  -8.342  1.00  0.00     0.272 C 
HETATM    3  N1  UNL     1     -14.147 -29.682  -7.836  1.00  0.00    -0.266 N 
ATOM      4  H1  UNL     1     -13.467 -29.160  -8.389  1.00  0.00     0.190 HD
ENDROOT
BRANCH   2   5
HETATM    5  C8  UNL     1     -15.987 -29.423  -9.602  1.00  0.00     0.069 A 
HETATM    6  C9  UNL     1     -15.764 -28.078  -9.946  1.00  0.00     0.056 A 
HETATM    7  C10 UNL     1     -16.234 -27.539 -11.114  1.00  0.00     0.104 A 
HETATM    8  C11 UNL     1     -16.952 -28.366 -11.971  1.00  0.00     0.039 A 
HETATM    9  C12 UNL     1     -17.187 -29.681 -11.664  1.00  0.00     0.040 A 
HETATM   10  C13 UNL     1     -16.704 -30.223 -10.471  1.00  0.00     0.081 A 
BRANCH   7  11
HETATM   11  N3  UNL     1     -15.990 -26.177 -11.431  1.00  0.00    -0.116 N 
HETATM   12  O2  UNL     1     -14.829 -25.751 -11.387  1.00  0.00    -0.532 OA
HETATM   13  O3  UNL     1     -16.996 -25.331 -11.780  1.00  0.00    -0.532 OA
ENDBRANCH   7  11
BRANCH  10  14
HETATM   14  O4  UNL     1     -16.955 -31.551 -10.188  1.00  0.00    -0.360 OA
ATOM     15  H4  UNL     1     -17.567 -32.061 -10.705  1.00  0.00     0.217 HD
ENDBRANCH  10  14
ENDBRANCH   2   5
BRANCH   3  16
HETATM   16  N2  UNL     1     -13.764 -30.196  -6.572  1.00  0.00    -0.313 N 
HETATM   17  C2  UNL     1     -12.576 -29.998  -6.155  1.00  0.00     0.081 C 
ATOM     18  H2  UNL     1     -14.431 -30.717  -6.003  1.00  0.00     0.185 HD
BRANCH  17  19
HETATM   19  C3  UNL     1     -12.074 -30.494  -4.845  1.00  0.00     0.061 C 
BRANCH  19  20
HETATM   20  C4  UNL     1     -10.738 -31.186  -4.977  1.00  0.00     0.052 C 
HETATM   21  C5  UNL     1     -10.534 -31.646  -6.353  1.00  0.00     0.016 C 
HETATM   22  C6  UNL     1     -10.537 -33.080  -6.521  1.00  0.00     0.011 C 
HETATM   23  C7  UNL     1     -11.146 -33.818  -5.406  1.00  0.00     0.074 C 
HETATM   24  S1  UNL     1     -10.786 -32.707  -3.989  1.00  0.00    -0.164 SA
ENDBRANCH  19  20
ENDBRANCH  17  19
ENDBRANCH   3  16
TORSDOF 6
ENDMDL
MODEL 4
REMARK VINA RESULT: -7.019095315      3.912      4.902
REMARK  6 active torsions:
REMARK  status: ('A' for Active; 'I' for Inactive)
REMARK       I    between atoms: C1_2  and  N1_3 
REMARK    1  A    between atoms: C1_2  and  C8_14 
REMARK    2  A    between atoms: N1_3  and  N2_5 
REMARK    3  A    between atoms: C2_7  and  C3_8 
REMARK    4  A    between atoms: C3_8  and  C4_9 
REMARK    5  A    between atoms: C10_16  and  N3_17 
REMARK    6  A    between atoms: C13_22  and  O4_23 
ROOT
HETATM    1  O1  UNL     1     -13.491 -30.345 -14.817  1.00  0.00    -0.266 OA
HETATM    2  C1  UNL     1     -12.760 -29.462 -14.229  1.00  0.00     0.272 C 
HETATM    3  N1  UNL     1     -11.420 -29.433 -14.643  1.00  0.00    -0.266 N 
ATOM      4  H1  UNL     1     -10.781 -28.759 -14.221  1.00  0.00     0.190 HD
ENDROOT
BRANCH   2   5
HETATM    5  C8  UNL     1     -13.409 -28.633 -13.237  1.00  0.00     0.069 A 
HETATM    6  C9  UNL     1     -14.743 -28.947 -12.919  1.00  0.00     0.056 A 
HETATM    7  C10 UNL     1     -15.457 -28.231 -11.995  1.00  0.00     0.104 A 
HETATM    8  C11 UNL     1     -14.824 -27.166 -11.365  1.00  0.00     0.039 A 
HETATM    9  C12 UNL     1     -13.526 -26.835 -11.653  1.00  0.00     0.040 A 
HETATM   10  C13 UNL     1     -12.804 -27.569 -12.597  1.00  0.00     0.081 A 
BRANCH   7  11
HETATM   11  N3  UNL     1     -16.802 -28.575 -11.698  1.00  0.00    -0.116 N 
HETATM   12  O2  UNL     1     -17.669 -27.693 -11.742  1.00  0.00    -0.532 OA
HETATM   13  O3  UNL     1     -17.160 -29.844 -11.366  1.00  0.00    -0.532 OA
ENDBRANCH   7  11
BRANCH  10  14
HETATM   14  O4  UNL     1     -11.497 -27.213 -12.866  1.00  0.00    -0.360 OA
ATOM     15  H4  UNL     1     -11.107 -26.434 -12.489  1.00  0.00     0.217 HD
ENDBRANCH  10  14
ENDBRANCH   2   5
BRANCH   3  16
HETATM   16  N2  UNL     1     -10.935 -30.320 -15.636  1.00  0.00    -0.313 N 
HETATM   17  C2  UNL     1     -10.256 -31.338 -15.281  1.00  0.00     0.081 C 
ATOM     18  H2  UNL     1     -11.128 -30.147 -16.623  1.00  0.00     0.185 HD
BRANCH  17  19
HETATM   19  C3  UNL     1      -9.703 -32.330 -16.243  1.00  0.00     0.061 C 
BRANCH  19  20
HETATM   20  C4  UNL     1      -9.854 -33.747 -15.743  1.00  0.00     0.052 C 
HETATM   21  C5  UNL     1     -10.265 -33.752 -14.336  1.00  0.00     0.016 C 
HETATM   22  C6  UNL     1      -9.269 -34.247 -13.415  1.00  0.00     0.011 C 
HETATM   23  C7  UNL     1      -7.902 -34.265 -13.954  1.00  0.00     0.074 C 
HETATM   24  S1  UNL     1      -8.217 -34.528 -15.744  1.00  0.00    -0.164 SA
ENDBRANCH  19  20
ENDBRANCH  17  19
ENDBRANCH   3  16
TORSDOF 6
ENDMDL
MODEL 5
REMARK VINA RESULT: -7.018814397      3.805      4.836
REMARK  6 active torsions:
REMARK  status: ('A' for Active; 'I' for Inactive)
REMARK       I    between atoms: C1_2  and  N1_3 
REMARK    1  A    between atoms: C1_2  and  C8_14 
REMARK    2  A    between atoms: N1_3  and  N2_5 
REMARK    3  A    between atoms: C2_7  and  C3_8 
REMARK    4  A    between atoms: C3_8  and  C4_9 
REMARK    5  A    between atoms: C10_16  and  N3_17 
REMARK    6  A    between atoms: C13_22  and  O4_23 
ROOT
HETATM    1  O1  UNL     1     -13.476 -30.413 -14.743  1.00  0.00    -0.266 OA
HETATM    2  C1  UNL     1     -12.769 -29.463 -14.236  1.00  0.00     0.272 C 
HETATM    3  N1  UNL     1     -11.461 -29.371 -14.732  1.00  0.00    -0.266 N 
ATOM      4  H1  UNL     1     -10.843 -28.641 -14.376  1.00  0.00     0.190 HD
ENDROOT
BRANCH   2   5
HETATM    5  C8  UNL     1     -13.412 -28.633 -13.240  1.00  0.00     0.069 A 
HETATM    6  C9  UNL     1     -14.747 -28.938 -12.922  1.00  0.00     0.056 A 
HETATM    7  C10 UNL     1     -15.455 -28.220 -11.995  1.00  0.00     0.104 A 
HETATM    8  C11 UNL     1     -14.813 -27.163 -11.360  1.00  0.00     0.039 A 
HETATM    9  C12 UNL     1     -13.512 -26.840 -11.648  1.00  0.00     0.040 A 
HETATM   10  C13 UNL     1     -12.797 -27.577 -12.596  1.00  0.00     0.081 A 
BRANCH   7  11
HETATM   11  N3  UNL     1     -16.802 -28.555 -11.697  1.00  0.00    -0.116 N 
HETATM   12  O2  UNL     1     -17.663 -27.666 -11.740  1.00  0.00    -0.532 OA
HETATM   13  O3  UNL     1     -17.169 -29.822 -11.366  1.00  0.00    -0.532 OA
ENDBRANCH   7  11
BRANCH  10  14
HETATM   14  O4  UNL     1     -11.488 -27.230 -12.866  1.00  0.00    -0.360 OA
ATOM     15  H4  UNL     1     -10.765 -27.605 -12.376  1.00  0.00     0.217 HD
ENDBRANCH  10  14
ENDBRANCH   2   5
BRANCH   3  16
HETATM   16  N2  UNL     1     -10.980 -30.269 -15.717  1.00  0.00    -0.313 N 
HETATM   17  C2  UNL     1     -10.260 -31.256 -15.357  1.00  0.00     0.081 C 
ATOM     18  H2  UNL     1     -11.206 -30.126 -16.701  1.00  0.00     0.185 HD
BRANCH  17  19
HETATM   19  C3  UNL     1      -9.706 -32.256 -16.310  1.00  0.00     0.061 C 
BRANCH  19  20
HETATM   20  C4  UNL     1      -9.045 -33.412 -15.596  1.00  0.00     0.052 C 
HETATM   21  C5  UNL     1      -9.673 -34.679 -15.982  1.00  0.00     0.016 C 
HETATM   22  C6  UNL     1     -10.419 -35.331 -14.931  1.00  0.00     0.011 C 
HETATM   23  C7  UNL     1     -10.779 -34.452 -13.809  1.00  0.00     0.074 C 
HETATM   24  S1  UNL     1      -9.387 -33.253 -13.821  1.00  0.00    -0.164 SA
ENDBRANCH  19  20
ENDBRANCH  17  19
ENDBRANCH   3  16
TORSDOF 6
ENDMDL
