MODEL 1
REMARK VINA RESULT: -6.783126860      0.000      0.000
REMARK  4 active torsions:
REMARK  status: ('A' for Active; 'I' for Inactive)
REMARK    1  A    between atoms: C4_5  and  N2_6 
REMARK       I    between atoms: N2_6  and  C5_8 
REMARK    2  A    between atoms: C5_8  and  C6_10 
REMARK    3  A    between atoms: C8_12  and  C9_13 
REMARK    4  A    between atoms: N3_16  and  C12_17 
ROOT
HETATM    1  C6  UNL     1      10.635   0.311  13.347  1.00  0.00     0.118 A 
HETATM    2  C7  UNL     1      10.525   0.739  12.043  1.00  0.00     0.063 A 
HETATM    3  C8  UNL     1       9.969  -0.311  11.342  1.00  0.00     0.036 A 
HETATM    4  N3  UNL     1       9.750  -1.333  12.180  1.00  0.00    -0.287 N 
HETATM    5  N4  UNL     1      10.160  -0.920  13.365  1.00  0.00    -0.292 N 
ATOM      6  H4  UNL     1      10.116  -1.493  14.208  1.00  0.00     0.187 HD
ENDROOT
BRANCH   1   7
HETATM    7  C5  UNL     1      11.179   1.131  14.416  1.00  0.00     0.270 C 
HETATM    8  N2  UNL     1      11.226   0.678  15.760  1.00  0.00    -0.349 N 
ATOM      9  H2  UNL     1      10.865  -0.250  15.976  1.00  0.00     0.163 HD
HETATM   10  O1  UNL     1      11.635   2.287  14.178  1.00  0.00    -0.266 OA
BRANCH   8  11
HETATM   11  C4  UNL     1      11.761   1.477  16.828  1.00  0.00     0.120 C 
HETATM   12  C3  UNL     1      13.282   1.329  16.962  1.00  0.00     0.064 C 
HETATM   13  C2  UNL     1      13.453   0.978  18.437  1.00  0.00     0.243 C 
HETATM   14  N1  UNL     1      12.333   1.722  19.011  1.00  0.00     0.097 N 
HETATM   15  C18 UNL     1      13.015  -0.445  18.589  1.00  0.00     0.118 C 
HETATM   16  C1  UNL     1      12.164   1.534  20.406  1.00  0.00     0.311 C 
HETATM   17  C16 UNL     1      11.267   1.120  18.194  1.00  0.00     0.247 C 
HETATM   18  C17 UNL     1      11.490  -0.325  18.453  1.00  0.00     0.060 C 
HETATM   19 CL1  UNL     1      13.489  -1.186  20.109  1.00  0.00    -0.123 Cl
ENDBRANCH   8  11
ENDBRANCH   1   7
BRANCH   3  20
HETATM   20  C9  UNL     1       9.675  -0.285   9.905  1.00  0.00     0.037 A 
HETATM   21  C10 UNL     1      10.358   0.664   8.989  1.00  0.00     0.011 A 
HETATM   22  C11 UNL     1       9.010   1.032   9.431  1.00  0.00     0.011 A 
ENDBRANCH   3  20
BRANCH   4  23
HETATM   23  C12 UNL     1       9.198  -2.622  11.937  1.00  0.00     0.043 C 
HETATM   24  C13 UNL     1       7.747  -2.633  12.390  1.00  0.00     0.039 C 
HETATM   25  C14 UNL     1       9.875  -3.696  12.808  1.00  0.00     0.039 C 
HETATM   26  C15 UNL     1       9.239  -3.081  10.528  1.00  0.00     0.039 C 
ENDBRANCH   4  23
TORSDOF 4
ENDMDL
MODEL 2
REMARK VINA RESULT: -6.596348409      1.462      3.017
REMARK  4 active torsions:
REMARK  status: ('A' for Active; 'I' for Inactive)
REMARK    1  A    between atoms: C4_5  and  N2_6 
REMARK       I    between atoms: N2_6  and  C5_8 
REMARK    2  A    between atoms: C5_8  and  C6_10 
REMARK    3  A    between atoms: C8_12  and  C9_13 
REMARK    4  A    between atoms: N3_16  and  C12_17 
ROOT
HETATM    1  C6  UNL     1      11.203   1.683  13.071  1.00  0.00     0.118 A 
HETATM    2  C7  UNL     1      10.292   0.664  12.908  1.00  0.00     0.063 A 
HETATM    3  C8  UNL     1      10.196   0.453  11.548  1.00  0.00     0.036 A 
HETATM    4  N3  UNL     1      11.010   1.305  10.911  1.00  0.00    -0.287 N 
HETATM    5  N4  UNL     1      11.593   2.020  11.857  1.00  0.00    -0.292 N 
ATOM      6  H4  UNL     1      12.273   2.756  11.668  1.00  0.00     0.187 HD
ENDROOT
BRANCH   1   7
HETATM    7  C5  UNL     1      11.591   2.210  14.369  1.00  0.00     0.270 C 
HETATM    8  N2  UNL     1      11.931   1.361  15.453  1.00  0.00    -0.349 N 
ATOM      9  H2  UNL     1      11.900   0.352  15.313  1.00  0.00     0.163 HD
HETATM   10  O1  UNL     1      11.640   3.458  14.573  1.00  0.00    -0.266 OA
BRANCH   8  11
HETATM   11  C4  UNL     1      12.316   1.867  16.742  1.00  0.00     0.120 C 
HETATM   12  C3  UNL     1      13.638   1.263  17.234  1.00  0.00     0.064 C 
HETATM   13  C2  UNL     1      13.270   0.748  18.622  1.00  0.00     0.243 C 
HETATM   14  N1  UNL     1      12.264   1.737  19.008  1.00  0.00     0.097 N 
HETATM   15  C18 UNL     1      12.453  -0.488  18.416  1.00  0.00     0.118 C 
HETATM   16  C1  UNL     1      11.650   1.485  20.260  1.00  0.00     0.311 C 
HETATM   17  C16 UNL     1      11.368   1.553  17.856  1.00  0.00     0.247 C 
HETATM   18  C17 UNL     1      11.122   0.090  17.915  1.00  0.00     0.060 C 
HETATM   19 CL1  UNL     1      12.251  -1.469  19.858  1.00  0.00    -0.123 Cl
ENDBRANCH   8  11
ENDBRANCH   1   7
BRANCH   3  20
HETATM   20  C9  UNL     1       9.328  -0.552  10.925  1.00  0.00     0.037 A 
HETATM   21  C10 UNL     1       8.543  -1.515  11.740  1.00  0.00     0.011 A 
HETATM   22  C11 UNL     1       9.796  -2.010  11.164  1.00  0.00     0.011 A 
ENDBRANCH   3  20
BRANCH   4  23
HETATM   23  C12 UNL     1      11.261   1.476   9.520  1.00  0.00     0.043 C 
HETATM   24  C13 UNL     1      12.668   0.995   9.207  1.00  0.00     0.039 C 
HETATM   25  C14 UNL     1      11.273   2.966   9.131  1.00  0.00     0.039 C 
HETATM   26  C15 UNL     1      10.325   0.772   8.610  1.00  0.00     0.039 C 
ENDBRANCH   4  23
TORSDOF 4
ENDMDL
MODEL 3
REMARK VINA RESULT: -6.534320746      1.850      2.557
REMARK  4 active torsions:
REMARK  status: ('A' for Active; 'I' for Inactive)
REMARK    1  A    between atoms: C4_5  and  N2_6 
REMARK       I    between atoms: N2_6  and  C5_8 
REMARK    2  A    between atoms: C5_8  and  C6_10 
REMARK    3  A    between atoms: C8_12  and  C9_13 
REMARK    4  A    between atoms: N3_16  and  C12_17 
ROOT
HETATM    1  C6  UNL     1      11.783   0.503  15.341  1.00  0.00     0.118 A 
HETATM    2  C7  UNL     1      12.059   1.008  14.090  1.00  0.00     0.063 A 
HETATM    3  C8  UNL     1      11.129   0.449  13.239  1.00  0.00     0.036 A 
HETATM    4  N3  UNL     1      10.322  -0.360  13.938  1.00  0.00    -0.287 N 
HETATM    5  N4  UNL     1      10.747  -0.299  15.187  1.00  0.00    -0.292 N 
ATOM      6  H4  UNL     1      10.318  -0.817  15.953  1.00  0.00     0.187 HD
ENDROOT
BRANCH   1   7
HETATM    7  C5  UNL     1      12.543   0.848  16.531  1.00  0.00     0.270 C 
HETATM    8  N2  UNL     1      12.510   0.048  17.701  1.00  0.00    -0.349 N 
ATOM      9  H2  UNL     1      11.934  -0.794  17.703  1.00  0.00     0.163 HD
HETATM   10  O1  UNL     1      13.267   1.885  16.558  1.00  0.00    -0.266 OA
BRANCH   8  11
HETATM   11  C4  UNL     1      13.256   0.375  18.885  1.00  0.00     0.120 C 
HETATM   12  C3  UNL     1      13.730  -0.873  19.640  1.00  0.00     0.064 C 
HETATM   13  C2  UNL     1      13.227  -0.615  21.057  1.00  0.00     0.243 C 
HETATM   14  N1  UNL     1      13.326   0.844  21.105  1.00  0.00     0.097 N 
HETATM   15  C18 UNL     1      11.748  -0.843  21.032  1.00  0.00     0.118 C 
HETATM   16  C1  UNL     1      12.841   1.420  22.306  1.00  0.00     0.311 C 
HETATM   17  C16 UNL     1      12.491   1.129  19.927  1.00  0.00     0.247 C 
HETATM   18  C17 UNL     1      11.248   0.395  20.274  1.00  0.00     0.060 C 
HETATM   19 CL1  UNL     1      11.015  -0.990  22.621  1.00  0.00    -0.123 Cl
ENDBRANCH   8  11
ENDBRANCH   1   7
BRANCH   3  20
HETATM   20  C9  UNL     1      11.058   0.717  11.798  1.00  0.00     0.037 A 
HETATM   21  C10 UNL     1      11.512   2.010  11.224  1.00  0.00     0.011 A 
HETATM   22  C11 UNL     1      10.070   1.850  11.425  1.00  0.00     0.011 A 
ENDBRANCH   3  20
BRANCH   4  23
HETATM   23  C12 UNL     1       9.220  -1.154  13.513  1.00  0.00     0.043 C 
HETATM   24  C13 UNL     1       7.962  -0.301  13.522  1.00  0.00     0.039 C 
HETATM   25  C14 UNL     1       8.921  -2.283  14.517  1.00  0.00     0.039 C 
HETATM   26  C15 UNL     1       9.350  -1.761  12.166  1.00  0.00     0.039 C 
ENDBRANCH   4  23
TORSDOF 4
ENDMDL
MODEL 4
REMARK VINA RESULT: -6.507641486      4.779      5.356
REMARK  4 active torsions:
REMARK  status: ('A' for Active; 'I' for Inactive)
REMARK    1  A    between atoms: C4_5  and  N2_6 
REMARK       I    between atoms: N2_6  and  C5_8 
REMARK    2  A    between atoms: C5_8  and  C6_10 
REMARK    3  A    between atoms: C8_12  and  C9_13 
REMARK    4  A    between atoms: N3_16  and  C12_17 
ROOT
HETATM    1  C6  UNL     1       7.739   1.175  14.049  1.00  0.00     0.118 A 
HETATM    2  C7  UNL     1       8.945   1.738  13.695  1.00  0.00     0.063 A 
HETATM    3  C8  UNL     1       9.618   0.774  12.974  1.00  0.00     0.036 A 
HETATM    4  N3  UNL     1       8.858  -0.326  12.892  1.00  0.00    -0.287 N 
HETATM    5  N4  UNL     1       7.746  -0.044  13.546  1.00  0.00    -0.292 N 
ATOM      6  H4  UNL     1       6.973  -0.701  13.651  1.00  0.00     0.187 HD
ENDROOT
BRANCH   1   7
HETATM    7  C5  UNL     1       6.726   1.872  14.824  1.00  0.00     0.270 C 
HETATM    8  N2  UNL     1       6.966   3.146  15.400  1.00  0.00    -0.349 N 
ATOM      9  H2  UNL     1       7.879   3.581  15.263  1.00  0.00     0.163 HD
HETATM   10  O1  UNL     1       5.586   1.358  15.010  1.00  0.00    -0.266 OA
BRANCH   8  11
HETATM   11  C4  UNL     1       5.976   3.848  16.169  1.00  0.00     0.120 C 
HETATM   12  C3  UNL     1       6.011   5.362  15.923  1.00  0.00     0.064 C 
HETATM   13  C2  UNL     1       6.109   5.925  17.338  1.00  0.00     0.243 C 
HETATM   14  N1  UNL     1       5.348   4.915  18.072  1.00  0.00     0.097 N 
HETATM   15  C18 UNL     1       7.511   5.680  17.798  1.00  0.00     0.118 C 
HETATM   16  C1  UNL     1       5.318   5.115  19.475  1.00  0.00     0.311 C 
HETATM   17  C16 UNL     1       6.135   3.744  17.653  1.00  0.00     0.247 C 
HETATM   18  C17 UNL     1       7.504   4.165  18.047  1.00  0.00     0.060 C 
HETATM   19 CL1  UNL     1       7.968   6.586  19.232  1.00  0.00    -0.123 Cl
ENDBRANCH   8  11
ENDBRANCH   1   7
BRANCH   3  20
HETATM   20  C9  UNL     1      10.956   0.953  12.400  1.00  0.00     0.037 A 
HETATM   21  C10 UNL     1      11.566   2.300  12.253  1.00  0.00     0.011 A 
HETATM   22  C11 UNL     1      10.956   1.719  11.053  1.00  0.00     0.011 A 
ENDBRANCH   3  20
BRANCH   4  23
HETATM   23  C12 UNL     1       9.111  -1.576  12.259  1.00  0.00     0.043 C 
HETATM   24  C13 UNL     1       7.909  -2.485  12.460  1.00  0.00     0.039 C 
HETATM   25  C14 UNL     1      10.273  -2.325  12.936  1.00  0.00     0.039 C 
HETATM   26  C15 UNL     1       9.393  -1.511  10.804  1.00  0.00     0.039 C 
ENDBRANCH   4  23
TORSDOF 4
ENDMDL
MODEL 5
REMARK VINA RESULT: -6.414404454      2.584      7.393
REMARK  4 active torsions:
REMARK  status: ('A' for Active; 'I' for Inactive)
REMARK    1  A    between atoms: C4_5  and  N2_6 
REMARK       I    between atoms: N2_6  and  C5_8 
REMARK    2  A    between atoms: C5_8  and  C6_10 
REMARK    3  A    between atoms: C8_12  and  C9_13 
REMARK    4  A    between atoms: N3_16  and  C12_17 
ROOT
HETATM    1  C6  UNL     1      11.145   1.036  15.193  1.00  0.00     0.118 A 
HETATM    2  C7  UNL     1      11.561   2.341  15.334  1.00  0.00     0.063 A 
HETATM    3  C8  UNL     1      12.041   2.451  16.622  1.00  0.00     0.036 A 
HETATM    4  N3  UNL     1      11.924   1.268  17.239  1.00  0.00    -0.287 N 
HETATM    5  N4  UNL     1      11.386   0.452  16.351  1.00  0.00    -0.292 N 
ATOM      6  H4  UNL     1      11.178  -0.528  16.541  1.00  0.00     0.187 HD
ENDROOT
BRANCH   1   7
HETATM    7  C5  UNL     1      10.569   0.505  13.968  1.00  0.00     0.270 C 
HETATM    8  N2  UNL     1       9.489  -0.414  13.984  1.00  0.00    -0.349 N 
ATOM      9  H2  UNL     1       9.109  -0.709  14.883  1.00  0.00     0.163 HD
HETATM   10  O1  UNL     1      11.019   0.853  12.838  1.00  0.00    -0.266 OA
BRANCH   8  11
HETATM   11  C4  UNL     1       8.908  -0.947  12.782  1.00  0.00     0.120 C 
HETATM   12  C3  UNL     1       7.651  -1.780  13.062  1.00  0.00     0.064 C 
HETATM   13  C2  UNL     1       7.955  -3.091  12.342  1.00  0.00     0.243 C 
HETATM   14  N1  UNL     1       8.758  -2.593  11.226  1.00  0.00     0.097 N 
HETATM   15  C18 UNL     1       8.965  -3.812  13.178  1.00  0.00     0.118 C 
HETATM   16  C1  UNL     1       9.279  -3.608  10.385  1.00  0.00     0.311 C 
HETATM   17  C16 UNL     1       9.781  -1.897  12.024  1.00  0.00     0.247 C 
HETATM   18  C17 UNL     1      10.237  -2.991  12.919  1.00  0.00     0.060 C 
HETATM   19 CL1  UNL     1       9.171  -5.504  12.759  1.00  0.00    -0.123 Cl
ENDBRANCH   8  11
ENDBRANCH   1   7
BRANCH   3  20
HETATM   20  C9  UNL     1      12.588   3.684  17.199  1.00  0.00     0.037 A 
HETATM   21  C10 UNL     1      12.600   4.961  16.438  1.00  0.00     0.011 A 
HETATM   22  C11 UNL     1      13.854   4.202  16.470  1.00  0.00     0.011 A 
ENDBRANCH   3  20
BRANCH   4  23
HETATM   23  C12 UNL     1      12.277   0.880  18.562  1.00  0.00     0.043 C 
HETATM   24  C13 UNL     1      13.722   0.409  18.572  1.00  0.00     0.039 C 
HETATM   25  C14 UNL     1      11.473  -0.351  19.019  1.00  0.00     0.039 C 
HETATM   26  C15 UNL     1      12.134   1.932  19.597  1.00  0.00     0.039 C 
ENDBRANCH   4  23
TORSDOF 4
ENDMDL
