MODEL 1
REMARK VINA RESULT: -8.103372088      0.000      0.000
REMARK  12 active torsions:
REMARK  status: ('A' for Active; 'I' for Inactive)
REMARK    1  A    between atoms: C3_5  and  N3_6 
REMARK    2  A    between atoms: C4_8  and  N4_9 
REMARK    3  A    between atoms: C4_8  and  C7_17 
REMARK    4  A    between atoms: N4_9  and  C5_11 
REMARK    5  A    between atoms: C5_11  and  C6_12 
REMARK    6  A    between atoms: C6_12  and  N5_13 
REMARK    7  A    between atoms: N10_31  and  C12_32 
REMARK    8  A    between atoms: C12_32  and  C13_33 
REMARK    9  A    between atoms: C13_33  and  C14_34 
REMARK   10  A    between atoms: C14_34  and  C15_35 
REMARK   11  A    between atoms: C16_36  and  C17_37 
REMARK   12  A    between atoms: C18_43  and  N13_44 
ROOT
HETATM    1  C1  UNL     1       8.631  17.076  33.004  1.00  0.00     0.162 C 
HETATM    2  N1  UNL     1       8.128  16.485  34.251  1.00  0.00    -0.290 N 
HETATM    3  C2  UNL     1       7.914  17.260  35.335  1.00  0.00     0.154 A 
HETATM    4  N2  UNL     1       8.196  18.664  35.227  1.00  0.00    -0.080 NA
HETATM    5  C3  UNL     1       7.440  16.694  36.502  1.00  0.00     0.144 A 
HETATM    6  C11 UNL     1       7.189  15.325  36.549  1.00  0.00     0.281 A 
HETATM    7  O1  UNL     1       6.753  14.768  37.609  1.00  0.00    -0.265 OA
HETATM    8  N10 UNL     1       7.411  14.574  35.458  1.00  0.00    -0.264 N 
HETATM    9  C19 UNL     1       7.875  15.166  34.332  1.00  0.00     0.332 A 
HETATM   10  O3  UNL     1       8.082  14.445  33.300  1.00  0.00    -0.246 OA
ENDROOT
BRANCH   5  11
HETATM   11  N3  UNL     1       7.213  17.455  37.638  1.00  0.00    -0.332 N 
HETATM   12  C4  UNL     1       8.019  17.898  38.513  1.00  0.00     0.147 C 
ATOM     13  H3  UNL     1       6.235  17.700  37.798  1.00  0.00     0.168 HD
BRANCH  12  14
HETATM   14  N4  UNL     1       7.533  18.680  39.624  1.00  0.00    -0.372 N 
ATOM     15  H4  UNL     1       7.059  19.569  39.463  1.00  0.00     0.161 HD
BRANCH  14  16
HETATM   16  C5  UNL     1       7.730  18.178  40.985  1.00  0.00     0.148 C 
BRANCH  16  17
HETATM   17  C6  UNL     1       8.720  19.057  41.689  1.00  0.00     0.249 C 
BRANCH  17  18
HETATM   18  N5  UNL     1       9.959  18.366  41.986  1.00  0.00    -0.078 N 
ATOM     19  H53 UNL     1      10.383  17.990  41.138  1.00  0.00     0.274 HD
ATOM     20  H52 UNL     1      10.690  19.024  42.255  1.00  0.00     0.274 HD
ATOM     21  H51 UNL     1       9.840  17.639  42.692  1.00  0.00     0.274 HD
ENDBRANCH  17  18
ENDBRANCH  16  17
ENDBRANCH  14  16
ENDBRANCH  12  14
BRANCH  12  22
HETATM   22  C7  UNL     1       9.470  17.686  38.503  1.00  0.00     0.152 A 
HETATM   23  N6  UNL     1      10.106  16.524  38.843  1.00  0.00    -0.323 N 
HETATM   24  C8  UNL     1      11.434  16.679  38.733  1.00  0.00     0.150 A 
ATOM     25  H6  UNL     1       9.639  15.665  39.137  1.00  0.00     0.169 HD
HETATM   26  N7  UNL     1      12.656  16.106  38.859  1.00  0.00    -0.284 N 
HETATM   27  C10 UNL     1      11.676  17.966  38.314  1.00  0.00     0.097 A 
HETATM   28  N8  UNL     1      13.626  16.937  38.552  1.00  0.00    -0.308 N 
ATOM     29  H7  UNL     1      12.805  15.142  39.158  1.00  0.00     0.188 HD
HETATM   30  C9  UNL     1      13.044  18.098  38.210  1.00  0.00     0.140 A 
ATOM     31  H8  UNL     1      14.627  16.738  38.569  1.00  0.00     0.186 HD
HETATM   32  N9  UNL     1      10.463  18.534  38.190  1.00  0.00    -0.335 N 
ATOM     33  H9  UNL     1      10.315  19.499  37.892  1.00  0.00     0.168 HD
ENDBRANCH  12  22
ENDBRANCH   5  11
BRANCH   8  34
HETATM   34  C12 UNL     1       7.171  13.146  35.439  1.00  0.00     0.138 C 
BRANCH  34  35
HETATM   35  C13 UNL     1       8.475  12.385  35.304  1.00  0.00     0.032 C 
BRANCH  35  36
HETATM   36  C14 UNL     1       9.139  12.442  36.684  1.00  0.00     0.096 C 
BRANCH  36  37
HETATM   37  C15 UNL     1      10.555  12.684  36.490  1.00  0.00    -0.099 C 
HETATM   38  C16 UNL     1      11.752  12.870  36.337  1.00  0.00    -0.043 C 
BRANCH  38  39
HETATM   39  C17 UNL     1      13.164  13.065  36.168  1.00  0.00     0.155 A 
HETATM   40  N11 UNL     1      13.879  14.177  36.418  1.00  0.00    -0.229 N 
HETATM   41  O2  UNL     1      15.131  13.945  36.134  1.00  0.00    -0.154 OA
ATOM     42  H11 UNL     1      13.504  15.057  36.772  1.00  0.00     0.197 HD
HETATM   43  N12 UNL     1      15.305  12.746  35.708  1.00  0.00    -0.223 N 
HETATM   44  C18 UNL     1      14.106  12.141  35.707  1.00  0.00     0.159 A 
ATOM     45  H12 UNL     1      16.191  12.330  35.424  1.00  0.00     0.198 HD
BRANCH  44  46
HETATM   46  N13 UNL     1      13.832  10.947  35.359  1.00  0.00    -0.382 N 
ATOM     47 2H13 UNL     1      14.435  10.126  35.408  1.00  0.00     0.157 HD
ATOM     48 1H13 UNL     1      12.938  10.651  34.969  1.00  0.00     0.157 HD
ENDBRANCH  44  46
ENDBRANCH  38  39
ENDBRANCH  36  37
ENDBRANCH  35  36
ENDBRANCH  34  35
ENDBRANCH   8  34
TORSDOF 12
ENDMDL
MODEL 2
REMARK VINA RESULT: -7.942032502      1.205      1.641
REMARK  12 active torsions:
REMARK  status: ('A' for Active; 'I' for Inactive)
REMARK    1  A    between atoms: C3_5  and  N3_6 
REMARK    2  A    between atoms: C4_8  and  N4_9 
REMARK    3  A    between atoms: C4_8  and  C7_17 
REMARK    4  A    between atoms: N4_9  and  C5_11 
REMARK    5  A    between atoms: C5_11  and  C6_12 
REMARK    6  A    between atoms: C6_12  and  N5_13 
REMARK    7  A    between atoms: N10_31  and  C12_32 
REMARK    8  A    between atoms: C12_32  and  C13_33 
REMARK    9  A    between atoms: C13_33  and  C14_34 
REMARK   10  A    between atoms: C14_34  and  C15_35 
REMARK   11  A    between atoms: C16_36  and  C17_37 
REMARK   12  A    between atoms: C18_43  and  N13_44 
ROOT
HETATM    1  C1  UNL     1       8.412  16.319  32.519  1.00  0.00     0.162 C 
HETATM    2  N1  UNL     1       7.945  15.889  33.843  1.00  0.00    -0.290 N 
HETATM    3  C2  UNL     1       7.680  16.801  34.803  1.00  0.00     0.154 A 
HETATM    4  N2  UNL     1       7.873  18.188  34.486  1.00  0.00    -0.080 NA
HETATM    5  C3  UNL     1       7.241  16.385  36.044  1.00  0.00     0.144 A 
HETATM    6  C11 UNL     1       7.077  15.025  36.294  1.00  0.00     0.281 A 
HETATM    7  O1  UNL     1       6.675  14.605  37.429  1.00  0.00    -0.265 OA
HETATM    8  N10 UNL     1       7.348  14.136  35.325  1.00  0.00    -0.264 N 
HETATM    9  C19 UNL     1       7.776  14.583  34.120  1.00  0.00     0.332 A 
HETATM   10  O3  UNL     1       8.030  13.732  33.205  1.00  0.00    -0.246 OA
ENDROOT
BRANCH   5  11
HETATM   11  N3  UNL     1       6.964  17.290  37.056  1.00  0.00    -0.332 N 
HETATM   12  C4  UNL     1       7.726  17.829  37.917  1.00  0.00     0.147 C 
ATOM     13  H3  UNL     1       5.985  17.571  37.121  1.00  0.00     0.168 HD
BRANCH  12  14
HETATM   14  N4  UNL     1       7.193  18.755  38.886  1.00  0.00    -0.372 N 
ATOM     15  H4  UNL     1       7.467  18.694  39.866  1.00  0.00     0.161 HD
BRANCH  14  16
HETATM   16  C5  UNL     1       6.252  19.785  38.440  1.00  0.00     0.148 C 
BRANCH  16  17
HETATM   17  C6  UNL     1       6.970  20.742  37.537  1.00  0.00     0.249 C 
BRANCH  17  18
HETATM   18  N5  UNL     1       6.474  20.697  36.176  1.00  0.00    -0.078 N 
ATOM     19  H53 UNL     1       6.733  19.823  35.719  1.00  0.00     0.274 HD
ATOM     20  H52 UNL     1       5.459  20.595  36.159  1.00  0.00     0.274 HD
ATOM     21  H51 UNL     1       6.772  21.503  35.626  1.00  0.00     0.274 HD
ENDBRANCH  17  18
ENDBRANCH  16  17
ENDBRANCH  14  16
ENDBRANCH  12  14
BRANCH  12  22
HETATM   22  C7  UNL     1       9.170  17.593  38.027  1.00  0.00     0.152 A 
HETATM   23  N6  UNL     1       9.757  16.404  38.362  1.00  0.00    -0.323 N 
HETATM   24  C8  UNL     1      11.091  16.542  38.380  1.00  0.00     0.150 A 
ATOM     25  H6  UNL     1       9.255  15.540  38.568  1.00  0.00     0.169 HD
HETATM   26  N7  UNL     1      12.290  15.942  38.586  1.00  0.00    -0.284 N 
HETATM   27  C10 UNL     1      11.386  17.844  38.052  1.00  0.00     0.097 A 
HETATM   28  N8  UNL     1      13.294  16.771  38.410  1.00  0.00    -0.308 N 
ATOM     29  H7  UNL     1      12.399  14.962  38.846  1.00  0.00     0.188 HD
HETATM   30  C9  UNL     1      12.760  17.957  38.079  1.00  0.00     0.140 A 
ATOM     31  H8  UNL     1      14.287  16.555  38.507  1.00  0.00     0.186 HD
HETATM   32  N9  UNL     1      10.197  18.438  37.848  1.00  0.00    -0.335 N 
ATOM     33  H9  UNL     1      10.089  19.419  37.589  1.00  0.00     0.168 HD
ENDBRANCH  12  22
ENDBRANCH   5  11
BRANCH   8  34
HETATM   34  C12 UNL     1       7.198  12.708  35.519  1.00  0.00     0.138 C 
BRANCH  34  35
HETATM   35  C13 UNL     1       8.546  12.016  35.461  1.00  0.00     0.032 C 
BRANCH  35  36
HETATM   36  C14 UNL     1       9.237  12.331  36.792  1.00  0.00     0.096 C 
BRANCH  36  37
HETATM   37  C15 UNL     1      10.644  12.557  36.523  1.00  0.00    -0.099 C 
HETATM   38  C16 UNL     1      11.831  12.753  36.317  1.00  0.00    -0.043 C 
BRANCH  38  39
HETATM   39  C17 UNL     1      13.231  12.986  36.101  1.00  0.00     0.155 A 
HETATM   40  N11 UNL     1      13.928  14.110  36.349  1.00  0.00    -0.229 N 
HETATM   41  O2  UNL     1      15.173  13.915  36.014  1.00  0.00    -0.154 OA
ATOM     42  H11 UNL     1      13.545  14.973  36.736  1.00  0.00     0.197 HD
HETATM   43  N12 UNL     1      15.360  12.730  35.556  1.00  0.00    -0.223 N 
HETATM   44  C18 UNL     1      14.177  12.095  35.586  1.00  0.00     0.159 A 
ATOM     45  H12 UNL     1      16.245  12.342  35.230  1.00  0.00     0.198 HD
BRANCH  44  46
HETATM   46  N13 UNL     1      13.920  10.903  35.221  1.00  0.00    -0.382 N 
ATOM     47 2H13 UNL     1      13.037  10.532  34.870  1.00  0.00     0.157 HD
ATOM     48 1H13 UNL     1      14.593  10.137  35.236  1.00  0.00     0.157 HD
ENDBRANCH  44  46
ENDBRANCH  38  39
ENDBRANCH  36  37
ENDBRANCH  35  36
ENDBRANCH  34  35
ENDBRANCH   8  34
TORSDOF 12
ENDMDL
MODEL 3
REMARK VINA RESULT: -7.489843433      1.460      3.395
REMARK  12 active torsions:
REMARK  status: ('A' for Active; 'I' for Inactive)
REMARK    1  A    between atoms: C3_5  and  N3_6 
REMARK    2  A    between atoms: C4_8  and  N4_9 
REMARK    3  A    between atoms: C4_8  and  C7_17 
REMARK    4  A    between atoms: N4_9  and  C5_11 
REMARK    5  A    between atoms: C5_11  and  C6_12 
REMARK    6  A    between atoms: C6_12  and  N5_13 
REMARK    7  A    between atoms: N10_31  and  C12_32 
REMARK    8  A    between atoms: C12_32  and  C13_33 
REMARK    9  A    between atoms: C13_33  and  C14_34 
REMARK   10  A    between atoms: C14_34  and  C15_35 
REMARK   11  A    between atoms: C16_36  and  C17_37 
REMARK   12  A    between atoms: C18_43  and  N13_44 
ROOT
HETATM    1  C1  UNL     1       7.344  16.268  32.499  1.00  0.00     0.162 C 
HETATM    2  N1  UNL     1       7.856  15.863  33.815  1.00  0.00    -0.290 N 
HETATM    3  C2  UNL     1       8.594  16.719  34.553  1.00  0.00     0.154 A 
HETATM    4  N2  UNL     1       8.860  18.021  34.009  1.00  0.00    -0.080 NA
HETATM    5  C3  UNL     1       9.070  16.327  35.788  1.00  0.00     0.144 A 
HETATM    6  C11 UNL     1       8.783  15.050  36.261  1.00  0.00     0.281 A 
HETATM    7  O1  UNL     1       9.207  14.653  37.397  1.00  0.00    -0.265 OA
HETATM    8  N10 UNL     1       8.048  14.215  35.509  1.00  0.00    -0.264 N 
HETATM    9  C19 UNL     1       7.599  14.636  34.302  1.00  0.00     0.332 A 
HETATM   10  O3  UNL     1       6.900  13.837  33.595  1.00  0.00    -0.246 OA
ENDROOT
BRANCH   5  11
HETATM   11  N3  UNL     1       9.835  17.176  36.573  1.00  0.00    -0.332 N 
HETATM   12  C4  UNL     1       9.554  17.784  37.651  1.00  0.00     0.147 C 
ATOM     13  H3  UNL     1      10.782  17.338  36.228  1.00  0.00     0.168 HD
BRANCH  12  14
HETATM   14  N4  UNL     1      10.536  18.627  38.291  1.00  0.00    -0.372 N 
ATOM     15  H4  UNL     1      10.485  19.642  38.200  1.00  0.00     0.161 HD
BRANCH  14  16
HETATM   16  C5  UNL     1      11.606  18.003  39.072  1.00  0.00     0.148 C 
BRANCH  16  17
HETATM   17  C6  UNL     1      12.890  18.104  38.305  1.00  0.00     0.249 C 
BRANCH  17  18
HETATM   18  N5  UNL     1      13.588  16.837  38.224  1.00  0.00    -0.078 N 
ATOM     19  H53 UNL     1      13.911  16.536  39.144  1.00  0.00     0.274 HD
ATOM     20  H52 UNL     1      12.942  16.074  38.021  1.00  0.00     0.274 HD
ATOM     21  H51 UNL     1      14.356  16.857  37.553  1.00  0.00     0.274 HD
ENDBRANCH  17  18
ENDBRANCH  16  17
ENDBRANCH  14  16
ENDBRANCH  12  14
BRANCH  12  22
HETATM   22  C7  UNL     1       8.266  17.709  38.348  1.00  0.00     0.152 A 
HETATM   23  N6  UNL     1       7.941  16.804  39.321  1.00  0.00    -0.323 N 
HETATM   24  C8  UNL     1       6.682  17.011  39.736  1.00  0.00     0.150 A 
ATOM     25  H6  UNL     1       8.564  16.079  39.679  1.00  0.00     0.169 HD
HETATM   26  N7  UNL     1       5.684  16.619  40.566  1.00  0.00    -0.284 N 
HETATM   27  C10 UNL     1       6.170  18.069  39.024  1.00  0.00     0.097 A 
HETATM   28  N8  UNL     1       4.603  17.351  40.420  1.00  0.00    -0.308 N 
ATOM     29  H7  UNL     1       5.764  15.847  41.227  1.00  0.00     0.188 HD
HETATM   30  C9  UNL     1       4.879  18.257  39.468  1.00  0.00     0.140 A 
ATOM     31  H8  UNL     1       3.725  17.251  40.930  1.00  0.00     0.186 HD
HETATM   32  N9  UNL     1       7.160  18.456  38.200  1.00  0.00    -0.335 N 
ATOM     33  H9  UNL     1       7.080  19.228  37.538  1.00  0.00     0.168 HD
ENDBRANCH  12  22
ENDBRANCH   5  11
BRANCH   8  34
HETATM   34  C12 UNL     1       7.714  12.873  35.941  1.00  0.00     0.138 C 
BRANCH  34  35
HETATM   35  C13 UNL     1       8.688  11.866  35.362  1.00  0.00     0.032 C 
BRANCH  35  36
HETATM   36  C14 UNL     1       9.526  11.366  36.544  1.00  0.00     0.096 C 
BRANCH  36  37
HETATM   37  C15 UNL     1      10.874  11.875  36.384  1.00  0.00    -0.099 C 
HETATM   38  C16 UNL     1      12.011  12.294  36.232  1.00  0.00    -0.043 C 
BRANCH  38  39
HETATM   39  C17 UNL     1      13.347  12.775  36.028  1.00  0.00     0.155 A 
HETATM   40  N11 UNL     1      13.874  13.944  36.434  1.00  0.00    -0.229 N 
HETATM   41  O2  UNL     1      15.119  14.001  36.050  1.00  0.00    -0.154 OA
ATOM     42  H11 UNL     1      13.380  14.668  36.958  1.00  0.00     0.197 HD
HETATM   43  N12 UNL     1      15.466  12.944  35.410  1.00  0.00    -0.223 N 
HETATM   44  C18 UNL     1      14.396  12.133  35.363  1.00  0.00     0.159 A 
ATOM     45  H12 UNL     1      16.385  12.754  35.011  1.00  0.00     0.198 HD
BRANCH  44  46
HETATM   46  N13 UNL     1      14.309  10.983  34.822  1.00  0.00    -0.382 N 
ATOM     47 2H13 UNL     1      13.472  10.519  34.470  1.00  0.00     0.157 HD
ATOM     48 1H13 UNL     1      15.098  10.358  34.667  1.00  0.00     0.157 HD
ENDBRANCH  44  46
ENDBRANCH  38  39
ENDBRANCH  36  37
ENDBRANCH  35  36
ENDBRANCH  34  35
ENDBRANCH   8  34
TORSDOF 12
ENDMDL
MODEL 4
REMARK VINA RESULT: -7.460237930      1.814      4.070
REMARK  12 active torsions:
REMARK  status: ('A' for Active; 'I' for Inactive)
REMARK    1  A    between atoms: C3_5  and  N3_6 
REMARK    2  A    between atoms: C4_8  and  N4_9 
REMARK    3  A    between atoms: C4_8  and  C7_17 
REMARK    4  A    between atoms: N4_9  and  C5_11 
REMARK    5  A    between atoms: C5_11  and  C6_12 
REMARK    6  A    between atoms: C6_12  and  N5_13 
REMARK    7  A    between atoms: N10_31  and  C12_32 
REMARK    8  A    between atoms: C12_32  and  C13_33 
REMARK    9  A    between atoms: C13_33  and  C14_34 
REMARK   10  A    between atoms: C14_34  and  C15_35 
REMARK   11  A    between atoms: C16_36  and  C17_37 
REMARK   12  A    between atoms: C18_43  and  N13_44 
ROOT
HETATM    1  C1  UNL     1       4.834  14.706  38.432  1.00  0.00     0.162 C 
HETATM    2  N1  UNL     1       5.711  14.385  37.298  1.00  0.00    -0.290 N 
HETATM    3  C2  UNL     1       6.201  15.370  36.515  1.00  0.00     0.154 A 
HETATM    4  N2  UNL     1       5.833  16.724  36.825  1.00  0.00    -0.080 NA
HETATM    5  C3  UNL     1       7.024  15.058  35.451  1.00  0.00     0.144 A 
HETATM    6  C11 UNL     1       7.341  13.727  35.196  1.00  0.00     0.281 A 
HETATM    7  O1  UNL     1       8.098  13.401  34.223  1.00  0.00    -0.265 OA
HETATM    8  N10 UNL     1       6.842  12.764  35.988  1.00  0.00    -0.264 N 
HETATM    9  C19 UNL     1       6.038  13.110  37.022  1.00  0.00     0.332 A 
HETATM   10  O3  UNL     1       5.569  12.189  37.769  1.00  0.00    -0.246 OA
ENDROOT
BRANCH   5  11
HETATM   11  N3  UNL     1       7.542  16.041  34.622  1.00  0.00    -0.332 N 
HETATM   12  C4  UNL     1       8.524  16.828  34.784  1.00  0.00     0.147 C 
ATOM     13  H3  UNL     1       7.052  16.149  33.733  1.00  0.00     0.168 HD
BRANCH  12  14
HETATM   14  N4  UNL     1       8.873  17.781  33.758  1.00  0.00    -0.372 N 
ATOM     15  H4  UNL     1       9.566  18.507  33.940  1.00  0.00     0.161 HD
BRANCH  14  16
HETATM   16  C5  UNL     1       8.218  17.690  32.452  1.00  0.00     0.148 C 
BRANCH  16  17
HETATM   17  C6  UNL     1       9.124  16.965  31.503  1.00  0.00     0.249 C 
BRANCH  17  18
HETATM   18  N5  UNL     1       8.402  16.063  30.629  1.00  0.00    -0.078 N 
ATOM     19  H53 UNL     1       7.413  16.308  30.584  1.00  0.00     0.274 HD
ATOM     20  H52 UNL     1       8.653  16.219  29.652  1.00  0.00     0.274 HD
ATOM     21  H51 UNL     1       8.527  15.084  30.889  1.00  0.00     0.274 HD
ENDBRANCH  17  18
ENDBRANCH  16  17
ENDBRANCH  14  16
ENDBRANCH  12  14
BRANCH  12  22
HETATM   22  C7  UNL     1       9.387  16.863  35.970  1.00  0.00     0.152 A 
HETATM   23  N6  UNL     1      10.072  15.798  36.486  1.00  0.00    -0.323 N 
HETATM   24  C8  UNL     1      10.753  16.177  37.578  1.00  0.00     0.150 A 
ATOM     25  H6  UNL     1      10.066  14.854  36.098  1.00  0.00     0.169 HD
HETATM   26  N7  UNL     1      11.588  15.804  38.579  1.00  0.00    -0.284 N 
HETATM   27  C10 UNL     1      10.511  17.514  37.784  1.00  0.00     0.097 A 
HETATM   28  N8  UNL     1      11.877  16.804  39.381  1.00  0.00    -0.308 N 
ATOM     29  H7  UNL     1      11.950  14.858  38.696  1.00  0.00     0.188 HD
HETATM   30  C9  UNL     1      11.220  17.876  38.909  1.00  0.00     0.140 A 
ATOM     31  H8  UNL     1      12.482  16.772  40.202  1.00  0.00     0.186 HD
HETATM   32  N9  UNL     1       9.682  17.884  36.791  1.00  0.00    -0.335 N 
ATOM     33  H9  UNL     1       9.320  18.831  36.675  1.00  0.00     0.168 HD
ENDBRANCH  12  22
ENDBRANCH   5  11
BRANCH   8  34
HETATM   34  C12 UNL     1       7.133  11.360  35.778  1.00  0.00     0.138 C 
BRANCH  34  35
HETATM   35  C13 UNL     1       8.626  11.136  35.644  1.00  0.00     0.032 C 
BRANCH  35  36
HETATM   36  C14 UNL     1       9.251  11.699  36.926  1.00  0.00     0.096 C 
BRANCH  36  37
HETATM   37  C15 UNL     1      10.609  12.105  36.621  1.00  0.00    -0.099 C 
HETATM   38  C16 UNL     1      11.753  12.458  36.382  1.00  0.00    -0.043 C 
BRANCH  38  39
HETATM   39  C17 UNL     1      13.099  12.885  36.125  1.00  0.00     0.155 A 
HETATM   40  N11 UNL     1      13.635  14.099  36.343  1.00  0.00    -0.229 N 
HETATM   41  O2  UNL     1      14.886  14.079  35.976  1.00  0.00    -0.154 OA
ATOM     42  H11 UNL     1      13.143  14.904  36.733  1.00  0.00     0.197 HD
HETATM   43  N12 UNL     1      15.229  12.927  35.524  1.00  0.00    -0.223 N 
HETATM   44  C18 UNL     1      14.149  12.131  35.592  1.00  0.00     0.159 A 
ATOM     45  H12 UNL     1      16.151  12.664  35.177  1.00  0.00     0.198 HD
BRANCH  44  46
HETATM   46  N13 UNL     1      14.054  10.909  35.245  1.00  0.00    -0.382 N 
ATOM     47 2H13 UNL     1      13.674  10.133  35.786  1.00  0.00     0.157 HD
ATOM     48 1H13 UNL     1      14.361  10.540  34.346  1.00  0.00     0.157 HD
ENDBRANCH  44  46
ENDBRANCH  38  39
ENDBRANCH  36  37
ENDBRANCH  35  36
ENDBRANCH  34  35
ENDBRANCH   8  34
TORSDOF 12
ENDMDL
MODEL 5
REMARK VINA RESULT: -7.427364651      2.528      6.291
REMARK  12 active torsions:
REMARK  status: ('A' for Active; 'I' for Inactive)
REMARK    1  A    between atoms: C3_5  and  N3_6 
REMARK    2  A    between atoms: C4_8  and  N4_9 
REMARK    3  A    between atoms: C4_8  and  C7_17 
REMARK    4  A    between atoms: N4_9  and  C5_11 
REMARK    5  A    between atoms: C5_11  and  C6_12 
REMARK    6  A    between atoms: C6_12  and  N5_13 
REMARK    7  A    between atoms: N10_31  and  C12_32 
REMARK    8  A    between atoms: C12_32  and  C13_33 
REMARK    9  A    between atoms: C13_33  and  C14_34 
REMARK   10  A    between atoms: C14_34  and  C15_35 
REMARK   11  A    between atoms: C16_36  and  C17_37 
REMARK   12  A    between atoms: C18_43  and  N13_44 
ROOT
HETATM    1  C1  UNL     1       6.439  18.091  38.004  1.00  0.00     0.162 C 
HETATM    2  N1  UNL     1       7.451  17.193  37.430  1.00  0.00    -0.290 N 
HETATM    3  C2  UNL     1       7.230  16.584  36.246  1.00  0.00     0.154 A 
HETATM    4  N2  UNL     1       5.984  16.839  35.579  1.00  0.00    -0.080 NA
HETATM    5  C3  UNL     1       8.188  15.743  35.717  1.00  0.00     0.144 A 
HETATM    6  C11 UNL     1       9.375  15.529  36.412  1.00  0.00     0.281 A 
HETATM    7  O1  UNL     1      10.281  14.758  35.954  1.00  0.00    -0.265 OA
HETATM    8  N10 UNL     1       9.573  16.145  37.589  1.00  0.00    -0.264 N 
HETATM    9  C19 UNL     1       8.609  16.964  38.075  1.00  0.00     0.332 A 
HETATM   10  O3  UNL     1       8.806  17.545  39.193  1.00  0.00    -0.246 OA
ENDROOT
BRANCH   5  11
HETATM   11  N3  UNL     1       7.995  15.095  34.506  1.00  0.00    -0.332 N 
HETATM   12  C4  UNL     1       7.548  13.935  34.250  1.00  0.00     0.147 C 
ATOM     13  H3  UNL     1       8.257  15.641  33.684  1.00  0.00     0.168 HD
BRANCH  12  14
HETATM   14  N4  UNL     1       7.441  13.479  32.885  1.00  0.00    -0.372 N 
ATOM     15  H4  UNL     1       7.333  12.486  32.678  1.00  0.00     0.161 HD
BRANCH  14  16
HETATM   16  C5  UNL     1       7.491  14.463  31.802  1.00  0.00     0.148 C 
BRANCH  16  17
HETATM   17  C6  UNL     1       7.683  13.744  30.500  1.00  0.00     0.249 C 
BRANCH  17  18
HETATM   18  N5  UNL     1       8.496  12.553  30.641  1.00  0.00    -0.078 N 
ATOM     19  H53 UNL     1       9.020  12.362  29.787  1.00  0.00     0.274 HD
ATOM     20  H52 UNL     1       9.276  12.714  31.278  1.00  0.00     0.274 HD
ATOM     21  H51 UNL     1       7.949  11.740  30.926  1.00  0.00     0.274 HD
ENDBRANCH  17  18
ENDBRANCH  16  17
ENDBRANCH  14  16
ENDBRANCH  12  14
BRANCH  12  22
HETATM   22  C7  UNL     1       7.101  12.965  35.255  1.00  0.00     0.152 A 
HETATM   23  N6  UNL     1       7.901  12.054  35.890  1.00  0.00    -0.323 N 
HETATM   24  C8  UNL     1       7.169  11.317  36.739  1.00  0.00     0.150 A 
ATOM     25  H6  UNL     1       8.905  11.951  35.740  1.00  0.00     0.169 HD
HETATM   26  N7  UNL     1       7.162  10.315  37.652  1.00  0.00    -0.284 N 
HETATM   27  C10 UNL     1       5.867  11.749  36.660  1.00  0.00     0.097 A 
HETATM   28  N8  UNL     1       5.961  10.098  38.139  1.00  0.00    -0.308 N 
ATOM     29  H7  UNL     1       7.991   9.791  37.929  1.00  0.00     0.188 HD
HETATM   30  C9  UNL     1       5.139  10.975  37.539  1.00  0.00     0.140 A 
ATOM     31  H8  UNL     1       5.703   9.400  38.837  1.00  0.00     0.186 HD
HETATM   32  N9  UNL     1       5.875  12.742  35.753  1.00  0.00    -0.335 N 
ATOM     33  H9  UNL     1       5.044  13.265  35.475  1.00  0.00     0.168 HD
ENDBRANCH  12  22
ENDBRANCH   5  11
BRANCH   8  34
HETATM   34  C12 UNL     1      10.784  15.967  38.362  1.00  0.00     0.138 C 
BRANCH  34  35
HETATM   35  C13 UNL     1      11.706  17.160  38.197  1.00  0.00     0.032 C 
BRANCH  35  36
HETATM   36  C14 UNL     1      13.087  16.691  38.669  1.00  0.00     0.096 C 
BRANCH  36  37
HETATM   37  C15 UNL     1      13.507  15.602  37.810  1.00  0.00    -0.099 C 
HETATM   38  C16 UNL     1      13.861  14.672  37.103  1.00  0.00    -0.043 C 
BRANCH  38  39
HETATM   39  C17 UNL     1      14.276  13.562  36.292  1.00  0.00     0.155 A 
HETATM   40  N11 UNL     1      15.506  13.306  35.812  1.00  0.00    -0.229 N 
HETATM   41  O2  UNL     1      15.466  12.200  35.122  1.00  0.00    -0.154 OA
ATOM     42  H11 UNL     1      16.335  13.881  35.964  1.00  0.00     0.197 HD
HETATM   43  N12 UNL     1      14.286  11.694  35.106  1.00  0.00    -0.223 N 
HETATM   44  C18 UNL     1      13.492  12.503  35.825  1.00  0.00     0.159 A 
ATOM     45  H12 UNL     1      14.004  10.835  34.634  1.00  0.00     0.198 HD
BRANCH  44  46
HETATM   46  N13 UNL     1      12.248  12.369  36.063  1.00  0.00    -0.382 N 
ATOM     47 2H13 UNL     1      11.808  11.901  36.855  1.00  0.00     0.157 HD
ATOM     48 1H13 UNL     1      11.505  12.729  35.465  1.00  0.00     0.157 HD
ENDBRANCH  44  46
ENDBRANCH  38  39
ENDBRANCH  36  37
ENDBRANCH  35  36
ENDBRANCH  34  35
ENDBRANCH   8  34
TORSDOF 12
ENDMDL
