MODEL 1
REMARK VINA RESULT: -7.392591586      0.000      0.000
REMARK  11 active torsions:
REMARK  status: ('A' for Active; 'I' for Inactive)
REMARK    1  A    between atoms: O1_1  and  C1_3 
REMARK    2  A    between atoms: C1_3  and  C2_4 
REMARK    3  A    between atoms: C3_6  and  C4_7 
REMARK    4  A    between atoms: C4_7  and  C5_8 
REMARK    5  A    between atoms: C5_8  and  C6_9 
REMARK    6  A    between atoms: C6_9  and  C7_10 
REMARK    7  A    between atoms: C7_10  and  C8_11 
REMARK    8  A    between atoms: C8_11  and  C9_12 
REMARK    9  A    between atoms: C13_19  and  O3_20 
REMARK   10  A    between atoms: C14_22  and  O4_23 
REMARK   11  A    between atoms: C15_25  and  O5_26 
ROOT
HETATM    1  C2  UNL     1      28.009 -41.377 -57.229  1.00  0.00     0.176 C 
HETATM    2  O2  UNL     1      27.453 -41.237 -55.966  1.00  0.00    -0.373 OA
HETATM    3  C3  UNL     1      26.443 -40.308 -56.002  1.00  0.00     0.153 C 
HETATM    4  C13 UNL     1      25.255 -40.901 -56.678  1.00  0.00     0.178 C 
HETATM    5  C14 UNL     1      25.668 -41.183 -58.130  1.00  0.00     0.180 C 
HETATM    6  C15 UNL     1      27.124 -40.929 -58.343  1.00  0.00     0.180 C 
ENDROOT
BRANCH   3   7
HETATM    7  C4  UNL     1      26.144 -39.685 -54.662  1.00  0.00     0.035 C 
BRANCH   7   8
HETATM    8  C5  UNL     1      26.131 -38.204 -54.675  1.00  0.00     0.002 C 
BRANCH   8   9
HETATM    9  C6  UNL     1      26.803 -37.699 -53.385  1.00  0.00     0.000 C 
BRANCH   9  10
HETATM   10  C7  UNL     1      26.738 -36.231 -53.222  1.00  0.00     0.002 C 
BRANCH  10  11
HETATM   11  C8  UNL     1      25.603 -35.616 -53.959  1.00  0.00     0.033 C 
BRANCH  11  12
HETATM   12  C9  UNL     1      24.830 -34.542 -53.288  1.00  0.00     0.186 C 
HETATM   13  C10 UNL     1      23.400 -34.483 -53.848  1.00  0.00     0.034 C 
HETATM   14  C11 UNL     1      22.552 -33.926 -52.724  1.00  0.00     0.029 C 
HETATM   15  C12 UNL     1      23.547 -33.811 -51.591  1.00  0.00     0.233 C 
HETATM   16  N1  UNL     1      24.480 -34.870 -51.896  1.00  0.00    -0.071 N 
ATOM     17  H12 UNL     1      24.135 -35.817 -51.742  1.00  0.00     0.277 HD
ATOM     18  H11 UNL     1      25.269 -34.958 -51.255  1.00  0.00     0.277 HD
ENDBRANCH  11  12
ENDBRANCH  10  11
ENDBRANCH   9  10
ENDBRANCH   8   9
ENDBRANCH   7   8
ENDBRANCH   3   7
BRANCH   4  19
HETATM   19  O3  UNL     1      24.864 -42.119 -56.140  1.00  0.00    -0.390 OA
ATOM     20  H3  UNL     1      23.926 -42.191 -56.009  1.00  0.00     0.210 HD
ENDBRANCH   4  19
BRANCH   1  21
HETATM   21  C1  UNL     1      28.505 -42.803 -57.467  1.00  0.00     0.198 C 
BRANCH  21  22
HETATM   22  O1  UNL     1      29.781 -42.764 -58.030  1.00  0.00    -0.398 OA
ATOM     23  H1  UNL     1      29.711 -42.813 -58.976  1.00  0.00     0.209 HD
ENDBRANCH  21  22
ENDBRANCH   1  21
BRANCH   5  24
HETATM   24  O4  UNL     1      24.958 -40.341 -59.006  1.00  0.00    -0.390 OA
ATOM     25  H4  UNL     1      25.210 -39.436 -58.866  1.00  0.00     0.210 HD
ENDBRANCH   5  24
BRANCH   6  26
HETATM   26  O5  UNL     1      27.504 -41.655 -59.495  1.00  0.00    -0.390 OA
ATOM     27  H5  UNL     1      27.172 -41.180 -60.248  1.00  0.00     0.210 HD
ENDBRANCH   6  26
TORSDOF 11
ENDMDL
MODEL 2
REMARK VINA RESULT: -7.344145586      0.914      1.043
REMARK  11 active torsions:
REMARK  status: ('A' for Active; 'I' for Inactive)
REMARK    1  A    between atoms: O1_1  and  C1_3 
REMARK    2  A    between atoms: C1_3  and  C2_4 
REMARK    3  A    between atoms: C3_6  and  C4_7 
REMARK    4  A    between atoms: C4_7  and  C5_8 
REMARK    5  A    between atoms: C5_8  and  C6_9 
REMARK    6  A    between atoms: C6_9  and  C7_10 
REMARK    7  A    between atoms: C7_10  and  C8_11 
REMARK    8  A    between atoms: C8_11  and  C9_12 
REMARK    9  A    between atoms: C13_19  and  O3_20 
REMARK   10  A    between atoms: C14_22  and  O4_23 
REMARK   11  A    between atoms: C15_25  and  O5_26 
ROOT
HETATM    1  C2  UNL     1      28.100 -41.032 -57.056  1.00  0.00     0.176 C 
HETATM    2  O2  UNL     1      27.549 -40.843 -55.797  1.00  0.00    -0.373 OA
HETATM    3  C3  UNL     1      26.562 -39.891 -55.860  1.00  0.00     0.153 C 
HETATM    4  C13 UNL     1      25.359 -40.474 -56.519  1.00  0.00     0.178 C 
HETATM    5  C14 UNL     1      25.764 -40.807 -57.962  1.00  0.00     0.180 C 
HETATM    6  C15 UNL     1      27.226 -40.596 -58.182  1.00  0.00     0.180 C 
ENDROOT
BRANCH   3   7
HETATM    7  C4  UNL     1      26.279 -39.222 -54.539  1.00  0.00     0.035 C 
BRANCH   7   8
HETATM    8  C5  UNL     1      26.513 -37.760 -54.540  1.00  0.00     0.002 C 
BRANCH   8   9
HETATM    9  C6  UNL     1      26.853 -37.318 -53.105  1.00  0.00     0.000 C 
BRANCH   9  10
HETATM   10  C7  UNL     1      26.394 -35.950 -52.785  1.00  0.00     0.002 C 
BRANCH  10  11
HETATM   11  C8  UNL     1      25.744 -35.854 -51.452  1.00  0.00     0.033 C 
BRANCH  11  12
HETATM   12  C9  UNL     1      24.850 -34.700 -51.188  1.00  0.00     0.186 C 
HETATM   13  C10 UNL     1      23.874 -34.500 -52.357  1.00  0.00     0.034 C 
HETATM   14  C11 UNL     1      22.649 -33.848 -51.750  1.00  0.00     0.029 C 
HETATM   15  C12 UNL     1      22.988 -33.825 -50.277  1.00  0.00     0.233 C 
HETATM   16  N1  UNL     1      23.849 -34.977 -50.144  1.00  0.00    -0.071 N 
ATOM     17  H12 UNL     1      23.385 -35.882 -50.211  1.00  0.00     0.277 HD
ATOM     18  H11 UNL     1      24.224 -35.139 -49.209  1.00  0.00     0.277 HD
ENDBRANCH  11  12
ENDBRANCH  10  11
ENDBRANCH   9  10
ENDBRANCH   8   9
ENDBRANCH   7   8
ENDBRANCH   3   7
BRANCH   4  19
HETATM   19  O3  UNL     1      24.938 -41.666 -55.946  1.00  0.00    -0.390 OA
ATOM     20  H3  UNL     1      24.954 -42.400 -56.548  1.00  0.00     0.210 HD
ENDBRANCH   4  19
BRANCH   1  21
HETATM   21  C1  UNL     1      28.561 -42.477 -57.252  1.00  0.00     0.198 C 
BRANCH  21  22
HETATM   22  O1  UNL     1      29.776 -42.489 -57.939  1.00  0.00    -0.398 OA
ATOM     23  H1  UNL     1      30.196 -43.333 -57.825  1.00  0.00     0.209 HD
ENDBRANCH  21  22
ENDBRANCH   1  21
BRANCH   5  24
HETATM   24  O4  UNL     1      25.074 -39.974 -58.863  1.00  0.00    -0.390 OA
ATOM     25  H4  UNL     1      24.260 -40.385 -59.128  1.00  0.00     0.210 HD
ENDBRANCH   5  24
BRANCH   6  26
HETATM   26  O5  UNL     1      27.588 -41.363 -59.313  1.00  0.00    -0.390 OA
ATOM     27  H5  UNL     1      26.895 -41.260 -59.955  1.00  0.00     0.210 HD
ENDBRANCH   6  26
TORSDOF 11
ENDMDL
MODEL 3
REMARK VINA RESULT: -7.087879807      1.354      2.634
REMARK  11 active torsions:
REMARK  status: ('A' for Active; 'I' for Inactive)
REMARK    1  A    between atoms: O1_1  and  C1_3 
REMARK    2  A    between atoms: C1_3  and  C2_4 
REMARK    3  A    between atoms: C3_6  and  C4_7 
REMARK    4  A    between atoms: C4_7  and  C5_8 
REMARK    5  A    between atoms: C5_8  and  C6_9 
REMARK    6  A    between atoms: C6_9  and  C7_10 
REMARK    7  A    between atoms: C7_10  and  C8_11 
REMARK    8  A    between atoms: C8_11  and  C9_12 
REMARK    9  A    between atoms: C13_19  and  O3_20 
REMARK   10  A    between atoms: C14_22  and  O4_23 
REMARK   11  A    between atoms: C15_25  and  O5_26 
ROOT
HETATM    1  C2  UNL     1      25.428 -41.013 -56.134  1.00  0.00     0.176 C 
HETATM    2  O2  UNL     1      25.763 -39.668 -56.119  1.00  0.00    -0.373 OA
HETATM    3  C3  UNL     1      27.048 -39.503 -56.575  1.00  0.00     0.153 C 
HETATM    4  C13 UNL     1      27.073 -39.698 -58.052  1.00  0.00     0.178 C 
HETATM    5  C14 UNL     1      26.680 -41.160 -58.311  1.00  0.00     0.180 C 
HETATM    6  C15 UNL     1      26.259 -41.844 -57.052  1.00  0.00     0.180 C 
ENDROOT
BRANCH   3   7
HETATM    7  C4  UNL     1      27.697 -38.225 -56.110  1.00  0.00     0.035 C 
BRANCH   7   8
HETATM    8  C5  UNL     1      26.781 -37.309 -55.392  1.00  0.00     0.002 C 
BRANCH   8   9
HETATM    9  C6  UNL     1      27.512 -36.757 -54.155  1.00  0.00     0.000 C 
BRANCH   9  10
HETATM   10  C7  UNL     1      26.621 -36.052 -53.209  1.00  0.00     0.002 C 
BRANCH  10  11
HETATM   11  C8  UNL     1      25.466 -35.399 -53.878  1.00  0.00     0.033 C 
BRANCH  11  12
HETATM   12  C9  UNL     1      24.669 -34.416 -53.104  1.00  0.00     0.186 C 
HETATM   13  C10 UNL     1      23.206 -34.422 -53.576  1.00  0.00     0.034 C 
HETATM   14  C11 UNL     1      22.396 -33.983 -52.374  1.00  0.00     0.029 C 
HETATM   15  C12 UNL     1      23.450 -33.863 -51.296  1.00  0.00     0.233 C 
HETATM   16  N1  UNL     1      24.428 -34.839 -51.715  1.00  0.00    -0.071 N 
ATOM     17  H12 UNL     1      24.154 -35.814 -51.595  1.00  0.00     0.277 HD
ATOM     18  H11 UNL     1      25.259 -34.908 -51.127  1.00  0.00     0.277 HD
ENDBRANCH  11  12
ENDBRANCH  10  11
ENDBRANCH   9  10
ENDBRANCH   8   9
ENDBRANCH   7   8
ENDBRANCH   3   7
BRANCH   4  19
HETATM   19  O3  UNL     1      26.144 -38.919 -58.728  1.00  0.00    -0.390 OA
ATOM     20  H3  UNL     1      26.135 -39.071 -59.666  1.00  0.00     0.210 HD
ENDBRANCH   4  19
BRANCH   1  21
HETATM   21  C1  UNL     1      23.939 -41.215 -56.415  1.00  0.00     0.198 C 
BRANCH  21  22
HETATM   22  O1  UNL     1      23.521 -40.304 -57.387  1.00  0.00    -0.398 OA
ATOM     23  H1  UNL     1      22.573 -40.316 -57.444  1.00  0.00     0.209 HD
ENDBRANCH  21  22
ENDBRANCH   1  21
BRANCH   5  24
HETATM   24  O4  UNL     1      27.778 -41.870 -58.833  1.00  0.00    -0.390 OA
ATOM     25  H4  UNL     1      27.597 -42.140 -59.726  1.00  0.00     0.210 HD
ENDBRANCH   5  24
BRANCH   6  26
HETATM   26  O5  UNL     1      25.476 -42.959 -57.431  1.00  0.00    -0.390 OA
ATOM     27  H5  UNL     1      24.907 -42.675 -58.136  1.00  0.00     0.210 HD
ENDBRANCH   6  26
TORSDOF 11
ENDMDL
MODEL 4
REMARK VINA RESULT: -7.047994123      2.311      3.573
REMARK  11 active torsions:
REMARK  status: ('A' for Active; 'I' for Inactive)
REMARK    1  A    between atoms: O1_1  and  C1_3 
REMARK    2  A    between atoms: C1_3  and  C2_4 
REMARK    3  A    between atoms: C3_6  and  C4_7 
REMARK    4  A    between atoms: C4_7  and  C5_8 
REMARK    5  A    between atoms: C5_8  and  C6_9 
REMARK    6  A    between atoms: C6_9  and  C7_10 
REMARK    7  A    between atoms: C7_10  and  C8_11 
REMARK    8  A    between atoms: C8_11  and  C9_12 
REMARK    9  A    between atoms: C13_19  and  O3_20 
REMARK   10  A    between atoms: C14_22  and  O4_23 
REMARK   11  A    between atoms: C15_25  and  O5_26 
ROOT
HETATM    1  C2  UNL     1      26.948 -42.427 -57.504  1.00  0.00     0.176 C 
HETATM    2  O2  UNL     1      25.639 -42.058 -57.775  1.00  0.00    -0.373 OA
HETATM    3  C3  UNL     1      25.337 -40.895 -57.112  1.00  0.00     0.153 C 
HETATM    4  C13 UNL     1      26.011 -39.753 -57.792  1.00  0.00     0.178 C 
HETATM    5  C14 UNL     1      27.522 -39.982 -57.645  1.00  0.00     0.180 C 
HETATM    6  C15 UNL     1      27.817 -41.311 -57.031  1.00  0.00     0.180 C 
ENDROOT
BRANCH   3   7
HETATM    7  C4  UNL     1      23.861 -40.693 -56.883  1.00  0.00     0.035 C 
BRANCH   7   8
HETATM    8  C5  UNL     1      23.476 -40.612 -55.455  1.00  0.00     0.002 C 
BRANCH   8   9
HETATM    9  C6  UNL     1      24.564 -41.306 -54.617  1.00  0.00     0.000 C 
BRANCH   9  10
HETATM   10  C7  UNL     1      25.138 -40.443 -53.563  1.00  0.00     0.002 C 
BRANCH  10  11
HETATM   11  C8  UNL     1      26.239 -39.577 -54.059  1.00  0.00     0.033 C 
BRANCH  11  12
HETATM   12  C9  UNL     1      26.071 -38.105 -53.969  1.00  0.00     0.186 C 
HETATM   13  C10 UNL     1      27.163 -37.495 -53.077  1.00  0.00     0.034 C 
HETATM   14  C11 UNL     1      27.346 -36.078 -53.582  1.00  0.00     0.029 C 
HETATM   15  C12 UNL     1      26.421 -36.035 -54.777  1.00  0.00     0.233 C 
HETATM   16  N1  UNL     1      26.427 -37.410 -55.217  1.00  0.00    -0.071 N 
ATOM     17  H12 UNL     1      27.288 -37.724 -55.664  1.00  0.00     0.277 HD
ATOM     18  H11 UNL     1      25.831 -37.616 -56.019  1.00  0.00     0.277 HD
ENDBRANCH  11  12
ENDBRANCH  10  11
ENDBRANCH   9  10
ENDBRANCH   8   9
ENDBRANCH   7   8
ENDBRANCH   3   7
BRANCH   4  19
HETATM   19  O3  UNL     1      25.755 -39.692 -59.154  1.00  0.00    -0.390 OA
ATOM     20  H3  UNL     1      24.889 -39.364 -59.362  1.00  0.00     0.210 HD
ENDBRANCH   4  19
BRANCH   1  21
HETATM   21  C1  UNL     1      27.584 -43.146 -58.694  1.00  0.00     0.198 C 
BRANCH  21  22
HETATM   22  O1  UNL     1      26.987 -42.706 -59.877  1.00  0.00    -0.398 OA
ATOM     23  H1  UNL     1      27.628 -42.715 -60.577  1.00  0.00     0.209 HD
ENDBRANCH  21  22
ENDBRANCH   1  21
BRANCH   5  24
HETATM   24  O4  UNL     1      28.083 -38.996 -56.812  1.00  0.00    -0.390 OA
ATOM     25  H4  UNL     1      29.022 -38.952 -56.945  1.00  0.00     0.210 HD
ENDBRANCH   5  24
BRANCH   6  26
HETATM   26  O5  UNL     1      29.147 -41.641 -57.380  1.00  0.00    -0.390 OA
ATOM     27  H5  UNL     1      29.222 -41.544 -58.322  1.00  0.00     0.210 HD
ENDBRANCH   6  26
TORSDOF 11
ENDMDL
MODEL 5
REMARK VINA RESULT: -6.991382354      2.638      3.635
REMARK  11 active torsions:
REMARK  status: ('A' for Active; 'I' for Inactive)
REMARK    1  A    between atoms: O1_1  and  C1_3 
REMARK    2  A    between atoms: C1_3  and  C2_4 
REMARK    3  A    between atoms: C3_6  and  C4_7 
REMARK    4  A    between atoms: C4_7  and  C5_8 
REMARK    5  A    between atoms: C5_8  and  C6_9 
REMARK    6  A    between atoms: C6_9  and  C7_10 
REMARK    7  A    between atoms: C7_10  and  C8_11 
REMARK    8  A    between atoms: C8_11  and  C9_12 
REMARK    9  A    between atoms: C13_19  and  O3_20 
REMARK   10  A    between atoms: C14_22  and  O4_23 
REMARK   11  A    between atoms: C15_25  and  O5_26 
ROOT
HETATM    1  C2  UNL     1      28.310 -41.422 -56.636  1.00  0.00     0.176 C 
HETATM    2  O2  UNL     1      27.387 -42.451 -56.744  1.00  0.00    -0.373 OA
HETATM    3  C3  UNL     1      26.129 -41.930 -56.918  1.00  0.00     0.153 C 
HETATM    4  C13 UNL     1      26.004 -41.403 -58.307  1.00  0.00     0.178 C 
HETATM    5  C14 UNL     1      26.999 -40.240 -58.428  1.00  0.00     0.180 C 
HETATM    6  C15 UNL     1      27.855 -40.123 -57.210  1.00  0.00     0.180 C 
ENDROOT
BRANCH   3   7
HETATM    7  C4  UNL     1      25.022 -42.870 -56.513  1.00  0.00     0.035 C 
BRANCH   7   8
HETATM    8  C5  UNL     1      24.497 -42.631 -55.149  1.00  0.00     0.002 C 
BRANCH   8   9
HETATM    9  C6  UNL     1      24.102 -41.148 -55.030  1.00  0.00     0.000 C 
BRANCH   9  10
HETATM   10  C7  UNL     1      24.728 -40.461 -53.881  1.00  0.00     0.002 C 
BRANCH  10  11
HETATM   11  C8  UNL     1      26.039 -39.847 -54.217  1.00  0.00     0.033 C 
BRANCH  11  12
HETATM   12  C9  UNL     1      26.101 -38.375 -54.395  1.00  0.00     0.186 C 
HETATM   13  C10 UNL     1      26.828 -37.723 -53.209  1.00  0.00     0.034 C 
HETATM   14  C11 UNL     1      27.436 -36.451 -53.763  1.00  0.00     0.029 C 
HETATM   15  C12 UNL     1      27.091 -36.537 -55.233  1.00  0.00     0.233 C 
HETATM   16  N1  UNL     1      27.041 -37.964 -55.451  1.00  0.00    -0.071 N 
ATOM     17  H12 UNL     1      27.942 -38.440 -55.445  1.00  0.00     0.277 HD
ATOM     18  H11 UNL     1      26.793 -38.255 -56.397  1.00  0.00     0.277 HD
ENDBRANCH  11  12
ENDBRANCH  10  11
ENDBRANCH   9  10
ENDBRANCH   8   9
ENDBRANCH   7   8
ENDBRANCH   3   7
BRANCH   4  19
HETATM   19  O3  UNL     1      26.358 -42.324 -59.282  1.00  0.00    -0.390 OA
ATOM     20  H3  UNL     1      25.871 -42.224 -60.091  1.00  0.00     0.210 HD
ENDBRANCH   4  19
BRANCH   1  21
HETATM   21  C1  UNL     1      29.668 -41.826 -57.212  1.00  0.00     0.198 C 
BRANCH  21  22
HETATM   22  O1  UNL     1      29.475 -42.638 -58.331  1.00  0.00    -0.398 OA
ATOM     23  H1  UNL     1      28.942 -42.178 -58.968  1.00  0.00     0.209 HD
ENDBRANCH  21  22
ENDBRANCH   1  21
BRANCH   5  24
HETATM   24  O4  UNL     1      26.307 -39.024 -58.579  1.00  0.00    -0.390 OA
ATOM     25  H4  UNL     1      25.661 -38.928 -57.889  1.00  0.00     0.210 HD
ENDBRANCH   5  24
BRANCH   6  26
HETATM   26  O5  UNL     1      29.012 -39.404 -57.587  1.00  0.00    -0.390 OA
ATOM     27  H5  UNL     1      29.302 -39.756 -58.419  1.00  0.00     0.210 HD
ENDBRANCH   6  26
TORSDOF 11
ENDMDL
