MODEL 1
REMARK VINA RESULT: -5.143579961      0.000      0.000
REMARK  13 active torsions:
REMARK  status: ('A' for Active; 'I' for Inactive)
REMARK    1  A    between atoms: O1_2  and  C2_3 
REMARK    2  A    between atoms: C2_3  and  C3_4 
REMARK    3  A    between atoms: C3_4  and  C4_5 
REMARK    4  A    between atoms: C4_5  and  C5_6 
REMARK    5  A    between atoms: C6_7  and  C7_8 
REMARK    6  A    between atoms: C7_8  and  O2_9 
REMARK    7  A    between atoms: C9_12  and  N1_13 
REMARK       I    between atoms: N1_13  and  C10_15 
REMARK    8  A    between atoms: C10_15  and  C11_17 
REMARK    9  A    between atoms: C11_17  and  N2_18 
REMARK   10  A    between atoms: N5_28  and  C17_29 
REMARK   11  A    between atoms: C17_29  and  C18_30 
REMARK   12  A    between atoms: C18_30  and  C19_32 
REMARK   13  A    between atoms: C19_32  and  C20_33 
ROOT
HETATM    1  C5  UNL     1       8.281   4.705  23.930  1.00  0.00     0.023 A 
HETATM    2  C6  UNL     1       9.032   3.514  24.273  1.00  0.00     0.006 A 
HETATM    3  C8  UNL     1       8.612   3.095  25.475  1.00  0.00     0.063 A 
HETATM    4  C9  UNL     1       8.936   2.042  26.314  1.00  0.00     0.123 A 
HETATM    5  N3  UNL     1       8.268   1.947  27.492  1.00  0.00    -0.331 N 
ATOM      6  H3  UNL     1       8.505   1.173  28.112  1.00  0.00     0.168 HD
HETATM    7  C14 UNL     1       7.320   2.801  27.895  1.00  0.00     0.080 A 
HETATM    8  C15 UNL     1       6.622   2.641  29.203  1.00  0.00     0.089 C 
HETATM    9  N4  UNL     1       6.987   3.830  27.098  1.00  0.00    -0.331 N 
ATOM     10  H4  UNL     1       6.267   4.493  27.385  1.00  0.00     0.168 HD
HETATM   11  C16 UNL     1       7.617   3.976  25.916  1.00  0.00     0.124 A 
HETATM   12  N5  UNL     1       7.477   4.914  24.933  1.00  0.00    -0.328 N 
ENDROOT
BRANCH   4  13
HETATM   13  N1  UNL     1       9.820   1.198  25.995  1.00  0.00    -0.311 N 
HETATM   14  C10 UNL     1       9.592  -0.198  25.862  1.00  0.00     0.251 C 
HETATM   15  O3  UNL     1       9.863  -0.905  26.874  1.00  0.00    -0.271 OA
ATOM     16  H1  UNL     1      10.765   1.544  25.822  1.00  0.00     0.170 HD
BRANCH  14  17
HETATM   17  C11 UNL     1       9.074  -0.827  24.637  1.00  0.00     0.373 C 
BRANCH  17  18
HETATM   18  N2  UNL     1       7.640  -0.834  24.648  1.00  0.00     0.088 N 
HETATM   19  C12 UNL     1       7.032   0.109  23.757  1.00  0.00     0.310 C 
HETATM   20  C13 UNL     1       7.073  -2.137  24.451  1.00  0.00     0.310 C 
ENDBRANCH  17  18
ENDBRANCH  14  17
ENDBRANCH   4  13
BRANCH   2  21
HETATM   21  C7  UNL     1      10.053   2.979  23.354  1.00  0.00     0.206 C 
BRANCH  21  22
HETATM   22  O2  UNL     1      11.345   3.017  23.713  1.00  0.00    -0.396 OA
ATOM     23  H2  UNL     1      11.998   3.279  23.075  1.00  0.00     0.209 HD
ENDBRANCH  21  22
ENDBRANCH   2  21
BRANCH   1  24
HETATM   24  C4  UNL     1       8.580   5.344  22.644  1.00  0.00     0.060 C 
BRANCH  24  25
HETATM   25  C3  UNL     1       9.299   6.613  22.607  1.00  0.00     0.032 C 
BRANCH  25  26
HETATM   26  C2  UNL     1       8.241   7.703  22.268  1.00  0.00     0.167 C 
BRANCH  26  27
HETATM   27  O1  UNL     1       8.850   8.631  21.431  1.00  0.00    -0.396 OA
HETATM   28  C1  UNL     1       7.896   9.561  21.009  1.00  0.00     0.201 C 
ENDBRANCH  26  27
ENDBRANCH  25  26
ENDBRANCH  24  25
ENDBRANCH   1  24
BRANCH  12  29
HETATM   29  C17 UNL     1       6.519   6.002  25.077  1.00  0.00     0.209 C 
BRANCH  29  30
HETATM   30  C18 UNL     1       7.039   7.100  25.898  1.00  0.00     0.145 C 
HETATM   31  O4  UNL     1       6.240   7.670  26.647  1.00  0.00    -0.296 OA
BRANCH  30  32
HETATM   32  C19 UNL     1       8.416   7.564  25.896  1.00  0.00     0.088 C 
BRANCH  32  33
HETATM   33  C20 UNL     1       9.334   7.143  26.977  1.00  0.00    -0.045 C 
HETATM   34  C21 UNL     1       8.693   6.541  28.195  1.00  0.00     0.015 C 
HETATM   35  C22 UNL     1      10.056   8.424  27.464  1.00  0.00     0.015 C 
HETATM   36  C23 UNL     1      10.424   6.199  26.537  1.00  0.00     0.015 C 
ENDBRANCH  32  33
ENDBRANCH  30  32
ENDBRANCH  29  30
ENDBRANCH  12  29
TORSDOF 13
ENDMDL
MODEL 2
REMARK VINA RESULT: -5.060334758      1.634      2.101
REMARK  13 active torsions:
REMARK  status: ('A' for Active; 'I' for Inactive)
REMARK    1  A    between atoms: O1_2  and  C2_3 
REMARK    2  A    between atoms: C2_3  and  C3_4 
REMARK    3  A    between atoms: C3_4  and  C4_5 
REMARK    4  A    between atoms: C4_5  and  C5_6 
REMARK    5  A    between atoms: C6_7  and  C7_8 
REMARK    6  A    between atoms: C7_8  and  O2_9 
REMARK    7  A    between atoms: C9_12  and  N1_13 
REMARK       I    between atoms: N1_13  and  C10_15 
REMARK    8  A    between atoms: C10_15  and  C11_17 
REMARK    9  A    between atoms: C11_17  and  N2_18 
REMARK   10  A    between atoms: N5_28  and  C17_29 
REMARK   11  A    between atoms: C17_29  and  C18_30 
REMARK   12  A    between atoms: C18_30  and  C19_32 
REMARK   13  A    between atoms: C19_32  and  C20_33 
ROOT
HETATM    1  C5  UNL     1       9.796   5.523  25.143  1.00  0.00     0.023 A 
HETATM    2  C6  UNL     1       9.974   4.099  25.344  1.00  0.00     0.006 A 
HETATM    3  C8  UNL     1       8.937   3.653  26.066  1.00  0.00     0.063 A 
HETATM    4  C9  UNL     1       8.549   2.422  26.566  1.00  0.00     0.123 A 
HETATM    5  N3  UNL     1       7.392   2.366  27.276  1.00  0.00    -0.331 N 
ATOM      6  H3  UNL     1       7.104   1.460  27.645  1.00  0.00     0.168 HD
HETATM    7  C14 UNL     1       6.606   3.419  27.523  1.00  0.00     0.080 A 
HETATM    8  C15 UNL     1       5.346   3.293  28.310  1.00  0.00     0.089 C 
HETATM    9  N4  UNL     1       6.961   4.625  27.048  1.00  0.00    -0.331 N 
ATOM     10  H4  UNL     1       6.376   5.442  27.224  1.00  0.00     0.168 HD
HETATM   11  C16 UNL     1       8.099   4.741  26.336  1.00  0.00     0.124 A 
HETATM   12  N5  UNL     1       8.684   5.827  25.749  1.00  0.00    -0.328 N 
ENDROOT
BRANCH   4  13
HETATM   13  N1  UNL     1       9.243   1.385  26.369  1.00  0.00    -0.311 N 
HETATM   14  C10 UNL     1       8.882   0.327  25.492  1.00  0.00     0.251 C 
HETATM   15  O3  UNL     1       8.299  -0.661  26.023  1.00  0.00    -0.271 OA
ATOM     16  H1  UNL     1      10.126   1.302  26.875  1.00  0.00     0.170 HD
BRANCH  14  17
HETATM   17  C11 UNL     1       9.153   0.337  24.045  1.00  0.00     0.373 C 
BRANCH  17  18
HETATM   18  N2  UNL     1       8.328   1.310  23.391  1.00  0.00     0.088 N 
HETATM   19  C12 UNL     1       8.916   1.904  22.226  1.00  0.00     0.310 C 
HETATM   20  C13 UNL     1       7.009   0.831  23.089  1.00  0.00     0.310 C 
ENDBRANCH  17  18
ENDBRANCH  14  17
ENDBRANCH   4  13
BRANCH   2  21
HETATM   21  C7  UNL     1      11.150   3.403  24.790  1.00  0.00     0.206 C 
BRANCH  21  22
HETATM   22  O2  UNL     1      11.887   2.618  25.590  1.00  0.00    -0.396 OA
ATOM     23  H2  UNL     1      12.716   2.279  25.274  1.00  0.00     0.209 HD
ENDBRANCH  21  22
ENDBRANCH   2  21
BRANCH   1  24
HETATM   24  C4  UNL     1      10.826   6.229  24.373  1.00  0.00     0.060 C 
BRANCH  24  25
HETATM   25  C3  UNL     1      10.852   6.127  22.918  1.00  0.00     0.032 C 
BRANCH  25  26
HETATM   26  C2  UNL     1       9.398   6.405  22.436  1.00  0.00     0.167 C 
BRANCH  26  27
HETATM   27  O1  UNL     1       9.395   7.649  21.815  1.00  0.00    -0.396 OA
HETATM   28  C1  UNL     1       8.231   8.335  22.172  1.00  0.00     0.201 C 
ENDBRANCH  26  27
ENDBRANCH  25  26
ENDBRANCH  24  25
ENDBRANCH   1  24
BRANCH  12  29
HETATM   29  C17 UNL     1       8.071   7.145  25.848  1.00  0.00     0.209 C 
BRANCH  29  30
HETATM   30  C18 UNL     1       8.814   8.041  26.739  1.00  0.00     0.145 C 
HETATM   31  O4  UNL     1       9.020   9.190  26.336  1.00  0.00    -0.296 OA
BRANCH  30  32
HETATM   32  C19 UNL     1       9.324   7.681  28.051  1.00  0.00     0.088 C 
BRANCH  32  33
HETATM   33  C20 UNL     1       8.453   7.813  29.238  1.00  0.00    -0.045 C 
HETATM   34  C21 UNL     1       7.308   8.779  29.118  1.00  0.00     0.015 C 
HETATM   35  C22 UNL     1       9.347   8.352  30.382  1.00  0.00     0.015 C 
HETATM   36  C23 UNL     1       7.882   6.511  29.741  1.00  0.00     0.015 C 
ENDBRANCH  32  33
ENDBRANCH  30  32
ENDBRANCH  29  30
ENDBRANCH  12  29
TORSDOF 13
ENDMDL
MODEL 3
REMARK VINA RESULT: -4.948479759      2.833      7.034
REMARK  13 active torsions:
REMARK  status: ('A' for Active; 'I' for Inactive)
REMARK    1  A    between atoms: O1_2  and  C2_3 
REMARK    2  A    between atoms: C2_3  and  C3_4 
REMARK    3  A    between atoms: C3_4  and  C4_5 
REMARK    4  A    between atoms: C4_5  and  C5_6 
REMARK    5  A    between atoms: C6_7  and  C7_8 
REMARK    6  A    between atoms: C7_8  and  O2_9 
REMARK    7  A    between atoms: C9_12  and  N1_13 
REMARK       I    between atoms: N1_13  and  C10_15 
REMARK    8  A    between atoms: C10_15  and  C11_17 
REMARK    9  A    between atoms: C11_17  and  N2_18 
REMARK   10  A    between atoms: N5_28  and  C17_29 
REMARK   11  A    between atoms: C17_29  and  C18_30 
REMARK   12  A    between atoms: C18_30  and  C19_32 
REMARK   13  A    between atoms: C19_32  and  C20_33 
ROOT
HETATM    1  C5  UNL     1       9.866   4.036  23.166  1.00  0.00     0.023 A 
HETATM    2  C6  UNL     1       9.118   5.241  22.871  1.00  0.00     0.006 A 
HETATM    3  C8  UNL     1       7.878   4.878  22.514  1.00  0.00     0.063 A 
HETATM    4  C9  UNL     1       6.732   5.553  22.128  1.00  0.00     0.123 A 
HETATM    5  N3  UNL     1       5.633   4.811  21.834  1.00  0.00    -0.331 N 
ATOM      6  H3  UNL     1       4.788   5.306  21.549  1.00  0.00     0.168 HD
HETATM    7  C14 UNL     1       5.584   3.476  21.893  1.00  0.00     0.080 A 
HETATM    8  C15 UNL     1       4.344   2.718  21.557  1.00  0.00     0.089 C 
HETATM    9  N4  UNL     1       6.683   2.798  22.265  1.00  0.00    -0.331 N 
ATOM     10  H4  UNL     1       6.668   1.780  22.317  1.00  0.00     0.168 HD
HETATM   11  C16 UNL     1       7.804   3.481  22.569  1.00  0.00     0.124 A 
HETATM   12  N5  UNL     1       9.038   3.051  22.968  1.00  0.00    -0.328 N 
ENDROOT
BRANCH   4  13
HETATM   13  N1  UNL     1       6.707   6.814  22.053  1.00  0.00    -0.311 N 
HETATM   14  C10 UNL     1       5.812   7.647  22.776  1.00  0.00     0.251 C 
HETATM   15  O3  UNL     1       4.762   7.998  22.164  1.00  0.00    -0.271 OA
ATOM     16  H1  UNL     1       7.378   7.265  21.430  1.00  0.00     0.170 HD
BRANCH  14  17
HETATM   17  C11 UNL     1       6.051   8.101  24.155  1.00  0.00     0.373 C 
BRANCH  17  18
HETATM   18  N2  UNL     1       7.322   8.758  24.250  1.00  0.00     0.088 N 
HETATM   19  C12 UNL     1       7.406   9.998  23.536  1.00  0.00     0.310 C 
HETATM   20  C13 UNL     1       7.775   8.933  25.599  1.00  0.00     0.310 C 
ENDBRANCH  17  18
ENDBRANCH  14  17
ENDBRANCH   4  13
BRANCH   2  21
HETATM   21  C7  UNL     1       9.752   6.567  22.987  1.00  0.00     0.206 C 
BRANCH  21  22
HETATM   22  O2  UNL     1       9.680   7.422  21.957  1.00  0.00    -0.396 OA
ATOM     23  H2  UNL     1      10.189   8.224  21.981  1.00  0.00     0.209 HD
ENDBRANCH  21  22
ENDBRANCH   2  21
BRANCH   1  24
HETATM   24  C4  UNL     1      11.265   4.195  23.579  1.00  0.00     0.060 C 
BRANCH  24  25
HETATM   25  C3  UNL     1      11.675   3.828  24.931  1.00  0.00     0.032 C 
BRANCH  25  26
HETATM   26  C2  UNL     1      10.863   4.740  25.895  1.00  0.00     0.167 C 
BRANCH  26  27
HETATM   27  O1  UNL     1      11.584   5.917  26.063  1.00  0.00    -0.396 OA
HETATM   28  C1  UNL     1      10.747   6.892  26.612  1.00  0.00     0.201 C 
ENDBRANCH  26  27
ENDBRANCH  25  26
ENDBRANCH  24  25
ENDBRANCH   1  24
BRANCH  12  29
HETATM   29  C17 UNL     1       9.315   1.628  23.117  1.00  0.00     0.209 C 
BRANCH  29  30
HETATM   30  C18 UNL     1       9.080   1.154  24.485  1.00  0.00     0.145 C 
HETATM   31  O4  UNL     1       7.975   1.396  24.982  1.00  0.00    -0.296 OA
BRANCH  30  32
HETATM   32  C19 UNL     1      10.043   0.426  25.293  1.00  0.00     0.088 C 
BRANCH  32  33
HETATM   33  C20 UNL     1       9.866  -1.026  25.515  1.00  0.00    -0.045 C 
HETATM   34  C21 UNL     1       8.722  -1.674  24.788  1.00  0.00     0.015 C 
HETATM   35  C22 UNL     1       9.569  -1.206  27.025  1.00  0.00     0.015 C 
HETATM   36  C23 UNL     1      11.094  -1.854  25.236  1.00  0.00     0.015 C 
ENDBRANCH  32  33
ENDBRANCH  30  32
ENDBRANCH  29  30
ENDBRANCH  12  29
TORSDOF 13
ENDMDL
MODEL 4
REMARK VINA RESULT: -4.917602184      3.107      4.968
REMARK  13 active torsions:
REMARK  status: ('A' for Active; 'I' for Inactive)
REMARK    1  A    between atoms: O1_2  and  C2_3 
REMARK    2  A    between atoms: C2_3  and  C3_4 
REMARK    3  A    between atoms: C3_4  and  C4_5 
REMARK    4  A    between atoms: C4_5  and  C5_6 
REMARK    5  A    between atoms: C6_7  and  C7_8 
REMARK    6  A    between atoms: C7_8  and  O2_9 
REMARK    7  A    between atoms: C9_12  and  N1_13 
REMARK       I    between atoms: N1_13  and  C10_15 
REMARK    8  A    between atoms: C10_15  and  C11_17 
REMARK    9  A    between atoms: C11_17  and  N2_18 
REMARK   10  A    between atoms: N5_28  and  C17_29 
REMARK   11  A    between atoms: C17_29  and  C18_30 
REMARK   12  A    between atoms: C18_30  and  C19_32 
REMARK   13  A    between atoms: C19_32  and  C20_33 
ROOT
HETATM    1  C5  UNL     1       7.532   2.207  23.438  1.00  0.00     0.023 A 
HETATM    2  C6  UNL     1       6.777   0.996  23.691  1.00  0.00     0.006 A 
HETATM    3  C8  UNL     1       7.633   0.061  24.125  1.00  0.00     0.063 A 
HETATM    4  C9  UNL     1       7.522  -1.262  24.520  1.00  0.00     0.123 A 
HETATM    5  N3  UNL     1       8.657  -1.901  24.906  1.00  0.00    -0.331 N 
ATOM      6  H3  UNL     1       8.577  -2.875  25.197  1.00  0.00     0.168 HD
HETATM    7  C14 UNL     1       9.870  -1.339  24.931  1.00  0.00     0.080 A 
HETATM    8  C15 UNL     1      11.079  -2.096  25.367  1.00  0.00     0.089 C 
HETATM    9  N4  UNL     1      10.004  -0.057  24.553  1.00  0.00    -0.331 N 
ATOM     10  H4  UNL     1      10.920   0.392  24.564  1.00  0.00     0.168 HD
HETATM   11  C16 UNL     1       8.913   0.629  24.159  1.00  0.00     0.124 A 
HETATM   12  N5  UNL     1       8.768   1.918  23.732  1.00  0.00    -0.328 N 
ENDROOT
BRANCH   4  13
HETATM   13  N1  UNL     1       6.407  -1.854  24.523  1.00  0.00    -0.311 N 
HETATM   14  C10 UNL     1       6.032  -2.874  23.608  1.00  0.00     0.251 C 
HETATM   15  O3  UNL     1       5.369  -2.500  22.598  1.00  0.00    -0.271 OA
ATOM     16  H1  UNL     1       5.727  -1.580  25.233  1.00  0.00     0.170 HD
BRANCH  14  17
HETATM   17  C11 UNL     1       6.372  -4.295  23.784  1.00  0.00     0.373 C 
BRANCH  17  18
HETATM   18  N2  UNL     1       6.861  -4.847  22.555  1.00  0.00     0.088 N 
HETATM   19  C12 UNL     1       8.250  -5.201  22.571  1.00  0.00     0.310 C 
HETATM   20  C13 UNL     1       6.077  -5.946  22.069  1.00  0.00     0.310 C 
ENDBRANCH  17  18
ENDBRANCH  14  17
ENDBRANCH   4  13
BRANCH   2  21
HETATM   21  C7  UNL     1       5.322   0.956  23.460  1.00  0.00     0.206 C 
BRANCH  21  22
HETATM   22  O2  UNL     1       4.841   0.259  22.420  1.00  0.00    -0.396 OA
ATOM     23  H2  UNL     1       5.202  -0.597  22.225  1.00  0.00     0.209 HD
ENDBRANCH  21  22
ENDBRANCH   2  21
BRANCH   1  24
HETATM   24  C4  UNL     1       6.791   3.374  22.948  1.00  0.00     0.060 C 
BRANCH  24  25
HETATM   25  C3  UNL     1       6.970   3.831  21.574  1.00  0.00     0.032 C 
BRANCH  25  26
HETATM   26  C2  UNL     1       5.608   3.603  20.857  1.00  0.00     0.167 C 
BRANCH  26  27
HETATM   27  O1  UNL     1       5.610   2.305  20.359  1.00  0.00    -0.396 OA
HETATM   28  C1  UNL     1       4.874   2.270  19.171  1.00  0.00     0.201 C 
ENDBRANCH  26  27
ENDBRANCH  25  26
ENDBRANCH  24  25
ENDBRANCH   1  24
BRANCH  12  29
HETATM   29  C17 UNL     1       9.922   2.801  23.634  1.00  0.00     0.209 C 
BRANCH  29  30
HETATM   30  C18 UNL     1      10.448   3.182  24.948  1.00  0.00     0.145 C 
HETATM   31  O4  UNL     1      11.579   2.777  25.240  1.00  0.00    -0.296 OA
BRANCH  30  32
HETATM   32  C19 UNL     1       9.745   3.993  25.927  1.00  0.00     0.088 C 
BRANCH  32  33
HETATM   33  C20 UNL     1       9.885   5.465  25.896  1.00  0.00    -0.045 C 
HETATM   34  C21 UNL     1      11.276   6.003  26.078  1.00  0.00     0.015 C 
HETATM   35  C22 UNL     1       9.058   6.010  27.088  1.00  0.00     0.015 C 
HETATM   36  C23 UNL     1       9.314   6.121  24.665  1.00  0.00     0.015 C 
ENDBRANCH  32  33
ENDBRANCH  30  32
ENDBRANCH  29  30
ENDBRANCH  12  29
TORSDOF 13
ENDMDL
MODEL 5
REMARK VINA RESULT: -4.914098195      2.020      2.456
REMARK  13 active torsions:
REMARK  status: ('A' for Active; 'I' for Inactive)
REMARK    1  A    between atoms: O1_2  and  C2_3 
REMARK    2  A    between atoms: C2_3  and  C3_4 
REMARK    3  A    between atoms: C3_4  and  C4_5 
REMARK    4  A    between atoms: C4_5  and  C5_6 
REMARK    5  A    between atoms: C6_7  and  C7_8 
REMARK    6  A    between atoms: C7_8  and  O2_9 
REMARK    7  A    between atoms: C9_12  and  N1_13 
REMARK       I    between atoms: N1_13  and  C10_15 
REMARK    8  A    between atoms: C10_15  and  C11_17 
REMARK    9  A    between atoms: C11_17  and  N2_18 
REMARK   10  A    between atoms: N5_28  and  C17_29 
REMARK   11  A    between atoms: C17_29  and  C18_30 
REMARK   12  A    between atoms: C18_30  and  C19_32 
REMARK   13  A    between atoms: C19_32  and  C20_33 
ROOT
HETATM    1  C5  UNL     1       9.507   5.054  24.105  1.00  0.00     0.023 A 
HETATM    2  C6  UNL     1       9.611   3.629  24.344  1.00  0.00     0.006 A 
HETATM    3  C8  UNL     1       8.373   3.153  24.537  1.00  0.00     0.063 A 
HETATM    4  C9  UNL     1       7.834   1.905  24.801  1.00  0.00     0.123 A 
HETATM    5  N3  UNL     1       6.485   1.818  24.937  1.00  0.00    -0.331 N 
ATOM      6  H3  UNL     1       6.085   0.900  25.132  1.00  0.00     0.168 HD
HETATM    7  C14 UNL     1       5.646   2.855  24.833  1.00  0.00     0.080 A 
HETATM    8  C15 UNL     1       4.173   2.693  24.993  1.00  0.00     0.089 C 
HETATM    9  N4  UNL     1       6.146   4.075  24.576  1.00  0.00    -0.331 N 
ATOM     10  H4  UNL     1       5.525   4.880  24.492  1.00  0.00     0.168 HD
HETATM   11  C16 UNL     1       7.477   4.223  24.431  1.00  0.00     0.124 A 
HETATM   12  N5  UNL     1       8.235   5.329  24.172  1.00  0.00    -0.328 N 
ENDROOT
BRANCH   4  13
HETATM   13  N1  UNL     1       8.567   0.882  24.910  1.00  0.00    -0.311 N 
HETATM   14  C10 UNL     1       8.609   0.038  26.052  1.00  0.00     0.251 C 
HETATM   15  O3  UNL     1       9.524   0.280  26.890  1.00  0.00    -0.271 OA
ATOM     16  H1  UNL     1       9.172   0.647  24.123  1.00  0.00     0.170 HD
BRANCH  14  17
HETATM   17  C11 UNL     1       7.665  -1.067  26.285  1.00  0.00     0.373 C 
BRANCH  17  18
HETATM   18  N2  UNL     1       7.454  -1.806  25.074  1.00  0.00     0.088 N 
HETATM   19  C12 UNL     1       8.274  -2.974  24.938  1.00  0.00     0.310 C 
HETATM   20  C13 UNL     1       6.078  -2.137  24.840  1.00  0.00     0.310 C 
ENDBRANCH  17  18
ENDBRANCH  14  17
ENDBRANCH   4  13
BRANCH   2  21
HETATM   21  C7  UNL     1      10.926   2.961  24.345  1.00  0.00     0.206 C 
BRANCH  21  22
HETATM   22  O2  UNL     1      11.304   2.257  25.422  1.00  0.00    -0.396 OA
ATOM     23  H2  UNL     1      11.822   1.470  25.305  1.00  0.00     0.209 HD
ENDBRANCH  21  22
ENDBRANCH   2  21
BRANCH   1  24
HETATM   24  C4  UNL     1      10.753   5.791  23.869  1.00  0.00     0.060 C 
BRANCH  24  25
HETATM   25  C3  UNL     1      11.019   6.379  22.560  1.00  0.00     0.032 C 
BRANCH  25  26
HETATM   26  C2  UNL     1      11.773   5.292  21.740  1.00  0.00     0.167 C 
BRANCH  26  27
HETATM   27  O1  UNL     1      10.900   4.825  20.764  1.00  0.00    -0.396 OA
HETATM   28  C1  UNL     1      11.639   4.383  19.663  1.00  0.00     0.201 C 
ENDBRANCH  26  27
ENDBRANCH  25  26
ENDBRANCH  24  25
ENDBRANCH   1  24
BRANCH  12  29
HETATM   29  C17 UNL     1       7.611   6.636  24.014  1.00  0.00     0.209 C 
BRANCH  29  30
HETATM   30  C18 UNL     1       7.357   7.293  25.299  1.00  0.00     0.145 C 
HETATM   31  O4  UNL     1       6.223   7.175  25.776  1.00  0.00    -0.296 OA
BRANCH  30  32
HETATM   32  C19 UNL     1       8.330   8.067  26.049  1.00  0.00     0.088 C 
BRANCH  32  33
HETATM   33  C20 UNL     1       9.073   7.433  27.160  1.00  0.00    -0.045 C 
HETATM   34  C21 UNL     1       8.719   6.005  27.466  1.00  0.00     0.015 C 
HETATM   35  C22 UNL     1       8.729   8.241  28.437  1.00  0.00     0.015 C 
HETATM   36  C23 UNL     1      10.573   7.498  27.025  1.00  0.00     0.015 C 
ENDBRANCH  32  33
ENDBRANCH  30  32
ENDBRANCH  29  30
ENDBRANCH  12  29
TORSDOF 13
ENDMDL
