MODEL 1
REMARK VINA RESULT: -7.297758741      0.000      0.000
REMARK  7 active torsions:
REMARK  status: ('A' for Active; 'I' for Inactive)
REMARK    1  A    between atoms: C3_6  and  C4_7 
REMARK    2  A    between atoms: C7_15  and  N3_16 
REMARK       I    between atoms: N3_16  and  C8_18 
REMARK    3  A    between atoms: C8_18  and  C9_20 
REMARK    4  A    between atoms: C9_20  and  C10_22 
REMARK    5  A    between atoms: C13_28  and  N5_29 
REMARK    6  A    between atoms: N8_38  and  C16_39 
REMARK    7  A    between atoms: C16_39  and  C17_40 
ROOT
HETATM    1  C10 UNL     1      21.639 -25.429  36.310  1.00  0.00     0.178 A 
HETATM    2  N4  UNL     1      21.136 -26.587  36.706  1.00  0.00    -0.322 N 
ATOM      3  H4  UNL     1      20.144 -26.820  36.701  1.00  0.00     0.169 HD
HETATM    4  C11 UNL     1      22.161 -27.451  37.137  1.00  0.00     0.143 A 
HETATM    5  C12 UNL     1      21.774 -28.730  37.681  1.00  0.00     0.083 A 
HETATM    6  S1  UNL     1      20.328 -28.814  38.660  1.00  0.00    -0.049 SA
HETATM    7  C13 UNL     1      20.061 -30.338  39.352  1.00  0.00     0.145 A 
HETATM    8  N6  UNL     1      20.988 -31.257  39.054  1.00  0.00    -0.302 N 
ATOM      9  H6  UNL     1      20.863 -32.187  39.454  1.00  0.00     0.171 HD
HETATM   10  C14 UNL     1      22.055 -31.070  38.289  1.00  0.00     0.273 A 
HETATM   11  O4  UNL     1      22.804 -32.105  38.148  1.00  0.00    -0.266 OA
HETATM   12  C15 UNL     1      22.424 -29.886  37.643  1.00  0.00     0.135 A 
HETATM   13  N7  UNL     1      23.577 -30.065  36.789  1.00  0.00    -0.095 NA
HETATM   14  N8  UNL     1      23.263 -26.761  36.982  1.00  0.00    -0.270 N 
HETATM   15  N9  UNL     1      22.941 -25.531  36.476  1.00  0.00    -0.278 N 
ATOM     16  H9  UNL     1      23.615 -24.797  36.259  1.00  0.00     0.189 HD
ENDROOT
BRANCH   1  17
HETATM   17  C9  UNL     1      20.827 -24.328  35.807  1.00  0.00     0.284 C 
HETATM   18  O3  UNL     1      19.585 -24.430  35.679  1.00  0.00    -0.278 OA
BRANCH  17  19
HETATM   19  C8  UNL     1      21.475 -23.076  35.443  1.00  0.00     0.297 C 
HETATM   20  N3  UNL     1      20.736 -21.868  35.341  1.00  0.00    -0.333 N 
ATOM     21  H3  UNL     1      19.734 -21.885  35.528  1.00  0.00     0.165 HD
HETATM   22  O2  UNL     1      22.702 -23.031  35.211  1.00  0.00    -0.264 OA
BRANCH  20  23
HETATM   23  C7  UNL     1      21.361 -20.608  34.980  1.00  0.00     0.190 C 
HETATM   24  N2  UNL     1      22.008 -20.738  33.755  1.00  0.00    -0.387 N 
HETATM   25  C6  UNL     1      22.914 -19.827  33.254  1.00  0.00     0.198 C 
ATOM     26  H2  UNL     1      21.799 -21.562  33.190  1.00  0.00     0.156 HD
HETATM   27  C2  UNL     1      23.811 -19.057  34.144  1.00  0.00     0.207 C 
HETATM   28  C5  UNL     1      22.428 -18.788  32.324  1.00  0.00     0.185 C 
HETATM   29  C1  UNL     1      24.938 -19.990  34.600  1.00  0.00     0.062 C 
HETATM   30  N1  UNL     1      24.462 -18.098  33.241  1.00  0.00    -0.041 N 
HETATM   31  S4  UNL     1      23.099 -18.137  35.474  1.00  0.00    -0.056 SA
HETATM   32  C3  UNL     1      23.632 -17.980  32.064  1.00  0.00     0.291 C 
ATOM     33  H12 UNL     1      24.653 -17.199  33.685  1.00  0.00     0.280 HD
ATOM     34  H11 UNL     1      25.428 -18.346  33.025  1.00  0.00     0.280 HD
HETATM   35  S3  UNL     1      21.005 -17.969  35.453  1.00  0.00    -0.091 SA
HETATM   36  C19 UNL     1      20.278 -19.558  35.039  1.00  0.00     0.132 C 
HETATM   37  O1  UNL     1      21.335 -18.640  31.890  1.00  0.00    -0.293 OA
BRANCH  32  38
HETATM   38  C4  UNL     1      23.392 -16.592  31.593  1.00  0.00     0.216 C 
HETATM   39 CL1  UNL     1      24.813 -15.784  30.926  1.00  0.00    -0.105 Cl
HETATM   40 CL2  UNL     1      22.606 -15.592  32.850  1.00  0.00    -0.105 Cl
ENDBRANCH  32  38
ENDBRANCH  20  23
ENDBRANCH  17  19
ENDBRANCH   1  17
BRANCH  14  41
HETATM   41  C16 UNL     1      24.618 -27.028  37.307  1.00  0.00     0.193 C 
BRANCH  41  42
HETATM   42  C17 UNL     1      25.545 -26.755  36.115  1.00  0.00     0.205 C 
HETATM   43  O5  UNL     1      24.963 -27.091  34.898  1.00  0.00    -0.364 OA
HETATM   44  C18 UNL     1      26.191 -27.431  34.352  1.00  0.00     0.246 C 
HETATM   45  S2  UNL     1      26.709 -28.135  35.944  1.00  0.00    -0.110 SA
ENDBRANCH  41  42
ENDBRANCH  14  41
BRANCH   7  46
HETATM   46  N5  UNL     1      19.044 -30.588  40.105  1.00  0.00    -0.380 N 
ATOM     47  H52 UNL     1      19.119 -31.098  40.985  1.00  0.00     0.158 HD
ATOM     48  H51 UNL     1      18.099 -30.289  39.866  1.00  0.00     0.158 HD
ENDBRANCH   7  46
TORSDOF 7
ENDMDL
MODEL 2
REMARK VINA RESULT: -7.116517139      2.582      3.549
REMARK  7 active torsions:
REMARK  status: ('A' for Active; 'I' for Inactive)
REMARK    1  A    between atoms: C3_6  and  C4_7 
REMARK    2  A    between atoms: C7_15  and  N3_16 
REMARK       I    between atoms: N3_16  and  C8_18 
REMARK    3  A    between atoms: C8_18  and  C9_20 
REMARK    4  A    between atoms: C9_20  and  C10_22 
REMARK    5  A    between atoms: C13_28  and  N5_29 
REMARK    6  A    between atoms: N8_38  and  C16_39 
REMARK    7  A    between atoms: C16_39  and  C17_40 
ROOT
HETATM    1  C10 UNL     1      20.665 -25.912  36.801  1.00  0.00     0.178 A 
HETATM    2  N4  UNL     1      21.402 -25.513  37.824  1.00  0.00    -0.322 N 
ATOM      3  H4  UNL     1      21.681 -24.548  37.997  1.00  0.00     0.169 HD
HETATM    4  C11 UNL     1      21.747 -26.606  38.642  1.00  0.00     0.143 A 
HETATM    5  C12 UNL     1      22.622 -26.355  39.761  1.00  0.00     0.083 A 
HETATM    6  S1  UNL     1      23.912 -25.191  39.565  1.00  0.00    -0.049 SA
HETATM    7  C13 UNL     1      24.949 -25.090  40.901  1.00  0.00     0.145 A 
HETATM    8  N6  UNL     1      24.639 -25.910  41.912  1.00  0.00    -0.302 N 
ATOM      9  H6  UNL     1      25.241 -25.879  42.734  1.00  0.00     0.171 HD
HETATM   10  C14 UNL     1      23.620 -26.759  41.944  1.00  0.00     0.273 A 
HETATM   11  O4  UNL     1      23.525 -27.444  43.028  1.00  0.00    -0.266 OA
HETATM   12  C15 UNL     1      22.673 -26.967  40.938  1.00  0.00     0.135 A 
HETATM   13  N7  UNL     1      21.626 -27.876  41.350  1.00  0.00    -0.095 NA
HETATM   14  N8  UNL     1      21.196 -27.642  38.062  1.00  0.00    -0.270 N 
HETATM   15  N9  UNL     1      20.535 -27.215  36.942  1.00  0.00    -0.278 N 
ATOM     16  H9  UNL     1      20.016 -27.820  36.307  1.00  0.00     0.189 HD
ENDROOT
BRANCH   1  17
HETATM   17  C9  UNL     1      20.151 -25.010  35.778  1.00  0.00     0.284 C 
HETATM   18  O3  UNL     1      19.104 -25.264  35.140  1.00  0.00    -0.278 OA
BRANCH  17  19
HETATM   19  C8  UNL     1      20.872 -23.778  35.489  1.00  0.00     0.297 C 
HETATM   20  N3  UNL     1      20.225 -22.516  35.542  1.00  0.00    -0.333 N 
ATOM     21  H3  UNL     1      19.236 -22.479  35.788  1.00  0.00     0.165 HD
HETATM   22  O2  UNL     1      22.085 -23.800  35.187  1.00  0.00    -0.264 OA
BRANCH  20  23
HETATM   23  C7  UNL     1      20.923 -21.276  35.257  1.00  0.00     0.190 C 
HETATM   24  N2  UNL     1      21.494 -21.338  33.989  1.00  0.00    -0.387 N 
HETATM   25  C6  UNL     1      22.439 -20.451  33.518  1.00  0.00     0.198 C 
ATOM     26  H2  UNL     1      21.193 -22.088  33.367  1.00  0.00     0.156 HD
HETATM   27  C2  UNL     1      23.438 -19.833  34.417  1.00  0.00     0.207 C 
HETATM   28  C5  UNL     1      21.985 -19.298  32.714  1.00  0.00     0.185 C 
HETATM   29  C1  UNL     1      24.512 -20.881  34.721  1.00  0.00     0.062 C 
HETATM   30  N1  UNL     1      24.112 -18.843  33.567  1.00  0.00    -0.041 N 
HETATM   31  S4  UNL     1      22.869 -18.992  35.864  1.00  0.00    -0.056 SA
HETATM   32  C3  UNL     1      23.232 -18.557  32.456  1.00  0.00     0.291 C 
ATOM     33  H12 UNL     1      24.393 -18.005  34.076  1.00  0.00     0.280 HD
ATOM     34  H11 UNL     1      25.043 -19.138  33.272  1.00  0.00     0.280 HD
HETATM   35  S3  UNL     1      20.796 -18.674  35.984  1.00  0.00    -0.091 SA
HETATM   36  C19 UNL     1      19.929 -20.161  35.473  1.00  0.00     0.132 C 
HETATM   37  O1  UNL     1      20.885 -19.032  32.361  1.00  0.00    -0.293 OA
BRANCH  32  38
HETATM   38  C4  UNL     1      23.074 -17.118  32.125  1.00  0.00     0.216 C 
HETATM   39 CL1  UNL     1      24.481 -16.380  31.354  1.00  0.00    -0.105 Cl
HETATM   40 CL2  UNL     1      22.535 -16.167  33.541  1.00  0.00    -0.105 Cl
ENDBRANCH  32  38
ENDBRANCH  20  23
ENDBRANCH  17  19
ENDBRANCH   1  17
BRANCH  14  41
HETATM   41  C16 UNL     1      21.237 -29.033  38.336  1.00  0.00     0.193 C 
BRANCH  41  42
HETATM   42  C17 UNL     1      22.603 -29.634  37.979  1.00  0.00     0.205 C 
HETATM   43  O5  UNL     1      23.193 -29.010  36.886  1.00  0.00    -0.364 OA
HETATM   44  C18 UNL     1      23.816 -30.185  36.493  1.00  0.00     0.246 C 
HETATM   45  S2  UNL     1      22.350 -31.133  36.991  1.00  0.00    -0.110 SA
ENDBRANCH  41  42
ENDBRANCH  14  41
BRANCH   7  46
HETATM   46  N5  UNL     1      25.958 -24.286  40.935  1.00  0.00    -0.380 N 
ATOM     47  H52 UNL     1      26.915 -24.592  40.761  1.00  0.00     0.158 HD
ATOM     48  H51 UNL     1      25.859 -23.292  41.139  1.00  0.00     0.158 HD
ENDBRANCH   7  46
TORSDOF 7
ENDMDL
MODEL 3
REMARK VINA RESULT: -7.074105715      1.286      1.587
REMARK  7 active torsions:
REMARK  status: ('A' for Active; 'I' for Inactive)
REMARK    1  A    between atoms: C3_6  and  C4_7 
REMARK    2  A    between atoms: C7_15  and  N3_16 
REMARK       I    between atoms: N3_16  and  C8_18 
REMARK    3  A    between atoms: C8_18  and  C9_20 
REMARK    4  A    between atoms: C9_20  and  C10_22 
REMARK    5  A    between atoms: C13_28  and  N5_29 
REMARK    6  A    between atoms: N8_38  and  C16_39 
REMARK    7  A    between atoms: C16_39  and  C17_40 
ROOT
HETATM    1  C10 UNL     1      21.441 -25.914  36.526  1.00  0.00     0.178 A 
HETATM    2  N4  UNL     1      20.933 -27.064  36.938  1.00  0.00    -0.322 N 
ATOM      3  H4  UNL     1      19.943 -27.305  36.910  1.00  0.00     0.169 HD
HETATM    4  C11 UNL     1      21.951 -27.910  37.421  1.00  0.00     0.143 A 
HETATM    5  C12 UNL     1      21.556 -29.177  37.988  1.00  0.00     0.083 A 
HETATM    6  S1  UNL     1      20.082 -29.245  38.926  1.00  0.00    -0.049 SA
HETATM    7  C13 UNL     1      19.803 -30.752  39.649  1.00  0.00     0.145 A 
HETATM    8  N6  UNL     1      20.744 -31.672  39.403  1.00  0.00    -0.302 N 
ATOM      9  H6  UNL     1      20.612 -32.592  39.823  1.00  0.00     0.171 HD
HETATM   10  C14 UNL     1      21.832 -31.498  38.664  1.00  0.00     0.273 A 
HETATM   11  O4  UNL     1      22.590 -32.532  38.573  1.00  0.00    -0.266 OA
HETATM   12  C15 UNL     1      22.212 -30.330  37.999  1.00  0.00     0.135 A 
HETATM   13  N7  UNL     1      23.391 -30.523  37.183  1.00  0.00    -0.095 NA
HETATM   14  N8  UNL     1      23.052 -27.218  37.281  1.00  0.00    -0.270 N 
HETATM   15  N9  UNL     1      22.738 -26.004  36.733  1.00  0.00    -0.278 N 
ATOM     16  H9  UNL     1      23.414 -25.271  36.516  1.00  0.00     0.189 HD
ENDROOT
BRANCH   1  17
HETATM   17  C9  UNL     1      20.638 -24.832  35.971  1.00  0.00     0.284 C 
HETATM   18  O3  UNL     1      19.407 -24.957  35.777  1.00  0.00    -0.278 OA
BRANCH  17  19
HETATM   19  C8  UNL     1      21.281 -23.570  35.633  1.00  0.00     0.297 C 
HETATM   20  N3  UNL     1      20.546 -22.357  35.592  1.00  0.00    -0.333 N 
ATOM     21  H3  UNL     1      19.549 -22.377  35.805  1.00  0.00     0.165 HD
HETATM   22  O2  UNL     1      22.502 -23.522  35.370  1.00  0.00    -0.264 OA
BRANCH  20  23
HETATM   23  C7  UNL     1      21.166 -21.088  35.257  1.00  0.00     0.190 C 
HETATM   24  N2  UNL     1      21.756 -21.170  34.000  1.00  0.00    -0.387 N 
HETATM   25  C6  UNL     1      22.648 -20.245  33.497  1.00  0.00     0.198 C 
ATOM     26  H2  UNL     1      21.513 -21.966  33.410  1.00  0.00     0.156 HD
HETATM   27  C2  UNL     1      23.593 -19.523  34.377  1.00  0.00     0.207 C 
HETATM   28  C5  UNL     1      22.130 -19.163  32.636  1.00  0.00     0.185 C 
HETATM   29  C1  UNL     1      24.729 -20.484  34.740  1.00  0.00     0.062 C 
HETATM   30  N1  UNL     1      24.212 -18.530  33.488  1.00  0.00    -0.041 N 
HETATM   31  S4  UNL     1      22.951 -18.656  35.777  1.00  0.00    -0.056 SA
HETATM   32  C3  UNL     1      23.330 -18.354  32.356  1.00  0.00     0.291 C 
ATOM     33  H12 UNL     1      24.431 -17.654  33.961  1.00  0.00     0.280 HD
ATOM     34  H11 UNL     1      25.164 -18.777  33.218  1.00  0.00     0.280 HD
HETATM   35  S3  UNL     1      20.860 -18.469  35.861  1.00  0.00    -0.091 SA
HETATM   36  C19 UNL     1      20.098 -20.032  35.411  1.00  0.00     0.132 C 
HETATM   37  O1  UNL     1      21.021 -18.986  32.260  1.00  0.00    -0.293 OA
BRANCH  32  38
HETATM   38  C4  UNL     1      23.083 -16.945  31.958  1.00  0.00     0.216 C 
HETATM   39 CL1  UNL     1      24.454 -16.148  31.180  1.00  0.00    -0.105 Cl
HETATM   40 CL2  UNL     1      22.451 -15.972  33.318  1.00  0.00    -0.105 Cl
ENDBRANCH  32  38
ENDBRANCH  20  23
ENDBRANCH  17  19
ENDBRANCH   1  17
BRANCH  14  41
HETATM   41  C16 UNL     1      24.399 -27.467  37.651  1.00  0.00     0.193 C 
BRANCH  41  42
HETATM   42  C17 UNL     1      24.752 -26.781  38.977  1.00  0.00     0.205 C 
HETATM   43  O5  UNL     1      23.800 -25.845  39.365  1.00  0.00    -0.364 OA
HETATM   44  C18 UNL     1      24.759 -25.055  39.981  1.00  0.00     0.246 C 
HETATM   45  S2  UNL     1      25.937 -25.446  38.655  1.00  0.00    -0.110 SA
ENDBRANCH  41  42
ENDBRANCH  14  41
BRANCH   7  46
HETATM   46  N5  UNL     1      18.766 -30.989  40.379  1.00  0.00    -0.380 N 
ATOM     47  H52 UNL     1      18.636 -30.580  41.304  1.00  0.00     0.158 HD
ATOM     48  H51 UNL     1      18.010 -31.602  40.074  1.00  0.00     0.158 HD
ENDBRANCH   7  46
TORSDOF 7
ENDMDL
MODEL 4
REMARK VINA RESULT: -7.065731121      2.087      2.806
REMARK  7 active torsions:
REMARK  status: ('A' for Active; 'I' for Inactive)
REMARK    1  A    between atoms: C3_6  and  C4_7 
REMARK    2  A    between atoms: C7_15  and  N3_16 
REMARK       I    between atoms: N3_16  and  C8_18 
REMARK    3  A    between atoms: C8_18  and  C9_20 
REMARK    4  A    between atoms: C9_20  and  C10_22 
REMARK    5  A    between atoms: C13_28  and  N5_29 
REMARK    6  A    between atoms: N8_38  and  C16_39 
REMARK    7  A    between atoms: C16_39  and  C17_40 
ROOT
HETATM    1  C10 UNL     1      21.246 -25.826  37.094  1.00  0.00     0.178 A 
HETATM    2  N4  UNL     1      21.204 -27.144  36.993  1.00  0.00    -0.322 N 
ATOM      3  H4  UNL     1      20.713 -27.655  36.260  1.00  0.00     0.169 HD
HETATM    4  C11 UNL     1      21.930 -27.744  38.040  1.00  0.00     0.143 A 
HETATM    5  C12 UNL     1      21.915 -29.184  38.126  1.00  0.00     0.083 A 
HETATM    6  S1  UNL     1      20.437 -30.027  37.725  1.00  0.00    -0.049 SA
HETATM    7  C13 UNL     1      20.508 -31.697  37.998  1.00  0.00     0.145 A 
HETATM    8  N6  UNL     1      21.678 -32.135  38.481  1.00  0.00    -0.302 N 
ATOM      9  H6  UNL     1      21.759 -33.136  38.660  1.00  0.00     0.171 HD
HETATM   10  C14 UNL     1      22.741 -31.388  38.747  1.00  0.00     0.273 A 
HETATM   11  O4  UNL     1      23.753 -32.036  39.204  1.00  0.00    -0.266 OA
HETATM   12  C15 UNL     1      22.854 -30.005  38.580  1.00  0.00     0.135 A 
HETATM   13  N7  UNL     1      24.193 -29.528  38.850  1.00  0.00    -0.095 NA
HETATM   14  N8  UNL     1      22.385 -26.740  38.746  1.00  0.00    -0.270 N 
HETATM   15  N9  UNL     1      21.969 -25.573  38.165  1.00  0.00    -0.278 N 
ATOM     16  H9  UNL     1      22.188 -24.639  38.512  1.00  0.00     0.189 HD
ENDROOT
BRANCH   1  17
HETATM   17  C9  UNL     1      20.589 -24.925  36.155  1.00  0.00     0.284 C 
HETATM   18  O3  UNL     1      19.479 -25.201  35.643  1.00  0.00    -0.278 OA
BRANCH  17  19
HETATM   19  C8  UNL     1      21.238 -23.671  35.800  1.00  0.00     0.297 C 
HETATM   20  N3  UNL     1      20.501 -22.462  35.704  1.00  0.00    -0.333 N 
ATOM     21  H3  UNL     1      19.498 -22.480  35.889  1.00  0.00     0.165 HD
HETATM   22  O2  UNL     1      22.466 -23.626  35.571  1.00  0.00    -0.264 OA
BRANCH  20  23
HETATM   23  C7  UNL     1      21.127 -21.200  35.352  1.00  0.00     0.190 C 
HETATM   24  N2  UNL     1      21.681 -21.290  34.079  1.00  0.00    -0.387 N 
HETATM   25  C6  UNL     1      22.570 -20.376  33.552  1.00  0.00     0.198 C 
ATOM     26  H2  UNL     1      21.413 -22.083  33.496  1.00  0.00     0.156 HD
HETATM   27  C2  UNL     1      23.547 -19.664  34.405  1.00  0.00     0.207 C 
HETATM   28  C5  UNL     1      22.043 -19.288  32.704  1.00  0.00     0.185 C 
HETATM   29  C1  UNL     1      24.681 -20.638  34.738  1.00  0.00     0.062 C 
HETATM   30  N1  UNL     1      24.153 -18.679  33.500  1.00  0.00    -0.041 N 
HETATM   31  S4  UNL     1      22.954 -18.789  35.822  1.00  0.00    -0.056 SA
HETATM   32  C3  UNL     1      23.244 -18.494  32.392  1.00  0.00     0.291 C 
ATOM     33  H12 UNL     1      24.396 -17.805  33.966  1.00  0.00     0.280 HD
ATOM     34  H11 UNL     1      25.095 -18.937  33.203  1.00  0.00     0.280 HD
HETATM   35  S3  UNL     1      20.868 -18.578  35.961  1.00  0.00    -0.091 SA
HETATM   36  C19 UNL     1      20.076 -20.132  35.534  1.00  0.00     0.132 C 
HETATM   37  O1  UNL     1      20.925 -19.098  32.358  1.00  0.00    -0.293 OA
BRANCH  32  38
HETATM   38  C4  UNL     1      23.002 -17.082  31.999  1.00  0.00     0.216 C 
HETATM   39 CL1  UNL     1      24.372 -16.292  31.213  1.00  0.00    -0.105 Cl
HETATM   40 CL2  UNL     1      22.388 -16.108  33.367  1.00  0.00    -0.105 Cl
ENDBRANCH  32  38
ENDBRANCH  20  23
ENDBRANCH  17  19
ENDBRANCH   1  17
BRANCH  14  41
HETATM   41  C16 UNL     1      23.111 -26.670  39.963  1.00  0.00     0.193 C 
BRANCH  41  42
HETATM   42  C17 UNL     1      22.225 -27.022  41.165  1.00  0.00     0.205 C 
HETATM   43  O5  UNL     1      20.869 -26.907  40.882  1.00  0.00    -0.364 OA
HETATM   44  C18 UNL     1      20.580 -26.541  42.188  1.00  0.00     0.246 C 
HETATM   45  S2  UNL     1      22.121 -25.584  42.265  1.00  0.00    -0.110 SA
ENDBRANCH  41  42
ENDBRANCH  14  41
BRANCH   7  46
HETATM   46  N5  UNL     1      19.512 -32.481  37.761  1.00  0.00    -0.380 N 
ATOM     47  H52 UNL     1      18.549 -32.239  37.994  1.00  0.00     0.158 HD
ATOM     48  H51 UNL     1      19.626 -33.395  37.323  1.00  0.00     0.158 HD
ENDBRANCH   7  46
TORSDOF 7
ENDMDL
MODEL 5
REMARK VINA RESULT: -7.047185776      1.748      3.697
REMARK  7 active torsions:
REMARK  status: ('A' for Active; 'I' for Inactive)
REMARK    1  A    between atoms: C3_6  and  C4_7 
REMARK    2  A    between atoms: C7_15  and  N3_16 
REMARK       I    between atoms: N3_16  and  C8_18 
REMARK    3  A    between atoms: C8_18  and  C9_20 
REMARK    4  A    between atoms: C9_20  and  C10_22 
REMARK    5  A    between atoms: C13_28  and  N5_29 
REMARK    6  A    between atoms: N8_38  and  C16_39 
REMARK    7  A    between atoms: C16_39  and  C17_40 
ROOT
HETATM    1  C10 UNL     1      21.177 -25.392  36.314  1.00  0.00     0.178 A 
HETATM    2  N4  UNL     1      22.451 -25.681  36.106  1.00  0.00    -0.322 N 
ATOM      3  H4  UNL     1      23.058 -25.189  35.451  1.00  0.00     0.169 HD
HETATM    4  C11 UNL     1      22.853 -26.761  36.914  1.00  0.00     0.143 A 
HETATM    5  C12 UNL     1      24.197 -27.259  36.749  1.00  0.00     0.083 A 
HETATM    6  S1  UNL     1      24.878 -27.296  35.139  1.00  0.00    -0.049 SA
HETATM    7  C13 UNL     1      26.404 -28.028  35.061  1.00  0.00     0.145 A 
HETATM    8  N6  UNL     1      26.871 -28.472  36.234  1.00  0.00    -0.302 N 
ATOM      9  H6  UNL     1      27.787 -28.921  36.228  1.00  0.00     0.171 HD
HETATM   10  C14 UNL     1      26.253 -28.384  37.405  1.00  0.00     0.273 A 
HETATM   11  O4  UNL     1      26.902 -28.884  38.395  1.00  0.00    -0.266 OA
HETATM   12  C15 UNL     1      25.000 -27.814  37.648  1.00  0.00     0.135 A 
HETATM   13  N7  UNL     1      24.680 -27.774  39.057  1.00  0.00    -0.095 NA
HETATM   14  N8  UNL     1      21.779 -27.089  37.588  1.00  0.00    -0.270 N 
HETATM   15  N9  UNL     1      20.761 -26.251  37.221  1.00  0.00    -0.278 N 
ATOM     16  H9  UNL     1      19.814 -26.286  37.597  1.00  0.00     0.189 HD
ENDROOT
BRANCH   1  17
HETATM   17  C9  UNL     1      20.472 -24.319  35.625  1.00  0.00     0.284 C 
HETATM   18  O3  UNL     1      19.266 -24.423  35.302  1.00  0.00    -0.278 OA
BRANCH  17  19
HETATM   19  C8  UNL     1      21.186 -23.091  35.302  1.00  0.00     0.297 C 
HETATM   20  N3  UNL     1      20.510 -21.845  35.225  1.00  0.00    -0.333 N 
ATOM     21  H3  UNL     1      19.506 -21.817  35.400  1.00  0.00     0.165 HD
HETATM   22  O2  UNL     1      22.416 -23.103  35.085  1.00  0.00    -0.264 OA
BRANCH  20  23
HETATM   23  C7  UNL     1      21.201 -20.610  34.904  1.00  0.00     0.190 C 
HETATM   24  N2  UNL     1      21.850 -20.738  33.680  1.00  0.00    -0.387 N 
HETATM   25  C6  UNL     1      22.805 -19.860  33.211  1.00  0.00     0.198 C 
ATOM     26  H2  UNL     1      21.603 -21.533  33.090  1.00  0.00     0.156 HD
HETATM   27  C2  UNL     1      23.735 -19.164  34.128  1.00  0.00     0.207 C 
HETATM   28  C5  UNL     1      22.381 -18.771  32.309  1.00  0.00     0.185 C 
HETATM   29  C1  UNL     1      24.808 -20.166  34.563  1.00  0.00     0.062 C 
HETATM   30  N1  UNL     1      24.441 -18.214  33.258  1.00  0.00    -0.041 N 
HETATM   31  S4  UNL     1      23.061 -18.247  35.480  1.00  0.00    -0.056 SA
HETATM   32  C3  UNL     1      23.627 -18.020  32.080  1.00  0.00     0.291 C 
ATOM     33  H12 UNL     1      24.674 -17.340  33.729  1.00  0.00     0.280 HD
ATOM     34  H11 UNL     1      25.394 -18.505  33.041  1.00  0.00     0.280 HD
HETATM   35  S3  UNL     1      20.979 -17.970  35.453  1.00  0.00    -0.091 SA
HETATM   36  C19 UNL     1      20.173 -19.507  34.987  1.00  0.00     0.132 C 
HETATM   37  O1  UNL     1      21.300 -18.554  31.873  1.00  0.00    -0.293 OA
BRANCH  32  38
HETATM   38  C4  UNL     1      23.462 -16.608  31.649  1.00  0.00     0.216 C 
HETATM   39 CL1  UNL     1      24.920 -15.865  30.984  1.00  0.00    -0.105 Cl
HETATM   40 CL2  UNL     1      22.749 -15.598  32.941  1.00  0.00    -0.105 Cl
ENDBRANCH  32  38
ENDBRANCH  20  23
ENDBRANCH  17  19
ENDBRANCH   1  17
BRANCH  14  41
HETATM   41  C16 UNL     1      21.497 -28.139  38.499  1.00  0.00     0.193 C 
BRANCH  41  42
HETATM   42  C17 UNL     1      20.862 -29.342  37.790  1.00  0.00     0.205 C 
HETATM   43  O5  UNL     1      20.290 -30.245  38.679  1.00  0.00    -0.364 OA
HETATM   44  C18 UNL     1      20.577 -31.317  37.848  1.00  0.00     0.246 C 
HETATM   45  S2  UNL     1      22.158 -30.547  37.395  1.00  0.00    -0.110 SA
ENDBRANCH  41  42
ENDBRANCH  14  41
BRANCH   7  46
HETATM   46  N5  UNL     1      27.060 -28.147  33.957  1.00  0.00    -0.380 N 
ATOM     47  H52 UNL     1      27.453 -29.033  33.639  1.00  0.00     0.158 HD
ATOM     48  H51 UNL     1      27.225 -27.359  33.331  1.00  0.00     0.158 HD
ENDBRANCH   7  46
TORSDOF 7
ENDMDL
