MODEL 1
REMARK VINA RESULT: -7.509515921      0.000      0.000
REMARK  9 active torsions:
REMARK  status: ('A' for Active; 'I' for Inactive)
REMARK    1  A    between atoms: C2_5  and  C3_6 
REMARK       I    between atoms: C3_6  and  N3_8 
REMARK    2  A    between atoms: N3_8  and  C4_10 
REMARK    3  A    between atoms: C4_10  and  C5_11 
REMARK    4  A    between atoms: C5_11  and  N4_12 
REMARK    5  A    between atoms: C6_13  and  C7_14 
REMARK    6  A    between atoms: C7_14  and  N5_15 
REMARK    7  A    between atoms: C15_30  and  N9_31 
REMARK    8  A    between atoms: C16_36  and  N11_37 
REMARK    9  A    between atoms: C18_43  and  N13_44 
ROOT
HETATM    1  N4  UNL     1       4.535  -8.693   0.643  1.00  0.00    -0.332 N 
HETATM    2  C6  UNL     1       3.783  -8.456  -0.417  1.00  0.00     0.032 A 
HETATM    3  C13 UNL     1       4.579  -8.505  -1.533  1.00  0.00     0.046 A 
HETATM    4  C14 UNL     1       5.849  -8.781  -1.140  1.00  0.00     0.055 A 
HETATM    5  C15 UNL     1       7.063  -8.952  -1.790  1.00  0.00     0.128 A 
HETATM    6  N10 UNL     1       8.152  -9.225  -1.059  1.00  0.00    -0.176 N 
ATOM      7  H10 UNL     1       9.042  -9.351  -1.541  1.00  0.00     0.186 HD
HETATM    8  C16 UNL     1       8.126  -9.341   0.279  1.00  0.00     0.679 A 
HETATM    9  N12 UNL     1       6.953  -9.176   0.907  1.00  0.00    -0.176 N 
ATOM     10  H12 UNL     1       6.919  -9.263   1.922  1.00  0.00     0.186 HD
HETATM   11  C17 UNL     1       5.803  -8.896   0.227  1.00  0.00     0.137 A 
ENDROOT
BRANCH   1  12
HETATM   12  C5  UNL     1       4.134  -8.753   2.058  1.00  0.00     0.150 C 
BRANCH  12  13
HETATM   13  C4  UNL     1       3.943  -7.325   2.556  1.00  0.00     0.143 C 
BRANCH  13  14
HETATM   14  N3  UNL     1       5.236  -6.752   2.866  1.00  0.00    -0.354 N 
HETATM   15  C3  UNL     1       5.506  -5.388   2.551  1.00  0.00     0.273 C 
HETATM   16  O1  UNL     1       4.606  -4.708   2.006  1.00  0.00    -0.266 OA
ATOM     17  H3  UNL     1       5.954  -7.324   3.310  1.00  0.00     0.162 HD
BRANCH  15  18
HETATM   18  C2  UNL     1       6.781  -4.760   2.837  1.00  0.00     0.160 A 
HETATM   19  N2  UNL     1       7.883  -5.011   2.067  1.00  0.00    -0.287 N 
HETATM   20  N1  UNL     1       9.034  -4.430   2.341  1.00  0.00    -0.246 N 
ATOM     21  H2  UNL     1       7.814  -5.651   1.275  1.00  0.00     0.187 HD
HETATM   22  C1  UNL     1      10.237  -4.662   1.553  1.00  0.00     0.183 C 
HETATM   23  C19 UNL     1       9.122  -3.585   3.392  1.00  0.00     0.342 A 
HETATM   24  N14 UNL     1       8.052  -3.319   4.172  1.00  0.00    -0.292 N 
HETATM   25  O2  UNL     1      10.232  -3.037   3.643  1.00  0.00    -0.245 OA
HETATM   26  C18 UNL     1       6.870  -3.899   3.907  1.00  0.00     0.137 A 
ATOM     27  H14 UNL     1       8.141  -2.677   4.960  1.00  0.00     0.172 HD
BRANCH  26  28
HETATM   28  N13 UNL     1       5.813  -3.663   4.642  1.00  0.00    -0.383 N 
ATOM     29 2H13 UNL     1       5.117  -4.387   4.821  1.00  0.00     0.157 HD
ATOM     30 1H13 UNL     1       5.675  -2.738   5.049  1.00  0.00     0.157 HD
ENDBRANCH  26  28
ENDBRANCH  15  18
ENDBRANCH  13  14
ENDBRANCH  12  13
ENDBRANCH   1  12
BRANCH   2  31
HETATM   31  C7  UNL     1       2.323  -8.172  -0.428  1.00  0.00     0.188 C 
BRANCH  31  32
HETATM   32  N5  UNL     1       1.510  -9.355  -0.258  1.00  0.00    -0.322 N 
HETATM   33  C8  UNL     1       0.790  -9.781   0.789  1.00  0.00     0.185 A 
HETATM   34  N6  UNL     1       0.182 -10.945   0.522  1.00  0.00    -0.347 N 
HETATM   35  C9  UNL     1       0.498 -11.305  -0.726  1.00  0.00     0.117 A 
ATOM     36  H6  UNL     1      -0.420 -11.466   1.161  1.00  0.00     0.167 HD
HETATM   37  C10 UNL     1       0.159 -12.393  -1.507  1.00  0.00     0.135 A 
HETATM   38  C12 UNL     1       1.327 -10.315  -1.214  1.00  0.00     0.140 A 
HETATM   39 CL1  UNL     1      -0.892 -13.630  -0.861  1.00  0.00    -0.062 Cl
HETATM   40  N7  UNL     1       0.670 -12.433  -2.743  1.00  0.00    -0.341 N 
HETATM   41  C11 UNL     1       1.477 -11.482  -3.240  1.00  0.00     0.183 A 
ATOM     42  H7  UNL     1       0.434 -13.226  -3.339  1.00  0.00     0.167 HD
HETATM   43  N8  UNL     1       1.796 -10.433  -2.467  1.00  0.00    -0.336 N 
ATOM     44  H8  UNL     1       2.408  -9.708  -2.839  1.00  0.00     0.168 HD
ENDBRANCH  31  32
ENDBRANCH   2  31
BRANCH   5  45
HETATM   45  N9  UNL     1       7.074  -8.839  -3.073  1.00  0.00    -0.384 N 
ATOM     46  H92 UNL     1       7.738  -8.257  -3.583  1.00  0.00     0.157 HD
ATOM     47  H91 UNL     1       6.378  -9.365  -3.601  1.00  0.00     0.157 HD
ENDBRANCH   5  45
BRANCH   8  48
HETATM   48  N11 UNL     1       9.198  -9.605   0.956  1.00  0.00    -0.234 N 
ATOM     49 2H11 UNL     1       9.991  -8.963   0.936  1.00  0.00     0.174 HD
ATOM     50 1H11 UNL     1       9.277 -10.451   1.522  1.00  0.00     0.174 HD
ENDBRANCH   8  48
TORSDOF 9
ENDMDL
MODEL 2
REMARK VINA RESULT: -7.373782328      0.593      1.375
REMARK  9 active torsions:
REMARK  status: ('A' for Active; 'I' for Inactive)
REMARK    1  A    between atoms: C2_5  and  C3_6 
REMARK       I    between atoms: C3_6  and  N3_8 
REMARK    2  A    between atoms: N3_8  and  C4_10 
REMARK    3  A    between atoms: C4_10  and  C5_11 
REMARK    4  A    between atoms: C5_11  and  N4_12 
REMARK    5  A    between atoms: C6_13  and  C7_14 
REMARK    6  A    between atoms: C7_14  and  N5_15 
REMARK    7  A    between atoms: C15_30  and  N9_31 
REMARK    8  A    between atoms: C16_36  and  N11_37 
REMARK    9  A    between atoms: C18_43  and  N13_44 
ROOT
HETATM    1  N4  UNL     1       4.505  -8.769   0.739  1.00  0.00    -0.332 N 
HETATM    2  C6  UNL     1       3.766  -8.475  -0.315  1.00  0.00     0.032 A 
HETATM    3  C13 UNL     1       4.572  -8.474  -1.424  1.00  0.00     0.046 A 
HETATM    4  C14 UNL     1       5.837  -8.776  -1.032  1.00  0.00     0.055 A 
HETATM    5  C15 UNL     1       7.056  -8.922  -1.679  1.00  0.00     0.128 A 
HETATM    6  N10 UNL     1       8.136  -9.237  -0.951  1.00  0.00    -0.176 N 
ATOM      7  H10 UNL     1       9.030  -9.344  -1.430  1.00  0.00     0.186 HD
HETATM    8  C16 UNL     1       8.096  -9.418   0.379  1.00  0.00     0.679 A 
HETATM    9  N12 UNL     1       6.918  -9.278   1.003  1.00  0.00    -0.176 N 
ATOM     10  H12 UNL     1       6.873  -9.415   2.012  1.00  0.00     0.186 HD
HETATM   11  C17 UNL     1       5.776  -8.958   0.326  1.00  0.00     0.137 A 
ENDROOT
BRANCH   1  12
HETATM   12  C5  UNL     1       4.089  -8.896   2.146  1.00  0.00     0.150 C 
BRANCH  12  13
HETATM   13  C4  UNL     1       3.837  -7.496   2.693  1.00  0.00     0.143 C 
BRANCH  13  14
HETATM   14  N3  UNL     1       5.101  -6.891   3.054  1.00  0.00    -0.354 N 
HETATM   15  C3  UNL     1       5.493  -5.651   2.469  1.00  0.00     0.273 C 
HETATM   16  O1  UNL     1       4.722  -5.107   1.645  1.00  0.00    -0.266 OA
ATOM     17  H3  UNL     1       5.713  -7.352   3.728  1.00  0.00     0.162 HD
BRANCH  15  18
HETATM   18  C2  UNL     1       6.746  -4.999   2.792  1.00  0.00     0.160 A 
HETATM   19  N2  UNL     1       6.898  -4.289   3.951  1.00  0.00    -0.287 N 
HETATM   20  N1  UNL     1       8.046  -3.703   4.228  1.00  0.00    -0.246 N 
ATOM     21  H2  UNL     1       6.119  -4.213   4.605  1.00  0.00     0.187 HD
HETATM   22  C1  UNL     1       8.261  -2.936   5.447  1.00  0.00     0.183 C 
HETATM   23  C19 UNL     1       9.074  -3.804   3.358  1.00  0.00     0.342 A 
HETATM   24  N14 UNL     1       8.955  -4.497   2.204  1.00  0.00    -0.292 N 
HETATM   25  O2  UNL     1      10.168  -3.236   3.636  1.00  0.00    -0.245 OA
HETATM   26  C18 UNL     1       7.794  -5.102   1.905  1.00  0.00     0.137 A 
ATOM     27  H14 UNL     1       9.745  -4.560   1.562  1.00  0.00     0.172 HD
BRANCH  26  28
HETATM   28  N13 UNL     1       7.643  -5.781   0.797  1.00  0.00    -0.383 N 
ATOM     29 2H13 UNL     1       7.530  -5.314  -0.103  1.00  0.00     0.157 HD
ATOM     30 1H13 UNL     1       7.639  -6.801   0.824  1.00  0.00     0.157 HD
ENDBRANCH  26  28
ENDBRANCH  15  18
ENDBRANCH  13  14
ENDBRANCH  12  13
ENDBRANCH   1  12
BRANCH   2  31
HETATM   31  C7  UNL     1       2.307  -8.183  -0.327  1.00  0.00     0.188 C 
BRANCH  31  32
HETATM   32  N5  UNL     1       1.486  -9.366  -0.197  1.00  0.00    -0.322 N 
HETATM   33  C8  UNL     1       0.747  -9.811   0.829  1.00  0.00     0.185 A 
HETATM   34  N6  UNL     1       0.138 -10.966   0.527  1.00  0.00    -0.347 N 
HETATM   35  C9  UNL     1       0.475 -11.300  -0.724  1.00  0.00     0.117 A 
ATOM     36  H6  UNL     1      -0.476 -11.498   1.143  1.00  0.00     0.167 HD
HETATM   37  C10 UNL     1       0.144 -12.370  -1.534  1.00  0.00     0.135 A 
HETATM   38  C12 UNL     1       1.315 -10.304  -1.176  1.00  0.00     0.140 A 
HETATM   39 CL1  UNL     1      -0.922 -13.615  -0.932  1.00  0.00    -0.062 Cl
HETATM   40  N7  UNL     1       0.676 -12.385  -2.762  1.00  0.00    -0.341 N 
HETATM   41  C11 UNL     1       1.496 -11.428  -3.224  1.00  0.00     0.183 A 
ATOM     42  H7  UNL     1       0.447 -13.164  -3.378  1.00  0.00     0.167 HD
HETATM   43  N8  UNL     1       1.805 -10.397  -2.423  1.00  0.00    -0.336 N 
ATOM     44  H8  UNL     1       2.427  -9.667  -2.769  1.00  0.00     0.168 HD
ENDBRANCH  31  32
ENDBRANCH   2  31
BRANCH   5  45
HETATM   45  N9  UNL     1       7.081  -8.745  -2.954  1.00  0.00    -0.384 N 
ATOM     46  H92 UNL     1       6.622  -9.366  -3.620  1.00  0.00     0.157 HD
ATOM     47  H91 UNL     1       7.591  -7.937  -3.310  1.00  0.00     0.157 HD
ENDBRANCH   5  45
BRANCH   8  48
HETATM   48  N11 UNL     1       9.160  -9.722   1.053  1.00  0.00    -0.234 N 
ATOM     49 2H11 UNL     1       9.670  -9.000   1.563  1.00  0.00     0.174 HD
ATOM     50 1H11 UNL     1       9.511 -10.679   1.093  1.00  0.00     0.174 HD
ENDBRANCH   8  48
TORSDOF 9
ENDMDL
MODEL 3
REMARK VINA RESULT: -7.335618682      4.283      9.439
REMARK  9 active torsions:
REMARK  status: ('A' for Active; 'I' for Inactive)
REMARK    1  A    between atoms: C2_5  and  C3_6 
REMARK       I    between atoms: C3_6  and  N3_8 
REMARK    2  A    between atoms: N3_8  and  C4_10 
REMARK    3  A    between atoms: C4_10  and  C5_11 
REMARK    4  A    between atoms: C5_11  and  N4_12 
REMARK    5  A    between atoms: C6_13  and  C7_14 
REMARK    6  A    between atoms: C7_14  and  N5_15 
REMARK    7  A    between atoms: C15_30  and  N9_31 
REMARK    8  A    between atoms: C16_36  and  N11_37 
REMARK    9  A    between atoms: C18_43  and  N13_44 
ROOT
HETATM    1  N4  UNL     1      -0.132  -8.404   2.465  1.00  0.00    -0.332 N 
HETATM    2  C6  UNL     1       0.872  -7.754   1.904  1.00  0.00     0.032 A 
HETATM    3  C13 UNL     1       0.362  -6.704   1.186  1.00  0.00     0.046 A 
HETATM    4  C14 UNL     1      -0.990  -6.715   1.314  1.00  0.00     0.055 A 
HETATM    5  C15 UNL     1      -2.028  -5.929   0.835  1.00  0.00     0.128 A 
HETATM    6  N10 UNL     1      -3.284  -6.244   1.177  1.00  0.00    -0.176 N 
ATOM      7  H10 UNL     1      -4.045  -5.663   0.824  1.00  0.00     0.186 HD
HETATM    8  C16 UNL     1      -3.589  -7.289   1.964  1.00  0.00     0.679 A 
HETATM    9  N12 UNL     1      -2.586  -8.048   2.427  1.00  0.00    -0.176 N 
ATOM     10  H12 UNL     1      -2.803  -8.844   3.027  1.00  0.00     0.186 HD
HETATM   11  C17 UNL     1      -1.282  -7.787   2.119  1.00  0.00     0.137 A 
ENDROOT
BRANCH   1  12
HETATM   12  C5  UNL     1      -0.087  -9.591   3.335  1.00  0.00     0.150 C 
BRANCH  12  13
HETATM   13  C4  UNL     1      -1.137 -10.579   2.840  1.00  0.00     0.143 C 
BRANCH  13  14
HETATM   14  N3  UNL     1      -0.640 -11.253   1.660  1.00  0.00    -0.354 N 
HETATM   15  C3  UNL     1      -1.322 -11.113   0.417  1.00  0.00     0.273 C 
HETATM   16  O1  UNL     1      -2.351 -10.399   0.375  1.00  0.00    -0.266 OA
ATOM     17  H3  UNL     1       0.200 -11.829   1.718  1.00  0.00     0.162 HD
BRANCH  15  18
HETATM   18  C2  UNL     1      -0.872 -11.764  -0.797  1.00  0.00     0.160 A 
HETATM   19  N2  UNL     1       0.235 -11.324  -1.468  1.00  0.00    -0.287 N 
HETATM   20  N1  UNL     1       0.630 -11.930  -2.571  1.00  0.00    -0.246 N 
ATOM     21  H2  UNL     1       0.758 -10.524  -1.114  1.00  0.00     0.187 HD
HETATM   22  C1  UNL     1       1.802 -11.503  -3.324  1.00  0.00     0.183 C 
HETATM   23  C19 UNL     1      -0.068 -12.989  -3.038  1.00  0.00     0.342 A 
HETATM   24  N14 UNL     1      -1.166 -13.446  -2.398  1.00  0.00    -0.292 N 
HETATM   25  O2  UNL     1       0.323 -13.557  -4.096  1.00  0.00    -0.245 OA
HETATM   26  C18 UNL     1      -1.583 -12.843  -1.273  1.00  0.00     0.137 A 
ATOM     27  H14 UNL     1      -1.677 -14.246  -2.769  1.00  0.00     0.172 HD
BRANCH  26  28
HETATM   28  N13 UNL     1      -2.643 -13.259  -0.627  1.00  0.00    -0.383 N 
ATOM     29 2H13 UNL     1      -3.544 -13.364  -1.094  1.00  0.00     0.157 HD
ATOM     30 1H13 UNL     1      -2.575 -13.487   0.365  1.00  0.00     0.157 HD
ENDBRANCH  26  28
ENDBRANCH  15  18
ENDBRANCH  13  14
ENDBRANCH  12  13
ENDBRANCH   1  12
BRANCH   2  31
HETATM   31  C7  UNL     1       2.318  -8.087   2.010  1.00  0.00     0.188 C 
BRANCH  31  32
HETATM   32  N5  UNL     1       2.945  -8.326   0.729  1.00  0.00    -0.322 N 
HETATM   33  C8  UNL     1       2.430  -8.749  -0.433  1.00  0.00     0.185 A 
HETATM   34  N6  UNL     1       3.374  -8.837  -1.382  1.00  0.00    -0.347 N 
HETATM   35  C9  UNL     1       4.540  -8.466  -0.845  1.00  0.00     0.117 A 
ATOM     36  H6  UNL     1       3.226  -9.136  -2.346  1.00  0.00     0.167 HD
HETATM   37  C10 UNL     1       5.822  -8.366  -1.353  1.00  0.00     0.135 A 
HETATM   38  C12 UNL     1       4.276  -8.147   0.471  1.00  0.00     0.140 A 
HETATM   39 CL1  UNL     1       6.125  -8.777  -3.023  1.00  0.00    -0.062 Cl
HETATM   40  N7  UNL     1       6.775  -7.950  -0.512  1.00  0.00    -0.341 N 
HETATM   41  C11 UNL     1       6.542  -7.633   0.772  1.00  0.00     0.183 A 
ATOM     42  H7  UNL     1       7.729  -7.868  -0.864  1.00  0.00     0.167 HD
HETATM   43  N8  UNL     1       5.291  -7.736   1.248  1.00  0.00    -0.336 N 
ATOM     44  H8  UNL     1       5.108  -7.497   2.222  1.00  0.00     0.168 HD
ENDBRANCH  31  32
ENDBRANCH   2  31
BRANCH   5  45
HETATM   45  N9  UNL     1      -1.723  -4.930   0.082  1.00  0.00    -0.384 N 
ATOM     46  H92 UNL     1      -2.393  -4.446  -0.515  1.00  0.00     0.157 HD
ATOM     47  H91 UNL     1      -0.754  -4.611   0.089  1.00  0.00     0.157 HD
ENDBRANCH   5  45
BRANCH   8  48
HETATM   48  N11 UNL     1      -4.816  -7.567   2.276  1.00  0.00    -0.234 N 
ATOM     49 2H11 UNL     1      -5.469  -6.819   2.512  1.00  0.00     0.174 HD
ATOM     50 1H11 UNL     1      -5.158  -8.528   2.291  1.00  0.00     0.174 HD
ENDBRANCH   8  48
TORSDOF 9
ENDMDL
MODEL 4
REMARK VINA RESULT: -7.315719543      4.373      9.576
REMARK  9 active torsions:
REMARK  status: ('A' for Active; 'I' for Inactive)
REMARK    1  A    between atoms: C2_5  and  C3_6 
REMARK       I    between atoms: C3_6  and  N3_8 
REMARK    2  A    between atoms: N3_8  and  C4_10 
REMARK    3  A    between atoms: C4_10  and  C5_11 
REMARK    4  A    between atoms: C5_11  and  N4_12 
REMARK    5  A    between atoms: C6_13  and  C7_14 
REMARK    6  A    between atoms: C7_14  and  N5_15 
REMARK    7  A    between atoms: C15_30  and  N9_31 
REMARK    8  A    between atoms: C16_36  and  N11_37 
REMARK    9  A    between atoms: C18_43  and  N13_44 
ROOT
HETATM    1  N4  UNL     1       0.024  -8.862   2.382  1.00  0.00    -0.332 N 
HETATM    2  C6  UNL     1       1.005  -8.174   1.826  1.00  0.00     0.032 A 
HETATM    3  C13 UNL     1       0.471  -7.055   1.241  1.00  0.00     0.046 A 
HETATM    4  C14 UNL     1      -0.871  -7.063   1.447  1.00  0.00     0.055 A 
HETATM    5  C15 UNL     1      -1.922  -6.224   1.105  1.00  0.00     0.128 A 
HETATM    6  N10 UNL     1      -3.161  -6.557   1.489  1.00  0.00    -0.176 N 
ATOM      7  H10 UNL     1      -3.931  -5.937   1.237  1.00  0.00     0.186 HD
HETATM    8  C16 UNL     1      -3.438  -7.669   2.190  1.00  0.00     0.679 A 
HETATM    9  N12 UNL     1      -2.422  -8.479   2.521  1.00  0.00    -0.176 N 
ATOM     10  H12 UNL     1      -2.617  -9.325   3.055  1.00  0.00     0.186 HD
HETATM   11  C17 UNL     1      -1.133  -8.203   2.163  1.00  0.00     0.137 A 
ENDROOT
BRANCH   1  12
HETATM   12  C5  UNL     1       0.100 -10.128   3.131  1.00  0.00     0.150 C 
BRANCH  12  13
HETATM   13  C4  UNL     1      -0.740 -11.164   2.395  1.00  0.00     0.143 C 
BRANCH  13  14
HETATM   14  N3  UNL     1      -0.039 -11.586   1.201  1.00  0.00    -0.354 N 
HETATM   15  C3  UNL     1      -0.594 -11.319  -0.085  1.00  0.00     0.273 C 
HETATM   16  O1  UNL     1      -1.690 -10.717  -0.151  1.00  0.00    -0.266 OA
ATOM     17  H3  UNL     1       0.853 -12.074   1.279  1.00  0.00     0.162 HD
BRANCH  15  18
HETATM   18  C2  UNL     1       0.062 -11.717  -1.314  1.00  0.00     0.160 A 
HETATM   19  N2  UNL     1      -0.245 -12.898  -1.931  1.00  0.00    -0.287 N 
HETATM   20  N1  UNL     1       0.362 -13.243  -3.049  1.00  0.00    -0.246 N 
ATOM     21  H2  UNL     1      -0.946 -13.516  -1.523  1.00  0.00     0.187 HD
HETATM   22  C1  UNL     1       0.073 -14.489  -3.746  1.00  0.00     0.183 C 
HETATM   23  C19 UNL     1       1.293 -12.423  -3.585  1.00  0.00     0.342 A 
HETATM   24  N14 UNL     1       1.618 -11.251  -2.999  1.00  0.00    -0.292 N 
HETATM   25  O2  UNL     1       1.866 -12.768  -4.656  1.00  0.00    -0.245 OA
HETATM   26  C18 UNL     1       1.011 -10.881  -1.860  1.00  0.00     0.137 A 
ATOM     27  H14 UNL     1       2.324 -10.647  -3.421  1.00  0.00     0.172 HD
BRANCH  26  28
HETATM   28  N13 UNL     1       1.301  -9.752  -1.266  1.00  0.00    -0.383 N 
ATOM     29 2H13 UNL     1       1.007  -9.564  -0.307  1.00  0.00     0.157 HD
ATOM     30 1H13 UNL     1       1.833  -9.039  -1.765  1.00  0.00     0.157 HD
ENDBRANCH  26  28
ENDBRANCH  15  18
ENDBRANCH  13  14
ENDBRANCH  12  13
ENDBRANCH   1  12
BRANCH   2  31
HETATM   31  C7  UNL     1       2.449  -8.530   1.815  1.00  0.00     0.188 C 
BRANCH  31  32
HETATM   32  N5  UNL     1       3.280  -7.572   2.509  1.00  0.00    -0.322 N 
HETATM   33  C8  UNL     1       3.177  -7.052   3.741  1.00  0.00     0.185 A 
HETATM   34  N6  UNL     1       4.169  -6.185   3.988  1.00  0.00    -0.347 N 
HETATM   35  C9  UNL     1       4.950  -6.123   2.904  1.00  0.00     0.117 A 
ATOM     36  H6  UNL     1       4.305  -5.663   4.854  1.00  0.00     0.167 HD
HETATM   37  C10 UNL     1       6.094  -5.407   2.607  1.00  0.00     0.135 A 
HETATM   38  C12 UNL     1       4.397  -6.987   1.981  1.00  0.00     0.140 A 
HETATM   39 CL1  UNL     1       6.769  -4.322   3.797  1.00  0.00    -0.062 Cl
HETATM   40  N7  UNL     1       6.626  -5.594   1.394  1.00  0.00    -0.341 N 
HETATM   41  C11 UNL     1       6.107  -6.429   0.480  1.00  0.00     0.183 A 
ATOM     42  H7  UNL     1       7.471  -5.077   1.152  1.00  0.00     0.167 HD
HETATM   43  N8  UNL     1       4.996  -7.116   0.786  1.00  0.00    -0.336 N 
ATOM     44  H8  UNL     1       4.597  -7.751   0.095  1.00  0.00     0.168 HD
ENDBRANCH  31  32
ENDBRANCH   2  31
BRANCH   5  45
HETATM   45  N9  UNL     1      -1.644  -5.162   0.432  1.00  0.00    -0.384 N 
ATOM     46  H92 UNL     1      -0.993  -5.143  -0.352  1.00  0.00     0.157 HD
ATOM     47  H91 UNL     1      -2.106  -4.294   0.706  1.00  0.00     0.157 HD
ENDBRANCH   5  45
BRANCH   8  48
HETATM   48  N11 UNL     1      -4.649  -7.962   2.546  1.00  0.00    -0.234 N 
ATOM     49 2H11 UNL     1      -5.139  -7.382   3.228  1.00  0.00     0.174 HD
ATOM     50 1H11 UNL     1      -5.139  -8.768   2.157  1.00  0.00     0.174 HD
ENDBRANCH   8  48
TORSDOF 9
ENDMDL
MODEL 5
REMARK VINA RESULT: -7.175090106      4.334      9.552
REMARK  9 active torsions:
REMARK  status: ('A' for Active; 'I' for Inactive)
REMARK    1  A    between atoms: C2_5  and  C3_6 
REMARK       I    between atoms: C3_6  and  N3_8 
REMARK    2  A    between atoms: N3_8  and  C4_10 
REMARK    3  A    between atoms: C4_10  and  C5_11 
REMARK    4  A    between atoms: C5_11  and  N4_12 
REMARK    5  A    between atoms: C6_13  and  C7_14 
REMARK    6  A    between atoms: C7_14  and  N5_15 
REMARK    7  A    between atoms: C15_30  and  N9_31 
REMARK    8  A    between atoms: C16_36  and  N11_37 
REMARK    9  A    between atoms: C18_43  and  N13_44 
ROOT
HETATM    1  N4  UNL     1       0.719  -9.059   1.857  1.00  0.00    -0.332 N 
HETATM    2  C6  UNL     1       1.612  -8.105   1.665  1.00  0.00     0.032 A 
HETATM    3  C13 UNL     1       0.953  -6.967   1.277  1.00  0.00     0.046 A 
HETATM    4  C14 UNL     1      -0.377  -7.238   1.232  1.00  0.00     0.055 A 
HETATM    5  C15 UNL     1      -1.517  -6.511   0.918  1.00  0.00     0.128 A 
HETATM    6  N10 UNL     1      -2.707  -7.122   0.984  1.00  0.00    -0.176 N 
ATOM      7  H10 UNL     1      -3.543  -6.584   0.753  1.00  0.00     0.186 HD
HETATM    8  C16 UNL     1      -2.852  -8.408   1.340  1.00  0.00     0.679 A 
HETATM    9  N12 UNL     1      -1.751  -9.110   1.644  1.00  0.00    -0.176 N 
ATOM     10  H12 UNL     1      -1.847 -10.087   1.919  1.00  0.00     0.186 HD
HETATM   11  C17 UNL     1      -0.505  -8.553   1.598  1.00  0.00     0.137 A 
ENDROOT
BRANCH   1  12
HETATM   12  C5  UNL     1       0.940 -10.451   2.285  1.00  0.00     0.150 C 
BRANCH  12  13
HETATM   13  C4  UNL     1      -0.202 -11.301   1.740  1.00  0.00     0.143 C 
BRANCH  13  14
HETATM   14  N3  UNL     1       0.233 -11.962   0.528  1.00  0.00    -0.354 N 
HETATM   15  C3  UNL     1      -0.517 -11.813  -0.675  1.00  0.00     0.273 C 
HETATM   16  O1  UNL     1      -1.549 -11.104  -0.654  1.00  0.00    -0.266 OA
ATOM     17  H3  UNL     1       1.077 -12.534   0.534  1.00  0.00     0.162 HD
BRANCH  15  18
HETATM   18  C2  UNL     1      -0.131 -12.451  -1.917  1.00  0.00     0.160 A 
HETATM   19  N2  UNL     1      -0.701 -13.629  -2.317  1.00  0.00    -0.287 N 
HETATM   20  N1  UNL     1      -0.338 -14.194  -3.451  1.00  0.00    -0.246 N 
ATOM     21  H2  UNL     1      -1.411 -14.072  -1.734  1.00  0.00     0.187 HD
HETATM   22  C1  UNL     1      -0.913 -15.446  -3.923  1.00  0.00     0.183 C 
HETATM   23  C19 UNL     1       0.605 -13.605  -4.219  1.00  0.00     0.342 A 
HETATM   24  N14 UNL     1       1.187 -12.443  -3.851  1.00  0.00    -0.292 N 
HETATM   25  O2  UNL     1       0.943 -14.160  -5.302  1.00  0.00    -0.245 OA
HETATM   26  C18 UNL     1       0.830 -11.851  -2.700  1.00  0.00     0.137 A 
ATOM     27  H14 UNL     1       1.897 -12.016  -4.446  1.00  0.00     0.172 HD
BRANCH  26  28
HETATM   28  N13 UNL     1       1.373 -10.725  -2.313  1.00  0.00    -0.383 N 
ATOM     29 2H13 UNL     1       0.980  -9.824  -2.585  1.00  0.00     0.157 HD
ATOM     30 1H13 UNL     1       2.207 -10.740  -1.727  1.00  0.00     0.157 HD
ENDBRANCH  26  28
ENDBRANCH  15  18
ENDBRANCH  13  14
ENDBRANCH  12  13
ENDBRANCH   1  12
BRANCH   2  31
HETATM   31  C7  UNL     1       3.086  -8.218   1.827  1.00  0.00     0.188 C 
BRANCH  31  32
HETATM   32  N5  UNL     1       3.789  -8.379   0.574  1.00  0.00    -0.322 N 
HETATM   33  C8  UNL     1       3.329  -8.500  -0.679  1.00  0.00     0.185 A 
HETATM   34  N6  UNL     1       4.334  -8.634  -1.556  1.00  0.00    -0.347 N 
HETATM   35  C9  UNL     1       5.486  -8.603  -0.878  1.00  0.00     0.117 A 
ATOM     36  H6  UNL     1       4.236  -8.741  -2.566  1.00  0.00     0.167 HD
HETATM   37  C10 UNL     1       6.809  -8.695  -1.267  1.00  0.00     0.135 A 
HETATM   38  C12 UNL     1       5.148  -8.445   0.450  1.00  0.00     0.140 A 
HETATM   39 CL1  UNL     1       7.205  -8.895  -2.956  1.00  0.00    -0.062 Cl
HETATM   40  N7  UNL     1       7.730  -8.623  -0.298  1.00  0.00    -0.341 N 
HETATM   41  C11 UNL     1       7.426  -8.469   1.001  1.00  0.00     0.183 A 
ATOM     42  H7  UNL     1       8.713  -8.689  -0.559  1.00  0.00     0.167 HD
HETATM   43  N8  UNL     1       6.135  -8.382   1.358  1.00  0.00    -0.336 N 
ATOM     44  H8  UNL     1       5.899  -8.265   2.343  1.00  0.00     0.168 HD
ENDBRANCH  31  32
ENDBRANCH   2  31
BRANCH   5  45
HETATM   45  N9  UNL     1      -1.365  -5.278   0.578  1.00  0.00    -0.384 N 
ATOM     46  H92 UNL     1      -0.459  -4.855   0.378  1.00  0.00     0.157 HD
ATOM     47  H91 UNL     1      -2.202  -4.701   0.506  1.00  0.00     0.157 HD
ENDBRANCH   5  45
BRANCH   8  48
HETATM   48  N11 UNL     1      -4.020  -8.969   1.394  1.00  0.00    -0.234 N 
ATOM     49 2H11 UNL     1      -4.707  -8.797   0.660  1.00  0.00     0.174 HD
ATOM     50 1H11 UNL     1      -4.278  -9.590   2.161  1.00  0.00     0.174 HD
ENDBRANCH   8  48
TORSDOF 9
ENDMDL
