MODEL 1
REMARK VINA RESULT: -5.750437621      0.000      0.000
REMARK  7 active torsions:
REMARK  status: ('A' for Active; 'I' for Inactive)
REMARK    1  A    between atoms: N1_2  and  C3_5 
REMARK    2  A    between atoms: C4_6  and  C5_7 
REMARK    3  A    between atoms: C6_12  and  N4_13 
REMARK       I    between atoms: N4_13  and  C7_15 
REMARK       I    between atoms: C7_15  and  N5_17 
REMARK    4  A    between atoms: C9_21  and  N8_22 
REMARK       I    between atoms: N8_22  and  C10_24 
REMARK    5  A    between atoms: C10_24  and  C11_26 
REMARK    6  A    between atoms: C11_26  and  C12_28 
REMARK    7  A    between atoms: C12_28  and  O6_29 
ROOT
HETATM    1  C1  UNL     1       2.588  -9.195   4.280  1.00  0.00     0.169 C 
HETATM    2  N1  UNL     1       3.321  -8.039   3.851  1.00  0.00    -0.290 N 
HETATM    3  C2  UNL     1       3.221  -6.862   4.614  1.00  0.00     0.184 C 
HETATM    4  N2  UNL     1       3.136  -5.880   5.235  1.00  0.00    -0.172 NA
ENDROOT
BRANCH   2   5
HETATM    5  C3  UNL     1       4.142  -7.988   2.685  1.00  0.00     0.065 C 
HETATM    6  C4  UNL     1       3.666  -7.954   1.464  1.00  0.00     0.143 C 
HETATM    7  N3  UNL     1       4.542  -7.894   0.346  1.00  0.00    -0.294 N 
HETATM    8  S1  UNL     1       4.951  -8.425  -1.284  1.00  0.00    -0.022 SA
HETATM    9  C13 UNL     1       5.735  -7.070   0.281  1.00  0.00     0.193 C 
HETATM   10  C6  UNL     1       6.550  -7.948  -0.645  1.00  0.00     0.203 C 
HETATM   11  S3  UNL     1       6.559  -6.928   1.871  1.00  0.00    -0.134 SA
HETATM   12  C14 UNL     1       5.581  -7.992   2.939  1.00  0.00     0.136 C 
BRANCH   6  13
HETATM   13  C5  UNL     1       2.230  -7.970   1.235  1.00  0.00     0.229 C 
HETATM   14  O1  UNL     1       1.485  -6.961   1.226  1.00  0.00    -0.643 OA
HETATM   15  O2  UNL     1       1.564  -9.179   1.001  1.00  0.00    -0.643 OA
ENDBRANCH   6  13
BRANCH  10  16
HETATM   16  N4  UNL     1       7.262  -8.977   0.049  1.00  0.00    -0.324 N 
HETATM   17  C7  UNL     1       8.311  -9.747  -0.547  1.00  0.00     0.338 C 
HETATM   18  O3  UNL     1       8.592  -9.472  -1.746  1.00  0.00    -0.246 OA
HETATM   19  N5  UNL     1       9.006 -10.753   0.137  1.00  0.00    -0.205 N 
HETATM   20  N6  UNL     1       8.810 -11.161   1.443  1.00  0.00    -0.023 NA
HETATM   21  C9  UNL     1      10.065 -11.568  -0.384  1.00  0.00     0.227 C 
HETATM   22  N7  UNL     1      10.043 -11.520   1.958  1.00  0.00    -0.122 NA
HETATM   23  C8  UNL     1      10.950 -11.704   0.862  1.00  0.00     0.180 C 
ATOM     24  H4  UNL     1       7.009  -9.172   1.018  1.00  0.00     0.165 HD
BRANCH  21  25
HETATM   25  N8  UNL     1       9.579 -12.874  -0.712  1.00  0.00    -0.330 N 
HETATM   26  C10 UNL     1       9.216 -13.229  -2.036  1.00  0.00     0.292 C 
HETATM   27  O4  UNL     1       9.311 -12.387  -2.983  1.00  0.00    -0.264 OA
ATOM     28  H8  UNL     1       9.490 -13.569   0.029  1.00  0.00     0.165 HD
BRANCH  26  29
HETATM   29  C11 UNL     1       8.722 -14.553  -2.369  1.00  0.00     0.255 C 
HETATM   30  O5  UNL     1       7.497 -14.780  -2.249  1.00  0.00    -0.283 OA
BRANCH  29  31
HETATM   31  C12 UNL     1       9.607 -15.640  -2.844  1.00  0.00     0.270 C 
HETATM   32  S2  UNL     1       8.869 -16.515  -4.264  1.00  0.00    -0.054 SA
BRANCH  31  33
HETATM   33  O6  UNL     1      10.821 -15.123  -3.287  1.00  0.00    -0.376 OA
ATOM     34  H6  UNL     1      11.067 -15.515  -4.116  1.00  0.00     0.211 HD
ENDBRANCH  31  33
ENDBRANCH  29  31
ENDBRANCH  26  29
ENDBRANCH  21  25
ENDBRANCH  10  16
ENDBRANCH   2   5
TORSDOF 7
ENDMDL
MODEL 2
REMARK VINA RESULT: -5.676681823      1.050      1.271
REMARK  7 active torsions:
REMARK  status: ('A' for Active; 'I' for Inactive)
REMARK    1  A    between atoms: N1_2  and  C3_5 
REMARK    2  A    between atoms: C4_6  and  C5_7 
REMARK    3  A    between atoms: C6_12  and  N4_13 
REMARK       I    between atoms: N4_13  and  C7_15 
REMARK       I    between atoms: C7_15  and  N5_17 
REMARK    4  A    between atoms: C9_21  and  N8_22 
REMARK       I    between atoms: N8_22  and  C10_24 
REMARK    5  A    between atoms: C10_24  and  C11_26 
REMARK    6  A    between atoms: C11_26  and  C12_28 
REMARK    7  A    between atoms: C12_28  and  O6_29 
ROOT
HETATM    1  C1  UNL     1       1.884 -10.778   2.644  1.00  0.00     0.169 C 
HETATM    2  N1  UNL     1       2.512  -9.488   2.666  1.00  0.00    -0.290 N 
HETATM    3  C2  UNL     1       2.041  -8.531   3.583  1.00  0.00     0.184 C 
HETATM    4  N2  UNL     1       1.650  -7.728   4.331  1.00  0.00    -0.172 NA
ENDROOT
BRANCH   2   5
HETATM    5  C3  UNL     1       3.582  -9.094   1.809  1.00  0.00     0.065 C 
HETATM    6  C4  UNL     1       3.424  -8.792   0.543  1.00  0.00     0.143 C 
HETATM    7  N3  UNL     1       4.533  -8.396  -0.253  1.00  0.00    -0.294 N 
HETATM    8  S1  UNL     1       5.399  -8.478  -1.785  1.00  0.00    -0.022 SA
HETATM    9  C13 UNL     1       5.585  -7.502   0.193  1.00  0.00     0.193 C 
HETATM   10  C6  UNL     1       6.713  -8.065  -0.646  1.00  0.00     0.203 C 
HETATM   11  S3  UNL     1       5.964  -7.701   1.938  1.00  0.00    -0.134 SA
HETATM   12  C14 UNL     1       4.901  -9.061   2.438  1.00  0.00     0.136 C 
BRANCH   6  13
HETATM   13  C5  UNL     1       2.103  -8.850  -0.065  1.00  0.00     0.229 C 
HETATM   14  O1  UNL     1       1.625  -9.839  -0.671  1.00  0.00    -0.643 OA
HETATM   15  O2  UNL     1       1.247  -7.743  -0.004  1.00  0.00    -0.643 OA
ENDBRANCH   6  13
BRANCH  10  16
HETATM   16  N4  UNL     1       7.360  -9.181  -0.029  1.00  0.00    -0.324 N 
HETATM   17  C7  UNL     1       8.423  -9.914  -0.648  1.00  0.00     0.338 C 
HETATM   18  O3  UNL     1       8.777  -9.523  -1.794  1.00  0.00    -0.246 OA
HETATM   19  N5  UNL     1       9.054 -11.007  -0.039  1.00  0.00    -0.205 N 
HETATM   20  N6  UNL     1       8.775 -11.545   1.204  1.00  0.00    -0.023 NA
HETATM   21  C9  UNL     1      10.121 -11.793  -0.587  1.00  0.00     0.227 C 
HETATM   22  N7  UNL     1       9.968 -11.993   1.742  1.00  0.00    -0.122 NA
HETATM   23  C8  UNL     1      10.931 -12.087   0.683  1.00  0.00     0.180 C 
ATOM     24  H4  UNL     1       7.048  -9.470   0.898  1.00  0.00     0.165 HD
BRANCH  21  25
HETATM   25  N8  UNL     1       9.623 -13.042  -1.078  1.00  0.00    -0.330 N 
HETATM   26  C10 UNL     1       9.189 -13.202  -2.419  1.00  0.00     0.292 C 
HETATM   27  O4  UNL     1       9.227 -12.228  -3.234  1.00  0.00    -0.264 OA
ATOM     28  H8  UNL     1       9.579 -13.841  -0.446  1.00  0.00     0.165 HD
BRANCH  26  29
HETATM   29  C11 UNL     1       8.684 -14.468  -2.918  1.00  0.00     0.255 C 
HETATM   30  O5  UNL     1       7.483 -14.535  -3.269  1.00  0.00    -0.283 OA
BRANCH  29  31
HETATM   31  C12 UNL     1       9.528 -15.679  -3.028  1.00  0.00     0.270 C 
HETATM   32  S2  UNL     1       8.991 -16.730  -4.419  1.00  0.00    -0.054 SA
BRANCH  31  33
HETATM   33  O6  UNL     1      10.851 -15.329  -3.285  1.00  0.00    -0.376 OA
ATOM     34  H6  UNL     1      11.400 -15.530  -2.537  1.00  0.00     0.211 HD
ENDBRANCH  31  33
ENDBRANCH  29  31
ENDBRANCH  26  29
ENDBRANCH  21  25
ENDBRANCH  10  16
ENDBRANCH   2   5
TORSDOF 7
ENDMDL
MODEL 3
REMARK VINA RESULT: -5.573312745      0.869      1.353
REMARK  7 active torsions:
REMARK  status: ('A' for Active; 'I' for Inactive)
REMARK    1  A    between atoms: N1_2  and  C3_5 
REMARK    2  A    between atoms: C4_6  and  C5_7 
REMARK    3  A    between atoms: C6_12  and  N4_13 
REMARK       I    between atoms: N4_13  and  C7_15 
REMARK       I    between atoms: C7_15  and  N5_17 
REMARK    4  A    between atoms: C9_21  and  N8_22 
REMARK       I    between atoms: N8_22  and  C10_24 
REMARK    5  A    between atoms: C10_24  and  C11_26 
REMARK    6  A    between atoms: C11_26  and  C12_28 
REMARK    7  A    between atoms: C12_28  and  O6_29 
ROOT
HETATM    1  C1  UNL     1       2.969  -9.638   4.986  1.00  0.00     0.169 C 
HETATM    2  N1  UNL     1       3.307  -8.367   4.413  1.00  0.00    -0.290 N 
HETATM    3  C2  UNL     1       3.007  -7.202   5.142  1.00  0.00     0.184 C 
HETATM    4  N2  UNL     1       2.753  -6.232   5.735  1.00  0.00    -0.172 NA
ENDROOT
BRANCH   2   5
HETATM    5  C3  UNL     1       3.920  -8.192   3.136  1.00  0.00     0.065 C 
HETATM    6  C4  UNL     1       3.253  -8.179   2.007  1.00  0.00     0.143 C 
HETATM    7  N3  UNL     1       3.926  -7.990   0.769  1.00  0.00    -0.294 N 
HETATM    8  S1  UNL     1       4.120  -8.427  -0.927  1.00  0.00    -0.022 SA
HETATM    9  C13 UNL     1       4.998  -7.037   0.555  1.00  0.00     0.193 C 
HETATM   10  C6  UNL     1       5.742  -7.792  -0.525  1.00  0.00     0.203 C 
HETATM   11  S3  UNL     1       6.048  -6.846   2.001  1.00  0.00    -0.134 SA
HETATM   12  C14 UNL     1       5.373  -8.042   3.160  1.00  0.00     0.136 C 
BRANCH   6  13
HETATM   13  C5  UNL     1       1.808  -8.349   2.007  1.00  0.00     0.229 C 
HETATM   14  O1  UNL     1       1.203  -9.416   1.744  1.00  0.00    -0.643 OA
HETATM   15  O2  UNL     1       0.969  -7.272   2.318  1.00  0.00    -0.643 OA
ENDBRANCH   6  13
BRANCH  10  16
HETATM   16  N4  UNL     1       6.661  -8.752   0.001  1.00  0.00    -0.324 N 
HETATM   17  C7  UNL     1       7.731  -9.318  -0.763  1.00  0.00     0.338 C 
HETATM   18  O3  UNL     1       7.833  -8.923  -1.957  1.00  0.00    -0.246 OA
HETATM   19  N5  UNL     1       8.630 -10.259  -0.243  1.00  0.00    -0.205 N 
HETATM   20  N6  UNL     1       8.641 -10.782   1.037  1.00  0.00    -0.023 NA
HETATM   21  C9  UNL     1       9.724 -10.874  -0.937  1.00  0.00     0.227 C 
HETATM   22  N7  UNL     1       9.962 -10.994   1.390  1.00  0.00    -0.122 NA
HETATM   23  C8  UNL     1      10.755 -10.968   0.194  1.00  0.00     0.180 C 
ATOM     24  H4  UNL     1       6.549  -9.049   0.971  1.00  0.00     0.165 HD
BRANCH  21  25
HETATM   25  N8  UNL     1       9.386 -12.210  -1.324  1.00  0.00    -0.330 N 
HETATM   26  C10 UNL     1      10.157 -12.937  -2.268  1.00  0.00     0.292 C 
HETATM   27  O4  UNL     1      11.183 -12.416  -2.805  1.00  0.00    -0.264 OA
ATOM     28  H8  UNL     1       8.566 -12.652  -0.910  1.00  0.00     0.165 HD
BRANCH  26  29
HETATM   29  C11 UNL     1       9.814 -14.291  -2.660  1.00  0.00     0.255 C 
HETATM   30  O5  UNL     1      10.724 -15.151  -2.693  1.00  0.00    -0.283 OA
BRANCH  29  31
HETATM   31  C12 UNL     1       8.437 -14.695  -3.022  1.00  0.00     0.270 C 
HETATM   32  S2  UNL     1       8.425 -16.319  -3.854  1.00  0.00    -0.054 SA
BRANCH  31  33
HETATM   33  O6  UNL     1       7.652 -14.831  -1.880  1.00  0.00    -0.376 OA
ATOM     34  H6  UNL     1       7.055 -14.098  -1.797  1.00  0.00     0.211 HD
ENDBRANCH  31  33
ENDBRANCH  29  31
ENDBRANCH  26  29
ENDBRANCH  21  25
ENDBRANCH  10  16
ENDBRANCH   2   5
TORSDOF 7
ENDMDL
MODEL 4
REMARK VINA RESULT: -5.565969865      2.057      2.663
REMARK  7 active torsions:
REMARK  status: ('A' for Active; 'I' for Inactive)
REMARK    1  A    between atoms: N1_2  and  C3_5 
REMARK    2  A    between atoms: C4_6  and  C5_7 
REMARK    3  A    between atoms: C6_12  and  N4_13 
REMARK       I    between atoms: N4_13  and  C7_15 
REMARK       I    between atoms: C7_15  and  N5_17 
REMARK    4  A    between atoms: C9_21  and  N8_22 
REMARK       I    between atoms: N8_22  and  C10_24 
REMARK    5  A    between atoms: C10_24  and  C11_26 
REMARK    6  A    between atoms: C11_26  and  C12_28 
REMARK    7  A    between atoms: C12_28  and  O6_29 
ROOT
HETATM    1  C1  UNL     1       0.889 -11.366   2.188  1.00  0.00     0.169 C 
HETATM    2  N1  UNL     1       1.225  -9.993   2.433  1.00  0.00    -0.290 N 
HETATM    3  C2  UNL     1       0.326  -9.206   3.174  1.00  0.00     0.184 C 
HETATM    4  N2  UNL     1      -0.417  -8.543   3.779  1.00  0.00    -0.172 NA
ENDROOT
BRANCH   2   5
HETATM    5  C3  UNL     1       2.411  -9.355   1.963  1.00  0.00     0.065 C 
HETATM    6  C4  UNL     1       2.505  -8.770   0.792  1.00  0.00     0.143 C 
HETATM    7  N3  UNL     1       3.715  -8.142   0.390  1.00  0.00    -0.294 N 
HETATM    8  S1  UNL     1       4.901  -7.816  -0.872  1.00  0.00    -0.022 SA
HETATM    9  C13 UNL     1       4.545  -7.328   1.257  1.00  0.00     0.193 C 
HETATM   10  C6  UNL     1       5.882  -7.620   0.609  1.00  0.00     0.203 C 
HETATM   11  S3  UNL     1       4.550  -7.916   2.955  1.00  0.00    -0.134 SA
HETATM   12  C14 UNL     1       3.549  -9.406   2.878  1.00  0.00     0.136 C 
BRANCH   6  13
HETATM   13  C5  UNL     1       1.364  -8.748  -0.110  1.00  0.00     0.229 C 
HETATM   14  O1  UNL     1       1.016  -9.688  -0.864  1.00  0.00    -0.643 OA
HETATM   15  O2  UNL     1       0.547  -7.613  -0.189  1.00  0.00    -0.643 OA
ENDBRANCH   6  13
BRANCH  10  16
HETATM   16  N4  UNL     1       6.489  -8.817   1.102  1.00  0.00    -0.324 N 
HETATM   17  C7  UNL     1       7.890  -9.091   0.994  1.00  0.00     0.338 C 
HETATM   18  O3  UNL     1       8.589  -8.205   0.429  1.00  0.00    -0.246 OA
HETATM   19  N5  UNL     1       8.480 -10.265   1.480  1.00  0.00    -0.205 N 
HETATM   20  N6  UNL     1       7.846 -11.315   2.117  1.00  0.00    -0.023 NA
HETATM   21  C9  UNL     1       9.870 -10.616   1.413  1.00  0.00     0.227 C 
HETATM   22  N7  UNL     1       8.722 -11.822   3.061  1.00  0.00    -0.122 NA
HETATM   23  C8  UNL     1      10.039 -11.343   2.753  1.00  0.00     0.180 C 
ATOM     24  H4  UNL     1       5.894  -9.511   1.554  1.00  0.00     0.165 HD
BRANCH  21  25
HETATM   25  N8  UNL     1      10.095 -11.573   0.372  1.00  0.00    -0.330 N 
HETATM   26  C10 UNL     1      10.592 -11.195  -0.902  1.00  0.00     0.292 C 
HETATM   27  O4  UNL     1      10.854  -9.979  -1.161  1.00  0.00    -0.264 OA
ATOM     28  H8  UNL     1       9.892 -12.556   0.551  1.00  0.00     0.165 HD
BRANCH  26  29
HETATM   29  C11 UNL     1      10.821 -12.165  -1.957  1.00  0.00     0.255 C 
HETATM   30  O5  UNL     1      11.925 -12.154  -2.548  1.00  0.00    -0.283 OA
BRANCH  29  31
HETATM   31  C12 UNL     1       9.805 -13.162  -2.361  1.00  0.00     0.270 C 
HETATM   32  S2  UNL     1      10.392 -14.861  -2.052  1.00  0.00    -0.054 SA
BRANCH  31  33
HETATM   33  O6  UNL     1       8.641 -13.004  -1.613  1.00  0.00    -0.376 OA
ATOM     34  H6  UNL     1       8.556 -13.706  -0.979  1.00  0.00     0.211 HD
ENDBRANCH  31  33
ENDBRANCH  29  31
ENDBRANCH  26  29
ENDBRANCH  21  25
ENDBRANCH  10  16
ENDBRANCH   2   5
TORSDOF 7
ENDMDL
MODEL 5
REMARK VINA RESULT: -5.564980444     10.834     14.358
REMARK  7 active torsions:
REMARK  status: ('A' for Active; 'I' for Inactive)
REMARK    1  A    between atoms: N1_2  and  C3_5 
REMARK    2  A    between atoms: C4_6  and  C5_7 
REMARK    3  A    between atoms: C6_12  and  N4_13 
REMARK       I    between atoms: N4_13  and  C7_15 
REMARK       I    between atoms: C7_15  and  N5_17 
REMARK    4  A    between atoms: C9_21  and  N8_22 
REMARK       I    between atoms: N8_22  and  C10_24 
REMARK    5  A    between atoms: C10_24  and  C11_26 
REMARK    6  A    between atoms: C11_26  and  C12_28 
REMARK    7  A    between atoms: C12_28  and  O6_29 
ROOT
HETATM    1  C1  UNL     1       2.392 -14.479  -2.122  1.00  0.00     0.169 C 
HETATM    2  N1  UNL     1       1.171 -13.808  -2.459  1.00  0.00    -0.290 N 
HETATM    3  C2  UNL     1       1.218 -12.427  -2.725  1.00  0.00     0.184 C 
HETATM    4  N2  UNL     1       1.246 -11.282  -2.938  1.00  0.00    -0.172 NA
ENDROOT
BRANCH   2   5
HETATM    5  C3  UNL     1      -0.107 -14.439  -2.531  1.00  0.00     0.065 C 
HETATM    6  C4  UNL     1      -0.428 -15.325  -3.443  1.00  0.00     0.143 C 
HETATM    7  N3  UNL     1      -1.717 -15.923  -3.450  1.00  0.00    -0.294 N 
HETATM    8  S1  UNL     1      -3.117 -16.485  -4.363  1.00  0.00    -0.022 SA
HETATM    9  C13 UNL     1      -2.422 -16.369  -2.264  1.00  0.00     0.193 C 
HETATM   10  C6  UNL     1      -3.836 -16.151  -2.761  1.00  0.00     0.203 C 
HETATM   11  S3  UNL     1      -2.106 -15.318  -0.841  1.00  0.00    -0.134 SA
HETATM   12  C14 UNL     1      -1.066 -14.017  -1.513  1.00  0.00     0.136 C 
BRANCH   6  13
HETATM   13  C5  UNL     1       0.538 -15.716  -4.458  1.00  0.00     0.229 C 
HETATM   14  O1  UNL     1       0.860 -15.029  -5.457  1.00  0.00    -0.643 OA
HETATM   15  O2  UNL     1       1.198 -16.948  -4.369  1.00  0.00    -0.643 OA
ENDBRANCH   6  13
BRANCH  10  16
HETATM   16  N4  UNL     1      -4.292 -14.810  -2.564  1.00  0.00    -0.324 N 
HETATM   17  C7  UNL     1      -5.675 -14.437  -2.595  1.00  0.00     0.338 C 
HETATM   18  O3  UNL     1      -6.498 -15.369  -2.809  1.00  0.00    -0.246 OA
HETATM   19  N5  UNL     1      -6.117 -13.122  -2.402  1.00  0.00    -0.205 N 
HETATM   20  N6  UNL     1      -5.337 -12.007  -2.160  1.00  0.00    -0.023 NA
HETATM   21  C9  UNL     1      -7.477 -12.665  -2.417  1.00  0.00     0.227 C 
HETATM   22  N7  UNL     1      -6.046 -11.176  -1.310  1.00  0.00    -0.122 NA
HETATM   23  C8  UNL     1      -7.421 -11.587  -1.328  1.00  0.00     0.180 C 
ATOM     24  H4  UNL     1      -3.598 -14.082  -2.394  1.00  0.00     0.165 HD
BRANCH  21  25
HETATM   25  N8  UNL     1      -7.772 -12.011  -3.656  1.00  0.00    -0.330 N 
HETATM   26  C10 UNL     1      -8.553 -12.631  -4.665  1.00  0.00     0.292 C 
HETATM   27  O4  UNL     1      -9.018 -13.801  -4.498  1.00  0.00    -0.264 OA
ATOM     28  H8  UNL     1      -7.410 -11.071  -3.818  1.00  0.00     0.165 HD
BRANCH  26  29
HETATM   29  C11 UNL     1      -8.853 -11.968  -5.921  1.00  0.00     0.255 C 
HETATM   30  O5  UNL     1      -9.181 -10.759  -5.894  1.00  0.00    -0.283 OA
BRANCH  29  31
HETATM   31  C12 UNL     1      -8.786 -12.660  -7.227  1.00  0.00     0.270 C 
HETATM   32  S2  UNL     1      -8.735 -11.464  -8.604  1.00  0.00    -0.054 SA
BRANCH  31  33
HETATM   33  O6  UNL     1      -7.621 -13.417  -7.320  1.00  0.00    -0.376 OA
ATOM     34  H6  UNL     1      -6.905 -12.888  -7.650  1.00  0.00     0.211 HD
ENDBRANCH  31  33
ENDBRANCH  29  31
ENDBRANCH  26  29
ENDBRANCH  21  25
ENDBRANCH  10  16
ENDBRANCH   2   5
TORSDOF 7
ENDMDL
