MODEL 1
REMARK VINA RESULT: -6.643025876      0.000      0.000
REMARK  11 active torsions:
REMARK  status: ('A' for Active; 'I' for Inactive)
REMARK    1  A    between atoms: N1_1  and  C1_4 
REMARK    2  A    between atoms: C2_7  and  N3_8 
REMARK    3  A    between atoms: N3_8  and  N4_10 
REMARK    4  A    between atoms: C6_19  and  N6_20 
REMARK    5  A    between atoms: C9_23  and  N7_24 
REMARK    6  A    between atoms: C11_29  and  O1_30 
REMARK    7  A    between atoms: O1_30  and  C12_31 
REMARK    8  A    between atoms: C12_31  and  C13_32 
REMARK    9  A    between atoms: N8_34  and  N9_35 
REMARK       I    between atoms: N10_37  and  C15_39 
REMARK   10  A    between atoms: C16_44  and  N13_45 
REMARK   11  A    between atoms: N13_45  and  N14_47 
ROOT
HETATM    1  C1  UNL     1       0.825 -12.201  -2.881  1.00  0.00     0.130 A 
HETATM    2  N2  UNL     1       1.068 -12.932  -4.004  1.00  0.00    -0.175 N 
ATOM      3  H2  UNL     1       1.924 -12.772  -4.536  1.00  0.00     0.186 HD
HETATM    4  C2  UNL     1       0.190 -13.861  -4.416  1.00  0.00     0.698 A 
HETATM    5  N5  UNL     1      -0.937 -14.090  -3.739  1.00  0.00    -0.186 N 
ATOM      6  H5  UNL     1      -1.588 -14.800  -4.074  1.00  0.00     0.184 HD
HETATM    7  C3  UNL     1      -1.228 -13.399  -2.623  1.00  0.00     0.104 A 
HETATM    8  C4  UNL     1      -2.433 -13.653  -2.013  1.00  0.00     0.146 A 
HETATM    9  F1  UNL     1      -3.240 -14.610  -2.515  1.00  0.00    -0.204 F 
HETATM   10  C5  UNL     1      -2.767 -12.926  -0.916  1.00  0.00     0.077 A 
HETATM   11  C6  UNL     1      -1.904 -11.934  -0.405  1.00  0.00     0.068 A 
HETATM   12  C11 UNL     1      -0.716 -11.706  -1.020  1.00  0.00     0.111 A 
HETATM   13  C17 UNL     1      -0.323 -12.431  -2.177  1.00  0.00     0.074 A 
ENDROOT
BRANCH  12  14
HETATM   14  O1  UNL     1       0.250 -10.770  -0.597  1.00  0.00    -0.347 OA
BRANCH  14  15
HETATM   15  C12 UNL     1       1.008 -10.837   0.566  1.00  0.00     0.190 C 
BRANCH  15  16
HETATM   16  C13 UNL     1       1.218  -9.736   1.509  1.00  0.00     0.102 C 
HETATM   17  C14 UNL     1       0.060  -8.860   1.835  1.00  0.00     0.185 C 
HETATM   18  N8  UNL     1       0.373  -7.604   1.200  1.00  0.00    -0.217 N 
HETATM   19  N12 UNL     1       1.680  -7.669   0.746  1.00  0.00    -0.269 N 
HETATM   20  C16 UNL     1       2.204  -8.806   0.883  1.00  0.00     0.125 C 
ATOM     21  H12 UNL     1       2.171  -6.872   0.339  1.00  0.00     0.190 HD
BRANCH  18  22
HETATM   22  N9  UNL     1      -0.455  -6.471   1.034  1.00  0.00    -0.222 N 
HETATM   23  N10 UNL     1      -1.701  -6.657   0.876  1.00  0.00    -0.238 N 
HETATM   24  C15 UNL     1      -2.569  -5.545   0.705  1.00  0.00     0.348 C 
ATOM     25  H10 UNL     1      -2.079  -7.604   0.871  1.00  0.00     0.193 HD
HETATM   26  N11 UNL     1      -2.409  -4.567  -0.313  1.00  0.00    -0.038 NA
HETATM   27  O2  UNL     1      -3.536  -5.415   1.498  1.00  0.00    -0.249 OA
ATOM     28  H9  UNL     1      -0.062  -5.529   1.041  1.00  0.00     0.210 HD
ENDBRANCH  18  22
BRANCH  20  29
HETATM   29  N13 UNL     1       3.556  -9.163   0.498  1.00  0.00    -0.228 N 
ATOM     30  H13 UNL     1       4.121  -9.717   1.142  1.00  0.00     0.194 HD
BRANCH  29  31
HETATM   31  N14 UNL     1       4.109  -8.777  -0.721  1.00  0.00    -0.037 N 
HETATM   32  O3  UNL     1       3.521  -9.121  -1.760  1.00  0.00    -0.516 OA
HETATM   33  O4  UNL     1       5.257  -8.043  -0.852  1.00  0.00    -0.516 OA
ENDBRANCH  29  31
ENDBRANCH  20  29
ENDBRANCH  15  16
ENDBRANCH  14  15
ENDBRANCH  12  14
BRANCH  11  34
HETATM   34  N6  UNL     1      -2.429 -11.164   0.661  1.00  0.00    -0.376 N 
HETATM   35  C7  UNL     1      -2.474 -11.516   2.039  1.00  0.00     0.125 C 
HETATM   36  C8  UNL     1      -3.206 -10.407   2.762  1.00  0.00     0.054 C 
HETATM   37  C9  UNL     1      -4.061  -9.832   1.652  1.00  0.00     0.202 C 
HETATM   38  C10 UNL     1      -3.095  -9.891   0.476  1.00  0.00     0.155 C 
BRANCH  37  39
HETATM   39  N7  UNL     1      -4.508  -8.501   1.949  1.00  0.00    -0.073 N 
ATOM     40  H73 UNL     1      -4.020  -8.121   2.761  1.00  0.00     0.274 HD
ATOM     41  H72 UNL     1      -4.188  -7.838   1.243  1.00  0.00     0.274 HD
ATOM     42  H71 UNL     1      -5.520  -8.454   2.070  1.00  0.00     0.274 HD
ENDBRANCH  37  39
ENDBRANCH  11  34
BRANCH   1  43
HETATM   43  N1  UNL     1       1.622 -11.255  -2.572  1.00  0.00    -0.384 N 
ATOM     44  H12 UNL     1       2.417 -11.405  -1.949  1.00  0.00     0.157 HD
ATOM     45  H11 UNL     1       1.416 -10.307  -2.889  1.00  0.00     0.157 HD
ENDBRANCH   1  43
BRANCH   4  46
HETATM   46  N3  UNL     1       0.489 -14.591  -5.583  1.00  0.00    -0.138 N 
ATOM     47  H3  UNL     1       0.185 -15.562  -5.660  1.00  0.00     0.205 HD
BRANCH  46  48
HETATM   48  N4  UNL     1       1.198 -14.005  -6.641  1.00  0.00    -0.331 N 
ATOM     49  H42 UNL     1       0.676 -13.488  -7.348  1.00  0.00     0.177 HD
ATOM     50  H41 UNL     1       2.212 -14.092  -6.705  1.00  0.00     0.177 HD
ENDBRANCH  46  48
ENDBRANCH   4  46
TORSDOF 11
ENDMDL
MODEL 2
REMARK VINA RESULT: -6.595380681      2.501      4.687
REMARK  11 active torsions:
REMARK  status: ('A' for Active; 'I' for Inactive)
REMARK    1  A    between atoms: N1_1  and  C1_4 
REMARK    2  A    between atoms: C2_7  and  N3_8 
REMARK    3  A    between atoms: N3_8  and  N4_10 
REMARK    4  A    between atoms: C6_19  and  N6_20 
REMARK    5  A    between atoms: C9_23  and  N7_24 
REMARK    6  A    between atoms: C11_29  and  O1_30 
REMARK    7  A    between atoms: O1_30  and  C12_31 
REMARK    8  A    between atoms: C12_31  and  C13_32 
REMARK    9  A    between atoms: N8_34  and  N9_35 
REMARK       I    between atoms: N10_37  and  C15_39 
REMARK   10  A    between atoms: C16_44  and  N13_45 
REMARK   11  A    between atoms: N13_45  and  N14_47 
ROOT
HETATM    1  C1  UNL     1       1.301 -11.596  -2.897  1.00  0.00     0.130 A 
HETATM    2  N2  UNL     1       1.470 -12.423  -3.966  1.00  0.00    -0.175 N 
ATOM      3  H2  UNL     1       2.162 -12.192  -4.679  1.00  0.00     0.186 HD
HETATM    4  C2  UNL     1       0.733 -13.539  -4.089  1.00  0.00     0.698 A 
HETATM    5  N5  UNL     1      -0.179 -13.864  -3.171  1.00  0.00    -0.186 N 
ATOM      6  H5  UNL     1      -0.727 -14.717  -3.288  1.00  0.00     0.184 HD
HETATM    7  C3  UNL     1      -0.389 -13.087  -2.094  1.00  0.00     0.104 A 
HETATM    8  C4  UNL     1      -1.383 -13.460  -1.222  1.00  0.00     0.146 A 
HETATM    9  F1  UNL     1      -2.063 -14.603  -1.444  1.00  0.00    -0.204 F 
HETATM   10  C5  UNL     1      -1.644 -12.656  -0.159  1.00  0.00     0.077 A 
HETATM   11  C6  UNL     1      -0.916 -11.469   0.057  1.00  0.00     0.068 A 
HETATM   12  C11 UNL     1       0.067 -11.124  -0.814  1.00  0.00     0.111 A 
HETATM   13  C17 UNL     1       0.373 -11.923  -1.947  1.00  0.00     0.074 A 
ENDROOT
BRANCH  12  14
HETATM   14  O1  UNL     1       0.889  -9.985  -0.700  1.00  0.00    -0.347 OA
BRANCH  14  15
HETATM   15  C12 UNL     1       1.743  -9.687   0.357  1.00  0.00     0.190 C 
BRANCH  15  16
HETATM   16  C13 UNL     1       2.512  -8.449   0.506  1.00  0.00     0.102 C 
HETATM   17  C14 UNL     1       3.526  -8.123  -0.532  1.00  0.00     0.185 C 
HETATM   18  N8  UNL     1       4.791  -8.302   0.137  1.00  0.00    -0.217 N 
HETATM   19  N12 UNL     1       4.538  -8.489   1.486  1.00  0.00    -0.269 N 
HETATM   20  C16 UNL     1       3.312  -8.579   1.760  1.00  0.00     0.125 C 
ATOM     21  H12 UNL     1       5.275  -8.549   2.190  1.00  0.00     0.190 HD
BRANCH  18  22
HETATM   22  N9  UNL     1       6.090  -8.300  -0.420  1.00  0.00    -0.222 N 
HETATM   23  N10 UNL     1       6.274  -8.923  -1.512  1.00  0.00    -0.238 N 
HETATM   24  C15 UNL     1       7.565  -8.946  -2.106  1.00  0.00     0.348 C 
ATOM     25  H10 UNL     1       5.497  -9.406  -1.962  1.00  0.00     0.193 HD
HETATM   26  N11 UNL     1       8.733  -9.410  -1.442  1.00  0.00    -0.038 NA
HETATM   27  O2  UNL     1       7.687  -8.533  -3.287  1.00  0.00    -0.249 OA
ATOM     28  H9  UNL     1       6.858  -7.812   0.041  1.00  0.00     0.210 HD
ENDBRANCH  18  22
BRANCH  20  29
HETATM   29  N13 UNL     1       2.757  -8.776   3.084  1.00  0.00    -0.228 N 
ATOM     30  H13 UNL     1       2.462  -9.713   3.361  1.00  0.00     0.194 HD
BRANCH  29  31
HETATM   31  N14 UNL     1       2.611  -7.730   3.994  1.00  0.00    -0.037 N 
HETATM   32  O3  UNL     1       3.405  -6.777   3.914  1.00  0.00    -0.516 OA
HETATM   33  O4  UNL     1       1.652  -7.681   4.970  1.00  0.00    -0.516 OA
ENDBRANCH  29  31
ENDBRANCH  20  29
ENDBRANCH  15  16
ENDBRANCH  14  15
ENDBRANCH  12  14
BRANCH  11  34
HETATM   34  N6  UNL     1      -1.374 -10.661   1.126  1.00  0.00    -0.376 N 
HETATM   35  C7  UNL     1      -2.376  -9.653   1.078  1.00  0.00     0.125 C 
HETATM   36  C8  UNL     1      -2.442  -9.020   2.451  1.00  0.00     0.054 C 
HETATM   37  C9  UNL     1      -1.047  -9.287   2.977  1.00  0.00     0.202 C 
HETATM   38  C10 UNL     1      -0.803 -10.698   2.457  1.00  0.00     0.155 C 
BRANCH  37  39
HETATM   39  N7  UNL     1      -0.983  -9.193   4.407  1.00  0.00    -0.073 N 
ATOM     40  H73 UNL     1      -0.374  -8.430   4.701  1.00  0.00     0.274 HD
ATOM     41  H72 UNL     1      -1.864  -8.855   4.796  1.00  0.00     0.274 HD
ATOM     42  H71 UNL     1      -0.704 -10.076   4.837  1.00  0.00     0.274 HD
ENDBRANCH  37  39
ENDBRANCH  11  34
BRANCH   1  43
HETATM   43  N1  UNL     1       1.938 -10.492  -2.859  1.00  0.00    -0.384 N 
ATOM     44  H12 UNL     1       1.708  -9.719  -3.484  1.00  0.00     0.157 HD
ATOM     45  H11 UNL     1       2.747 -10.406  -2.243  1.00  0.00     0.157 HD
ENDBRANCH   1  43
BRANCH   4  46
HETATM   46  N3  UNL     1       0.948 -14.361  -5.212  1.00  0.00    -0.138 N 
ATOM     47  H3  UNL     1       0.813 -15.368  -5.131  1.00  0.00     0.205 HD
BRANCH  46  48
HETATM   48  N4  UNL     1       1.344 -13.815  -6.441  1.00  0.00    -0.331 N 
ATOM     49  H42 UNL     1       2.006 -14.338  -7.014  1.00  0.00     0.177 HD
ATOM     50  H41 UNL     1       0.980 -12.917  -6.759  1.00  0.00     0.177 HD
ENDBRANCH  46  48
ENDBRANCH   4  46
TORSDOF 11
ENDMDL
MODEL 3
REMARK VINA RESULT: -6.539847309      5.955      9.861
REMARK  11 active torsions:
REMARK  status: ('A' for Active; 'I' for Inactive)
REMARK    1  A    between atoms: N1_1  and  C1_4 
REMARK    2  A    between atoms: C2_7  and  N3_8 
REMARK    3  A    between atoms: N3_8  and  N4_10 
REMARK    4  A    between atoms: C6_19  and  N6_20 
REMARK    5  A    between atoms: C9_23  and  N7_24 
REMARK    6  A    between atoms: C11_29  and  O1_30 
REMARK    7  A    between atoms: O1_30  and  C12_31 
REMARK    8  A    between atoms: C12_31  and  C13_32 
REMARK    9  A    between atoms: N8_34  and  N9_35 
REMARK       I    between atoms: N10_37  and  C15_39 
REMARK   10  A    between atoms: C16_44  and  N13_45 
REMARK   11  A    between atoms: N13_45  and  N14_47 
ROOT
HETATM    1  C1  UNL     1       8.740  -6.095   1.943  1.00  0.00     0.130 A 
HETATM    2  N2  UNL     1       9.751  -5.258   1.578  1.00  0.00    -0.175 N 
ATOM      3  H2  UNL     1      10.551  -5.626   1.063  1.00  0.00     0.186 HD
HETATM    4  C2  UNL     1       9.703  -3.953   1.891  1.00  0.00     0.698 A 
HETATM    5  N5  UNL     1       8.668  -3.445   2.564  1.00  0.00    -0.186 N 
ATOM      6  H5  UNL     1       8.656  -2.451   2.791  1.00  0.00     0.184 HD
HETATM    7  C3  UNL     1       7.642  -4.223   2.949  1.00  0.00     0.104 A 
HETATM    8  C4  UNL     1       6.641  -3.639   3.687  1.00  0.00     0.146 A 
HETATM    9  F1  UNL     1       6.695  -2.316   3.944  1.00  0.00    -0.204 F 
HETATM   10  C5  UNL     1       5.624  -4.422   4.130  1.00  0.00     0.077 A 
HETATM   11  C6  UNL     1       5.585  -5.802   3.843  1.00  0.00     0.068 A 
HETATM   12  C11 UNL     1       6.581  -6.356   3.107  1.00  0.00     0.111 A 
HETATM   13  C17 UNL     1       7.673  -5.584   2.628  1.00  0.00     0.074 A 
ENDROOT
BRANCH  12  14
HETATM   14  O1  UNL     1       6.649  -7.711   2.723  1.00  0.00    -0.347 OA
BRANCH  14  15
HETATM   15  C12 UNL     1       5.870  -8.333   1.754  1.00  0.00     0.190 C 
BRANCH  15  16
HETATM   16  C13 UNL     1       5.259  -7.670   0.600  1.00  0.00     0.102 C 
HETATM   17  C14 UNL     1       3.787  -7.782   0.422  1.00  0.00     0.185 C 
HETATM   18  N8  UNL     1       3.630  -8.641  -0.725  1.00  0.00    -0.217 N 
HETATM   19  N12 UNL     1       4.879  -8.824  -1.296  1.00  0.00    -0.269 N 
HETATM   20  C16 UNL     1       5.817  -8.319  -0.624  1.00  0.00     0.125 C 
ATOM     21  H12 UNL     1       5.025  -9.321  -2.175  1.00  0.00     0.190 HD
BRANCH  18  22
HETATM   22  N9  UNL     1       2.448  -9.227  -1.232  1.00  0.00    -0.222 N 
HETATM   23  N10 UNL     1       1.810 -10.031  -0.484  1.00  0.00    -0.238 N 
HETATM   24  C15 UNL     1       0.616 -10.643  -0.955  1.00  0.00     0.348 C 
ATOM     25  H10 UNL     1       2.153 -10.238   0.453  1.00  0.00     0.193 HD
HETATM   26  N11 UNL     1       0.541 -11.415  -2.146  1.00  0.00    -0.038 NA
HETATM   27  O2  UNL     1      -0.436 -10.495  -0.283  1.00  0.00    -0.249 OA
ATOM     28  H9  UNL     1       2.117  -9.011  -2.172  1.00  0.00     0.210 HD
ENDBRANCH  18  22
BRANCH  20  29
HETATM   29  N13 UNL     1       7.223  -8.356  -0.978  1.00  0.00    -0.228 N 
ATOM     30  H13 UNL     1       7.891  -7.851  -0.395  1.00  0.00     0.194 HD
BRANCH  29  31
HETATM   31  N14 UNL     1       7.693  -9.056  -2.087  1.00  0.00    -0.037 N 
HETATM   32  O3  UNL     1       7.680  -8.478  -3.187  1.00  0.00    -0.516 OA
HETATM   33  O4  UNL     1       8.168 -10.339  -2.048  1.00  0.00    -0.516 OA
ENDBRANCH  29  31
ENDBRANCH  20  29
ENDBRANCH  15  16
ENDBRANCH  14  15
ENDBRANCH  12  14
BRANCH  11  34
HETATM   34  N6  UNL     1       4.541  -6.523   4.473  1.00  0.00    -0.376 N 
HETATM   35  C7  UNL     1       3.306  -6.930   3.898  1.00  0.00     0.125 C 
HETATM   36  C8  UNL     1       2.497  -7.591   4.993  1.00  0.00     0.054 C 
HETATM   37  C9  UNL     1       3.076  -6.942   6.233  1.00  0.00     0.202 C 
HETATM   38  C10 UNL     1       4.555  -6.891   5.874  1.00  0.00     0.155 C 
BRANCH  37  39
HETATM   39  N7  UNL     1       2.808  -7.707   7.417  1.00  0.00    -0.073 N 
ATOM     40  H73 UNL     1       2.078  -8.400   7.252  1.00  0.00     0.274 HD
ATOM     41  H72 UNL     1       3.582  -8.336   7.634  1.00  0.00     0.274 HD
ATOM     42  H71 UNL     1       2.581  -7.112   8.215  1.00  0.00     0.274 HD
ENDBRANCH  37  39
ENDBRANCH  11  34
BRANCH   1  43
HETATM   43  N1  UNL     1       8.861  -7.346   1.726  1.00  0.00    -0.384 N 
ATOM     44  H12 UNL     1       9.454  -7.936   2.309  1.00  0.00     0.157 HD
ATOM     45  H11 UNL     1       8.416  -7.752   0.903  1.00  0.00     0.157 HD
ENDBRANCH   1  43
BRANCH   4  46
HETATM   46  N3  UNL     1      10.773  -3.130   1.489  1.00  0.00    -0.138 N 
ATOM     47  H3  UNL     1      10.754  -2.135   1.715  1.00  0.00     0.205 HD
BRANCH  46  48
HETATM   48  N4  UNL     1      11.863  -3.655   0.782  1.00  0.00    -0.331 N 
ATOM     49  H42 UNL     1      12.023  -3.336  -0.174  1.00  0.00     0.177 HD
ATOM     50  H41 UNL     1      12.484  -4.342   1.209  1.00  0.00     0.177 HD
ENDBRANCH  46  48
ENDBRANCH   4  46
TORSDOF 11
ENDMDL
MODEL 4
REMARK VINA RESULT: -6.492223873      1.803      2.464
REMARK  11 active torsions:
REMARK  status: ('A' for Active; 'I' for Inactive)
REMARK    1  A    between atoms: N1_1  and  C1_4 
REMARK    2  A    between atoms: C2_7  and  N3_8 
REMARK    3  A    between atoms: N3_8  and  N4_10 
REMARK    4  A    between atoms: C6_19  and  N6_20 
REMARK    5  A    between atoms: C9_23  and  N7_24 
REMARK    6  A    between atoms: C11_29  and  O1_30 
REMARK    7  A    between atoms: O1_30  and  C12_31 
REMARK    8  A    between atoms: C12_31  and  C13_32 
REMARK    9  A    between atoms: N8_34  and  N9_35 
REMARK       I    between atoms: N10_37  and  C15_39 
REMARK   10  A    between atoms: C16_44  and  N13_45 
REMARK   11  A    between atoms: N13_45  and  N14_47 
ROOT
HETATM    1  C1  UNL     1       0.838 -11.392  -2.185  1.00  0.00     0.130 A 
HETATM    2  N2  UNL     1       1.568 -11.725  -3.286  1.00  0.00    -0.175 N 
ATOM      3  H2  UNL     1       2.423 -11.211  -3.500  1.00  0.00     0.186 HD
HETATM    4  C2  UNL     1       1.171 -12.724  -4.091  1.00  0.00     0.698 A 
HETATM    5  N5  UNL     1       0.057 -13.412  -3.834  1.00  0.00    -0.186 N 
ATOM      6  H5  UNL     1      -0.224 -14.165  -4.462  1.00  0.00     0.184 HD
HETATM    7  C3  UNL     1      -0.703 -13.128  -2.762  1.00  0.00     0.104 A 
HETATM    8  C4  UNL     1      -1.863 -13.844  -2.595  1.00  0.00     0.146 A 
HETATM    9  F1  UNL     1      -2.165 -14.827  -3.468  1.00  0.00    -0.204 F 
HETATM   10  C5  UNL     1      -2.670 -13.533  -1.547  1.00  0.00     0.077 A 
HETATM   11  C6  UNL     1      -2.330 -12.505  -0.644  1.00  0.00     0.068 A 
HETATM   12  C11 UNL     1      -1.175 -11.816  -0.824  1.00  0.00     0.111 A 
HETATM   13  C17 UNL     1      -0.302 -12.094  -1.910  1.00  0.00     0.074 A 
ENDROOT
BRANCH  12  14
HETATM   14  O1  UNL     1      -0.702 -10.790   0.019  1.00  0.00    -0.347 OA
BRANCH  14  15
HETATM   15  C12 UNL     1      -0.567 -10.856   1.401  1.00  0.00     0.190 C 
BRANCH  15  16
HETATM   16  C13 UNL     1      -0.996  -9.824   2.348  1.00  0.00     0.102 C 
HETATM   17  C14 UNL     1      -2.455  -9.640   2.573  1.00  0.00     0.185 C 
HETATM   18  N8  UNL     1      -2.754  -8.373   1.954  1.00  0.00    -0.217 N 
HETATM   19  N12 UNL     1      -1.555  -7.773   1.606  1.00  0.00    -0.269 N 
HETATM   20  C16 UNL     1      -0.551  -8.510   1.795  1.00  0.00     0.125 C 
ATOM     21  H12 UNL     1      -1.492  -6.826   1.232  1.00  0.00     0.190 HD
BRANCH  18  22
HETATM   22  N9  UNL     1      -4.018  -7.788   1.712  1.00  0.00    -0.222 N 
HETATM   23  N10 UNL     1      -4.554  -7.112   2.645  1.00  0.00    -0.238 N 
HETATM   24  C15 UNL     1      -5.824  -6.507   2.442  1.00  0.00     0.348 C 
ATOM     25  H10 UNL     1      -4.074  -7.004   3.537  1.00  0.00     0.193 HD
HETATM   26  N11 UNL     1      -6.989  -7.223   2.055  1.00  0.00    -0.038 NA
HETATM   27  O2  UNL     1      -5.929  -5.266   2.616  1.00  0.00    -0.249 OA
ATOM     28  H9  UNL     1      -4.486  -7.904   0.813  1.00  0.00     0.210 HD
ENDBRANCH  18  22
BRANCH  20  29
HETATM   29  N13 UNL     1       0.825  -8.145   1.522  1.00  0.00    -0.228 N 
ATOM     30  H13 UNL     1       1.497  -8.149   2.290  1.00  0.00     0.194 HD
BRANCH  29  31
HETATM   31  N14 UNL     1       1.262  -7.790   0.248  1.00  0.00    -0.037 N 
HETATM   32  O3  UNL     1       0.424  -7.335  -0.548  1.00  0.00    -0.516 OA
HETATM   33  O4  UNL     1       2.555  -7.907  -0.187  1.00  0.00    -0.516 OA
ENDBRANCH  29  31
ENDBRANCH  20  29
ENDBRANCH  15  16
ENDBRANCH  14  15
ENDBRANCH  12  14
BRANCH  11  34
HETATM   34  N6  UNL     1      -3.317 -12.199   0.324  1.00  0.00    -0.376 N 
HETATM   35  C7  UNL     1      -3.624 -12.930   1.504  1.00  0.00     0.125 C 
HETATM   36  C8  UNL     1      -4.807 -12.251   2.159  1.00  0.00     0.054 C 
HETATM   37  C9  UNL     1      -5.464 -11.575   0.974  1.00  0.00     0.202 C 
HETATM   38  C10 UNL     1      -4.245 -11.093   0.198  1.00  0.00     0.155 C 
BRANCH  37  39
HETATM   39  N7  UNL     1      -6.335 -10.508   1.376  1.00  0.00    -0.073 N 
ATOM     40  H73 UNL     1      -7.124 -10.414   0.736  1.00  0.00     0.274 HD
ATOM     41  H72 UNL     1      -6.846 -10.748   2.226  1.00  0.00     0.274 HD
ATOM     42  H71 UNL     1      -5.836  -9.624   1.482  1.00  0.00     0.274 HD
ENDBRANCH  37  39
ENDBRANCH  11  34
BRANCH   1  43
HETATM   43  N1  UNL     1       1.180 -10.374  -1.498  1.00  0.00    -0.384 N 
ATOM     44  H12 UNL     1       1.927  -9.748  -1.801  1.00  0.00     0.157 HD
ATOM     45  H11 UNL     1       0.752 -10.224  -0.584  1.00  0.00     0.157 HD
ENDBRANCH   1  43
BRANCH   4  46
HETATM   46  N3  UNL     1       1.962 -13.030  -5.216  1.00  0.00    -0.138 N 
ATOM     47  H3  UNL     1       2.942 -12.747  -5.232  1.00  0.00     0.205 HD
BRANCH  46  48
HETATM   48  N4  UNL     1       1.424 -13.716  -6.313  1.00  0.00    -0.331 N 
ATOM     49  H42 UNL     1       0.565 -14.249  -6.179  1.00  0.00     0.177 HD
ATOM     50  H41 UNL     1       1.878 -13.686  -7.226  1.00  0.00     0.177 HD
ENDBRANCH  46  48
ENDBRANCH   4  46
TORSDOF 11
ENDMDL
MODEL 5
REMARK VINA RESULT: -6.416605701      6.866     11.302
REMARK  11 active torsions:
REMARK  status: ('A' for Active; 'I' for Inactive)
REMARK    1  A    between atoms: N1_1  and  C1_4 
REMARK    2  A    between atoms: C2_7  and  N3_8 
REMARK    3  A    between atoms: N3_8  and  N4_10 
REMARK    4  A    between atoms: C6_19  and  N6_20 
REMARK    5  A    between atoms: C9_23  and  N7_24 
REMARK    6  A    between atoms: C11_29  and  O1_30 
REMARK    7  A    between atoms: O1_30  and  C12_31 
REMARK    8  A    between atoms: C12_31  and  C13_32 
REMARK    9  A    between atoms: N8_34  and  N9_35 
REMARK       I    between atoms: N10_37  and  C15_39 
REMARK   10  A    between atoms: C16_44  and  N13_45 
REMARK   11  A    between atoms: N13_45  and  N14_47 
ROOT
HETATM    1  C1  UNL     1       6.857  -6.104   5.874  1.00  0.00     0.130 A 
HETATM    2  N2  UNL     1       7.159  -5.174   6.822  1.00  0.00    -0.175 N 
ATOM      3  H2  UNL     1       7.579  -5.469   7.704  1.00  0.00     0.186 HD
HETATM    4  C2  UNL     1       6.907  -3.873   6.606  1.00  0.00     0.698 A 
HETATM    5  N5  UNL     1       6.357  -3.460   5.462  1.00  0.00    -0.186 N 
ATOM      6  H5  UNL     1       6.174  -2.466   5.323  1.00  0.00     0.184 HD
HETATM    7  C3  UNL     1       6.039  -4.333   4.490  1.00  0.00     0.104 A 
HETATM    8  C4  UNL     1       5.425  -3.838   3.365  1.00  0.00     0.146 A 
HETATM    9  F1  UNL     1       5.219  -2.509   3.254  1.00  0.00    -0.204 F 
HETATM   10  C5  UNL     1       5.048  -4.713   2.397  1.00  0.00     0.077 A 
HETATM   11  C6  UNL     1       5.279  -6.097   2.533  1.00  0.00     0.068 A 
HETATM   12  C11 UNL     1       5.894  -6.563   3.650  1.00  0.00     0.111 A 
HETATM   13  C17 UNL     1       6.298  -5.692   4.696  1.00  0.00     0.074 A 
ENDROOT
BRANCH  12  14
HETATM   14  O1  UNL     1       6.212  -7.913   3.898  1.00  0.00    -0.347 OA
BRANCH  14  15
HETATM   15  C12 UNL     1       6.841  -8.786   3.017  1.00  0.00     0.190 C 
BRANCH  15  16
HETATM   16  C13 UNL     1       8.289  -8.905   2.826  1.00  0.00     0.102 C 
HETATM   17  C14 UNL     1       9.153  -7.790   3.299  1.00  0.00     0.185 C 
HETATM   18  N8  UNL     1       9.631  -7.171   2.088  1.00  0.00    -0.217 N 
HETATM   19  N12 UNL     1       9.269  -7.979   1.023  1.00  0.00    -0.269 N 
HETATM   20  C16 UNL     1       8.534  -8.947   1.354  1.00  0.00     0.125 C 
ATOM     21  H12 UNL     1       9.568  -7.806   0.063  1.00  0.00     0.190 HD
BRANCH  18  22
HETATM   22  N9  UNL     1      10.345  -5.960   1.941  1.00  0.00    -0.222 N 
HETATM   23  N10 UNL     1       9.777  -5.000   1.333  1.00  0.00    -0.238 N 
HETATM   24  C15 UNL     1      10.459  -3.765   1.163  1.00  0.00     0.348 C 
ATOM     25  H10 UNL     1       8.832  -5.115   0.967  1.00  0.00     0.193 HD
HETATM   26  N11 UNL     1      11.728  -3.642   0.534  1.00  0.00    -0.038 NA
HETATM   27  O2  UNL     1       9.913  -2.717   1.592  1.00  0.00    -0.249 OA
ATOM     28  H9  UNL     1      11.290  -5.859   2.312  1.00  0.00     0.210 HD
ENDBRANCH  18  22
BRANCH  20  29
HETATM   29  N13 UNL     1       8.006  -9.951   0.451  1.00  0.00    -0.228 N 
ATOM     30  H13 UNL     1       7.437 -10.707   0.834  1.00  0.00     0.194 HD
BRANCH  29  31
HETATM   31  N14 UNL     1       8.247  -9.919  -0.921  1.00  0.00    -0.037 N 
HETATM   32  O3  UNL     1       8.073  -8.842  -1.517  1.00  0.00    -0.516 OA
HETATM   33  O4  UNL     1       8.664 -10.995  -1.658  1.00  0.00    -0.516 OA
ENDBRANCH  29  31
ENDBRANCH  20  29
ENDBRANCH  15  16
ENDBRANCH  14  15
ENDBRANCH  12  14
BRANCH  11  34
HETATM   34  N6  UNL     1       4.723  -6.908   1.513  1.00  0.00    -0.376 N 
HETATM   35  C7  UNL     1       3.528  -7.676   1.578  1.00  0.00     0.125 C 
HETATM   36  C8  UNL     1       3.409  -8.432   0.273  1.00  0.00     0.054 C 
HETATM   37  C9  UNL     1       4.857  -8.519  -0.162  1.00  0.00     0.202 C 
HETATM   38  C10 UNL     1       5.366  -7.140   0.236  1.00  0.00     0.155 C 
BRANCH  37  39
HETATM   39  N7  UNL     1       4.984  -8.784  -1.566  1.00  0.00    -0.073 N 
ATOM     40  H73 UNL     1       5.500  -9.648  -1.734  1.00  0.00     0.274 HD
ATOM     41  H72 UNL     1       4.088  -9.051  -1.974  1.00  0.00     0.274 HD
ATOM     42  H71 UNL     1       5.401  -8.000  -2.068  1.00  0.00     0.274 HD
ENDBRANCH  37  39
ENDBRANCH  11  34
BRANCH   1  43
HETATM   43  N1  UNL     1       7.009  -7.341   6.146  1.00  0.00    -0.384 N 
ATOM     44  H12 UNL     1       7.444  -7.649   7.016  1.00  0.00     0.157 HD
ATOM     45  H11 UNL     1       6.762  -8.038   5.444  1.00  0.00     0.157 HD
ENDBRANCH   1  43
BRANCH   4  46
HETATM   46  N3  UNL     1       7.239  -2.951   7.618  1.00  0.00    -0.138 N 
ATOM     47  H3  UNL     1       8.011  -3.158   8.252  1.00  0.00     0.205 HD
BRANCH  46  48
HETATM   48  N4  UNL     1       6.526  -1.754   7.768  1.00  0.00    -0.331 N 
ATOM     49  H42 UNL     1       5.560  -1.801   8.093  1.00  0.00     0.177 HD
ATOM     50  H41 UNL     1       6.959  -0.855   7.558  1.00  0.00     0.177 HD
ENDBRANCH  46  48
ENDBRANCH   4  46
TORSDOF 11
ENDMDL
