MODEL 1
REMARK VINA RESULT: -6.732890754      0.000      0.000
REMARK  11 active torsions:
REMARK  status: ('A' for Active; 'I' for Inactive)
REMARK    1  A    between atoms: C3_8  and  C4_9 
REMARK    2  A    between atoms: C4_9  and  C5_11 
REMARK    3  A    between atoms: C5_11  and  S2_12 
REMARK    4  A    between atoms: S2_12  and  C6_13 
REMARK    5  A    between atoms: C8_17  and  C9_18 
REMARK    6  A    between atoms: C9_18  and  C10_19 
REMARK    7  A    between atoms: C11_20  and  O3_21 
REMARK    8  A    between atoms: N4_23  and  C12_24 
REMARK    9  A    between atoms: C15_32  and  C16_33 
REMARK   10  A    between atoms: C16_33  and  O6_34 
REMARK   11  A    between atoms: N6_36  and  O7_37 
ROOT
HETATM    1  C6  UNL     1      -1.582 -11.558   1.396  1.00  0.00     0.146 A 
HETATM    2  N3  UNL     1      -0.742 -10.526   1.528  1.00  0.00    -0.333 N 
ATOM      3  H3  UNL     1       0.272 -10.598   1.608  1.00  0.00     0.168 HD
HETATM    4  C7  UNL     1      -1.446  -9.377   1.539  1.00  0.00     0.093 A 
HETATM    5  C8  UNL     1      -1.399  -8.006   1.628  1.00  0.00     0.027 A 
HETATM    6  C15 UNL     1      -2.688  -7.525   1.551  1.00  0.00     0.099 A 
HETATM    7  N6  UNL     1      -3.516  -8.562   1.417  1.00  0.00    -0.203 N 
HETATM    8  C17 UNL     1      -2.778  -9.713   1.408  1.00  0.00     0.163 A 
HETATM    9  N7  UNL     1      -2.832 -11.051   1.323  1.00  0.00    -0.319 N 
ATOM     10  H7  UNL     1      -3.684 -11.601   1.219  1.00  0.00     0.169 HD
ENDROOT
BRANCH   5  11
HETATM   11  C9  UNL     1      -0.284  -7.305   1.769  1.00  0.00     0.037 C 
BRANCH  11  12
HETATM   12  C10 UNL     1       1.037  -7.860   1.585  1.00  0.00     0.084 A 
HETATM   13  C11 UNL     1       1.599  -8.045   0.343  1.00  0.00     0.164 A 
HETATM   14  N4  UNL     1       2.829  -8.576   0.185  1.00  0.00    -0.252 N 
HETATM   15  C13 UNL     1       3.484  -8.916   1.297  1.00  0.00     0.333 A 
HETATM   16  O4  UNL     1       4.651  -9.420   1.159  1.00  0.00    -0.246 OA
HETATM   17  N5  UNL     1       3.002  -8.763   2.542  1.00  0.00    -0.274 N 
HETATM   18  C14 UNL     1       1.762  -8.229   2.688  1.00  0.00     0.263 A 
ATOM     19  H5  UNL     1       3.551  -9.041   3.355  1.00  0.00     0.173 HD
HETATM   20  O5  UNL     1       1.324  -8.094   3.860  1.00  0.00    -0.267 OA
BRANCH  13  21
HETATM   21  O3  UNL     1       0.892  -7.680  -0.812  1.00  0.00    -0.345 OA
ATOM     22  H3  UNL     1       1.313  -7.156  -1.484  1.00  0.00     0.219 HD
ENDBRANCH  13  21
BRANCH  14  23
HETATM   23  C12 UNL     1       3.461  -8.787  -1.109  1.00  0.00     0.360 C 
HETATM   24  F1  UNL     1       4.101  -7.596  -1.472  1.00  0.00    -0.233 F 
ENDBRANCH  14  23
ENDBRANCH  11  12
ENDBRANCH   5  11
BRANCH   6  25
HETATM   25  C16 UNL     1      -2.990  -6.222   1.609  1.00  0.00     0.164 C 
BRANCH  25  26
HETATM   26  O6  UNL     1      -4.279  -5.776   1.625  1.00  0.00    -0.370 OA
ATOM     27  H6  UNL     1      -4.643  -5.310   2.368  1.00  0.00     0.216 HD
ENDBRANCH  25  26
ENDBRANCH   6  25
BRANCH   7  28
HETATM   28  O7  UNL     1      -4.869  -8.540   1.306  1.00  0.00    -0.281 OA
ATOM     29  H7  UNL     1      -5.427  -7.798   1.101  1.00  0.00     0.245 HD
ENDBRANCH   7  28
BRANCH   1  30
HETATM   30  S2  UNL     1      -1.208 -13.284   1.338  1.00  0.00    -0.086 SA
BRANCH  30  31
HETATM   31  C5  UNL     1      -1.485 -14.048  -0.260  1.00  0.00     0.168 C 
BRANCH  31  32
HETATM   32  C4  UNL     1      -1.578 -13.073  -1.360  1.00  0.00     0.188 C 
HETATM   33  O2  UNL     1      -2.564 -12.312  -1.414  1.00  0.00    -0.290 OA
BRANCH  32  34
HETATM   34  C3  UNL     1      -0.532 -12.965  -2.415  1.00  0.00     0.114 A 
HETATM   35  C1  UNL     1       0.593 -12.197  -2.217  1.00  0.00     0.122 A 
HETATM   36  N1  UNL     1       0.956 -11.435  -1.062  1.00  0.00    -0.092 NA
HETATM   37  S1  UNL     1       1.427 -12.401  -3.701  1.00  0.00    -0.012 SA
HETATM   38  C2  UNL     1       0.316 -13.433  -4.470  1.00  0.00     0.290 A 
HETATM   39  O1  UNL     1       0.369 -13.956  -5.644  1.00  0.00    -0.260 OA
HETATM   40  N2  UNL     1      -0.647 -13.578  -3.562  1.00  0.00    -0.312 N 
ATOM     41  H2  UNL     1      -1.461 -14.160  -3.759  1.00  0.00     0.170 HD
ENDBRANCH  32  34
ENDBRANCH  31  32
ENDBRANCH  30  31
ENDBRANCH   1  30
TORSDOF 11
ENDMDL
MODEL 2
REMARK VINA RESULT: -6.519253632      9.282     12.463
REMARK  11 active torsions:
REMARK  status: ('A' for Active; 'I' for Inactive)
REMARK    1  A    between atoms: C3_8  and  C4_9 
REMARK    2  A    between atoms: C4_9  and  C5_11 
REMARK    3  A    between atoms: C5_11  and  S2_12 
REMARK    4  A    between atoms: S2_12  and  C6_13 
REMARK    5  A    between atoms: C8_17  and  C9_18 
REMARK    6  A    between atoms: C9_18  and  C10_19 
REMARK    7  A    between atoms: C11_20  and  O3_21 
REMARK    8  A    between atoms: N4_23  and  C12_24 
REMARK    9  A    between atoms: C15_32  and  C16_33 
REMARK   10  A    between atoms: C16_33  and  O6_34 
REMARK   11  A    between atoms: N6_36  and  O7_37 
ROOT
HETATM    1  C6  UNL     1       7.988  -4.665   3.517  1.00  0.00     0.146 A 
HETATM    2  N3  UNL     1       9.071  -4.300   4.210  1.00  0.00    -0.333 N 
ATOM      3  H3  UNL     1       9.147  -4.295   5.227  1.00  0.00     0.168 HD
HETATM    4  C7  UNL     1      10.048  -3.940   3.353  1.00  0.00     0.093 A 
HETATM    5  C8  UNL     1      11.337  -3.484   3.213  1.00  0.00     0.027 A 
HETATM    6  C15 UNL     1      11.606  -3.361   1.867  1.00  0.00     0.099 A 
HETATM    7  N6  UNL     1      10.519  -3.729   1.186  1.00  0.00    -0.203 N 
HETATM    8  C17 UNL     1       9.545  -4.090   2.077  1.00  0.00     0.163 A 
HETATM    9  N7  UNL     1       8.286  -4.533   2.207  1.00  0.00    -0.319 N 
ATOM     10  H7  UNL     1       7.652  -4.738   1.435  1.00  0.00     0.169 HD
ENDROOT
BRANCH   5  11
HETATM   11  C9  UNL     1      12.148  -3.215   4.225  1.00  0.00     0.037 C 
BRANCH  11  12
HETATM   12  C10 UNL     1      11.932  -2.131   5.156  1.00  0.00     0.084 A 
HETATM   13  C11 UNL     1      11.252  -2.294   6.340  1.00  0.00     0.164 A 
HETATM   14  N4  UNL     1      11.047  -1.270   7.195  1.00  0.00    -0.252 N 
HETATM   15  C13 UNL     1      11.539  -0.081   6.838  1.00  0.00     0.333 A 
HETATM   16  O4  UNL     1      11.350   0.896   7.640  1.00  0.00    -0.246 OA
HETATM   17  N5  UNL     1      12.214   0.153   5.700  1.00  0.00    -0.274 N 
HETATM   18  C14 UNL     1      12.412  -0.885   4.847  1.00  0.00     0.263 A 
ATOM     19  H5  UNL     1      12.567   1.084   5.482  1.00  0.00     0.173 HD
HETATM   20  O5  UNL     1      13.045  -0.650   3.785  1.00  0.00    -0.267 OA
BRANCH  13  21
HETATM   21  O3  UNL     1      10.745  -3.552   6.695  1.00  0.00    -0.345 OA
ATOM     22  H3  UNL     1       9.811  -3.671   6.826  1.00  0.00     0.219 HD
ENDBRANCH  13  21
BRANCH  14  23
HETATM   23  C12 UNL     1      10.335  -1.398   8.458  1.00  0.00     0.360 C 
HETATM   24  F1  UNL     1       8.965  -1.294   8.189  1.00  0.00    -0.233 F 
ENDBRANCH  14  23
ENDBRANCH  11  12
ENDBRANCH   5  11
BRANCH   6  25
HETATM   25  C16 UNL     1      12.781  -2.934   1.389  1.00  0.00     0.164 C 
BRANCH  25  26
HETATM   26  O6  UNL     1      13.255  -3.327   0.172  1.00  0.00    -0.370 OA
ATOM     27  H6  UNL     1      13.801  -2.763  -0.363  1.00  0.00     0.216 HD
ENDBRANCH  25  26
ENDBRANCH   6  25
BRANCH   7  28
HETATM   28  O7  UNL     1      10.349  -3.759  -0.161  1.00  0.00    -0.281 OA
ATOM     29  H7  UNL     1       9.755  -3.236  -0.687  1.00  0.00     0.245 HD
ENDBRANCH   7  28
BRANCH   1  30
HETATM   30  S2  UNL     1       6.421  -5.210   4.126  1.00  0.00    -0.086 SA
BRANCH  30  31
HETATM   31  C5  UNL     1       5.691  -6.555   3.192  1.00  0.00     0.168 C 
BRANCH  31  32
HETATM   32  C4  UNL     1       5.413  -6.201   1.789  1.00  0.00     0.188 C 
HETATM   33  O2  UNL     1       5.053  -5.040   1.516  1.00  0.00    -0.290 OA
BRANCH  32  34
HETATM   34  C3  UNL     1       5.548  -7.188   0.681  1.00  0.00     0.114 A 
HETATM   35  C1  UNL     1       6.786  -7.638   0.285  1.00  0.00     0.122 A 
HETATM   36  N1  UNL     1       8.069  -7.294   0.818  1.00  0.00    -0.092 NA
HETATM   37  S1  UNL     1       6.382  -8.705  -0.994  1.00  0.00    -0.012 SA
HETATM   38  C2  UNL     1       4.693  -8.519  -0.949  1.00  0.00     0.290 A 
HETATM   39  O1  UNL     1       3.794  -9.072  -1.683  1.00  0.00    -0.260 OA
HETATM   40  N2  UNL     1       4.508  -7.649   0.041  1.00  0.00    -0.312 N 
ATOM     41  H2  UNL     1       3.567  -7.347   0.296  1.00  0.00     0.170 HD
ENDBRANCH  32  34
ENDBRANCH  31  32
ENDBRANCH  30  31
ENDBRANCH   1  30
TORSDOF 11
ENDMDL
MODEL 3
REMARK VINA RESULT: -6.498129930      3.884      6.630
REMARK  11 active torsions:
REMARK  status: ('A' for Active; 'I' for Inactive)
REMARK    1  A    between atoms: C3_8  and  C4_9 
REMARK    2  A    between atoms: C4_9  and  C5_11 
REMARK    3  A    between atoms: C5_11  and  S2_12 
REMARK    4  A    between atoms: S2_12  and  C6_13 
REMARK    5  A    between atoms: C8_17  and  C9_18 
REMARK    6  A    between atoms: C9_18  and  C10_19 
REMARK    7  A    between atoms: C11_20  and  O3_21 
REMARK    8  A    between atoms: N4_23  and  C12_24 
REMARK    9  A    between atoms: C15_32  and  C16_33 
REMARK   10  A    between atoms: C16_33  and  O6_34 
REMARK   11  A    between atoms: N6_36  and  O7_37 
ROOT
HETATM    1  C6  UNL     1       2.182  -8.135   0.367  1.00  0.00     0.146 A 
HETATM    2  N3  UNL     1       3.234  -7.990   1.178  1.00  0.00    -0.333 N 
ATOM      3  H3  UNL     1       3.186  -7.793   2.177  1.00  0.00     0.168 HD
HETATM    4  C7  UNL     1       4.369  -8.145   0.468  1.00  0.00     0.093 A 
HETATM    5  C8  UNL     1       5.743  -8.157   0.494  1.00  0.00     0.027 A 
HETATM    6  C15 UNL     1       6.196  -8.413  -0.783  1.00  0.00     0.099 A 
HETATM    7  N6  UNL     1       5.138  -8.558  -1.582  1.00  0.00    -0.203 N 
HETATM    8  C17 UNL     1       4.001  -8.397  -0.838  1.00  0.00     0.163 A 
HETATM    9  N7  UNL     1       2.660  -8.384  -0.871  1.00  0.00    -0.319 N 
ATOM     10  H7  UNL     1       2.090  -8.539  -1.702  1.00  0.00     0.169 HD
ENDROOT
BRANCH   5  11
HETATM   11  C9  UNL     1       6.472  -7.948   1.580  1.00  0.00     0.037 C 
BRANCH  11  12
HETATM   12  C10 UNL     1       6.821  -6.633   2.067  1.00  0.00     0.084 A 
HETATM   13  C11 UNL     1       5.949  -5.852   2.789  1.00  0.00     0.164 A 
HETATM   14  N4  UNL     1       6.284  -4.621   3.227  1.00  0.00    -0.252 N 
HETATM   15  C13 UNL     1       7.511  -4.189   2.927  1.00  0.00     0.333 A 
HETATM   16  O4  UNL     1       7.839  -3.024   3.337  1.00  0.00    -0.246 OA
HETATM   17  N5  UNL     1       8.417  -4.895   2.228  1.00  0.00    -0.274 N 
HETATM   18  C14 UNL     1       8.067  -6.132   1.792  1.00  0.00     0.263 A 
ATOM     19  H5  UNL     1       9.341  -4.512   2.031  1.00  0.00     0.173 HD
HETATM   20  O5  UNL     1       8.925  -6.780   1.138  1.00  0.00    -0.267 OA
BRANCH  13  21
HETATM   21  O3  UNL     1       4.664  -6.326   3.093  1.00  0.00    -0.345 OA
ATOM     22  H3  UNL     1       3.989  -5.724   3.384  1.00  0.00     0.219 HD
ENDBRANCH  13  21
BRANCH  14  23
HETATM   23  C12 UNL     1       5.393  -3.763   3.995  1.00  0.00     0.360 C 
HETATM   24  F1  UNL     1       4.499  -3.164   3.099  1.00  0.00    -0.233 F 
ENDBRANCH  14  23
ENDBRANCH  11  12
ENDBRANCH   5  11
BRANCH   6  25
HETATM   25  C16 UNL     1       7.494  -8.488  -1.100  1.00  0.00     0.164 C 
BRANCH  25  26
HETATM   26  O6  UNL     1       7.923  -8.541  -2.394  1.00  0.00    -0.370 OA
ATOM     27  H6  UNL     1       8.843  -8.615  -2.619  1.00  0.00     0.216 HD
ENDBRANCH  25  26
ENDBRANCH   6  25
BRANCH   7  28
HETATM   28  O7  UNL     1       5.129  -8.818  -2.915  1.00  0.00    -0.281 OA
ATOM     29  H7  UNL     1       5.106  -9.666  -3.344  1.00  0.00     0.245 HD
ENDBRANCH   7  28
BRANCH   1  30
HETATM   30  S2  UNL     1       0.463  -8.019   0.759  1.00  0.00    -0.086 SA
BRANCH  30  31
HETATM   31  C5  UNL     1      -0.368  -9.599   0.923  1.00  0.00     0.168 C 
BRANCH  31  32
HETATM   32  C4  UNL     1       0.451 -10.734   0.464  1.00  0.00     0.188 C 
HETATM   33  O2  UNL     1       1.564 -10.931   0.990  1.00  0.00    -0.290 OA
BRANCH  32  34
HETATM   34  C3  UNL     1      -0.006 -11.657  -0.612  1.00  0.00     0.114 A 
HETATM   35  C1  UNL     1       0.545 -11.600  -1.871  1.00  0.00     0.122 A 
HETATM   36  N1  UNL     1       1.581 -10.737  -2.350  1.00  0.00    -0.092 NA
HETATM   37  S1  UNL     1      -0.327 -12.826  -2.695  1.00  0.00    -0.012 SA
HETATM   38  C2  UNL     1      -1.322 -13.328  -1.412  1.00  0.00     0.290 A 
HETATM   39  O1  UNL     1      -2.225 -14.243  -1.392  1.00  0.00    -0.260 OA
HETATM   40  N2  UNL     1      -0.947 -12.539  -0.407  1.00  0.00    -0.312 N 
ATOM     41  H2  UNL     1      -1.389 -12.622   0.509  1.00  0.00     0.170 HD
ENDBRANCH  32  34
ENDBRANCH  31  32
ENDBRANCH  30  31
ENDBRANCH   1  30
TORSDOF 11
ENDMDL
MODEL 4
REMARK VINA RESULT: -6.425732745      2.884      8.202
REMARK  11 active torsions:
REMARK  status: ('A' for Active; 'I' for Inactive)
REMARK    1  A    between atoms: C3_8  and  C4_9 
REMARK    2  A    between atoms: C4_9  and  C5_11 
REMARK    3  A    between atoms: C5_11  and  S2_12 
REMARK    4  A    between atoms: S2_12  and  C6_13 
REMARK    5  A    between atoms: C8_17  and  C9_18 
REMARK    6  A    between atoms: C9_18  and  C10_19 
REMARK    7  A    between atoms: C11_20  and  O3_21 
REMARK    8  A    between atoms: N4_23  and  C12_24 
REMARK    9  A    between atoms: C15_32  and  C16_33 
REMARK   10  A    between atoms: C16_33  and  O6_34 
REMARK   11  A    between atoms: N6_36  and  O7_37 
ROOT
HETATM    1  C6  UNL     1       1.308 -10.251  -1.440  1.00  0.00     0.146 A 
HETATM    2  N3  UNL     1       0.416 -11.187  -1.102  1.00  0.00    -0.333 N 
ATOM      3  H3  UNL     1      -0.148 -11.185  -0.252  1.00  0.00     0.168 HD
HETATM    4  C7  UNL     1       0.377 -12.133  -2.061  1.00  0.00     0.093 A 
HETATM    5  C8  UNL     1      -0.184 -13.315  -2.481  1.00  0.00     0.027 A 
HETATM    6  C15 UNL     1       0.381 -13.654  -3.692  1.00  0.00     0.099 A 
HETATM    7  N6  UNL     1       1.267 -12.712  -4.020  1.00  0.00    -0.203 N 
HETATM    8  C17 UNL     1       1.286 -11.765  -3.033  1.00  0.00     0.163 A 
HETATM    9  N7  UNL     1       1.840 -10.613  -2.627  1.00  0.00    -0.319 N 
ATOM     10  H7  UNL     1       2.552 -10.091  -3.137  1.00  0.00     0.169 HD
ENDROOT
BRANCH   5  11
HETATM   11  C9  UNL     1      -1.105 -13.987  -1.806  1.00  0.00     0.037 C 
BRANCH  11  12
HETATM   12  C10 UNL     1      -2.485 -13.571  -1.708  1.00  0.00     0.084 A 
HETATM   13  C11 UNL     1      -2.920 -12.650  -0.784  1.00  0.00     0.164 A 
HETATM   14  N4  UNL     1      -4.215 -12.280  -0.696  1.00  0.00    -0.252 N 
HETATM   15  C13 UNL     1      -5.063 -12.852  -1.552  1.00  0.00     0.333 A 
HETATM   16  O4  UNL     1      -6.292 -12.510  -1.477  1.00  0.00    -0.246 OA
HETATM   17  N5  UNL     1      -4.712 -13.757  -2.482  1.00  0.00    -0.274 N 
HETATM   18  C14 UNL     1      -3.407 -14.122  -2.560  1.00  0.00     0.263 A 
ATOM     19  H5  UNL     1      -5.407 -14.159  -3.111  1.00  0.00     0.173 HD
HETATM   20  O5  UNL     1      -3.094 -14.972  -3.434  1.00  0.00    -0.267 OA
BRANCH  13  21
HETATM   21  O3  UNL     1      -2.010 -12.061   0.106  1.00  0.00    -0.345 OA
ATOM     22  H3  UNL     1      -1.985 -11.117   0.208  1.00  0.00     0.219 HD
ENDBRANCH  13  21
BRANCH  14  23
HETATM   23  C12 UNL     1      -4.717 -11.308   0.265  1.00  0.00     0.360 C 
HETATM   24  F1  UNL     1      -4.634 -10.042  -0.326  1.00  0.00    -0.233 F 
ENDBRANCH  14  23
ENDBRANCH  11  12
ENDBRANCH   5  11
BRANCH   6  25
HETATM   25  C16 UNL     1       0.051 -14.758  -4.373  1.00  0.00     0.164 C 
BRANCH  25  26
HETATM   26  O6  UNL     1       0.878 -15.307  -5.308  1.00  0.00    -0.370 OA
ATOM     27  H6  UNL     1       0.842 -16.229  -5.536  1.00  0.00     0.216 HD
ENDBRANCH  25  26
ENDBRANCH   6  25
BRANCH   7  28
HETATM   28  O7  UNL     1       2.049 -12.652  -5.129  1.00  0.00    -0.281 OA
ATOM     29  H7  UNL     1       2.446 -11.884  -5.522  1.00  0.00     0.245 HD
ENDBRANCH   7  28
BRANCH   1  30
HETATM   30  S2  UNL     1       1.774  -8.798  -0.548  1.00  0.00    -0.086 SA
BRANCH  30  31
HETATM   31  C5  UNL     1       1.926  -9.033   1.223  1.00  0.00     0.168 C 
BRANCH  31  32
HETATM   32  C4  UNL     1       1.174  -8.037   2.006  1.00  0.00     0.188 C 
HETATM   33  O2  UNL     1       1.746  -7.446   2.942  1.00  0.00    -0.290 OA
BRANCH  32  34
HETATM   34  C3  UNL     1      -0.250  -7.712   1.716  1.00  0.00     0.114 A 
HETATM   35  C1  UNL     1      -1.236  -8.658   1.877  1.00  0.00     0.122 A 
HETATM   36  N1  UNL     1      -1.105 -10.010   2.328  1.00  0.00    -0.092 NA
HETATM   37  S1  UNL     1      -2.638  -7.792   1.404  1.00  0.00    -0.012 SA
HETATM   38  C2  UNL     1      -1.900  -6.306   1.037  1.00  0.00     0.290 A 
HETATM   39  O1  UNL     1      -2.433  -5.215   0.614  1.00  0.00    -0.260 OA
HETATM   40  N2  UNL     1      -0.613  -6.532   1.291  1.00  0.00    -0.312 N 
ATOM     41  H2  UNL     1       0.079  -5.795   1.154  1.00  0.00     0.170 HD
ENDBRANCH  32  34
ENDBRANCH  31  32
ENDBRANCH  30  31
ENDBRANCH   1  30
TORSDOF 11
ENDMDL
MODEL 5
REMARK VINA RESULT: -6.410637407      5.187      8.324
REMARK  11 active torsions:
REMARK  status: ('A' for Active; 'I' for Inactive)
REMARK    1  A    between atoms: C3_8  and  C4_9 
REMARK    2  A    between atoms: C4_9  and  C5_11 
REMARK    3  A    between atoms: C5_11  and  S2_12 
REMARK    4  A    between atoms: S2_12  and  C6_13 
REMARK    5  A    between atoms: C8_17  and  C9_18 
REMARK    6  A    between atoms: C9_18  and  C10_19 
REMARK    7  A    between atoms: C11_20  and  O3_21 
REMARK    8  A    between atoms: N4_23  and  C12_24 
REMARK    9  A    between atoms: C15_32  and  C16_33 
REMARK   10  A    between atoms: C16_33  and  O6_34 
REMARK   11  A    between atoms: N6_36  and  O7_37 
ROOT
HETATM    1  C6  UNL     1      -5.455  -7.509   7.088  1.00  0.00     0.146 A 
HETATM    2  N3  UNL     1      -5.035  -7.978   5.909  1.00  0.00    -0.333 N 
ATOM      3  H3  UNL     1      -4.404  -8.768   5.779  1.00  0.00     0.168 HD
HETATM    4  C7  UNL     1      -5.576  -7.241   4.919  1.00  0.00     0.093 A 
HETATM    5  C8  UNL     1      -5.674  -7.042   3.562  1.00  0.00     0.027 A 
HETATM    6  C15 UNL     1      -6.512  -5.970   3.343  1.00  0.00     0.099 A 
HETATM    7  N6  UNL     1      -6.926  -5.513   4.526  1.00  0.00    -0.203 N 
HETATM    8  C17 UNL     1      -6.365  -6.276   5.512  1.00  0.00     0.163 A 
HETATM    9  N7  UNL     1      -6.272  -6.464   6.837  1.00  0.00    -0.319 N 
ATOM     10  H7  UNL     1      -6.745  -5.903   7.546  1.00  0.00     0.169 HD
ENDROOT
BRANCH   5  11
HETATM   11  C9  UNL     1      -5.049  -7.775   2.653  1.00  0.00     0.037 C 
BRANCH  11  12
HETATM   12  C10 UNL     1      -3.617  -7.761   2.463  1.00  0.00     0.084 A 
HETATM   13  C11 UNL     1      -2.972  -6.786   1.739  1.00  0.00     0.164 A 
HETATM   14  N4  UNL     1      -1.635  -6.792   1.558  1.00  0.00    -0.252 N 
HETATM   15  C13 UNL     1      -0.958  -7.796   2.120  1.00  0.00     0.333 A 
HETATM   16  O4  UNL     1       0.309  -7.812   1.955  1.00  0.00    -0.246 OA
HETATM   17  N5  UNL     1      -1.518  -8.782   2.842  1.00  0.00    -0.274 N 
HETATM   18  C14 UNL     1      -2.864  -8.765   3.014  1.00  0.00     0.263 A 
ATOM     19  H5  UNL     1      -0.946  -9.523   3.248  1.00  0.00     0.173 HD
HETATM   20  O5  UNL     1      -3.373  -9.696   3.691  1.00  0.00    -0.267 OA
BRANCH  13  21
HETATM   21  O3  UNL     1      -3.704  -5.740   1.157  1.00  0.00    -0.345 OA
ATOM     22  H3  UNL     1      -4.239  -5.900   0.388  1.00  0.00     0.219 HD
ENDBRANCH  13  21
BRANCH  14  23
HETATM   23  C12 UNL     1      -0.914  -5.779   0.801  1.00  0.00     0.360 C 
HETATM   24  F1  UNL     1      -1.365  -5.833  -0.523  1.00  0.00    -0.233 F 
ENDBRANCH  14  23
ENDBRANCH  11  12
ENDBRANCH   5  11
BRANCH   6  25
HETATM   25  C16 UNL     1      -6.816  -5.513   2.123  1.00  0.00     0.164 C 
BRANCH  25  26
HETATM   26  O6  UNL     1      -8.047  -5.008   1.823  1.00  0.00    -0.370 OA
ATOM     27  H6  UNL     1      -8.559  -5.327   1.088  1.00  0.00     0.216 HD
ENDBRANCH  25  26
ENDBRANCH   6  25
BRANCH   7  28
HETATM   28  O7  UNL     1      -7.760  -4.470   4.771  1.00  0.00    -0.281 OA
ATOM     29  H7  UNL     1      -8.141  -4.209   5.602  1.00  0.00     0.245 HD
ENDBRANCH   7  28
BRANCH   1  30
HETATM   30  S2  UNL     1      -5.051  -8.083   8.710  1.00  0.00    -0.086 SA
BRANCH  30  31
HETATM   31  C5  UNL     1      -3.608  -7.302   9.433  1.00  0.00     0.168 C 
BRANCH  31  32
HETATM   32  C4  UNL     1      -2.820  -6.526   8.460  1.00  0.00     0.188 C 
HETATM   33  O2  UNL     1      -3.343  -5.539   7.907  1.00  0.00    -0.290 OA
BRANCH  32  34
HETATM   34  C3  UNL     1      -1.417  -6.882   8.113  1.00  0.00     0.114 A 
HETATM   35  C1  UNL     1      -1.138  -7.996   7.356  1.00  0.00     0.122 A 
HETATM   36  N1  UNL     1      -2.055  -8.939   6.791  1.00  0.00    -0.092 NA
HETATM   37  S1  UNL     1       0.574  -7.949   7.273  1.00  0.00    -0.012 SA
HETATM   38  C2  UNL     1       0.829  -6.539   8.188  1.00  0.00     0.290 A 
HETATM   39  O1  UNL     1       1.933  -5.959   8.499  1.00  0.00    -0.260 OA
HETATM   40  N2  UNL     1      -0.405  -6.163   8.520  1.00  0.00    -0.312 N 
ATOM     41  H2  UNL     1      -0.557  -5.327   9.084  1.00  0.00     0.170 HD
ENDBRANCH  32  34
ENDBRANCH  31  32
ENDBRANCH  30  31
ENDBRANCH   1  30
TORSDOF 11
ENDMDL
