MODEL 1
REMARK VINA RESULT: -9.215513904      0.000      0.000
REMARK  6 active torsions:
REMARK  status: ('A' for Active; 'I' for Inactive)
REMARK    1  A    between atoms: C2_2  and  C3_3 
REMARK    2  A    between atoms: C3_3  and  C4_4 
REMARK    3  A    between atoms: C3_3  and  C5_9 
REMARK    4  A    between atoms: C4_4  and  N1_5 
REMARK    5  A    between atoms: C5_9  and  C6_10 
REMARK    6  A    between atoms: C10_14  and  C11_15 
ROOT
HETATM    1  C6  UNL     1      18.530   0.164  -9.257  1.00  0.00    -0.057 A 
HETATM    2  C7  UNL     1      18.677  -1.127  -9.718  1.00  0.00     0.008 A 
HETATM    3  C8  UNL     1      17.736  -1.678 -10.598  1.00  0.00     0.013 A 
HETATM    4  C9  UNL     1      16.636  -0.979 -11.044  1.00  0.00    -0.015 A 
HETATM    5  C10 UNL     1      15.741  -1.547 -11.912  1.00  0.00    -0.015 A 
HETATM    6  C17 UNL     1      14.652  -0.753 -12.327  1.00  0.00     0.013 A 
HETATM    7  C18 UNL     1      14.511   0.538 -11.865  1.00  0.00     0.002 A 
HETATM    8  C19 UNL     1      15.419   1.080 -10.997  1.00  0.00     0.012 A 
HETATM    9  C20 UNL     1      16.491   0.326 -10.576  1.00  0.00    -0.025 A 
HETATM   10  C21 UNL     1      17.433   0.861  -9.702  1.00  0.00     0.019 A 
ENDROOT
BRANCH   1  11
HETATM   11  C5  UNL     1      19.540   0.725  -8.314  1.00  0.00     0.045 C 
BRANCH  11  12
HETATM   12  C3  UNL     1      19.736  -0.161  -7.138  1.00  0.00     0.015 C 
BRANCH  12  13
HETATM   13  C2  UNL     1      19.296   0.539  -5.850  1.00  0.00     0.002 C 
HETATM   14  C1  UNL     1      20.179   0.063  -4.712  1.00  0.00     0.005 C 
ENDBRANCH  12  13
BRANCH  12  15
HETATM   15  C4  UNL     1      21.118  -0.706  -6.955  1.00  0.00     0.234 C 
BRANCH  15  16
HETATM   16  N1  UNL     1      21.529  -1.574  -8.060  1.00  0.00    -0.079 N 
ATOM     17  H13 UNL     1      22.469  -1.940  -7.909  1.00  0.00     0.274 HD
ATOM     18  H12 UNL     1      21.007  -2.451  -8.051  1.00  0.00     0.274 HD
ATOM     19  H11 UNL     1      21.455  -1.113  -8.967  1.00  0.00     0.274 HD
ENDBRANCH  15  16
ENDBRANCH  12  15
ENDBRANCH  11  12
ENDBRANCH   1  11
BRANCH   5  20
HETATM   20  C11 UNL     1      15.844  -2.918 -12.381  1.00  0.00    -0.025 A 
HETATM   21  C12 UNL     1      16.611  -3.111 -13.512  1.00  0.00     0.012 A 
HETATM   22  C13 UNL     1      16.782  -4.344 -14.114  1.00  0.00     0.001 A 
HETATM   23  C14 UNL     1      16.140  -5.409 -13.526  1.00  0.00     0.000 A 
HETATM   24  C15 UNL     1      15.367  -5.242 -12.395  1.00  0.00     0.001 A 
HETATM   25  C16 UNL     1      15.226  -4.004 -11.834  1.00  0.00     0.012 A 
ENDBRANCH   5  20
TORSDOF 6
ENDMDL
MODEL 2
REMARK VINA RESULT: -8.955280547      1.497      2.041
REMARK  6 active torsions:
REMARK  status: ('A' for Active; 'I' for Inactive)
REMARK    1  A    between atoms: C2_2  and  C3_3 
REMARK    2  A    between atoms: C3_3  and  C4_4 
REMARK    3  A    between atoms: C3_3  and  C5_9 
REMARK    4  A    between atoms: C4_4  and  N1_5 
REMARK    5  A    between atoms: C5_9  and  C6_10 
REMARK    6  A    between atoms: C10_14  and  C11_15 
ROOT
HETATM    1  C6  UNL     1      17.951  -0.818  -9.672  1.00  0.00    -0.057 A 
HETATM    2  C7  UNL     1      18.114  -1.984 -10.389  1.00  0.00     0.008 A 
HETATM    3  C8  UNL     1      17.225  -2.314 -11.421  1.00  0.00     0.013 A 
HETATM    4  C9  UNL     1      16.161  -1.510 -11.772  1.00  0.00    -0.015 A 
HETATM    5  C10 UNL     1      15.317  -1.859 -12.792  1.00  0.00    -0.015 A 
HETATM    6  C17 UNL     1      14.264  -0.970 -13.091  1.00  0.00     0.013 A 
HETATM    7  C18 UNL     1      14.107   0.196 -12.372  1.00  0.00     0.002 A 
HETATM    8  C19 UNL     1      14.964   0.519 -11.356  1.00  0.00     0.012 A 
HETATM    9  C20 UNL     1      16.001  -0.332 -11.045  1.00  0.00    -0.025 A 
HETATM   10  C21 UNL     1      16.891  -0.017 -10.022  1.00  0.00     0.019 A 
ENDROOT
BRANCH   1  11
HETATM   11  C5  UNL     1      18.906  -0.495  -8.573  1.00  0.00     0.045 C 
BRANCH  11  12
HETATM   12  C3  UNL     1      18.684   0.877  -8.047  1.00  0.00     0.015 C 
BRANCH  12  13
HETATM   13  C2  UNL     1      19.803   1.819  -8.496  1.00  0.00     0.002 C 
HETATM   14  C1  UNL     1      19.270   2.718  -9.595  1.00  0.00     0.005 C 
ENDBRANCH  12  13
BRANCH  12  15
HETATM   15  C4  UNL     1      18.512   0.986  -6.564  1.00  0.00     0.234 C 
BRANCH  15  16
HETATM   16  N1  UNL     1      19.636   0.407  -5.826  1.00  0.00    -0.079 N 
ATOM     17  H13 UNL     1      20.321   1.122  -5.578  1.00  0.00     0.274 HD
ATOM     18  H12 UNL     1      19.351   0.121  -4.889  1.00  0.00     0.274 HD
ATOM     19  H11 UNL     1      20.076  -0.365  -6.327  1.00  0.00     0.274 HD
ENDBRANCH  15  16
ENDBRANCH  12  15
ENDBRANCH  11  12
ENDBRANCH   1  11
BRANCH   5  20
HETATM   20  C11 UNL     1      15.436  -3.100 -13.537  1.00  0.00    -0.025 A 
HETATM   21  C12 UNL     1      16.125  -3.023 -14.730  1.00  0.00     0.012 A 
HETATM   22  C13 UNL     1      16.297  -4.099 -15.581  1.00  0.00     0.001 A 
HETATM   23  C14 UNL     1      15.738  -5.292 -15.184  1.00  0.00     0.000 A 
HETATM   24  C15 UNL     1      15.044  -5.395 -13.995  1.00  0.00     0.001 A 
HETATM   25  C16 UNL     1      14.899  -4.304 -13.185  1.00  0.00     0.012 A 
ENDBRANCH   5  20
TORSDOF 6
ENDMDL
MODEL 3
REMARK VINA RESULT: -8.920104866      3.190      7.599
REMARK  6 active torsions:
REMARK  status: ('A' for Active; 'I' for Inactive)
REMARK    1  A    between atoms: C2_2  and  C3_3 
REMARK    2  A    between atoms: C3_3  and  C4_4 
REMARK    3  A    between atoms: C3_3  and  C5_9 
REMARK    4  A    between atoms: C4_4  and  N1_5 
REMARK    5  A    between atoms: C5_9  and  C6_10 
REMARK    6  A    between atoms: C10_14  and  C11_15 
ROOT
HETATM    1  C6  UNL     1      14.498  -3.596 -13.073  1.00  0.00    -0.057 A 
HETATM    2  C7  UNL     1      15.034  -2.347 -13.310  1.00  0.00     0.008 A 
HETATM    3  C8  UNL     1      15.556  -1.586 -12.255  1.00  0.00     0.013 A 
HETATM    4  C9  UNL     1      15.565  -2.031 -10.951  1.00  0.00    -0.015 A 
HETATM    5  C10 UNL     1      16.092  -1.264  -9.945  1.00  0.00    -0.015 A 
HETATM    6  C17 UNL     1      16.072  -1.804  -8.644  1.00  0.00     0.013 A 
HETATM    7  C18 UNL     1      15.538  -3.054  -8.413  1.00  0.00     0.002 A 
HETATM    8  C19 UNL     1      15.016  -3.798  -9.435  1.00  0.00     0.012 A 
HETATM    9  C20 UNL     1      15.024  -3.293 -10.716  1.00  0.00    -0.025 A 
HETATM   10  C21 UNL     1      14.508  -4.039 -11.773  1.00  0.00     0.019 A 
ENDROOT
BRANCH   1  11
HETATM   11  C5  UNL     1      13.942  -4.382 -14.211  1.00  0.00     0.045 C 
BRANCH  11  12
HETATM   12  C3  UNL     1      14.603  -4.025 -15.492  1.00  0.00     0.015 C 
BRANCH  12  13
HETATM   13  C2  UNL     1      13.566  -3.678 -16.563  1.00  0.00     0.002 C 
HETATM   14  C1  UNL     1      12.972  -2.319 -16.242  1.00  0.00     0.005 C 
ENDBRANCH  12  13
BRANCH  12  15
HETATM   15  C4  UNL     1      15.555  -5.042 -16.040  1.00  0.00     0.234 C 
BRANCH  15  16
HETATM   16  N1  UNL     1      15.615  -6.253 -15.219  1.00  0.00    -0.079 N 
ATOM     17  H13 UNL     1      14.990  -6.183 -14.415  1.00  0.00     0.274 HD
ATOM     18  H12 UNL     1      15.180  -7.042 -15.697  1.00  0.00     0.274 HD
ATOM     19  H11 UNL     1      16.565  -6.479 -14.926  1.00  0.00     0.274 HD
ENDBRANCH  15  16
ENDBRANCH  12  15
ENDBRANCH  11  12
ENDBRANCH   1  11
BRANCH   5  20
HETATM   20  C11 UNL     1      16.624   0.071 -10.156  1.00  0.00    -0.025 A 
HETATM   21  C12 UNL     1      17.931   0.268  -9.762  1.00  0.00     0.012 A 
HETATM   22  C13 UNL     1      18.579   1.487  -9.854  1.00  0.00     0.001 A 
HETATM   23  C14 UNL     1      17.850   2.533 -10.370  1.00  0.00     0.000 A 
HETATM   24  C15 UNL     1      16.540   2.361 -10.771  1.00  0.00     0.001 A 
HETATM   25  C16 UNL     1      15.940   1.139 -10.661  1.00  0.00     0.012 A 
ENDBRANCH   5  20
TORSDOF 6
ENDMDL
MODEL 4
REMARK VINA RESULT: -8.840020777      3.141      7.669
REMARK  6 active torsions:
REMARK  status: ('A' for Active; 'I' for Inactive)
REMARK    1  A    between atoms: C2_2  and  C3_3 
REMARK    2  A    between atoms: C3_3  and  C4_4 
REMARK    3  A    between atoms: C3_3  and  C5_9 
REMARK    4  A    between atoms: C4_4  and  N1_5 
REMARK    5  A    between atoms: C5_9  and  C6_10 
REMARK    6  A    between atoms: C10_14  and  C11_15 
ROOT
HETATM    1  C6  UNL     1      15.557  -3.563 -13.397  1.00  0.00    -0.057 A 
HETATM    2  C7  UNL     1      16.437  -2.505 -13.306  1.00  0.00     0.008 A 
HETATM    3  C8  UNL     1      16.721  -1.923 -12.063  1.00  0.00     0.013 A 
HETATM    4  C9  UNL     1      16.153  -2.364 -10.888  1.00  0.00    -0.015 A 
HETATM    5  C10 UNL     1      16.461  -1.778  -9.688  1.00  0.00    -0.015 A 
HETATM    6  C17 UNL     1      15.844  -2.304  -8.536  1.00  0.00     0.013 A 
HETATM    7  C18 UNL     1      14.967  -3.363  -8.633  1.00  0.00     0.002 A 
HETATM    8  C19 UNL     1      14.675  -3.930  -9.843  1.00  0.00     0.012 A 
HETATM    9  C20 UNL     1      15.265  -3.435 -10.985  1.00  0.00    -0.025 A 
HETATM   10  C21 UNL     1      14.991  -4.003 -12.226  1.00  0.00     0.019 A 
ENDROOT
BRANCH   1  11
HETATM   11  C5  UNL     1      15.265  -4.159 -14.733  1.00  0.00     0.045 C 
BRANCH  11  12
HETATM   12  C3  UNL     1      13.853  -3.929 -15.132  1.00  0.00     0.015 C 
BRANCH  12  13
HETATM   13  C2  UNL     1      13.501  -4.743 -16.380  1.00  0.00     0.002 C 
HETATM   14  C1  UNL     1      14.727  -5.527 -16.810  1.00  0.00     0.005 C 
ENDBRANCH  12  13
BRANCH  12  15
HETATM   15  C4  UNL     1      13.460  -2.501 -15.349  1.00  0.00     0.234 C 
BRANCH  15  16
HETATM   16  N1  UNL     1      14.169  -1.890 -16.476  1.00  0.00    -0.079 N 
ATOM     17  H13 UNL     1      15.128  -2.234 -16.536  1.00  0.00     0.274 HD
ATOM     18  H12 UNL     1      13.812  -2.239 -17.366  1.00  0.00     0.274 HD
ATOM     19  H11 UNL     1      14.145  -0.871 -16.445  1.00  0.00     0.274 HD
ENDBRANCH  15  16
ENDBRANCH  12  15
ENDBRANCH  11  12
ENDBRANCH   1  11
BRANCH   5  20
HETATM   20  C11 UNL     1      17.349  -0.635  -9.564  1.00  0.00    -0.025 A 
HETATM   21  C12 UNL     1      18.511  -0.850  -8.852  1.00  0.00     0.012 A 
HETATM   22  C13 UNL     1      19.447   0.138  -8.605  1.00  0.00     0.001 A 
HETATM   23  C14 UNL     1      19.169   1.387  -9.112  1.00  0.00     0.000 A 
HETATM   24  C15 UNL     1      18.013   1.627  -9.827  1.00  0.00     0.001 A 
HETATM   25  C16 UNL     1      17.117   0.620 -10.047  1.00  0.00     0.012 A 
ENDBRANCH   5  20
TORSDOF 6
ENDMDL
MODEL 5
REMARK VINA RESULT: -8.831707780      2.266      7.071
REMARK  6 active torsions:
REMARK  status: ('A' for Active; 'I' for Inactive)
REMARK    1  A    between atoms: C2_2  and  C3_3 
REMARK    2  A    between atoms: C3_3  and  C4_4 
REMARK    3  A    between atoms: C3_3  and  C5_9 
REMARK    4  A    between atoms: C4_4  and  N1_5 
REMARK    5  A    between atoms: C5_9  and  C6_10 
REMARK    6  A    between atoms: C10_14  and  C11_15 
ROOT
HETATM    1  C6  UNL     1      15.967  -3.510 -12.756  1.00  0.00    -0.057 A 
HETATM    2  C7  UNL     1      17.046  -3.378 -11.908  1.00  0.00     0.008 A 
HETATM    3  C8  UNL     1      17.246  -2.190 -11.193  1.00  0.00     0.013 A 
HETATM    4  C9  UNL     1      16.396  -1.110 -11.292  1.00  0.00    -0.015 A 
HETATM    5  C10 UNL     1      16.617   0.034 -10.571  1.00  0.00    -0.015 A 
HETATM    6  C17 UNL     1      15.688   1.083 -10.724  1.00  0.00     0.013 A 
HETATM    7  C18 UNL     1      14.609   0.944 -11.571  1.00  0.00     0.002 A 
HETATM    8  C19 UNL     1      14.413  -0.208 -12.281  1.00  0.00     0.012 A 
HETATM    9  C20 UNL     1      15.306  -1.248 -12.149  1.00  0.00    -0.025 A 
HETATM   10  C21 UNL     1      15.119  -2.434 -12.854  1.00  0.00     0.019 A 
ENDROOT
BRANCH   1  11
HETATM   11  C5  UNL     1      15.781  -4.782 -13.512  1.00  0.00     0.045 C 
BRANCH  11  12
HETATM   12  C3  UNL     1      15.951  -4.575 -14.973  1.00  0.00     0.015 C 
BRANCH  12  13
HETATM   13  C2  UNL     1      15.244  -5.678 -15.764  1.00  0.00     0.002 C 
HETATM   14  C1  UNL     1      14.708  -5.083 -17.053  1.00  0.00     0.005 C 
ENDBRANCH  12  13
BRANCH  12  15
HETATM   15  C4  UNL     1      17.363  -4.451 -15.454  1.00  0.00     0.234 C 
BRANCH  15  16
HETATM   16  N1  UNL     1      17.714  -3.075 -15.811  1.00  0.00    -0.079 N 
ATOM     17  H13 UNL     1      17.525  -2.435 -15.038  1.00  0.00     0.274 HD
ATOM     18  H12 UNL     1      18.725  -2.959 -15.876  1.00  0.00     0.274 HD
ATOM     19  H11 UNL     1      17.252  -2.763 -16.665  1.00  0.00     0.274 HD
ENDBRANCH  15  16
ENDBRANCH  12  15
ENDBRANCH  11  12
ENDBRANCH   1  11
BRANCH   5  20
HETATM   20  C11 UNL     1      17.767   0.220  -9.703  1.00  0.00    -0.025 A 
HETATM   21  C12 UNL     1      18.328   1.481  -9.708  1.00  0.00     0.012 A 
HETATM   22  C13 UNL     1      19.449   1.819  -8.973  1.00  0.00     0.001 A 
HETATM   23  C14 UNL     1      20.007   0.819  -8.209  1.00  0.00     0.000 A 
HETATM   24  C15 UNL     1      19.465  -0.450  -8.188  1.00  0.00     0.001 A 
HETATM   25  C16 UNL     1      18.356  -0.739  -8.931  1.00  0.00     0.012 A 
ENDBRANCH   5  20
TORSDOF 6
ENDMDL
