MODEL 1
REMARK VINA RESULT: -8.104780417      0.000      0.000
REMARK  7 active torsions:
REMARK  status: ('A' for Active; 'I' for Inactive)
REMARK    1  A    between atoms: C2_2  and  C3_3 
REMARK    2  A    between atoms: C3_3  and  C4_4 
REMARK    3  A    between atoms: C4_4  and  C5_5 
REMARK    4  A    between atoms: C4_4  and  C11_17 
REMARK    5  A    between atoms: C8_8  and  N1_9 
REMARK    6  A    between atoms: N1_9  and  N2_11 
REMARK    7  A    between atoms: N2_11  and  N3_12 
ROOT
HETATM    1  C4  UNL     1      15.059  -2.712 -11.615  1.00  0.00     0.057 C 
ENDROOT
BRANCH   1   2
HETATM    2  C3  UNL     1      15.359  -3.849 -10.677  1.00  0.00     0.040 C 
BRANCH   2   3
HETATM    3  C2  UNL     1      14.670  -3.705  -9.376  1.00  0.00    -0.036 C 
HETATM    4  C1  UNL     1      15.327  -3.795  -8.238  1.00  0.00     0.007 C 
ENDBRANCH   2   3
ENDBRANCH   1   2
BRANCH   1   5
HETATM    5  C5  UNL     1      15.772  -1.497 -11.122  1.00  0.00    -0.049 A 
HETATM    6  C6  UNL     1      17.052  -1.506 -10.632  1.00  0.00     0.010 A 
HETATM    7  C7  UNL     1      17.689  -0.376 -10.178  1.00  0.00     0.032 A 
HETATM    8  C8  UNL     1      17.025   0.824 -10.211  1.00  0.00     0.062 A 
HETATM    9  C9  UNL     1      15.740   0.884 -10.695  1.00  0.00     0.032 A 
HETATM   10  C10 UNL     1      15.108  -0.267 -11.151  1.00  0.00     0.010 A 
BRANCH   8  11
HETATM   11  N1  UNL     1      17.678   1.987  -9.743  1.00  0.00    -0.217 N 
ATOM     12  H1  UNL     1      18.383   1.925  -9.008  1.00  0.00     0.203 HD
BRANCH  11  13
HETATM   13  N2  UNL     1      17.385   3.067 -10.232  1.00  0.00    -0.243 NA
BRANCH  13  14
HETATM   14  N3  UNL     1      17.258   4.143 -10.827  1.00  0.00    -0.260 N 
ATOM     15  H32 UNL     1      18.008   4.507 -10.239  1.00  0.00     0.193 HD
ATOM     16  H31 UNL     1      17.035   4.955 -11.403  1.00  0.00     0.193 HD
ENDBRANCH  13  14
ENDBRANCH  11  13
ENDBRANCH   8  11
ENDBRANCH   1   5
BRANCH   1  17
HETATM   17  C11 UNL     1      15.352  -2.992 -13.027  1.00  0.00    -0.021 A 
HETATM   18  C12 UNL     1      16.466  -3.661 -13.481  1.00  0.00     0.097 A 
HETATM   19  N4  UNL     1      16.381  -3.721 -14.836  1.00  0.00    -0.365 N 
HETATM   20  C13 UNL     1      15.238  -3.105 -15.241  1.00  0.00     0.042 A 
ATOM     21  H4  UNL     1      17.066  -4.158 -15.453  1.00  0.00     0.165 HD
HETATM   22  C14 UNL     1      14.719  -2.913 -16.503  1.00  0.00     0.030 A 
HETATM   23  C18 UNL     1      14.575  -2.638 -14.113  1.00  0.00    -0.001 A 
HETATM   24  C15 UNL     1      13.516  -2.244 -16.671  1.00  0.00     0.002 A 
HETATM   25  C16 UNL     1      12.854  -1.777 -15.538  1.00  0.00     0.001 A 
HETATM   26  C17 UNL     1      13.380  -1.974 -14.284  1.00  0.00     0.014 A 
ENDBRANCH   1  17
TORSDOF 7
ENDMDL
MODEL 2
REMARK VINA RESULT: -8.103832280      1.769      6.643
REMARK  7 active torsions:
REMARK  status: ('A' for Active; 'I' for Inactive)
REMARK    1  A    between atoms: C2_2  and  C3_3 
REMARK    2  A    between atoms: C3_3  and  C4_4 
REMARK    3  A    between atoms: C4_4  and  C5_5 
REMARK    4  A    between atoms: C4_4  and  C11_17 
REMARK    5  A    between atoms: C8_8  and  N1_9 
REMARK    6  A    between atoms: N1_9  and  N2_11 
REMARK    7  A    between atoms: N2_11  and  N3_12 
ROOT
HETATM    1  C4  UNL     1      16.056  -1.500 -10.583  1.00  0.00     0.057 C 
ENDROOT
BRANCH   1   2
HETATM    2  C3  UNL     1      14.871  -1.922  -9.757  1.00  0.00     0.040 C 
BRANCH   2   3
HETATM    3  C2  UNL     1      14.804  -3.389  -9.574  1.00  0.00    -0.036 C 
HETATM    4  C1  UNL     1      15.207  -3.959  -8.457  1.00  0.00     0.007 C 
ENDBRANCH   2   3
ENDBRANCH   1   2
BRANCH   1   5
HETATM    5  C5  UNL     1      15.742  -1.758 -12.020  1.00  0.00    -0.049 A 
HETATM    6  C6  UNL     1      14.635  -1.266 -12.663  1.00  0.00     0.010 A 
HETATM    7  C7  UNL     1      14.362  -1.520 -13.985  1.00  0.00     0.032 A 
HETATM    8  C8  UNL     1      15.229  -2.300 -14.709  1.00  0.00     0.062 A 
HETATM    9  C9  UNL     1      16.353  -2.815 -14.108  1.00  0.00     0.032 A 
HETATM   10  C10 UNL     1      16.616  -2.550 -12.769  1.00  0.00     0.010 A 
BRANCH   8  11
HETATM   11  N1  UNL     1      14.948  -2.564 -16.069  1.00  0.00    -0.217 N 
ATOM     12  H1  UNL     1      15.386  -2.010 -16.805  1.00  0.00     0.203 HD
BRANCH  11  13
HETATM   13  N2  UNL     1      14.174  -3.466 -16.349  1.00  0.00    -0.243 NA
BRANCH  13  14
HETATM   14  N3  UNL     1      13.444  -4.457 -16.458  1.00  0.00    -0.260 N 
ATOM     15  H32 UNL     1      13.216  -4.346 -15.470  1.00  0.00     0.193 HD
ATOM     16  H31 UNL     1      12.889  -5.277 -16.705  1.00  0.00     0.193 HD
ENDBRANCH  13  14
ENDBRANCH  11  13
ENDBRANCH   8  11
ENDBRANCH   1   5
BRANCH   1  17
HETATM   17  C11 UNL     1      16.499  -0.118 -10.352  1.00  0.00    -0.021 A 
HETATM   18  C12 UNL     1      15.839   1.004 -10.798  1.00  0.00     0.097 A 
HETATM   19  N4  UNL     1      16.554   2.086 -10.390  1.00  0.00    -0.365 N 
HETATM   20  C13 UNL     1      17.646   1.665  -9.697  1.00  0.00     0.042 A 
ATOM     21  H4  UNL     1      16.310   3.059 -10.574  1.00  0.00     0.165 HD
HETATM   22  C14 UNL     1      18.655   2.381  -9.091  1.00  0.00     0.030 A 
HETATM   23  C18 UNL     1      17.628   0.277  -9.662  1.00  0.00    -0.001 A 
HETATM   24  C15 UNL     1      19.682   1.721  -8.430  1.00  0.00     0.002 A 
HETATM   25  C16 UNL     1      19.661   0.330  -8.398  1.00  0.00     0.001 A 
HETATM   26  C17 UNL     1      18.650  -0.374  -9.005  1.00  0.00     0.014 A 
ENDBRANCH   1  17
TORSDOF 7
ENDMDL
MODEL 3
REMARK VINA RESULT: -8.091712290      1.300      1.464
REMARK  7 active torsions:
REMARK  status: ('A' for Active; 'I' for Inactive)
REMARK    1  A    between atoms: C2_2  and  C3_3 
REMARK    2  A    between atoms: C3_3  and  C4_4 
REMARK    3  A    between atoms: C4_4  and  C5_5 
REMARK    4  A    between atoms: C4_4  and  C11_17 
REMARK    5  A    between atoms: C8_8  and  N1_9 
REMARK    6  A    between atoms: N1_9  and  N2_11 
REMARK    7  A    between atoms: N2_11  and  N3_12 
ROOT
HETATM    1  C4  UNL     1      15.121  -3.030 -12.048  1.00  0.00     0.057 C 
ENDROOT
BRANCH   1   2
HETATM    2  C3  UNL     1      15.520  -3.931 -10.911  1.00  0.00     0.040 C 
BRANCH   2   3
HETATM    3  C2  UNL     1      14.630  -3.788  -9.738  1.00  0.00    -0.036 C 
HETATM    4  C1  UNL     1      15.114  -3.722  -8.514  1.00  0.00     0.007 C 
ENDBRANCH   2   3
ENDBRANCH   1   2
BRANCH   1   5
HETATM    5  C5  UNL     1      15.445  -1.623 -11.667  1.00  0.00    -0.049 A 
HETATM    6  C6  UNL     1      16.504  -1.269 -10.873  1.00  0.00     0.010 A 
HETATM    7  C7  UNL     1      16.782   0.033 -10.531  1.00  0.00     0.032 A 
HETATM    8  C8  UNL     1      15.970   1.034 -10.998  1.00  0.00     0.062 A 
HETATM    9  C9  UNL     1      14.895   0.729 -11.799  1.00  0.00     0.032 A 
HETATM   10  C10 UNL     1      14.626  -0.592 -12.138  1.00  0.00     0.010 A 
BRANCH   8  11
HETATM   11  N1  UNL     1      16.253   2.373 -10.646  1.00  0.00    -0.217 N 
ATOM     12  H1  UNL     1      15.901   3.145 -11.213  1.00  0.00     0.203 HD
BRANCH  11  13
HETATM   13  N2  UNL     1      16.928   2.593  -9.651  1.00  0.00    -0.243 NA
BRANCH  13  14
HETATM   14  N3  UNL     1      17.532   2.997  -8.651  1.00  0.00    -0.260 N 
ATOM     15  H32 UNL     1      16.854   3.757  -8.602  1.00  0.00     0.193 HD
ATOM     16  H31 UNL     1      18.129   3.202  -7.850  1.00  0.00     0.193 HD
ENDBRANCH  13  14
ENDBRANCH  11  13
ENDBRANCH   8  11
ENDBRANCH   1   5
BRANCH   1  17
HETATM   17  C11 UNL     1      15.695  -3.399 -13.349  1.00  0.00    -0.021 A 
HETATM   18  C12 UNL     1      17.030  -3.316 -13.671  1.00  0.00     0.097 A 
HETATM   19  N4  UNL     1      17.167  -3.742 -14.955  1.00  0.00    -0.365 N 
HETATM   20  C13 UNL     1      15.946  -4.090 -15.443  1.00  0.00     0.042 A 
ATOM     21  H4  UNL     1      18.046  -3.791 -15.470  1.00  0.00     0.165 HD
HETATM   22  C14 UNL     1      15.579  -4.575 -16.679  1.00  0.00     0.030 A 
HETATM   23  C18 UNL     1      15.004  -3.881 -14.444  1.00  0.00    -0.001 A 
HETATM   24  C15 UNL     1      14.249  -4.865 -16.950  1.00  0.00     0.002 A 
HETATM   25  C16 UNL     1      13.307  -4.654 -15.947  1.00  0.00     0.001 A 
HETATM   26  C17 UNL     1      13.685  -4.170 -14.717  1.00  0.00     0.014 A 
ENDBRANCH   1  17
TORSDOF 7
ENDMDL
MODEL 4
REMARK VINA RESULT: -8.051552548      1.374      2.452
REMARK  7 active torsions:
REMARK  status: ('A' for Active; 'I' for Inactive)
REMARK    1  A    between atoms: C2_2  and  C3_3 
REMARK    2  A    between atoms: C3_3  and  C4_4 
REMARK    3  A    between atoms: C4_4  and  C5_5 
REMARK    4  A    between atoms: C4_4  and  C11_17 
REMARK    5  A    between atoms: C8_8  and  N1_9 
REMARK    6  A    between atoms: N1_9  and  N2_11 
REMARK    7  A    between atoms: N2_11  and  N3_12 
ROOT
HETATM    1  C4  UNL     1      15.170  -1.714 -11.208  1.00  0.00     0.057 C 
ENDROOT
BRANCH   1   2
HETATM    2  C3  UNL     1      15.672  -2.891 -10.416  1.00  0.00     0.040 C 
BRANCH   2   3
HETATM    3  C2  UNL     1      14.682  -3.369  -9.426  1.00  0.00    -0.036 C 
HETATM    4  C1  UNL     1      15.049  -4.059  -8.366  1.00  0.00     0.007 C 
ENDBRANCH   2   3
ENDBRANCH   1   2
BRANCH   1   5
HETATM    5  C5  UNL     1      15.971  -0.514 -10.823  1.00  0.00    -0.049 A 
HETATM    6  C6  UNL     1      15.540   0.777 -10.983  1.00  0.00     0.010 A 
HETATM    7  C7  UNL     1      16.296   1.869 -10.626  1.00  0.00     0.032 A 
HETATM    8  C8  UNL     1      17.540   1.672 -10.084  1.00  0.00     0.062 A 
HETATM    9  C9  UNL     1      18.015   0.394  -9.903  1.00  0.00     0.032 A 
HETATM   10  C10 UNL     1      17.240  -0.700 -10.269  1.00  0.00     0.010 A 
BRANCH   8  11
HETATM   11  N1  UNL     1      18.319   2.793  -9.718  1.00  0.00    -0.217 N 
ATOM     12  H1  UNL     1      19.306   2.843  -9.969  1.00  0.00     0.203 HD
BRANCH  11  13
HETATM   13  N2  UNL     1      17.791   3.702  -9.096  1.00  0.00    -0.243 NA
BRANCH  13  14
HETATM   14  N3  UNL     1      17.197   4.480  -8.340  1.00  0.00    -0.260 N 
ATOM     15  H32 UNL     1      16.609   4.733  -9.134  1.00  0.00     0.193 HD
ATOM     16  H31 UNL     1      16.812   5.069  -7.602  1.00  0.00     0.193 HD
ENDBRANCH  13  14
ENDBRANCH  11  13
ENDBRANCH   8  11
ENDBRANCH   1   5
BRANCH   1  17
HETATM   17  C11 UNL     1      15.148  -1.923 -12.662  1.00  0.00    -0.021 A 
HETATM   18  C12 UNL     1      14.349  -1.231 -13.543  1.00  0.00     0.097 A 
HETATM   19  N4  UNL     1      14.612  -1.705 -14.789  1.00  0.00    -0.365 N 
HETATM   20  C13 UNL     1      15.559  -2.678 -14.708  1.00  0.00     0.042 A 
ATOM     21  H4  UNL     1      14.169  -1.383 -15.650  1.00  0.00     0.165 HD
HETATM   22  C14 UNL     1      16.146  -3.444 -15.691  1.00  0.00     0.030 A 
HETATM   23  C18 UNL     1      15.910  -2.829 -13.373  1.00  0.00    -0.001 A 
HETATM   24  C15 UNL     1      17.106  -4.390 -15.361  1.00  0.00     0.002 A 
HETATM   25  C16 UNL     1      17.455  -4.540 -14.022  1.00  0.00     0.001 A 
HETATM   26  C17 UNL     1      16.864  -3.770 -13.050  1.00  0.00     0.014 A 
ENDBRANCH   1  17
TORSDOF 7
ENDMDL
MODEL 5
REMARK VINA RESULT: -7.999065012      1.703      2.349
REMARK  7 active torsions:
REMARK  status: ('A' for Active; 'I' for Inactive)
REMARK    1  A    between atoms: C2_2  and  C3_3 
REMARK    2  A    between atoms: C3_3  and  C4_4 
REMARK    3  A    between atoms: C4_4  and  C5_5 
REMARK    4  A    between atoms: C4_4  and  C11_17 
REMARK    5  A    between atoms: C8_8  and  N1_9 
REMARK    6  A    between atoms: N1_9  and  N2_11 
REMARK    7  A    between atoms: N2_11  and  N3_12 
ROOT
HETATM    1  C4  UNL     1      15.102  -3.426 -12.580  1.00  0.00     0.057 C 
ENDROOT
BRANCH   1   2
HETATM    2  C3  UNL     1      15.721  -4.457 -11.675  1.00  0.00     0.040 C 
BRANCH   2   3
HETATM    3  C2  UNL     1      15.950  -5.747 -12.363  1.00  0.00    -0.036 C 
HETATM    4  C1  UNL     1      17.092  -6.394 -12.246  1.00  0.00     0.007 C 
ENDBRANCH   2   3
ENDBRANCH   1   2
BRANCH   1   5
HETATM    5  C5  UNL     1      15.343  -2.077 -11.987  1.00  0.00    -0.049 A 
HETATM    6  C6  UNL     1      14.643  -0.952 -12.335  1.00  0.00     0.010 A 
HETATM    7  C7  UNL     1      14.885   0.282 -11.780  1.00  0.00     0.032 A 
HETATM    8  C8  UNL     1      15.869   0.408 -10.834  1.00  0.00     0.062 A 
HETATM    9  C9  UNL     1      16.599  -0.693 -10.452  1.00  0.00     0.032 A 
HETATM   10  C10 UNL     1      16.344  -1.935 -11.021  1.00  0.00     0.010 A 
BRANCH   8  11
HETATM   11  N1  UNL     1      16.120   1.677 -10.264  1.00  0.00    -0.217 N 
ATOM     12  H1  UNL     1      16.090   1.806  -9.252  1.00  0.00     0.203 HD
BRANCH  11  13
HETATM   13  N2  UNL     1      16.373   2.617 -11.002  1.00  0.00    -0.243 NA
BRANCH  13  14
HETATM   14  N3  UNL     1      16.611   3.680 -11.585  1.00  0.00    -0.260 N 
ATOM     15  H32 UNL     1      16.058   3.326 -12.366  1.00  0.00     0.193 HD
ATOM     16  H31 UNL     1      16.892   4.597 -11.933  1.00  0.00     0.193 HD
ENDBRANCH  13  14
ENDBRANCH  11  13
ENDBRANCH   8  11
ENDBRANCH   1   5
BRANCH   1  17
HETATM   17  C11 UNL     1      15.539  -3.503 -13.980  1.00  0.00    -0.021 A 
HETATM   18  C12 UNL     1      16.727  -3.004 -14.462  1.00  0.00     0.097 A 
HETATM   19  N4  UNL     1      16.768  -3.265 -15.795  1.00  0.00    -0.365 N 
HETATM   20  C13 UNL     1      15.632  -3.918 -16.159  1.00  0.00     0.042 A 
ATOM     21  H4  UNL     1      17.531  -3.012 -16.424  1.00  0.00     0.165 HD
HETATM   22  C14 UNL     1      15.220  -4.388 -17.387  1.00  0.00     0.030 A 
HETATM   23  C18 UNL     1      14.843  -4.077 -15.027  1.00  0.00    -0.001 A 
HETATM   24  C15 UNL     1      13.999  -5.033 -17.515  1.00  0.00     0.002 A 
HETATM   25  C16 UNL     1      13.210  -5.191 -16.379  1.00  0.00     0.001 A 
HETATM   26  C17 UNL     1      13.631  -4.719 -15.159  1.00  0.00     0.014 A 
ENDBRANCH   1  17
TORSDOF 7
ENDMDL
