MODEL 1
REMARK VINA RESULT: -9.438070491      0.000      0.000
REMARK  6 active torsions:
REMARK  status: ('A' for Active; 'I' for Inactive)
REMARK    1  A    between atoms: C2_2  and  C3_3 
REMARK    2  A    between atoms: C2_2  and  C12_12 
REMARK    3  A    between atoms: C15_16  and  O2_17 
REMARK    4  A    between atoms: C16_19  and  O3_20 
REMARK    5  A    between atoms: C33_40  and  N2_41 
REMARK    6  A    between atoms: C33_40  and  O4_45 
ROOT
HETATM    1  C12 UNL     1      66.831 -43.308 -43.142  1.00  0.00     0.190 C 
HETATM    2  O1  UNL     1      65.906 -44.267 -42.816  1.00  0.00    -0.367 OA
HETATM    3  C13 UNL     1      66.446 -45.552 -42.965  1.00  0.00     0.095 C 
HETATM    4  C14 UNL     1      66.488 -46.060 -41.607  1.00  0.00     0.049 C 
HETATM    5  C15 UNL     1      65.538 -46.434 -43.815  1.00  0.00     0.182 C 
HETATM    6  C16 UNL     1      66.219 -47.556 -44.469  1.00  0.00     0.154 C 
HETATM    7  C17 UNL     1      67.685 -47.705 -44.379  1.00  0.00     0.026 C 
HETATM    8  C18 UNL     1      68.082 -48.729 -43.405  1.00  0.00     0.008 C 
HETATM    9  C19 UNL     1      69.613 -48.873 -43.303  1.00  0.00     0.005 C 
HETATM   10  C20 UNL     1      70.076 -47.529 -42.839  1.00  0.00    -0.008 C 
HETATM   11  C21 UNL     1      71.403 -47.485 -42.180  1.00  0.00     0.006 C 
HETATM   12  C22 UNL     1      72.271 -48.681 -42.585  1.00  0.00     0.016 C 
HETATM   13  C23 UNL     1      72.557 -48.562 -44.033  1.00  0.00     0.064 C 
HETATM   14 BR1  UNL     1      74.523 -48.672 -44.199  1.00  0.00    -0.091 Br
HETATM   15  C24 UNL     1      72.212 -47.262 -44.654  1.00  0.00     0.035 C 
HETATM   16  C25 UNL     1      72.897 -47.336 -46.044  1.00  0.00     0.038 C 
HETATM   17  C26 UNL     1      71.950 -46.629 -46.971  1.00  0.00     0.273 C 
HETATM   18  N1  UNL     1      71.174 -45.844 -45.989  1.00  0.00     0.089 N 
HETATM   19  C27 UNL     1      72.111 -44.891 -45.471  1.00  0.00     0.310 C 
HETATM   20  C28 UNL     1      70.846 -46.926 -45.037  1.00  0.00     0.232 C 
HETATM   21  C29 UNL     1      69.879 -46.527 -43.972  1.00  0.00     0.032 C 
HETATM   22  C30 UNL     1      68.455 -46.374 -44.361  1.00  0.00    -0.021 C 
HETATM   23  C31 UNL     1      68.499 -46.074 -45.898  1.00  0.00     0.016 C 
HETATM   24  C32 UNL     1      67.637 -45.296 -43.808  1.00  0.00     0.097 C 
HETATM   25  C33 UNL     1      68.180 -44.082 -43.168  1.00  0.00     0.256 C 
ENDROOT
BRANCH   1  26
HETATM   26  C2  UNL     1      66.849 -42.104 -42.291  1.00  0.00     0.024 C 
HETATM   27  C1  UNL     1      67.138 -40.812 -42.949  1.00  0.00     0.013 C 
BRANCH  26  28
HETATM   28  C3  UNL     1      65.704 -41.916 -41.351  1.00  0.00     0.025 C 
HETATM   29  C4  UNL     1      65.869 -42.505 -39.992  1.00  0.00     0.014 C 
HETATM   30  C5  UNL     1      66.775 -41.482 -39.302  1.00  0.00     0.040 C 
HETATM   31  C6  UNL     1      66.205 -40.206 -39.867  1.00  0.00    -0.051 A 
HETATM   32  C7  UNL     1      66.256 -38.940 -39.327  1.00  0.00     0.007 A 
HETATM   33  C11 UNL     1      65.567 -40.451 -41.059  1.00  0.00    -0.047 A 
HETATM   34  C8  UNL     1      65.657 -37.887 -39.985  1.00  0.00     0.001 A 
HETATM   35  C9  UNL     1      65.007 -38.139 -41.198  1.00  0.00     0.001 A 
HETATM   36  C10 UNL     1      64.965 -39.403 -41.723  1.00  0.00     0.008 A 
ENDBRANCH  26  28
ENDBRANCH   1  26
BRANCH  25  37
HETATM   37  N2  UNL     1      69.099 -43.289 -43.874  1.00  0.00    -0.044 N 
ATOM     38  H23 UNL     1      69.254 -43.611 -44.830  1.00  0.00     0.278 HD
ATOM     39  H22 UNL     1      68.736 -42.365 -44.105  1.00  0.00     0.278 HD
ATOM     40  H21 UNL     1      69.955 -43.254 -43.320  1.00  0.00     0.278 HD
ENDBRANCH  25  37
BRANCH  25  41
HETATM   41  O4  UNL     1      68.648 -44.247 -41.875  1.00  0.00    -0.363 OA
ATOM     42  H4  UNL     1      69.565 -44.495 -41.896  1.00  0.00     0.212 HD
ENDBRANCH  25  41
BRANCH   5  43
HETATM   43  O2  UNL     1      64.899 -45.580 -44.716  1.00  0.00    -0.390 OA
ATOM     44  H2  UNL     1      64.981 -45.988 -45.570  1.00  0.00     0.210 HD
ENDBRANCH   5  43
BRANCH   6  45
HETATM   45  O3  UNL     1      65.660 -48.759 -43.961  1.00  0.00    -0.392 OA
ATOM     46  H3  UNL     1      65.563 -49.364 -44.687  1.00  0.00     0.210 HD
ENDBRANCH   6  45
TORSDOF 6
ENDMDL
MODEL 2
REMARK VINA RESULT: -9.160518957      1.833      2.533
REMARK  6 active torsions:
REMARK  status: ('A' for Active; 'I' for Inactive)
REMARK    1  A    between atoms: C2_2  and  C3_3 
REMARK    2  A    between atoms: C2_2  and  C12_12 
REMARK    3  A    between atoms: C15_16  and  O2_17 
REMARK    4  A    between atoms: C16_19  and  O3_20 
REMARK    5  A    between atoms: C33_40  and  N2_41 
REMARK    6  A    between atoms: C33_40  and  O4_45 
ROOT
HETATM    1  C12 UNL     1      67.147 -43.622 -43.025  1.00  0.00     0.190 C 
HETATM    2  O1  UNL     1      66.015 -44.046 -43.673  1.00  0.00    -0.367 OA
HETATM    3  C13 UNL     1      66.029 -45.436 -43.846  1.00  0.00     0.095 C 
HETATM    4  C14 UNL     1      64.935 -45.893 -43.011  1.00  0.00     0.049 C 
HETATM    5  C15 UNL     1      65.757 -45.812 -45.299  1.00  0.00     0.182 C 
HETATM    6  C16 UNL     1      66.268 -47.128 -45.694  1.00  0.00     0.154 C 
HETATM    7  C17 UNL     1      67.080 -47.933 -44.760  1.00  0.00     0.026 C 
HETATM    8  C18 UNL     1      66.306 -49.015 -44.139  1.00  0.00     0.008 C 
HETATM    9  C19 UNL     1      67.153 -49.845 -43.154  1.00  0.00     0.005 C 
HETATM   10  C20 UNL     1      67.569 -48.859 -42.109  1.00  0.00    -0.008 C 
HETATM   11  C21 UNL     1      67.960 -49.423 -40.796  1.00  0.00     0.006 C 
HETATM   12  C22 UNL     1      68.390 -50.889 -40.919  1.00  0.00     0.016 C 
HETATM   13  C23 UNL     1      69.625 -50.929 -41.737  1.00  0.00     0.064 C 
HETATM   14 BR1  UNL     1      70.944 -51.932 -40.661  1.00  0.00    -0.091 Br
HETATM   15  C24 UNL     1      70.276 -49.623 -41.986  1.00  0.00     0.035 C 
HETATM   16  C25 UNL     1      71.657 -50.018 -42.574  1.00  0.00     0.038 C 
HETATM   17  C26 UNL     1      71.946 -48.964 -43.605  1.00  0.00     0.273 C 
HETATM   18  N1  UNL     1      71.031 -47.900 -43.141  1.00  0.00     0.089 N 
HETATM   19  C27 UNL     1      71.578 -47.479 -41.885  1.00  0.00     0.310 C 
HETATM   20  C28 UNL     1      69.796 -48.700 -43.008  1.00  0.00     0.232 C 
HETATM   21  C29 UNL     1      68.574 -47.891 -42.726  1.00  0.00     0.032 C 
HETATM   22  C30 UNL     1      67.999 -47.105 -43.846  1.00  0.00    -0.021 C 
HETATM   23  C31 UNL     1      69.203 -46.874 -44.821  1.00  0.00     0.016 C 
HETATM   24  C32 UNL     1      67.457 -45.766 -43.623  1.00  0.00     0.097 C 
HETATM   25  C33 UNL     1      67.757 -44.930 -42.444  1.00  0.00     0.256 C 
ENDROOT
BRANCH   1  26
HETATM   26  C2  UNL     1      66.965 -42.553 -42.026  1.00  0.00     0.024 C 
HETATM   27  C1  UNL     1      67.635 -41.261 -42.287  1.00  0.00     0.013 C 
BRANCH  26  28
HETATM   28  C3  UNL     1      65.572 -42.284 -41.561  1.00  0.00     0.025 C 
HETATM   29  C4  UNL     1      65.120 -43.053 -40.368  1.00  0.00     0.014 C 
HETATM   30  C5  UNL     1      65.791 -42.295 -39.219  1.00  0.00     0.040 C 
HETATM   31  C6  UNL     1      65.639 -40.879 -39.716  1.00  0.00    -0.051 A 
HETATM   32  C7  UNL     1      65.616 -39.717 -38.978  1.00  0.00     0.007 A 
HETATM   33  C11 UNL     1      65.499 -40.864 -41.084  1.00  0.00    -0.047 A 
HETATM   34  C8  UNL     1      65.449 -38.503 -39.612  1.00  0.00     0.001 A 
HETATM   35  C9  UNL     1      65.306 -38.490 -41.003  1.00  0.00     0.001 A 
HETATM   36  C10 UNL     1      65.330 -39.654 -41.724  1.00  0.00     0.008 A 
ENDBRANCH  26  28
ENDBRANCH   1  26
BRANCH  25  37
HETATM   37  N2  UNL     1      69.097 -44.656 -42.123  1.00  0.00    -0.044 N 
ATOM     38  H23 UNL     1      69.726 -45.430 -42.337  1.00  0.00     0.278 HD
ATOM     39  H22 UNL     1      69.523 -43.966 -42.742  1.00  0.00     0.278 HD
ATOM     40  H21 UNL     1      69.121 -44.380 -41.142  1.00  0.00     0.278 HD
ENDBRANCH  25  37
BRANCH  25  41
HETATM   41  O4  UNL     1      67.092 -45.279 -41.280  1.00  0.00    -0.363 OA
ATOM     42  H4  UNL     1      67.692 -45.716 -40.687  1.00  0.00     0.212 HD
ENDBRANCH  25  41
BRANCH   5  43
HETATM   43  O2  UNL     1      66.271 -44.768 -46.073  1.00  0.00    -0.390 OA
ATOM     44  H2  UNL     1      66.515 -44.083 -45.462  1.00  0.00     0.210 HD
ENDBRANCH   5  43
BRANCH   6  45
HETATM   45  O3  UNL     1      65.158 -47.934 -46.060  1.00  0.00    -0.392 OA
ATOM     46  H3  UNL     1      65.296 -48.801 -45.698  1.00  0.00     0.210 HD
ENDBRANCH   6  45
TORSDOF 6
ENDMDL
MODEL 3
REMARK VINA RESULT: -9.139864951     12.453     15.960
REMARK  6 active torsions:
REMARK  status: ('A' for Active; 'I' for Inactive)
REMARK    1  A    between atoms: C2_2  and  C3_3 
REMARK    2  A    between atoms: C2_2  and  C12_12 
REMARK    3  A    between atoms: C15_16  and  O2_17 
REMARK    4  A    between atoms: C16_19  and  O3_20 
REMARK    5  A    between atoms: C33_40  and  N2_41 
REMARK    6  A    between atoms: C33_40  and  O4_45 
ROOT
HETATM    1  C12 UNL     1      81.238 -37.021 -47.991  1.00  0.00     0.190 C 
HETATM    2  O1  UNL     1      82.508 -37.180 -48.486  1.00  0.00    -0.367 OA
HETATM    3  C13 UNL     1      83.013 -38.448 -48.168  1.00  0.00     0.095 C 
HETATM    4  C14 UNL     1      83.130 -39.098 -49.459  1.00  0.00     0.049 C 
HETATM    5  C15 UNL     1      84.389 -38.343 -47.519  1.00  0.00     0.182 C 
HETATM    6  C16 UNL     1      84.756 -39.491 -46.683  1.00  0.00     0.154 C 
HETATM    7  C17 UNL     1      83.789 -40.576 -46.424  1.00  0.00     0.026 C 
HETATM    8  C18 UNL     1      84.057 -41.767 -47.240  1.00  0.00     0.008 C 
HETATM    9  C19 UNL     1      83.038 -42.892 -46.978  1.00  0.00     0.005 C 
HETATM   10  C20 UNL     1      81.724 -42.296 -47.373  1.00  0.00    -0.008 C 
HETATM   11  C21 UNL     1      80.644 -43.254 -47.707  1.00  0.00     0.006 C 
HETATM   12  C22 UNL     1      80.890 -44.624 -47.067  1.00  0.00     0.016 C 
HETATM   13  C23 UNL     1      80.815 -44.456 -45.597  1.00  0.00     0.064 C 
HETATM   14 BR1  UNL     1      79.499 -45.793 -44.975  1.00  0.00    -0.091 Br
HETATM   15  C24 UNL     1      80.271 -43.163 -45.123  1.00  0.00     0.035 C 
HETATM   16  C25 UNL     1      80.030 -43.408 -43.610  1.00  0.00     0.038 C 
HETATM   17  C26 UNL     1      80.366 -42.099 -42.955  1.00  0.00     0.273 C 
HETATM   18  N1  UNL     1      80.249 -41.197 -44.119  1.00  0.00     0.089 N 
HETATM   19  C27 UNL     1      78.852 -41.207 -44.442  1.00  0.00     0.310 C 
HETATM   20  C28 UNL     1      81.081 -41.951 -45.080  1.00  0.00     0.232 C 
HETATM   21  C29 UNL     1      81.351 -41.224 -46.355  1.00  0.00     0.032 C 
HETATM   22  C30 UNL     1      82.329 -40.107 -46.313  1.00  0.00    -0.021 C 
HETATM   23  C31 UNL     1      82.317 -39.632 -44.821  1.00  0.00     0.016 C 
HETATM   24  C32 UNL     1      82.105 -38.884 -47.081  1.00  0.00     0.097 C 
HETATM   25  C33 UNL     1      80.797 -38.467 -47.623  1.00  0.00     0.256 C 
ENDROOT
BRANCH   1  26
HETATM   26  C2  UNL     1      80.284 -36.308 -48.859  1.00  0.00     0.024 C 
HETATM   27  C1  UNL     1      79.214 -35.533 -48.197  1.00  0.00     0.013 C 
BRANCH  26  28
HETATM   28  C3  UNL     1      80.855 -35.486 -49.968  1.00  0.00     0.025 C 
HETATM   29  C4  UNL     1      81.968 -36.108 -50.737  1.00  0.00     0.014 C 
HETATM   30  C5  UNL     1      81.226 -37.077 -51.661  1.00  0.00     0.040 C 
HETATM   31  C6  UNL     1      80.013 -36.244 -51.993  1.00  0.00    -0.051 A 
HETATM   32  C7  UNL     1      79.197 -36.333 -53.099  1.00  0.00     0.007 A 
HETATM   33  C11 UNL     1      79.795 -35.303 -51.014  1.00  0.00    -0.047 A 
HETATM   34  C8  UNL     1      78.135 -35.465 -53.241  1.00  0.00     0.001 A 
HETATM   35  C9  UNL     1      77.916 -34.508 -52.245  1.00  0.00     0.001 A 
HETATM   36  C10 UNL     1      78.735 -34.432 -51.150  1.00  0.00     0.008 A 
ENDBRANCH  26  28
ENDBRANCH   1  26
BRANCH  25  37
HETATM   37  N2  UNL     1      79.700 -38.357 -46.753  1.00  0.00    -0.044 N 
ATOM     38  H23 UNL     1      79.840 -37.663 -46.018  1.00  0.00     0.278 HD
ATOM     39  H22 UNL     1      78.886 -37.923 -47.189  1.00  0.00     0.278 HD
ATOM     40  H21 UNL     1      79.507 -39.291 -46.391  1.00  0.00     0.278 HD
ENDBRANCH  25  37
BRANCH  25  41
HETATM   41  O4  UNL     1      80.384 -39.134 -48.765  1.00  0.00    -0.363 OA
ATOM     42  H4  UNL     1      79.472 -39.384 -48.677  1.00  0.00     0.212 HD
ENDBRANCH  25  41
BRANCH   5  43
HETATM   43  O2  UNL     1      84.400 -37.132 -46.823  1.00  0.00    -0.390 OA
ATOM     44  H2  UNL     1      85.301 -36.831 -46.832  1.00  0.00     0.210 HD
ENDBRANCH   5  43
BRANCH   6  45
HETATM   45  O3  UNL     1      85.901 -40.101 -47.261  1.00  0.00    -0.392 OA
ATOM     46  H3  UNL     1      86.597 -40.083 -46.615  1.00  0.00     0.210 HD
ENDBRANCH   6  45
TORSDOF 6
ENDMDL
MODEL 4
REMARK VINA RESULT: -9.032741813      1.395      2.284
REMARK  6 active torsions:
REMARK  status: ('A' for Active; 'I' for Inactive)
REMARK    1  A    between atoms: C2_2  and  C3_3 
REMARK    2  A    between atoms: C2_2  and  C12_12 
REMARK    3  A    between atoms: C15_16  and  O2_17 
REMARK    4  A    between atoms: C16_19  and  O3_20 
REMARK    5  A    between atoms: C33_40  and  N2_41 
REMARK    6  A    between atoms: C33_40  and  O4_45 
ROOT
HETATM    1  C12 UNL     1      66.725 -44.093 -43.942  1.00  0.00     0.190 C 
HETATM    2  O1  UNL     1      65.947 -45.069 -43.375  1.00  0.00    -0.367 OA
HETATM    3  C13 UNL     1      66.647 -46.281 -43.296  1.00  0.00     0.095 C 
HETATM    4  C14 UNL     1      66.802 -46.489 -41.869  1.00  0.00     0.049 C 
HETATM    5  C15 UNL     1      65.834 -47.425 -43.895  1.00  0.00     0.182 C 
HETATM    6  C16 UNL     1      66.634 -48.566 -44.351  1.00  0.00     0.154 C 
HETATM    7  C17 UNL     1      68.109 -48.513 -44.323  1.00  0.00     0.026 C 
HETATM    8  C18 UNL     1      68.672 -49.257 -43.190  1.00  0.00     0.008 C 
HETATM    9  C19 UNL     1      70.211 -49.188 -43.155  1.00  0.00     0.005 C 
HETATM   10  C20 UNL     1      70.508 -47.731 -42.998  1.00  0.00    -0.008 C 
HETATM   11  C21 UNL     1      71.840 -47.390 -42.444  1.00  0.00     0.006 C 
HETATM   12  C22 UNL     1      72.844 -48.529 -42.653  1.00  0.00     0.016 C 
HETATM   13  C23 UNL     1      73.060 -48.678 -44.111  1.00  0.00     0.064 C 
HETATM   14 BR1  UNL     1      75.017 -48.579 -44.371  1.00  0.00    -0.091 Br
HETATM   15  C24 UNL     1      72.525 -47.587 -44.957  1.00  0.00     0.035 C 
HETATM   16  C25 UNL     1      73.165 -47.861 -46.343  1.00  0.00     0.038 C 
HETATM   17  C26 UNL     1      72.102 -47.482 -47.334  1.00  0.00     0.273 C 
HETATM   18  N1  UNL     1      71.263 -46.612 -46.484  1.00  0.00     0.089 N 
HETATM   19  C27 UNL     1      72.084 -45.465 -46.225  1.00  0.00     0.310 C 
HETATM   20  C28 UNL     1      71.114 -47.506 -45.316  1.00  0.00     0.232 C 
HETATM   21  C29 UNL     1      70.141 -47.017 -44.295  1.00  0.00     0.032 C 
HETATM   22  C30 UNL     1      68.697 -47.123 -44.619  1.00  0.00    -0.021 C 
HETATM   23  C31 UNL     1      68.646 -47.143 -46.184  1.00  0.00     0.016 C 
HETATM   24  C32 UNL     1      67.763 -46.062 -44.244  1.00  0.00     0.097 C 
HETATM   25  C33 UNL     1      68.163 -44.684 -43.895  1.00  0.00     0.256 C 
ENDROOT
BRANCH   1  26
HETATM   26  C2  UNL     1      66.614 -42.746 -43.352  1.00  0.00     0.024 C 
HETATM   27  C1  UNL     1      66.845 -42.622 -41.897  1.00  0.00     0.013 C 
BRANCH  26  28
HETATM   28  C3  UNL     1      67.333 -41.636 -44.047  1.00  0.00     0.025 C 
HETATM   29  C4  UNL     1      67.392 -41.724 -45.533  1.00  0.00     0.014 C 
HETATM   30  C5  UNL     1      65.994 -41.254 -45.943  1.00  0.00     0.040 C 
HETATM   31  C6  UNL     1      65.780 -40.157 -44.932  1.00  0.00    -0.051 A 
HETATM   32  C7  UNL     1      64.951 -39.061 -45.028  1.00  0.00     0.007 A 
HETATM   33  C11 UNL     1      66.567 -40.365 -43.824  1.00  0.00    -0.047 A 
HETATM   34  C8  UNL     1      64.900 -38.145 -43.999  1.00  0.00     0.001 A 
HETATM   35  C9  UNL     1      65.703 -38.359 -42.874  1.00  0.00     0.001 A 
HETATM   36  C10 UNL     1      66.522 -39.453 -42.792  1.00  0.00     0.008 A 
ENDBRANCH  26  28
ENDBRANCH   1  26
BRANCH  25  37
HETATM   37  N2  UNL     1      68.944 -43.948 -44.800  1.00  0.00    -0.044 N 
ATOM     38  H23 UNL     1      68.891 -42.941 -44.648  1.00  0.00     0.278 HD
ATOM     39  H22 UNL     1      69.946 -44.051 -44.640  1.00  0.00     0.278 HD
ATOM     40  H21 UNL     1      68.660 -44.227 -45.739  1.00  0.00     0.278 HD
ENDBRANCH  25  37
BRANCH  25  41
HETATM   41  O4  UNL     1      68.694 -44.521 -42.626  1.00  0.00    -0.363 OA
ATOM     42  H4  UNL     1      69.621 -44.324 -42.690  1.00  0.00     0.212 HD
ENDBRANCH  25  41
BRANCH   5  43
HETATM   43  O2  UNL     1      65.057 -46.859 -44.908  1.00  0.00    -0.390 OA
ATOM     44  H2  UNL     1      65.432 -46.004 -45.082  1.00  0.00     0.210 HD
ENDBRANCH   5  43
BRANCH   6  45
HETATM   45  O3  UNL     1      66.257 -49.697 -43.579  1.00  0.00    -0.392 OA
ATOM     46  H3  UNL     1      66.934 -49.845 -42.930  1.00  0.00     0.210 HD
ENDBRANCH   6  45
TORSDOF 6
ENDMDL
MODEL 5
REMARK VINA RESULT: -8.698176178     12.222     15.782
REMARK  6 active torsions:
REMARK  status: ('A' for Active; 'I' for Inactive)
REMARK    1  A    between atoms: C2_2  and  C3_3 
REMARK    2  A    between atoms: C2_2  and  C12_12 
REMARK    3  A    between atoms: C15_16  and  O2_17 
REMARK    4  A    between atoms: C16_19  and  O3_20 
REMARK    5  A    between atoms: C33_40  and  N2_41 
REMARK    6  A    between atoms: C33_40  and  O4_45 
ROOT
HETATM    1  C12 UNL     1      81.295 -43.967 -45.041  1.00  0.00     0.190 C 
HETATM    2  O1  UNL     1      80.145 -43.341 -44.631  1.00  0.00    -0.367 OA
HETATM    3  C13 UNL     1      80.055 -42.054 -45.180  1.00  0.00     0.095 C 
HETATM    4  C14 UNL     1      78.912 -42.146 -46.069  1.00  0.00     0.049 C 
HETATM    5  C15 UNL     1      79.781 -41.014 -44.099  1.00  0.00     0.182 C 
HETATM    6  C16 UNL     1      80.196 -39.651 -44.447  1.00  0.00     0.154 C 
HETATM    7  C17 UNL     1      80.925 -39.382 -45.703  1.00  0.00     0.026 C 
HETATM    8  C18 UNL     1      80.056 -38.808 -46.739  1.00  0.00     0.008 C 
HETATM    9  C19 UNL     1      80.816 -38.541 -48.052  1.00  0.00     0.005 C 
HETATM   10  C20 UNL     1      81.288 -39.893 -48.483  1.00  0.00    -0.008 C 
HETATM   11  C21 UNL     1      81.608 -40.048 -49.922  1.00  0.00     0.006 C 
HETATM   12  C22 UNL     1      81.925 -38.698 -50.575  1.00  0.00     0.016 C 
HETATM   13  C23 UNL     1      83.168 -38.179 -49.958  1.00  0.00     0.064 C 
HETATM   14 BR1  UNL     1      84.383 -37.782 -51.465  1.00  0.00    -0.091 Br
HETATM   15  C24 UNL     1      83.924 -39.141 -49.124  1.00  0.00     0.035 C 
HETATM   16  C25 UNL     1      85.281 -38.425 -48.893  1.00  0.00     0.038 C 
HETATM   17  C26 UNL     1      85.672 -38.795 -47.491  1.00  0.00     0.273 C 
HETATM   18  N1  UNL     1      84.834 -39.998 -47.305  1.00  0.00     0.089 N 
HETATM   19  C27 UNL     1      85.388 -40.964 -48.209  1.00  0.00     0.310 C 
HETATM   20  C28 UNL     1      83.537 -39.448 -47.753  1.00  0.00     0.232 C 
HETATM   21  C29 UNL     1      82.377 -40.358 -47.522  1.00  0.00     0.032 C 
HETATM   22  C30 UNL     1      81.887 -40.504 -46.128  1.00  0.00    -0.021 C 
HETATM   23  C31 UNL     1      83.124 -40.141 -45.238  1.00  0.00     0.016 C 
HETATM   24  C32 UNL     1      81.447 -41.801 -45.618  1.00  0.00     0.097 C 
HETATM   25  C33 UNL     1      81.790 -43.098 -46.233  1.00  0.00     0.256 C 
ENDROOT
BRANCH   1  26
HETATM   26  C2  UNL     1      81.178 -45.403 -45.357  1.00  0.00     0.024 C 
HETATM   27  C1  UNL     1      82.429 -46.189 -45.410  1.00  0.00     0.013 C 
BRANCH  26  28
HETATM   28  C3  UNL     1      80.153 -46.185 -44.603  1.00  0.00     0.025 C 
HETATM   29  C4  UNL     1      79.122 -46.877 -45.426  1.00  0.00     0.014 C 
HETATM   30  C5  UNL     1      79.881 -48.107 -45.932  1.00  0.00     0.040 C 
HETATM   31  C6  UNL     1      80.687 -48.440 -44.702  1.00  0.00    -0.051 A 
HETATM   32  C7  UNL     1      81.216 -49.658 -44.336  1.00  0.00     0.007 A 
HETATM   33  C11 UNL     1      80.843 -47.325 -43.913  1.00  0.00    -0.047 A 
HETATM   34  C8  UNL     1      81.917 -49.776 -43.154  1.00  0.00     0.001 A 
HETATM   35  C9  UNL     1      82.072 -48.641 -42.353  1.00  0.00     0.001 A 
HETATM   36  C10 UNL     1      81.541 -47.436 -42.730  1.00  0.00     0.008 A 
ENDBRANCH  26  28
ENDBRANCH   1  26
BRANCH  25  37
HETATM   37  N2  UNL     1      83.140 -43.419 -46.448  1.00  0.00    -0.044 N 
ATOM     38  H23 UNL     1      83.756 -43.066 -45.714  1.00  0.00     0.278 HD
ATOM     39  H22 UNL     1      83.340 -44.411 -46.322  1.00  0.00     0.278 HD
ATOM     40  H21 UNL     1      83.387 -43.077 -47.376  1.00  0.00     0.278 HD
ENDBRANCH  25  37
BRANCH  25  41
HETATM   41  O4  UNL     1      81.077 -43.423 -47.376  1.00  0.00    -0.363 OA
ATOM     42  H4  UNL     1      81.255 -42.786 -48.057  1.00  0.00     0.212 HD
ENDBRANCH  25  41
BRANCH   5  43
HETATM   43  O2  UNL     1      80.390 -41.493 -42.937  1.00  0.00    -0.390 OA
ATOM     44  H2  UNL     1      79.713 -41.951 -42.454  1.00  0.00     0.210 HD
ENDBRANCH   5  43
BRANCH   6  45
HETATM   45  O3  UNL     1      79.033 -38.836 -44.474  1.00  0.00    -0.392 OA
ATOM     46  H3  UNL     1      78.961 -38.462 -45.343  1.00  0.00     0.210 HD
ENDBRANCH   6  45
TORSDOF 6
ENDMDL
