MODEL 1
REMARK VINA RESULT: -8.886685685      0.000      0.000
REMARK  7 active torsions:
REMARK  status: ('A' for Active; 'I' for Inactive)
REMARK    1  A    between atoms: C19_23  and  O4_24 
REMARK    2  A    between atoms: C20_26  and  N1_27 
REMARK       I    between atoms: N1_27  and  C21_29 
REMARK    3  A    between atoms: C21_29  and  C22_31 
REMARK    4  A    between atoms: C22_31  and  C23_32 
REMARK    5  A    between atoms: C22_31  and  N2_35 
REMARK    6  A    between atoms: C23_32  and  O6_33 
REMARK    7  A    between atoms: N2_35  and  C24_37 
ROOT
HETATM    1  C1  UNL     1      78.764 -39.192 -43.671  1.00  0.00     0.046 C 
HETATM    2  C2  UNL     1      79.803 -39.497 -44.726  1.00  0.00    -0.054 C 
HETATM    3  C3  UNL     1      80.395 -38.510 -45.340  1.00  0.00     0.139 C 
HETATM    4  O1  UNL     1      81.318 -38.811 -46.274  1.00  0.00    -0.343 OA
HETATM    5  C4  UNL     1      81.564 -40.080 -46.848  1.00  0.00     0.143 C 
HETATM    6  C5  UNL     1      81.488 -39.815 -48.315  1.00  0.00     0.168 C 
HETATM    7  O2  UNL     1      80.457 -39.694 -48.933  1.00  0.00    -0.294 OA
HETATM    8  C6  UNL     1      82.792 -39.695 -49.033  1.00  0.00     0.074 C 
HETATM    9  C7  UNL     1      83.524 -38.585 -48.345  1.00  0.00     0.063 C 
HETATM   10  C8  UNL     1      84.740 -38.078 -49.018  1.00  0.00     0.018 C 
HETATM   11  C9  UNL     1      83.764 -39.095 -46.965  1.00  0.00     0.139 C 
HETATM   12  O3  UNL     1      84.530 -38.495 -46.227  1.00  0.00    -0.297 OA
HETATM   13  C10 UNL     1      83.030 -40.338 -46.581  1.00  0.00     0.109 C 
HETATM   14  C11 UNL     1      83.420 -41.527 -47.439  1.00  0.00    -0.008 C 
HETATM   15  C12 UNL     1      84.896 -41.696 -47.028  1.00  0.00     0.018 C 
HETATM   16  C13 UNL     1      83.443 -41.055 -48.862  1.00  0.00     0.004 C 
HETATM   17  C14 UNL     1      84.786 -41.172 -49.527  1.00  0.00     0.011 C 
HETATM   18  C15 UNL     1      82.584 -42.725 -47.190  1.00  0.00     0.033 C 
HETATM   19  C16 UNL     1      83.484 -43.791 -46.552  1.00  0.00     0.029 C 
HETATM   20 BR1  UNL     1      82.239 -43.728 -48.851  1.00  0.00    -0.084 Br
HETATM   21  C17 UNL     1      81.324 -42.567 -46.357  1.00  0.00     0.013 C 
HETATM   22  C18 UNL     1      81.694 -43.055 -44.994  1.00  0.00     0.020 C 
HETATM   23  C19 UNL     1      80.280 -43.452 -46.997  1.00  0.00     0.178 C 
HETATM   24  C20 UNL     1      78.959 -43.648 -46.430  1.00  0.00     0.041 C 
HETATM   25  C28 UNL     1      78.268 -42.619 -45.645  1.00  0.00     0.024 C 
HETATM   26  C29 UNL     1      78.861 -41.703 -44.692  1.00  0.00    -0.015 C 
HETATM   27  C30 UNL     1      80.082 -40.930 -44.988  1.00  0.00     0.047 C 
HETATM   28  C31 UNL     1      80.708 -41.191 -46.358  1.00  0.00     0.054 C 
ENDROOT
BRANCH  24  29
HETATM   29  N1  UNL     1      78.560 -45.006 -46.117  1.00  0.00    -0.326 N 
HETATM   30  C21 UNL     1      78.869 -45.771 -44.965  1.00  0.00     0.246 C 
HETATM   31  O5  UNL     1      79.601 -45.271 -44.090  1.00  0.00    -0.271 OA
ATOM     32  H1  UNL     1      77.981 -45.472 -46.817  1.00  0.00     0.168 HD
BRANCH  30  33
HETATM   33  C22 UNL     1      78.342 -47.137 -44.761  1.00  0.00     0.194 C 
BRANCH  33  34
HETATM   34  C23 UNL     1      76.805 -46.975 -44.866  1.00  0.00     0.198 C 
BRANCH  34  35
HETATM   35  O6  UNL     1      76.371 -45.942 -44.034  1.00  0.00    -0.398 OA
ATOM     36  H6  UNL     1      75.465 -46.082 -43.783  1.00  0.00     0.209 HD
ENDBRANCH  34  35
ENDBRANCH  33  34
BRANCH  33  37
HETATM   37  N2  UNL     1      78.745 -48.050 -45.714  1.00  0.00    -0.400 N 
ATOM     38  H2  UNL     1      78.576 -47.796 -46.687  1.00  0.00     0.154 HD
BRANCH  37  39
HETATM   39  C24 UNL     1      79.352 -49.275 -45.493  1.00  0.00     0.015 C 
HETATM   40  C25 UNL     1      79.266 -49.547 -43.966  1.00  0.00     0.037 C 
HETATM   41  C26 UNL     1      78.864 -50.524 -46.137  1.00  0.00     0.037 C 
HETATM   42  C27 UNL     1      80.903 -49.172 -45.699  1.00  0.00     0.037 C 
ENDBRANCH  37  39
ENDBRANCH  33  37
ENDBRANCH  30  33
ENDBRANCH  24  29
BRANCH  23  43
HETATM   43  O4  UNL     1      79.999 -42.894 -48.298  1.00  0.00    -0.389 OA
ATOM     44  H4  UNL     1      79.200 -43.305 -48.607  1.00  0.00     0.210 HD
ENDBRANCH  23  43
TORSDOF 7
ENDMDL
MODEL 2
REMARK VINA RESULT: -8.885984025      1.849      2.518
REMARK  7 active torsions:
REMARK  status: ('A' for Active; 'I' for Inactive)
REMARK    1  A    between atoms: C19_23  and  O4_24 
REMARK    2  A    between atoms: C20_26  and  N1_27 
REMARK       I    between atoms: N1_27  and  C21_29 
REMARK    3  A    between atoms: C21_29  and  C22_31 
REMARK    4  A    between atoms: C22_31  and  C23_32 
REMARK    5  A    between atoms: C22_31  and  N2_35 
REMARK    6  A    between atoms: C23_32  and  O6_33 
REMARK    7  A    between atoms: N2_35  and  C24_37 
ROOT
HETATM    1  C1  UNL     1      79.002 -37.407 -43.843  1.00  0.00     0.046 C 
HETATM    2  C2  UNL     1      79.815 -37.669 -45.091  1.00  0.00    -0.054 C 
HETATM    3  C3  UNL     1      79.889 -36.745 -46.008  1.00  0.00     0.139 C 
HETATM    4  O1  UNL     1      80.621 -37.004 -47.108  1.00  0.00    -0.343 OA
HETATM    5  C4  UNL     1      81.138 -38.258 -47.509  1.00  0.00     0.143 C 
HETATM    6  C5  UNL     1      80.647 -38.401 -48.911  1.00  0.00     0.168 C 
HETATM    7  O2  UNL     1      79.523 -38.727 -49.209  1.00  0.00    -0.294 OA
HETATM    8  C6  UNL     1      81.638 -38.111 -49.990  1.00  0.00     0.074 C 
HETATM    9  C7  UNL     1      82.095 -36.707 -49.744  1.00  0.00     0.063 C 
HETATM   10  C8  UNL     1      82.886 -36.071 -50.820  1.00  0.00     0.018 C 
HETATM   11  C9  UNL     1      82.798 -36.768 -48.431  1.00  0.00     0.139 C 
HETATM   12  O3  UNL     1      83.467 -35.815 -48.062  1.00  0.00    -0.297 OA
HETATM   13  C10 UNL     1      82.627 -38.027 -47.646  1.00  0.00     0.109 C 
HETATM   14  C11 UNL     1      83.184 -39.238 -48.370  1.00  0.00    -0.008 C 
HETATM   15  C12 UNL     1      84.685 -38.886 -48.389  1.00  0.00     0.018 C 
HETATM   16  C13 UNL     1      82.725 -39.151 -49.794  1.00  0.00     0.004 C 
HETATM   17  C14 UNL     1      83.842 -39.057 -50.796  1.00  0.00     0.011 C 
HETATM   18  C15 UNL     1      82.875 -40.518 -47.689  1.00  0.00     0.033 C 
HETATM   19  C16 UNL     1      84.199 -41.099 -47.176  1.00  0.00     0.029 C 
HETATM   20 BR1  UNL     1      82.515 -41.960 -48.983  1.00  0.00    -0.084 Br
HETATM   21  C17 UNL     1      81.859 -40.509 -46.561  1.00  0.00     0.013 C 
HETATM   22  C18 UNL     1      82.669 -40.518 -45.305  1.00  0.00     0.020 C 
HETATM   23  C19 UNL     1      81.052 -41.779 -46.707  1.00  0.00     0.178 C 
HETATM   24  C20 UNL     1      80.037 -42.182 -45.752  1.00  0.00     0.041 C 
HETATM   25  C28 UNL     1      79.241 -41.220 -44.982  1.00  0.00     0.024 C 
HETATM   26  C29 UNL     1      79.696 -39.967 -44.413  1.00  0.00    -0.015 C 
HETATM   27  C30 UNL     1      80.488 -38.988 -45.180  1.00  0.00     0.047 C 
HETATM   28  C31 UNL     1      80.837 -39.402 -46.610  1.00  0.00     0.054 C 
ENDROOT
BRANCH  24  29
HETATM   29  N1  UNL     1      80.195 -43.474 -45.113  1.00  0.00    -0.326 N 
HETATM   30  C21 UNL     1      79.987 -44.761 -45.667  1.00  0.00     0.246 C 
HETATM   31  O5  UNL     1      79.586 -44.853 -46.842  1.00  0.00    -0.271 OA
ATOM     32  H1  UNL     1      80.495 -43.453 -44.138  1.00  0.00     0.168 HD
BRANCH  30  33
HETATM   33  C22 UNL     1      80.241 -45.999 -44.900  1.00  0.00     0.194 C 
BRANCH  33  34
HETATM   34  C23 UNL     1      78.852 -46.676 -44.793  1.00  0.00     0.198 C 
BRANCH  34  35
HETATM   35  O6  UNL     1      77.883 -45.737 -44.439  1.00  0.00    -0.398 OA
ATOM     36  H6  UNL     1      77.257 -45.627 -45.146  1.00  0.00     0.209 HD
ENDBRANCH  34  35
ENDBRANCH  33  34
BRANCH  33  37
HETATM   37  N2  UNL     1      81.104 -46.882 -45.515  1.00  0.00    -0.400 N 
ATOM     38  H2  UNL     1      80.779 -47.303 -46.386  1.00  0.00     0.154 HD
BRANCH  37  39
HETATM   39  C24 UNL     1      82.363 -47.261 -45.079  1.00  0.00     0.015 C 
HETATM   40  C25 UNL     1      82.324 -47.236 -43.527  1.00  0.00     0.037 C 
HETATM   41  C26 UNL     1      82.955 -48.579 -45.432  1.00  0.00     0.037 C 
HETATM   42  C27 UNL     1      83.416 -46.138 -45.376  1.00  0.00     0.037 C 
ENDBRANCH  37  39
ENDBRANCH  33  37
ENDBRANCH  30  33
ENDBRANCH  24  29
BRANCH  23  43
HETATM   43  O4  UNL     1      80.314 -41.664 -47.942  1.00  0.00    -0.389 OA
ATOM     44  H4  UNL     1      80.705 -40.950 -48.431  1.00  0.00     0.210 HD
ENDBRANCH  23  43
TORSDOF 7
ENDMDL
MODEL 3
REMARK VINA RESULT: -8.794808705      1.697      2.388
REMARK  7 active torsions:
REMARK  status: ('A' for Active; 'I' for Inactive)
REMARK    1  A    between atoms: C19_23  and  O4_24 
REMARK    2  A    between atoms: C20_26  and  N1_27 
REMARK       I    between atoms: N1_27  and  C21_29 
REMARK    3  A    between atoms: C21_29  and  C22_31 
REMARK    4  A    between atoms: C22_31  and  C23_32 
REMARK    5  A    between atoms: C22_31  and  N2_35 
REMARK    6  A    between atoms: C23_32  and  O6_33 
REMARK    7  A    between atoms: N2_35  and  C24_37 
ROOT
HETATM    1  C1  UNL     1      79.107 -37.895 -43.623  1.00  0.00     0.046 C 
HETATM    2  C2  UNL     1      79.860 -38.038 -44.926  1.00  0.00    -0.054 C 
HETATM    3  C3  UNL     1      79.843 -37.054 -45.782  1.00  0.00     0.139 C 
HETATM    4  O1  UNL     1      80.524 -37.207 -46.934  1.00  0.00    -0.343 OA
HETATM    5  C4  UNL     1      81.071 -38.408 -47.444  1.00  0.00     0.143 C 
HETATM    6  C5  UNL     1      80.510 -38.483 -48.826  1.00  0.00     0.168 C 
HETATM    7  O2  UNL     1      79.386 -38.842 -49.085  1.00  0.00    -0.294 OA
HETATM    8  C6  UNL     1      81.426 -38.078 -49.934  1.00  0.00     0.074 C 
HETATM    9  C7  UNL     1      81.835 -36.672 -49.618  1.00  0.00     0.063 C 
HETATM   10  C8  UNL     1      82.537 -35.932 -50.689  1.00  0.00     0.018 C 
HETATM   11  C9  UNL     1      82.611 -36.785 -48.351  1.00  0.00     0.139 C 
HETATM   12  O3  UNL     1      83.258 -35.828 -47.955  1.00  0.00    -0.297 OA
HETATM   13  C10 UNL     1      82.539 -38.099 -47.644  1.00  0.00     0.109 C 
HETATM   14  C11 UNL     1      83.107 -39.234 -48.475  1.00  0.00    -0.008 C 
HETATM   15  C12 UNL     1      84.588 -38.811 -48.549  1.00  0.00     0.018 C 
HETATM   16  C13 UNL     1      82.566 -39.077 -49.864  1.00  0.00     0.004 C 
HETATM   17  C14 UNL     1      83.621 -38.866 -50.915  1.00  0.00     0.011 C 
HETATM   18  C15 UNL     1      82.892 -40.568 -47.866  1.00  0.00     0.033 C 
HETATM   19  C16 UNL     1      84.265 -41.118 -47.463  1.00  0.00     0.029 C 
HETATM   20 BR1  UNL     1      82.524 -41.939 -49.233  1.00  0.00    -0.084 Br
HETATM   21  C17 UNL     1      81.940 -40.679 -46.688  1.00  0.00     0.013 C 
HETATM   22  C18 UNL     1      82.818 -40.731 -45.480  1.00  0.00     0.020 C 
HETATM   23  C19 UNL     1      81.182 -41.973 -46.876  1.00  0.00     0.178 C 
HETATM   24  C20 UNL     1      80.240 -42.484 -45.899  1.00  0.00     0.041 C 
HETATM   25  C28 UNL     1      79.447 -41.612 -45.025  1.00  0.00     0.024 C 
HETATM   26  C29 UNL     1      79.878 -40.378 -44.398  1.00  0.00    -0.015 C 
HETATM   27  C30 UNL     1      80.583 -39.316 -45.139  1.00  0.00     0.047 C 
HETATM   28  C31 UNL     1      80.870 -39.620 -46.610  1.00  0.00     0.054 C 
ENDROOT
BRANCH  24  29
HETATM   29  N1  UNL     1      80.489 -43.805 -45.356  1.00  0.00    -0.326 N 
HETATM   30  C21 UNL     1      79.872 -45.031 -45.708  1.00  0.00     0.246 C 
HETATM   31  O5  UNL     1      78.971 -45.027 -46.567  1.00  0.00    -0.271 OA
ATOM     32  H1  UNL     1      81.200 -43.859 -44.627  1.00  0.00     0.168 HD
BRANCH  30  33
HETATM   33  C22 UNL     1      80.271 -46.317 -45.098  1.00  0.00     0.194 C 
BRANCH  33  34
HETATM   34  C23 UNL     1      81.270 -45.920 -43.983  1.00  0.00     0.198 C 
BRANCH  34  35
HETATM   35  O6  UNL     1      80.581 -45.582 -42.817  1.00  0.00    -0.398 OA
ATOM     36  H6  UNL     1      79.666 -45.415 -43.011  1.00  0.00     0.209 HD
ENDBRANCH  34  35
ENDBRANCH  33  34
BRANCH  33  37
HETATM   37  N2  UNL     1      79.234 -47.018 -44.517  1.00  0.00    -0.400 N 
ATOM     38  H2  UNL     1      78.560 -46.471 -43.982  1.00  0.00     0.154 HD
BRANCH  37  39
HETATM   39  C24 UNL     1      79.008 -48.382 -44.582  1.00  0.00     0.015 C 
HETATM   40  C25 UNL     1      77.476 -48.589 -44.435  1.00  0.00     0.037 C 
HETATM   41  C26 UNL     1      79.397 -49.190 -45.769  1.00  0.00     0.037 C 
HETATM   42  C27 UNL     1      79.538 -49.096 -43.290  1.00  0.00     0.037 C 
ENDBRANCH  37  39
ENDBRANCH  33  37
ENDBRANCH  30  33
ENDBRANCH  24  29
BRANCH  23  43
HETATM   43  O4  UNL     1      80.372 -41.814 -48.061  1.00  0.00    -0.389 OA
ATOM     44  H4  UNL     1      80.121 -42.687 -48.341  1.00  0.00     0.210 HD
ENDBRANCH  23  43
TORSDOF 7
ENDMDL
MODEL 4
REMARK VINA RESULT: -8.688531124      1.729      2.420
REMARK  7 active torsions:
REMARK  status: ('A' for Active; 'I' for Inactive)
REMARK    1  A    between atoms: C19_23  and  O4_24 
REMARK    2  A    between atoms: C20_26  and  N1_27 
REMARK       I    between atoms: N1_27  and  C21_29 
REMARK    3  A    between atoms: C21_29  and  C22_31 
REMARK    4  A    between atoms: C22_31  and  C23_32 
REMARK    5  A    between atoms: C22_31  and  N2_35 
REMARK    6  A    between atoms: C23_32  and  O6_33 
REMARK    7  A    between atoms: N2_35  and  C24_37 
ROOT
HETATM    1  C1  UNL     1      79.555 -36.604 -45.116  1.00  0.00     0.046 C 
HETATM    2  C2  UNL     1      80.522 -37.222 -46.099  1.00  0.00    -0.054 C 
HETATM    3  C3  UNL     1      81.005 -36.489 -47.064  1.00  0.00     0.139 C 
HETATM    4  O1  UNL     1      81.866 -37.065 -47.925  1.00  0.00    -0.343 OA
HETATM    5  C4  UNL     1      82.138 -38.447 -48.057  1.00  0.00     0.143 C 
HETATM    6  C5  UNL     1      81.930 -38.701 -49.514  1.00  0.00     0.168 C 
HETATM    7  O2  UNL     1      80.847 -38.826 -50.035  1.00  0.00    -0.294 OA
HETATM    8  C6  UNL     1      83.163 -38.798 -50.350  1.00  0.00     0.074 C 
HETATM    9  C7  UNL     1      83.882 -37.500 -50.150  1.00  0.00     0.063 C 
HETATM   10  C8  UNL     1      85.009 -37.220 -51.067  1.00  0.00     0.018 C 
HETATM   11  C9  UNL     1      84.261 -37.502 -48.708  1.00  0.00     0.139 C 
HETATM   12  O3  UNL     1      85.047 -36.665 -48.292  1.00  0.00    -0.297 OA
HETATM   13  C10 UNL     1      83.634 -38.558 -47.860  1.00  0.00     0.109 C 
HETATM   14  C11 UNL     1      84.021 -39.957 -48.299  1.00  0.00    -0.008 C 
HETATM   15  C12 UNL     1      85.533 -39.936 -47.997  1.00  0.00     0.018 C 
HETATM   16  C13 UNL     1      83.903 -39.999 -49.793  1.00  0.00     0.004 C 
HETATM   17  C14 UNL     1      85.193 -40.300 -50.504  1.00  0.00     0.011 C 
HETATM   18  C15 UNL     1      83.279 -41.021 -47.582  1.00  0.00     0.033 C 
HETATM   19  C16 UNL     1      84.288 -41.780 -46.710  1.00  0.00     0.029 C 
HETATM   20 BR1  UNL     1      82.862 -42.539 -48.766  1.00  0.00    -0.084 Br
HETATM   21  C17 UNL     1      82.084 -40.623 -46.735  1.00  0.00     0.013 C 
HETATM   22  C18 UNL     1      82.588 -40.605 -45.329  1.00  0.00     0.020 C 
HETATM   23  C19 UNL     1      81.044 -41.701 -46.936  1.00  0.00     0.178 C 
HETATM   24  C20 UNL     1      79.787 -41.728 -46.214  1.00  0.00     0.041 C 
HETATM   25  C28 UNL     1      79.102 -40.512 -45.760  1.00  0.00     0.024 C 
HETATM   26  C29 UNL     1      79.716 -39.310 -45.233  1.00  0.00    -0.015 C 
HETATM   27  C30 UNL     1      80.862 -38.651 -45.887  1.00  0.00     0.047 C 
HETATM   28  C31 UNL     1      81.390 -39.347 -47.142  1.00  0.00     0.054 C 
ENDROOT
BRANCH  24  29
HETATM   29  N1  UNL     1      79.493 -42.908 -45.424  1.00  0.00    -0.326 N 
HETATM   30  C21 UNL     1      79.363 -44.249 -45.860  1.00  0.00     0.246 C 
HETATM   31  O5  UNL     1      79.475 -44.500 -47.075  1.00  0.00    -0.271 OA
ATOM     32  H1  UNL     1      79.364 -42.752 -44.423  1.00  0.00     0.168 HD
BRANCH  30  33
HETATM   33  C22 UNL     1      79.111 -45.363 -44.921  1.00  0.00     0.194 C 
BRANCH  33  34
HETATM   34  C23 UNL     1      77.605 -45.680 -45.097  1.00  0.00     0.198 C 
BRANCH  34  35
HETATM   35  O6  UNL     1      77.385 -46.313 -46.320  1.00  0.00    -0.398 OA
ATOM     36  H6  UNL     1      76.461 -46.287 -46.542  1.00  0.00     0.209 HD
ENDBRANCH  34  35
ENDBRANCH  33  34
BRANCH  33  37
HETATM   37  N2  UNL     1      79.827 -46.510 -45.194  1.00  0.00    -0.400 N 
ATOM     38  H2  UNL     1      79.341 -47.234 -45.723  1.00  0.00     0.154 HD
BRANCH  37  39
HETATM   39  C24 UNL     1      81.133 -46.787 -44.827  1.00  0.00     0.015 C 
HETATM   40  C25 UNL     1      81.405 -48.264 -45.225  1.00  0.00     0.037 C 
HETATM   41  C26 UNL     1      82.284 -46.020 -45.374  1.00  0.00     0.037 C 
HETATM   42  C27 UNL     1      81.270 -46.861 -43.267  1.00  0.00     0.037 C 
ENDBRANCH  37  39
ENDBRANCH  33  37
ENDBRANCH  30  33
ENDBRANCH  24  29
BRANCH  23  43
HETATM   43  O4  UNL     1      80.628 -41.629 -48.316  1.00  0.00    -0.389 OA
ATOM     44  H4  UNL     1      81.316 -42.035 -48.832  1.00  0.00     0.210 HD
ENDBRANCH  23  43
TORSDOF 7
ENDMDL
MODEL 5
REMARK VINA RESULT: -8.653125048      3.353      8.891
REMARK  7 active torsions:
REMARK  status: ('A' for Active; 'I' for Inactive)
REMARK    1  A    between atoms: C19_23  and  O4_24 
REMARK    2  A    between atoms: C20_26  and  N1_27 
REMARK       I    between atoms: N1_27  and  C21_29 
REMARK    3  A    between atoms: C21_29  and  C22_31 
REMARK    4  A    between atoms: C22_31  and  C23_32 
REMARK    5  A    between atoms: C22_31  and  N2_35 
REMARK    6  A    between atoms: C23_32  and  O6_33 
REMARK    7  A    between atoms: N2_35  and  C24_37 
ROOT
HETATM    1  C1  UNL     1      85.363 -44.837 -46.862  1.00  0.00     0.046 C 
HETATM    2  C2  UNL     1      83.995 -44.265 -46.569  1.00  0.00    -0.054 C 
HETATM    3  C3  UNL     1      83.030 -45.071 -46.221  1.00  0.00     0.139 C 
HETATM    4  O1  UNL     1      81.821 -44.534 -45.966  1.00  0.00    -0.343 OA
HETATM    5  C4  UNL     1      81.398 -43.216 -46.256  1.00  0.00     0.143 C 
HETATM    6  C5  UNL     1      80.134 -43.422 -47.023  1.00  0.00     0.168 C 
HETATM    7  O2  UNL     1      80.089 -43.733 -48.190  1.00  0.00    -0.294 OA
HETATM    8  C6  UNL     1      78.862 -43.223 -46.267  1.00  0.00     0.074 C 
HETATM    9  C7  UNL     1      78.929 -44.181 -45.117  1.00  0.00     0.063 C 
HETATM   10  C8  UNL     1      77.681 -44.381 -44.350  1.00  0.00     0.018 C 
HETATM   11  C9  UNL     1      80.075 -43.697 -44.295  1.00  0.00     0.139 C 
HETATM   12  O3  UNL     1      80.245 -44.152 -43.175  1.00  0.00    -0.297 OA
HETATM   13  C10 UNL     1      80.949 -42.661 -44.922  1.00  0.00     0.109 C 
HETATM   14  C11 UNL     1      80.199 -41.377 -45.222  1.00  0.00    -0.008 C 
HETATM   15  C12 UNL     1      79.857 -40.913 -43.792  1.00  0.00     0.018 C 
HETATM   16  C13 UNL     1      78.894 -41.765 -45.851  1.00  0.00     0.004 C 
HETATM   17  C14 UNL     1      77.684 -41.329 -45.072  1.00  0.00     0.011 C 
HETATM   18  C15 UNL     1      81.001 -40.400 -45.996  1.00  0.00     0.033 C 
HETATM   19  C16 UNL     1      81.269 -39.197 -45.084  1.00  0.00     0.029 C 
HETATM   20 BR1  UNL     1      79.893 -39.418 -47.296  1.00  0.00    -0.084 Br
HETATM   21  C17 UNL     1      82.309 -40.865 -46.612  1.00  0.00     0.013 C 
HETATM   22  C18 UNL     1      83.373 -40.375 -45.685  1.00  0.00     0.020 C 
HETATM   23  C19 UNL     1      82.403 -40.197 -47.964  1.00  0.00     0.178 C 
HETATM   24  C20 UNL     1      83.564 -40.318 -48.824  1.00  0.00     0.041 C 
HETATM   25  C28 UNL     1      84.423 -41.508 -48.842  1.00  0.00     0.024 C 
HETATM   26  C29 UNL     1      84.815 -42.318 -47.706  1.00  0.00    -0.015 C 
HETATM   27  C30 UNL     1      83.848 -42.795 -46.700  1.00  0.00     0.047 C 
HETATM   28  C31 UNL     1      82.403 -42.341 -46.910  1.00  0.00     0.054 C 
ENDROOT
BRANCH  24  29
HETATM   29  N1  UNL     1      84.232 -39.094 -49.223  1.00  0.00    -0.326 N 
HETATM   30  C21 UNL     1      84.587 -38.670 -50.527  1.00  0.00     0.246 C 
HETATM   31  O5  UNL     1      84.345 -39.420 -51.491  1.00  0.00    -0.271 OA
ATOM     32  H1  UNL     1      84.478 -38.456 -48.465  1.00  0.00     0.168 HD
BRANCH  30  33
HETATM   33  C22 UNL     1      85.224 -37.361 -50.783  1.00  0.00     0.194 C 
BRANCH  33  34
HETATM   34  C23 UNL     1      86.710 -37.575 -50.401  1.00  0.00     0.198 C 
BRANCH  34  35
HETATM   35  O6  UNL     1      86.968 -38.932 -50.208  1.00  0.00    -0.398 OA
ATOM     36  H6  UNL     1      86.315 -39.312 -49.631  1.00  0.00     0.209 HD
ENDBRANCH  34  35
ENDBRANCH  33  34
BRANCH  33  37
HETATM   37  N2  UNL     1      85.173 -36.951 -52.100  1.00  0.00    -0.400 N 
ATOM     38  H2  UNL     1      85.954 -37.230 -52.693  1.00  0.00     0.154 HD
BRANCH  37  39
HETATM   39  C24 UNL     1      84.177 -36.202 -52.704  1.00  0.00     0.015 C 
HETATM   40  C25 UNL     1      83.731 -36.988 -53.967  1.00  0.00     0.037 C 
HETATM   41  C26 UNL     1      82.915 -35.855 -51.998  1.00  0.00     0.037 C 
HETATM   42  C27 UNL     1      84.771 -34.901 -53.347  1.00  0.00     0.037 C 
ENDBRANCH  37  39
ENDBRANCH  33  37
ENDBRANCH  30  33
ENDBRANCH  24  29
BRANCH  23  43
HETATM   43  O4  UNL     1      81.338 -40.740 -48.773  1.00  0.00    -0.389 OA
ATOM     44  H4  UNL     1      81.498 -40.457 -49.666  1.00  0.00     0.210 HD
ENDBRANCH  23  43
TORSDOF 7
ENDMDL
