MODEL 1
REMARK VINA RESULT: -6.327914642      0.000      0.000
REMARK  12 active torsions:
REMARK  status: ('A' for Active; 'I' for Inactive)
REMARK    1  A    between atoms: N1_1  and  C1_4 
REMARK    2  A    between atoms: N4_8  and  C2_9 
REMARK    3  A    between atoms: C2_9  and  O1_10 
REMARK    4  A    between atoms: C3_12  and  O2_13 
REMARK    5  A    between atoms: C4_18  and  C5_19 
REMARK    6  A    between atoms: C5_19  and  O3_20 
REMARK    7  A    between atoms: C5_19  and  C6_22 
REMARK    8  A    between atoms: C6_22  and  N6_23 
REMARK    9  A    between atoms: C7_30  and  N8_31 
REMARK   10  A    between atoms: N8_31  and  C8_33 
REMARK   11  A    between atoms: C9_36  and  N10_37 
REMARK   12  A    between atoms: C11_44  and  N12_45 
ROOT
HETATM    1  C2  UNL     1      13.197  11.043 121.199  1.00  0.00     0.266 C 
HETATM    2  C3  UNL     1      13.694  11.093 119.731  1.00  0.00     0.384 C 
HETATM    3  N5  UNL     1      13.914   9.673 119.402  1.00  0.00    -0.012 N 
ATOM      4  H51 UNL     1      14.083   9.514 118.409  1.00  0.00     0.283 HD
ATOM      5  H52 UNL     1      13.069   9.108 119.483  1.00  0.00     0.283 HD
HETATM    6  C4  UNL     1      14.984   9.207 120.235  1.00  0.00     0.418 C 
HETATM    7  N7  UNL     1      15.467  10.268 121.092  1.00  0.00    -0.018 N 
ATOM      8  H71 UNL     1      15.815  11.080 120.582  1.00  0.00     0.282 HD
ATOM      9  H72 UNL     1      16.340  10.043 121.570  1.00  0.00     0.282 HD
HETATM   10  C7  UNL     1      14.345  10.575 122.010  1.00  0.00     0.351 C 
ENDROOT
BRANCH  10  11
HETATM   11  N8  UNL     1      14.778  11.368 123.092  1.00  0.00    -0.342 N 
ATOM     12  H8  UNL     1      14.062  11.880 123.606  1.00  0.00     0.163 HD
BRANCH  11  13
HETATM   13  C8  UNL     1      16.113  11.519 123.530  1.00  0.00     0.157 A 
HETATM   14  N9  UNL     1      16.764  10.656 124.328  1.00  0.00    -0.174 N 
HETATM   15  C9  UNL     1      18.036  10.833 124.711  1.00  0.00     0.680 A 
ATOM     16  H9  UNL     1      16.268   9.829 124.657  1.00  0.00     0.186 HD
HETATM   17  N11 UNL     1      18.757  11.890 124.322  1.00  0.00    -0.154 N 
HETATM   18  C10 UNL     1      18.170  12.786 123.527  1.00  0.00     0.296 A 
ATOM     19  H11 UNL     1      19.725  12.007 124.623  1.00  0.00     0.187 HD
HETATM   20  O4  UNL     1      18.809  13.792 123.138  1.00  0.00    -0.265 OA
HETATM   21  C11 UNL     1      16.880  12.618 123.133  1.00  0.00     0.215 A 
BRANCH  15  22
HETATM   22  N10 UNL     1      18.572   9.925 125.492  1.00  0.00    -0.234 N 
ATOM     23 2H10 UNL     1      18.139   9.006 125.576  1.00  0.00     0.174 HD
ATOM     24 1H10 UNL     1      19.421  10.175 125.999  1.00  0.00     0.174 HD
ENDBRANCH  15  22
BRANCH  21  25
HETATM   25  N12 UNL     1      16.289  13.576 122.293  1.00  0.00    -0.106 N 
HETATM   26  O5  UNL     1      16.165  13.346 121.092  1.00  0.00    -0.531 OA
HETATM   27  O6  UNL     1      15.856  14.755 122.808  1.00  0.00    -0.531 OA
ENDBRANCH  21  25
ENDBRANCH  11  13
ENDBRANCH  10  11
BRANCH   1  28
HETATM   28  N4  UNL     1      12.616  12.297 121.563  1.00  0.00    -0.157 N 
HETATM   29  N3  UNL     1      11.371  12.592 121.924  1.00  0.00     0.014 NA
HETATM   30  N2  UNL     1      11.242  13.880 122.189  1.00  0.00    -0.114 N 
HETATM   31  C1  UNL     1      12.429  14.454 121.998  1.00  0.00     0.704 A 
ATOM     32  H2  UNL     1      10.387  14.350 122.485  1.00  0.00     0.203 HD
HETATM   33  N13 UNL     1      13.257  13.459 121.612  1.00  0.00    -0.113 N 
ATOM     34  H13 UNL     1      14.244  13.584 121.388  1.00  0.00     0.207 HD
BRANCH  31  35
HETATM   35  N1  UNL     1      12.773  15.696 122.137  1.00  0.00    -0.232 N 
ATOM     36  H12 UNL     1      12.394  16.472 121.594  1.00  0.00     0.174 HD
ATOM     37  H11 UNL     1      13.449  16.113 122.777  1.00  0.00     0.174 HD
ENDBRANCH  31  35
ENDBRANCH   1  28
BRANCH   1  38
HETATM   38  O1  UNL     1      12.176  10.081 121.135  1.00  0.00    -0.362 OA
ATOM     39  H1  UNL     1      12.575   9.223 121.048  1.00  0.00     0.213 HD
ENDBRANCH   1  38
BRANCH   2  40
HETATM   40  O2  UNL     1      12.670  11.636 118.974  1.00  0.00    -0.366 OA
ATOM     41  H2  UNL     1      12.724  12.580 119.067  1.00  0.00     0.212 HD
ENDBRANCH   2  40
BRANCH   6  42
HETATM   42  C5  UNL     1      16.055   8.452 119.517  1.00  0.00     0.202 C 
BRANCH  42  43
HETATM   43  O3  UNL     1      16.308   9.170 118.323  1.00  0.00    -0.390 OA
ATOM     44  H3  UNL     1      15.484   9.573 118.078  1.00  0.00     0.210 HD
ENDBRANCH  42  43
BRANCH  42  45
HETATM   45  C6  UNL     1      17.366   8.413 120.246  1.00  0.00     0.265 C 
BRANCH  45  46
HETATM   46  N6  UNL     1      17.515   7.310 121.144  1.00  0.00    -0.077 N 
ATOM     47  H63 UNL     1      16.722   7.264 121.783  1.00  0.00     0.274 HD
ATOM     48  H62 UNL     1      17.392   6.428 120.646  1.00  0.00     0.274 HD
ATOM     49  H61 UNL     1      18.392   7.303 121.665  1.00  0.00     0.274 HD
ENDBRANCH  45  46
ENDBRANCH  42  45
ENDBRANCH   6  42
TORSDOF 12
ENDMDL
MODEL 2
REMARK VINA RESULT: -6.327617198      2.587      4.683
REMARK  12 active torsions:
REMARK  status: ('A' for Active; 'I' for Inactive)
REMARK    1  A    between atoms: N1_1  and  C1_4 
REMARK    2  A    between atoms: N4_8  and  C2_9 
REMARK    3  A    between atoms: C2_9  and  O1_10 
REMARK    4  A    between atoms: C3_12  and  O2_13 
REMARK    5  A    between atoms: C4_18  and  C5_19 
REMARK    6  A    between atoms: C5_19  and  O3_20 
REMARK    7  A    between atoms: C5_19  and  C6_22 
REMARK    8  A    between atoms: C6_22  and  N6_23 
REMARK    9  A    between atoms: C7_30  and  N8_31 
REMARK   10  A    between atoms: N8_31  and  C8_33 
REMARK   11  A    between atoms: C9_36  and  N10_37 
REMARK   12  A    between atoms: C11_44  and  N12_45 
ROOT
HETATM    1  C2  UNL     1      13.200   9.078 120.186  1.00  0.00     0.266 C 
HETATM    2  C3  UNL     1      12.237   9.492 119.042  1.00  0.00     0.384 C 
HETATM    3  N5  UNL     1      13.067   9.337 117.833  1.00  0.00    -0.012 N 
ATOM      4  H51 UNL     1      12.531   9.408 116.969  1.00  0.00     0.283 HD
ATOM      5  H52 UNL     1      13.407   8.385 117.700  1.00  0.00     0.283 HD
HETATM    6  C4  UNL     1      14.123  10.303 117.920  1.00  0.00     0.418 C 
HETATM    7  N7  UNL     1      14.012  11.078 119.136  1.00  0.00    -0.018 N 
ATOM      8  H71 UNL     1      13.132  11.587 119.219  1.00  0.00     0.282 HD
ATOM      9  H72 UNL     1      14.624  11.894 119.160  1.00  0.00     0.282 HD
HETATM   10  C7  UNL     1      14.253  10.119 120.239  1.00  0.00     0.351 C 
ENDROOT
BRANCH  10  11
HETATM   11  N8  UNL     1      14.480  10.792 121.457  1.00  0.00    -0.342 N 
ATOM     12  H8  UNL     1      14.986  10.281 122.180  1.00  0.00     0.163 HD
BRANCH  11  13
HETATM   13  C8  UNL     1      14.072  12.108 121.767  1.00  0.00     0.157 A 
HETATM   14  N9  UNL     1      12.803  12.548 121.736  1.00  0.00    -0.174 N 
HETATM   15  C9  UNL     1      12.458  13.804 122.050  1.00  0.00     0.680 A 
ATOM     16  H9  UNL     1      12.069  11.897 121.461  1.00  0.00     0.186 HD
HETATM   17  N11 UNL     1      13.359  14.720 122.423  1.00  0.00    -0.154 N 
HETATM   18  C10 UNL     1      14.639  14.347 122.476  1.00  0.00     0.296 A 
ATOM     19  H11 UNL     1      13.077  15.671 122.659  1.00  0.00     0.187 HD
HETATM   20  O4  UNL     1      15.518  15.172 122.820  1.00  0.00    -0.265 OA
HETATM   21  C11 UNL     1      15.001  13.076 122.159  1.00  0.00     0.215 A 
BRANCH  15  22
HETATM   22  N10 UNL     1      11.187  14.125 121.984  1.00  0.00    -0.234 N 
ATOM     23 2H10 UNL     1      10.484  13.396 121.866  1.00  0.00     0.174 HD
ATOM     24 1H10 UNL     1      10.941  15.112 122.055  1.00  0.00     0.174 HD
ENDBRANCH  15  22
BRANCH  21  25
HETATM   25  N12 UNL     1      16.356  12.711 122.227  1.00  0.00    -0.106 N 
HETATM   26  O5  UNL     1      17.167  13.216 121.455  1.00  0.00    -0.531 OA
HETATM   27  O6  UNL     1      16.767  11.801 123.147  1.00  0.00    -0.531 OA
ENDBRANCH  21  25
ENDBRANCH  11  13
ENDBRANCH  10  11
BRANCH   1  28
HETATM   28  N4  UNL     1      12.461   8.843 121.387  1.00  0.00    -0.157 N 
HETATM   29  N3  UNL     1      11.461   9.532 121.927  1.00  0.00     0.014 NA
HETATM   30  N2  UNL     1      11.044   8.973 123.049  1.00  0.00    -0.114 N 
HETATM   31  C1  UNL     1      11.786   7.886 123.259  1.00  0.00     0.704 A 
ATOM     32  H2  UNL     1      10.291   9.312 123.646  1.00  0.00     0.203 HD
HETATM   33  N13 UNL     1      12.651   7.828 122.223  1.00  0.00    -0.113 N 
ATOM     34  H13 UNL     1      13.356   7.103 122.099  1.00  0.00     0.207 HD
BRANCH  31  35
HETATM   35  N1  UNL     1      11.734   7.031 124.232  1.00  0.00    -0.232 N 
ATOM     36  H12 UNL     1      10.920   6.868 124.824  1.00  0.00     0.174 HD
ATOM     37  H11 UNL     1      12.453   6.393 124.572  1.00  0.00     0.174 HD
ENDBRANCH  31  35
ENDBRANCH   1  28
BRANCH   1  38
HETATM   38  O1  UNL     1      13.700   7.850 119.725  1.00  0.00    -0.362 OA
ATOM     39  H1  UNL     1      13.720   7.870 118.775  1.00  0.00     0.213 HD
ENDBRANCH   1  38
BRANCH   2  40
HETATM   40  O2  UNL     1      11.185   8.592 119.052  1.00  0.00    -0.366 OA
ATOM     41  H2  UNL     1      11.255   8.071 118.260  1.00  0.00     0.212 HD
ENDBRANCH   2  40
BRANCH   6  42
HETATM   42  C5  UNL     1      14.333  11.115 116.683  1.00  0.00     0.202 C 
BRANCH  42  43
HETATM   43  O3  UNL     1      15.157  10.336 115.836  1.00  0.00    -0.390 OA
ATOM     44  H3  UNL     1      15.209  10.807 115.013  1.00  0.00     0.210 HD
ENDBRANCH  42  43
BRANCH  42  45
HETATM   45  C6  UNL     1      13.078  11.367 115.898  1.00  0.00     0.265 C 
BRANCH  45  46
HETATM   46  N6  UNL     1      12.187  12.315 116.490  1.00  0.00    -0.077 N 
ATOM     47  H63 UNL     1      12.229  12.255 117.507  1.00  0.00     0.274 HD
ATOM     48  H62 UNL     1      12.538  13.264 116.355  1.00  0.00     0.274 HD
ATOM     49  H61 UNL     1      11.220  12.246 116.170  1.00  0.00     0.274 HD
ENDBRANCH  45  46
ENDBRANCH  42  45
ENDBRANCH   6  42
TORSDOF 12
ENDMDL
MODEL 3
REMARK VINA RESULT: -6.314720245      2.513      5.673
REMARK  12 active torsions:
REMARK  status: ('A' for Active; 'I' for Inactive)
REMARK    1  A    between atoms: N1_1  and  C1_4 
REMARK    2  A    between atoms: N4_8  and  C2_9 
REMARK    3  A    between atoms: C2_9  and  O1_10 
REMARK    4  A    between atoms: C3_12  and  O2_13 
REMARK    5  A    between atoms: C4_18  and  C5_19 
REMARK    6  A    between atoms: C5_19  and  O3_20 
REMARK    7  A    between atoms: C5_19  and  C6_22 
REMARK    8  A    between atoms: C6_22  and  N6_23 
REMARK    9  A    between atoms: C7_30  and  N8_31 
REMARK   10  A    between atoms: N8_31  and  C8_33 
REMARK   11  A    between atoms: C9_36  and  N10_37 
REMARK   12  A    between atoms: C11_44  and  N12_45 
ROOT
HETATM    1  C2  UNL     1      14.126  11.149 122.565  1.00  0.00     0.266 C 
HETATM    2  C3  UNL     1      14.938  10.436 123.677  1.00  0.00     0.384 C 
HETATM    3  N5  UNL     1      16.264  11.074 123.586  1.00  0.00    -0.012 N 
ATOM      4  H51 UNL     1      16.876  10.838 124.366  1.00  0.00     0.283 HD
ATOM      5  H52 UNL     1      16.234  12.082 123.743  1.00  0.00     0.283 HD
HETATM    6  C4  UNL     1      16.817  10.721 122.311  1.00  0.00     0.418 C 
HETATM    7  N7  UNL     1      15.903   9.879 121.571  1.00  0.00    -0.018 N 
ATOM      8  H71 UNL     1      15.669   9.008 122.049  1.00  0.00     0.282 HD
ATOM      9  H72 UNL     1      16.318   9.452 120.742  1.00  0.00     0.282 HD
HETATM   10  C7  UNL     1      14.728  10.732 121.277  1.00  0.00     0.351 C 
ENDROOT
BRANCH  10  11
HETATM   11  N8  UNL     1      13.900  10.140 120.303  1.00  0.00    -0.342 N 
ATOM     12  H8  UNL     1      13.294   9.380 120.611  1.00  0.00     0.163 HD
BRANCH  11  13
HETATM   13  C8  UNL     1      13.833  10.501 118.939  1.00  0.00     0.157 A 
HETATM   14  N9  UNL     1      13.053  11.472 118.437  1.00  0.00    -0.174 N 
HETATM   15  C9  UNL     1      13.028  11.790 117.135  1.00  0.00     0.680 A 
ATOM     16  H9  UNL     1      12.451  11.992 119.075  1.00  0.00     0.186 HD
HETATM   17  N11 UNL     1      13.787  11.159 116.232  1.00  0.00    -0.154 N 
HETATM   18  C10 UNL     1      14.587  10.183 116.665  1.00  0.00     0.296 A 
ATOM     19  H11 UNL     1      13.755  11.416 115.245  1.00  0.00     0.187 HD
HETATM   20  O4  UNL     1      15.316   9.565 115.854  1.00  0.00    -0.265 OA
HETATM   21  C11 UNL     1      14.620   9.851 117.983  1.00  0.00     0.215 A 
BRANCH  15  22
HETATM   22  N10 UNL     1      12.227  12.757 116.756  1.00  0.00    -0.234 N 
ATOM     23 2H10 UNL     1      11.611  13.204 117.435  1.00  0.00     0.174 HD
ATOM     24 1H10 UNL     1      12.246  13.035 115.775  1.00  0.00     0.174 HD
ENDBRANCH  15  22
BRANCH  21  25
HETATM   25  N12 UNL     1      15.475   8.822 118.410  1.00  0.00    -0.106 N 
HETATM   26  O5  UNL     1      15.076   7.659 118.425  1.00  0.00    -0.531 OA
HETATM   27  O6  UNL     1      16.740   9.112 118.806  1.00  0.00    -0.531 OA
ENDBRANCH  21  25
ENDBRANCH  11  13
ENDBRANCH  10  11
BRANCH   1  28
HETATM   28  N4  UNL     1      12.729  10.895 122.739  1.00  0.00    -0.157 N 
HETATM   29  N3  UNL     1      12.054   9.752 122.693  1.00  0.00     0.014 NA
HETATM   30  N2  UNL     1      10.766   9.946 122.916  1.00  0.00    -0.114 N 
HETATM   31  C1  UNL     1      10.582  11.251 123.115  1.00  0.00     0.704 A 
ATOM     32  H2  UNL     1      10.043   9.228 122.932  1.00  0.00     0.203 HD
HETATM   33  N13 UNL     1      11.805  11.814 123.000  1.00  0.00    -0.113 N 
ATOM     34  H13 UNL     1      11.994  12.810 123.100  1.00  0.00     0.207 HD
BRANCH  31  35
HETATM   35  N1  UNL     1       9.488  11.898 123.367  1.00  0.00    -0.232 N 
ATOM     36  H12 UNL     1       8.589  11.465 123.578  1.00  0.00     0.174 HD
ATOM     37  H11 UNL     1       9.324  12.904 123.403  1.00  0.00     0.174 HD
ENDBRANCH  31  35
ENDBRANCH   1  28
BRANCH   1  38
HETATM   38  O1  UNL     1      14.368  12.505 122.842  1.00  0.00    -0.362 OA
ATOM     39  H1  UNL     1      15.209  12.742 122.468  1.00  0.00     0.213 HD
ENDBRANCH   1  38
BRANCH   2  40
HETATM   40  O2  UNL     1      14.318  10.724 124.881  1.00  0.00    -0.366 OA
ATOM     41  H2  UNL     1      14.513  10.007 125.474  1.00  0.00     0.212 HD
ENDBRANCH   2  40
BRANCH   6  42
HETATM   42  C5  UNL     1      18.224  10.222 122.355  1.00  0.00     0.202 C 
BRANCH  42  43
HETATM   43  O3  UNL     1      18.608  10.011 121.009  1.00  0.00    -0.390 OA
ATOM     44  H3  UNL     1      19.173  10.738 120.778  1.00  0.00     0.210 HD
ENDBRANCH  42  43
BRANCH  42  45
HETATM   45  C6  UNL     1      19.207  11.218 122.899  1.00  0.00     0.265 C 
BRANCH  45  46
HETATM   46  N6  UNL     1      19.260  12.454 122.183  1.00  0.00    -0.077 N 
ATOM     47  H63 UNL     1      19.773  12.336 121.309  1.00  0.00     0.274 HD
ATOM     48  H62 UNL     1      18.339  12.692 121.815  1.00  0.00     0.274 HD
ATOM     49  H61 UNL     1      19.642  13.237 122.714  1.00  0.00     0.274 HD
ENDBRANCH  45  46
ENDBRANCH  42  45
ENDBRANCH   6  42
TORSDOF 12
ENDMDL
MODEL 4
REMARK VINA RESULT: -6.228828964      3.448      5.623
REMARK  12 active torsions:
REMARK  status: ('A' for Active; 'I' for Inactive)
REMARK    1  A    between atoms: N1_1  and  C1_4 
REMARK    2  A    between atoms: N4_8  and  C2_9 
REMARK    3  A    between atoms: C2_9  and  O1_10 
REMARK    4  A    between atoms: C3_12  and  O2_13 
REMARK    5  A    between atoms: C4_18  and  C5_19 
REMARK    6  A    between atoms: C5_19  and  O3_20 
REMARK    7  A    between atoms: C5_19  and  C6_22 
REMARK    8  A    between atoms: C6_22  and  N6_23 
REMARK    9  A    between atoms: C7_30  and  N8_31 
REMARK   10  A    between atoms: N8_31  and  C8_33 
REMARK   11  A    between atoms: C9_36  and  N10_37 
REMARK   12  A    between atoms: C11_44  and  N12_45 
ROOT
HETATM    1  C2  UNL     1      13.019  10.679 122.239  1.00  0.00     0.266 C 
HETATM    2  C3  UNL     1      11.646   9.962 122.163  1.00  0.00     0.384 C 
HETATM    3  N5  UNL     1      11.914   8.656 122.793  1.00  0.00    -0.012 N 
ATOM      4  H51 UNL     1      11.067   8.120 122.978  1.00  0.00     0.283 HD
ATOM      5  H52 UNL     1      12.233   8.736 123.759  1.00  0.00     0.283 HD
HETATM    6  C4  UNL     1      12.844   7.963 121.950  1.00  0.00     0.418 C 
HETATM    7  N7  UNL     1      13.190   8.767 120.798  1.00  0.00    -0.018 N 
ATOM      8  H71 UNL     1      12.389   9.019 120.219  1.00  0.00     0.282 HD
ATOM      9  H72 UNL     1      13.701   8.254 120.079  1.00  0.00     0.282 HD
HETATM   10  C7  UNL     1      13.928   9.933 121.337  1.00  0.00     0.351 C 
ENDROOT
BRANCH  10  11
HETATM   11  N8  UNL     1      14.589  10.635 120.309  1.00  0.00    -0.342 N 
ATOM     12  H8  UNL     1      15.429  11.152 120.568  1.00  0.00     0.163 HD
BRANCH  11  13
HETATM   13  C8  UNL     1      14.195  10.689 118.953  1.00  0.00     0.157 A 
HETATM   14  N9  UNL     1      13.288  11.541 118.448  1.00  0.00    -0.174 N 
HETATM   15  C9  UNL     1      12.951  11.566 117.151  1.00  0.00     0.680 A 
ATOM     16  H9  UNL     1      12.834  12.199 119.081  1.00  0.00     0.186 HD
HETATM   17  N11 UNL     1      13.501  10.738 116.256  1.00  0.00    -0.154 N 
HETATM   18  C10 UNL     1      14.412   9.865 116.693  1.00  0.00     0.296 A 
ATOM     19  H11 UNL     1      13.233  10.772 115.272  1.00  0.00     0.187 HD
HETATM   20  O4  UNL     1      14.953   9.070 115.889  1.00  0.00    -0.265 OA
HETATM   21  C11 UNL     1      14.760   9.831 118.006  1.00  0.00     0.215 A 
BRANCH  15  22
HETATM   22  N10 UNL     1      12.052  12.441 116.768  1.00  0.00    -0.234 N 
ATOM     23 2H10 UNL     1      11.586  12.331 115.868  1.00  0.00     0.174 HD
ATOM     24 1H10 UNL     1      11.847  13.218 117.395  1.00  0.00     0.174 HD
ENDBRANCH  15  22
BRANCH  21  25
HETATM   25  N12 UNL     1      15.724   8.904 118.435  1.00  0.00    -0.106 N 
HETATM   26  O5  UNL     1      16.909   9.228 118.483  1.00  0.00    -0.531 OA
HETATM   27  O6  UNL     1      15.347   7.651 118.797  1.00  0.00    -0.531 OA
ENDBRANCH  21  25
ENDBRANCH  11  13
ENDBRANCH  10  11
BRANCH   1  28
HETATM   28  N4  UNL     1      12.857  12.076 121.983  1.00  0.00    -0.157 N 
HETATM   29  N3  UNL     1      12.029  12.706 121.156  1.00  0.00     0.014 NA
HETATM   30  N2  UNL     1      12.190  14.015 121.222  1.00  0.00    -0.114 N 
HETATM   31  C1  UNL     1      13.148  14.262 122.115  1.00  0.00     0.704 A 
ATOM     32  H2  UNL     1      11.674  14.712 120.686  1.00  0.00     0.203 HD
HETATM   33  N13 UNL     1      13.543  13.052 122.568  1.00  0.00    -0.113 N 
ATOM     34  H13 UNL     1      14.271  12.907 123.267  1.00  0.00     0.207 HD
BRANCH  31  35
HETATM   35  N1  UNL     1      13.637  15.397 122.504  1.00  0.00    -0.232 N 
ATOM     36  H12 UNL     1      13.092  16.243 122.669  1.00  0.00     0.174 HD
ATOM     37  H11 UNL     1      14.604  15.649 122.709  1.00  0.00     0.174 HD
ENDBRANCH  31  35
ENDBRANCH   1  28
BRANCH   1  38
HETATM   38  O1  UNL     1      13.368  10.512 123.589  1.00  0.00    -0.362 OA
ATOM     39  H1  UNL     1      13.049   9.666 123.880  1.00  0.00     0.213 HD
ENDBRANCH   1  38
BRANCH   2  40
HETATM   40  O2  UNL     1      10.754  10.712 122.911  1.00  0.00    -0.366 OA
ATOM     41  H2  UNL     1      10.438  10.153 123.611  1.00  0.00     0.212 HD
ENDBRANCH   2  40
BRANCH   6  42
HETATM   42  C5  UNL     1      12.471   6.551 121.633  1.00  0.00     0.202 C 
BRANCH  42  43
HETATM   43  O3  UNL     1      11.510   6.172 122.601  1.00  0.00    -0.390 OA
ATOM     44  H3  UNL     1      10.740   5.900 122.115  1.00  0.00     0.210 HD
ENDBRANCH  42  43
BRANCH  42  45
HETATM   45  C6  UNL     1      11.790   6.384 120.306  1.00  0.00     0.265 C 
BRANCH  45  46
HETATM   46  N6  UNL     1      10.363   6.462 120.355  1.00  0.00    -0.077 N 
ATOM     47  H63 UNL     1      10.034   6.334 121.312  1.00  0.00     0.274 HD
ATOM     48  H62 UNL     1      10.054   7.421 120.190  1.00  0.00     0.274 HD
ATOM     49  H61 UNL     1       9.880   5.821 119.725  1.00  0.00     0.274 HD
ENDBRANCH  45  46
ENDBRANCH  42  45
ENDBRANCH   6  42
TORSDOF 12
ENDMDL
MODEL 5
REMARK VINA RESULT: -6.176302553      3.461      6.487
REMARK  12 active torsions:
REMARK  status: ('A' for Active; 'I' for Inactive)
REMARK    1  A    between atoms: N1_1  and  C1_4 
REMARK    2  A    between atoms: N4_8  and  C2_9 
REMARK    3  A    between atoms: C2_9  and  O1_10 
REMARK    4  A    between atoms: C3_12  and  O2_13 
REMARK    5  A    between atoms: C4_18  and  C5_19 
REMARK    6  A    between atoms: C5_19  and  O3_20 
REMARK    7  A    between atoms: C5_19  and  C6_22 
REMARK    8  A    between atoms: C6_22  and  N6_23 
REMARK    9  A    between atoms: C7_30  and  N8_31 
REMARK   10  A    between atoms: N8_31  and  C8_33 
REMARK   11  A    between atoms: C9_36  and  N10_37 
REMARK   12  A    between atoms: C11_44  and  N12_45 
ROOT
HETATM    1  C2  UNL     1      17.998  11.794 124.954  1.00  0.00     0.266 C 
HETATM    2  C3  UNL     1      17.508  10.659 125.891  1.00  0.00     0.384 C 
HETATM    3  N5  UNL     1      18.146  10.987 127.178  1.00  0.00    -0.012 N 
ATOM      4  H51 UNL     1      17.791  10.430 127.954  1.00  0.00     0.283 HD
ATOM      5  H52 UNL     1      17.874  11.902 127.538  1.00  0.00     0.283 HD
HETATM    6  C4  UNL     1      19.562  10.855 126.994  1.00  0.00     0.418 C 
HETATM    7  N7  UNL     1      19.868  10.454 125.638  1.00  0.00    -0.018 N 
ATOM      8  H71 UNL     1      19.445   9.566 125.368  1.00  0.00     0.282 HD
ATOM      9  H72 UNL     1      20.838  10.170 125.503  1.00  0.00     0.282 HD
HETATM   10  C7  UNL     1      19.456  11.594 124.786  1.00  0.00     0.351 C 
ENDROOT
BRANCH  10  11
HETATM   11  N8  UNL     1      19.977  11.469 123.483  1.00  0.00    -0.342 N 
ATOM     12  H8  UNL     1      19.470  10.863 122.838  1.00  0.00     0.163 HD
BRANCH  11  13
HETATM   13  C8  UNL     1      21.137  12.104 122.987  1.00  0.00     0.157 A 
HETATM   14  N9  UNL     1      22.398  11.726 123.257  1.00  0.00    -0.174 N 
HETATM   15  C9  UNL     1      23.471  12.351 122.756  1.00  0.00     0.680 A 
ATOM     16  H9  UNL     1      22.544  10.926 123.872  1.00  0.00     0.186 HD
HETATM   17  N11 UNL     1      23.366  13.406 121.941  1.00  0.00    -0.154 N 
HETATM   18  C10 UNL     1      22.140  13.834 121.631  1.00  0.00     0.296 A 
ATOM     19  H11 UNL     1      24.196  13.869 121.568  1.00  0.00     0.187 HD
HETATM   20  O4  UNL     1      21.995  14.819 120.870  1.00  0.00    -0.265 OA
HETATM   21  C11 UNL     1      21.044  13.208 122.134  1.00  0.00     0.215 A 
BRANCH  15  22
HETATM   22  N10 UNL     1      24.656  11.895 123.087  1.00  0.00    -0.234 N 
ATOM     23 2H10 UNL     1      25.414  11.905 122.405  1.00  0.00     0.174 HD
ATOM     24 1H10 UNL     1      24.782  11.538 124.034  1.00  0.00     0.174 HD
ENDBRANCH  15  22
BRANCH  21  25
HETATM   25  N12 UNL     1      19.767  13.678 121.788  1.00  0.00    -0.106 N 
HETATM   26  O5  UNL     1      19.210  13.255 120.776  1.00  0.00    -0.531 OA
HETATM   27  O6  UNL     1      19.148  14.598 122.570  1.00  0.00    -0.531 OA
ENDBRANCH  21  25
ENDBRANCH  11  13
ENDBRANCH  10  11
BRANCH   1  28
HETATM   28  N4  UNL     1      17.207  11.823 123.764  1.00  0.00    -0.157 N 
HETATM   29  N3  UNL     1      16.900  10.848 122.915  1.00  0.00     0.014 NA
HETATM   30  N2  UNL     1      16.132  11.289 121.934  1.00  0.00    -0.114 N 
HETATM   31  C1  UNL     1      15.923  12.590 122.138  1.00  0.00     0.704 A 
ATOM     32  H2  UNL     1      15.765  10.735 121.162  1.00  0.00     0.203 HD
HETATM   33  N13 UNL     1      16.596  12.894 123.269  1.00  0.00    -0.113 N 
ATOM     34  H13 UNL     1      16.631  13.823 123.688  1.00  0.00     0.207 HD
BRANCH  31  35
HETATM   35  N1  UNL     1      15.233  13.431 121.434  1.00  0.00    -0.232 N 
ATOM     36  H12 UNL     1      14.653  14.177 121.818  1.00  0.00     0.174 HD
ATOM     37  H11 UNL     1      15.143  13.507 120.421  1.00  0.00     0.174 HD
ENDBRANCH  31  35
ENDBRANCH   1  28
BRANCH   1  38
HETATM   38  O1  UNL     1      17.710  12.946 125.706  1.00  0.00    -0.362 OA
ATOM     39  H1  UNL     1      18.076  12.836 126.576  1.00  0.00     0.213 HD
ENDBRANCH   1  38
BRANCH   2  40
HETATM   40  O2  UNL     1      16.129  10.763 125.968  1.00  0.00    -0.366 OA
ATOM     41  H2  UNL     1      15.867  10.381 126.797  1.00  0.00     0.212 HD
ENDBRANCH   2  40
BRANCH   6  42
HETATM   42  C5  UNL     1      20.260  10.060 128.049  1.00  0.00     0.202 C 
BRANCH  42  43
HETATM   43  O3  UNL     1      21.233  10.921 128.610  1.00  0.00    -0.390 OA
ATOM     44  H3  UNL     1      20.752  11.611 129.052  1.00  0.00     0.210 HD
ENDBRANCH  42  43
BRANCH  42  45
HETATM   45  C6  UNL     1      19.376   9.657 129.193  1.00  0.00     0.265 C 
BRANCH  45  46
HETATM   46  N6  UNL     1      20.073   9.149 130.334  1.00  0.00    -0.077 N 
ATOM     47  H63 UNL     1      20.140   8.133 130.285  1.00  0.00     0.274 HD
ATOM     48  H62 UNL     1      21.062   9.393 130.283  1.00  0.00     0.274 HD
ATOM     49  H61 UNL     1      19.683   9.436 131.232  1.00  0.00     0.274 HD
ENDBRANCH  45  46
ENDBRANCH  42  45
ENDBRANCH   6  42
TORSDOF 12
ENDMDL
