MODEL 1
REMARK VINA RESULT: -5.247591969      0.000      0.000
REMARK  2 active torsions:
REMARK  status: ('A' for Active; 'I' for Inactive)
REMARK       I    between atoms: C2_2  and  N1_4 
REMARK    1  A    between atoms: N1_4  and  O2_5 
REMARK    2  A    between atoms: N1_4  and  C3_7 
ROOT
HETATM    1  C3  UNL     1      20.008  29.393   9.554  1.00  0.00     0.135 C 
HETATM    2  C4  UNL     1      20.532  30.727   9.180  1.00  0.00     0.029 C 
HETATM    3  C5  UNL     1      20.878  31.618  10.342  1.00  0.00     0.002 C 
HETATM    4  C6  UNL     1      21.945  31.124  11.233  1.00  0.00     0.000 C 
HETATM    5  C7  UNL     1      23.129  30.526  10.491  1.00  0.00     0.000 C 
HETATM    6  C8  UNL     1      22.983  29.025  10.615  1.00  0.00     0.001 C 
HETATM    7  C9  UNL     1      22.384  28.545   9.298  1.00  0.00     0.021 C 
HETATM    8  C10 UNL     1      20.929  28.232   9.400  1.00  0.00     0.118 C 
HETATM    9  C11 UNL     1      20.784  27.327  10.573  1.00  0.00     0.066 C 
HETATM   10  N2  UNL     1      20.665  26.638  11.494  1.00  0.00    -0.197 NA
ENDROOT
BRANCH   1  11
HETATM   11  N1  UNL     1      18.845  29.100   8.697  1.00  0.00    -0.223 N 
HETATM   12  C2  UNL     1      17.613  28.726   9.294  1.00  0.00     0.239 C 
HETATM   13  C1  UNL     1      16.424  28.437   8.462  1.00  0.00     0.119 C 
HETATM   14  O1  UNL     1      17.530  28.639  10.544  1.00  0.00    -0.272 OA
BRANCH  11  15
HETATM   15  O2  UNL     1      18.906  29.181   7.358  1.00  0.00    -0.284 OA
ATOM     16  H2  UNL     1      19.746  29.367   6.956  1.00  0.00     0.245 HD
ENDBRANCH  11  15
ENDBRANCH   1  11
TORSDOF 2
ENDMDL
MODEL 2
REMARK VINA RESULT: -5.142070399      1.295      3.041
REMARK  2 active torsions:
REMARK  status: ('A' for Active; 'I' for Inactive)
REMARK       I    between atoms: C2_2  and  N1_4 
REMARK    1  A    between atoms: N1_4  and  O2_5 
REMARK    2  A    between atoms: N1_4  and  C3_7 
ROOT
HETATM    1  C3  UNL     1      20.076  29.138   9.642  1.00  0.00     0.135 C 
HETATM    2  C4  UNL     1      21.042  28.090  10.047  1.00  0.00     0.029 C 
HETATM    3  C5  UNL     1      22.298  28.035   9.221  1.00  0.00     0.002 C 
HETATM    4  C6  UNL     1      23.144  29.243   9.260  1.00  0.00     0.000 C 
HETATM    5  C7  UNL     1      23.301  29.831  10.652  1.00  0.00     0.000 C 
HETATM    6  C8  UNL     1      22.394  31.042  10.698  1.00  0.00     0.001 C 
HETATM    7  C9  UNL     1      21.131  30.600  11.426  1.00  0.00     0.021 C 
HETATM    8  C10 UNL     1      19.985  30.350  10.504  1.00  0.00     0.118 C 
HETATM    9  C11 UNL     1      19.876  31.560   9.645  1.00  0.00     0.066 C 
HETATM   10  N2  UNL     1      19.799  32.492   8.964  1.00  0.00    -0.197 NA
ENDROOT
BRANCH   1  11
HETATM   11  N1  UNL     1      18.728  28.543   9.639  1.00  0.00    -0.223 N 
HETATM   12  C2  UNL     1      17.738  29.058   8.762  1.00  0.00     0.239 C 
HETATM   13  C1  UNL     1      16.378  28.475   8.727  1.00  0.00     0.119 C 
HETATM   14  O1  UNL     1      18.019  30.021   8.005  1.00  0.00    -0.272 OA
BRANCH  11  15
HETATM   15  O2  UNL     1      18.399  27.517  10.440  1.00  0.00    -0.284 OA
ATOM     16  H2  UNL     1      19.090  26.937  10.737  1.00  0.00     0.245 HD
ENDBRANCH  11  15
ENDBRANCH   1  11
TORSDOF 2
ENDMDL
MODEL 3
REMARK VINA RESULT: -4.864393205      1.044      1.390
REMARK  2 active torsions:
REMARK  status: ('A' for Active; 'I' for Inactive)
REMARK       I    between atoms: C2_2  and  N1_4 
REMARK    1  A    between atoms: N1_4  and  O2_5 
REMARK    2  A    between atoms: N1_4  and  C3_7 
ROOT
HETATM    1  C3  UNL     1      19.976  29.381  10.091  1.00  0.00     0.135 C 
HETATM    2  C4  UNL     1      20.038  30.609   9.265  1.00  0.00     0.029 C 
HETATM    3  C5  UNL     1      20.404  31.859  10.018  1.00  0.00     0.002 C 
HETATM    4  C6  UNL     1      21.740  31.861  10.645  1.00  0.00     0.000 C 
HETATM    5  C7  UNL     1      22.831  31.288   9.756  1.00  0.00     0.000 C 
HETATM    6  C8  UNL     1      23.108  29.896  10.280  1.00  0.00     0.001 C 
HETATM    7  C9  UNL     1      22.362  28.938   9.359  1.00  0.00     0.021 C 
HETATM    8  C10 UNL     1      21.101  28.414   9.960  1.00  0.00     0.118 C 
HETATM    9  C11 UNL     1      21.471  27.900  11.307  1.00  0.00     0.066 C 
HETATM   10  N2  UNL     1      21.750  27.515  12.361  1.00  0.00    -0.197 NA
ENDROOT
BRANCH   1  11
HETATM   11  N1  UNL     1      18.760  28.637   9.716  1.00  0.00    -0.223 N 
HETATM   12  C2  UNL     1      17.788  29.257   8.887  1.00  0.00     0.239 C 
HETATM   13  C1  UNL     1      16.563  28.533   8.484  1.00  0.00     0.119 C 
HETATM   14  O1  UNL     1      17.971  30.435   8.492  1.00  0.00    -0.272 OA
BRANCH  11  15
HETATM   15  O2  UNL     1      18.537  27.379  10.128  1.00  0.00    -0.284 OA
ATOM     16  H2  UNL     1      19.259  26.894  10.509  1.00  0.00     0.245 HD
ENDBRANCH  11  15
ENDBRANCH   1  11
TORSDOF 2
ENDMDL
MODEL 4
REMARK VINA RESULT: -4.715683625      3.377      5.300
REMARK  2 active torsions:
REMARK  status: ('A' for Active; 'I' for Inactive)
REMARK       I    between atoms: C2_2  and  N1_4 
REMARK    1  A    between atoms: N1_4  and  O2_5 
REMARK    2  A    between atoms: N1_4  and  C3_7 
ROOT
HETATM    1  C3  UNL     1      22.245  30.806  10.798  1.00  0.00     0.135 C 
HETATM    2  C4  UNL     1      22.950  29.573  11.220  1.00  0.00     0.029 C 
HETATM    3  C5  UNL     1      22.117  28.614  12.026  1.00  0.00     0.002 C 
HETATM    4  C6  UNL     1      20.938  28.054  11.338  1.00  0.00     0.000 C 
HETATM    5  C7  UNL     1      21.211  27.639   9.902  1.00  0.00     0.000 C 
HETATM    6  C8  UNL     1      20.614  28.724   9.032  1.00  0.00     0.001 C 
HETATM    7  C9  UNL     1      21.774  29.616   8.608  1.00  0.00     0.021 C 
HETATM    8  C10 UNL     1      21.831  30.898   9.370  1.00  0.00     0.118 C 
HETATM    9  C11 UNL     1      20.466  31.486   9.288  1.00  0.00     0.066 C 
HETATM   10  N2  UNL     1      19.403  31.938   9.242  1.00  0.00    -0.197 NA
ENDROOT
BRANCH   1  11
HETATM   11  N1  UNL     1      23.144  31.951  11.031  1.00  0.00    -0.223 N 
HETATM   12  C2  UNL     1      23.938  31.987  12.207  1.00  0.00     0.239 C 
HETATM   13  C1  UNL     1      24.858  33.117  12.465  1.00  0.00     0.119 C 
HETATM   14  O1  UNL     1      23.859  31.049  13.039  1.00  0.00    -0.272 OA
BRANCH  11  15
HETATM   15  O2  UNL     1      23.244  32.968  10.162  1.00  0.00    -0.284 OA
ATOM     16  H2  UNL     1      23.385  32.766   9.245  1.00  0.00     0.245 HD
ENDBRANCH  11  15
ENDBRANCH   1  11
TORSDOF 2
ENDMDL
MODEL 5
REMARK VINA RESULT: -4.610240240      2.005      3.444
REMARK  2 active torsions:
REMARK  status: ('A' for Active; 'I' for Inactive)
REMARK       I    between atoms: C2_2  and  N1_4 
REMARK    1  A    between atoms: N1_4  and  O2_5 
REMARK    2  A    between atoms: N1_4  and  C3_7 
ROOT
HETATM    1  C3  UNL     1      21.145  29.491  10.477  1.00  0.00     0.135 C 
HETATM    2  C4  UNL     1      21.581  29.350  11.886  1.00  0.00     0.029 C 
HETATM    3  C5  UNL     1      23.068  29.226  12.077  1.00  0.00     0.002 C 
HETATM    4  C6  UNL     1      23.870  30.383  11.638  1.00  0.00     0.000 C 
HETATM    5  C7  UNL     1      23.269  31.724  12.027  1.00  0.00     0.000 C 
HETATM    6  C8  UNL     1      22.641  32.282  10.768  1.00  0.00     0.001 C 
HETATM    7  C9  UNL     1      21.148  31.995  10.874  1.00  0.00     0.021 C 
HETATM    8  C10 UNL     1      20.715  30.845  10.029  1.00  0.00     0.118 C 
HETATM    9  C11 UNL     1      21.253  31.110   8.667  1.00  0.00     0.066 C 
HETATM   10  N2  UNL     1      21.683  31.303   7.612  1.00  0.00    -0.197 NA
ENDROOT
BRANCH   1  11
HETATM   11  N1  UNL     1      19.983  28.609  10.266  1.00  0.00    -0.223 N 
HETATM   12  C2  UNL     1      20.188  27.221  10.050  1.00  0.00     0.239 C 
HETATM   13  C1  UNL     1      19.042  26.308   9.846  1.00  0.00     0.119 C 
HETATM   14  O1  UNL     1      21.358  26.763  10.030  1.00  0.00    -0.272 OA
BRANCH  11  15
HETATM   15  O2  UNL     1      18.723  29.073  10.278  1.00  0.00    -0.284 OA
ATOM     16  H2  UNL     1      18.575  29.982  10.048  1.00  0.00     0.245 HD
ENDBRANCH  11  15
ENDBRANCH   1  11
TORSDOF 2
ENDMDL
