MODEL 1
REMARK VINA RESULT: -5.566032065      0.000      0.000
REMARK  4 active torsions:
REMARK  status: ('A' for Active; 'I' for Inactive)
REMARK    1  A    between atoms: C2_2  and  C3_3 
REMARK    2  A    between atoms: C3_3  and  N1_4 
REMARK    3  A    between atoms: C4_9  and  N5_10 
REMARK    4  A    between atoms: N5_10  and  C5_12 
ROOT
HETATM    1  N1  UNL     1     -28.532  46.798 -24.431  1.00  0.00    -0.105 N 
HETATM    2  N2  UNL     1     -27.207  46.775 -24.406  1.00  0.00     0.009 NA
HETATM    3  N3  UNL     1     -26.791  46.692 -25.659  1.00  0.00     0.007 NA
HETATM    4  N4  UNL     1     -27.853  46.663 -26.456  1.00  0.00    -0.116 N 
ATOM      5  H4  UNL     1     -27.828  46.600 -27.474  1.00  0.00     0.202 HD
HETATM    6  C4  UNL     1     -28.979  46.730 -25.695  1.00  0.00     0.710 A 
ENDROOT
BRANCH   6   7
HETATM    7  N5  UNL     1     -30.325  46.728 -26.150  1.00  0.00    -0.200 N 
ATOM      8  H5  UNL     1     -30.691  47.548 -26.634  1.00  0.00     0.183 HD
BRANCH   7   9
HETATM    9  C5  UNL     1     -31.168  45.611 -25.946  1.00  0.00     0.096 C 
HETATM   10  C6  UNL     1     -31.262  44.657 -26.846  1.00  0.00     0.030 C 
ENDBRANCH   7   9
ENDBRANCH   6   7
BRANCH   1  11
HETATM   11  C3  UNL     1     -29.383  46.884 -23.265  1.00  0.00     0.192 C 
BRANCH  11  12
HETATM   12  C2  UNL     1     -29.045  48.125 -22.501  1.00  0.00    -0.015 C 
HETATM   13  C1  UNL     1     -28.770  48.094 -21.201  1.00  0.00     0.008 C 
ENDBRANCH  11  12
ENDBRANCH   1  11
TORSDOF 4
ENDMDL
MODEL 2
REMARK VINA RESULT: -4.999511993      1.144      4.104
REMARK  4 active torsions:
REMARK  status: ('A' for Active; 'I' for Inactive)
REMARK    1  A    between atoms: C2_2  and  C3_3 
REMARK    2  A    between atoms: C3_3  and  N1_4 
REMARK    3  A    between atoms: C4_9  and  N5_10 
REMARK    4  A    between atoms: N5_10  and  C5_12 
ROOT
HETATM    1  N1  UNL     1     -29.411  46.857 -25.233  1.00  0.00    -0.105 N 
HETATM    2  N2  UNL     1     -28.969  47.339 -26.387  1.00  0.00     0.009 NA
HETATM    3  N3  UNL     1     -27.815  47.939 -26.147  1.00  0.00     0.007 NA
HETATM    4  N4  UNL     1     -27.544  47.831 -24.852  1.00  0.00    -0.116 N 
ATOM      5  H4  UNL     1     -26.716  48.204 -24.387  1.00  0.00     0.202 HD
HETATM    6  C4  UNL     1     -28.549  47.142 -24.244  1.00  0.00     0.710 A 
ENDROOT
BRANCH   6   7
HETATM    7  N5  UNL     1     -28.652  46.807 -22.867  1.00  0.00    -0.200 N 
ATOM      8  H5  UNL     1     -28.717  45.826 -22.595  1.00  0.00     0.183 HD
BRANCH   7   9
HETATM    9  C5  UNL     1     -28.665  47.806 -21.867  1.00  0.00     0.096 C 
HETATM   10  C6  UNL     1     -29.782  48.411 -21.526  1.00  0.00     0.030 C 
ENDBRANCH   7   9
ENDBRANCH   6   7
BRANCH   1  11
HETATM   11  C3  UNL     1     -30.646  46.127 -25.057  1.00  0.00     0.192 C 
BRANCH  11  12
HETATM   12  C2  UNL     1     -31.182  45.737 -26.399  1.00  0.00    -0.015 C 
HETATM   13  C1  UNL     1     -31.225  44.470 -26.795  1.00  0.00     0.008 C 
ENDBRANCH  11  12
ENDBRANCH   1  11
TORSDOF 4
ENDMDL
MODEL 3
REMARK VINA RESULT: -4.902125912      1.133      4.080
REMARK  4 active torsions:
REMARK  status: ('A' for Active; 'I' for Inactive)
REMARK    1  A    between atoms: C2_2  and  C3_3 
REMARK    2  A    between atoms: C3_3  and  N1_4 
REMARK    3  A    between atoms: C4_9  and  N5_10 
REMARK    4  A    between atoms: N5_10  and  C5_12 
ROOT
HETATM    1  N1  UNL     1     -29.053  46.637 -24.628  1.00  0.00    -0.105 N 
HETATM    2  N2  UNL     1     -28.126  46.805 -25.561  1.00  0.00     0.009 NA
HETATM    3  N3  UNL     1     -26.969  46.971 -24.942  1.00  0.00     0.007 NA
HETATM    4  N4  UNL     1     -27.177  46.906 -23.632  1.00  0.00    -0.116 N 
ATOM      5  H4  UNL     1     -26.460  47.002 -22.913  1.00  0.00     0.202 HD
HETATM    6  C4  UNL     1     -28.502  46.693 -23.404  1.00  0.00     0.710 A 
ENDROOT
BRANCH   6   7
HETATM    7  N5  UNL     1     -29.147  46.560 -22.145  1.00  0.00    -0.200 N 
ATOM      8  H5  UNL     1     -29.564  45.665 -21.888  1.00  0.00     0.183 HD
BRANCH   7   9
HETATM    9  C5  UNL     1     -29.225  47.645 -21.242  1.00  0.00     0.096 C 
HETATM   10  C6  UNL     1     -29.970  48.696 -21.505  1.00  0.00     0.030 C 
ENDBRANCH   7   9
ENDBRANCH   6   7
BRANCH   1  11
HETATM   11  C3  UNL     1     -30.459  46.423 -24.884  1.00  0.00     0.192 C 
BRANCH  11  12
HETATM   12  C2  UNL     1     -30.632  45.907 -26.278  1.00  0.00    -0.015 C 
HETATM   13  C1  UNL     1     -31.596  45.048 -26.592  1.00  0.00     0.008 C 
ENDBRANCH  11  12
ENDBRANCH   1  11
TORSDOF 4
ENDMDL
MODEL 4
REMARK VINA RESULT: -4.257597787      1.803      3.097
REMARK  4 active torsions:
REMARK  status: ('A' for Active; 'I' for Inactive)
REMARK    1  A    between atoms: C2_2  and  C3_3 
REMARK    2  A    between atoms: C3_3  and  N1_4 
REMARK    3  A    between atoms: C4_9  and  N5_10 
REMARK    4  A    between atoms: N5_10  and  C5_12 
ROOT
HETATM    1  N1  UNL     1     -28.149  46.691 -23.589  1.00  0.00    -0.105 N 
HETATM    2  N2  UNL     1     -27.704  46.633 -22.342  1.00  0.00     0.009 NA
HETATM    3  N3  UNL     1     -28.754  46.726 -21.544  1.00  0.00     0.007 NA
HETATM    4  N4  UNL     1     -29.844  46.841 -22.292  1.00  0.00    -0.116 N 
ATOM      5  H4  UNL     1     -30.798  46.930 -21.940  1.00  0.00     0.202 HD
HETATM    6  C4  UNL     1     -29.485  46.821 -23.605  1.00  0.00     0.710 A 
ENDROOT
BRANCH   6   7
HETATM    7  N5  UNL     1     -30.344  46.918 -24.733  1.00  0.00    -0.200 N 
ATOM      8  H5  UNL     1     -30.768  47.817 -24.963  1.00  0.00     0.183 HD
BRANCH   7   9
HETATM    9  C5  UNL     1     -30.623  45.793 -25.542  1.00  0.00     0.096 C 
HETATM   10  C6  UNL     1     -31.595  45.816 -26.427  1.00  0.00     0.030 C 
ENDBRANCH   7   9
ENDBRANCH   6   7
BRANCH   1  11
HETATM   11  C3  UNL     1     -27.319  46.625 -24.771  1.00  0.00     0.192 C 
BRANCH  11  12
HETATM   12  C2  UNL     1     -27.348  47.949 -25.467  1.00  0.00    -0.015 C 
HETATM   13  C1  UNL     1     -27.865  48.090 -26.683  1.00  0.00     0.008 C 
ENDBRANCH  11  12
ENDBRANCH   1  11
TORSDOF 4
ENDMDL
MODEL 5
REMARK VINA RESULT: -4.212245664      1.750      3.550
REMARK  4 active torsions:
REMARK  status: ('A' for Active; 'I' for Inactive)
REMARK    1  A    between atoms: C2_2  and  C3_3 
REMARK    2  A    between atoms: C3_3  and  N1_4 
REMARK    3  A    between atoms: C4_9  and  N5_10 
REMARK    4  A    between atoms: N5_10  and  C5_12 
ROOT
HETATM    1  N1  UNL     1     -29.189  46.896 -23.828  1.00  0.00    -0.105 N 
HETATM    2  N2  UNL     1     -29.407  46.540 -22.569  1.00  0.00     0.009 NA
HETATM    3  N3  UNL     1     -28.227  46.384 -21.994  1.00  0.00     0.007 NA
HETATM    4  N4  UNL     1     -27.282  46.641 -22.891  1.00  0.00    -0.116 N 
ATOM      5  H4  UNL     1     -26.277  46.597 -22.722  1.00  0.00     0.202 HD
HETATM    6  C4  UNL     1     -27.871  46.972 -24.072  1.00  0.00     0.710 A 
ENDROOT
BRANCH   6   7
HETATM    7  N5  UNL     1     -27.224  47.317 -25.289  1.00  0.00    -0.200 N 
ATOM      8  H5  UNL     1     -26.391  47.907 -25.262  1.00  0.00     0.183 HD
BRANCH   7   9
HETATM    9  C5  UNL     1     -27.711  46.862 -26.536  1.00  0.00     0.096 C 
HETATM   10  C6  UNL     1     -27.637  45.593 -26.871  1.00  0.00     0.030 C 
ENDBRANCH   7   9
ENDBRANCH   6   7
BRANCH   1  11
HETATM   11  C3  UNL     1     -30.220  47.167 -24.804  1.00  0.00     0.192 C 
BRANCH  11  12
HETATM   12  C2  UNL     1     -30.888  45.882 -25.183  1.00  0.00    -0.015 C 
HETATM   13  C1  UNL     1     -31.315  45.653 -26.420  1.00  0.00     0.008 C 
ENDBRANCH  11  12
ENDBRANCH   1  11
TORSDOF 4
ENDMDL
