MODEL 1
REMARK VINA RESULT: -8.352419674      0.000      0.000
REMARK  16 active torsions:
REMARK  status: ('A' for Active; 'I' for Inactive)
REMARK    1  A    between atoms: C2_2  and  O1_4 
REMARK    2  A    between atoms: C2_2  and  C4_6 
REMARK    3  A    between atoms: N3_11  and  C5_12 
REMARK    4  A    between atoms: C5_12  and  C6_13 
REMARK    5  A    between atoms: C6_13  and  C7_14 
REMARK    6  A    between atoms: C7_14  and  C8_15 
REMARK    7  A    between atoms: C8_15  and  C9_16 
REMARK    8  A    between atoms: C9_16  and  N4_17 
REMARK    9  A    between atoms: N4_17  and  O2_18 
REMARK   10  A    between atoms: N4_17  and  C10_20 
REMARK   11  A    between atoms: C10_20  and  O3_21 
REMARK   12  A    between atoms: C10_20  and  N5_23 
REMARK   13  A    between atoms: C12_28  and  O4_29 
REMARK   14  A    between atoms: C14_33  and  N8_34 
REMARK       I    between atoms: N9_37  and  C15_38 
REMARK       I    between atoms: C15_38  and  N10_40 
REMARK   15  A    between atoms: N10_40  and  N11_41 
REMARK   16  A    between atoms: C16_44  and  O6_45 
ROOT
HETATM    1  C10 UNL     1      30.358-182.468  26.903  1.00  0.00     0.340 C 
ENDROOT
BRANCH   1   2
HETATM    2  N4  UNL     1      30.626-183.746  26.189  1.00  0.00    -0.152 NA
BRANCH   2   3
HETATM    3  C9  UNL     1      29.829-183.852  25.016  1.00  0.00     0.125 C 
BRANCH   3   4
HETATM    4  C8  UNL     1      30.579-184.365  23.862  1.00  0.00     0.017 C 
BRANCH   4   5
HETATM    5  C7  UNL     1      30.117-185.695  23.281  1.00  0.00     0.003 C 
BRANCH   5   6
HETATM    6  C6  UNL     1      31.217-186.371  22.536  1.00  0.00     0.022 C 
BRANCH   6   7
HETATM    7  C5  UNL     1      32.147-185.519  21.776  1.00  0.00     0.153 C 
BRANCH   7   8
HETATM    8  N3  UNL     1      32.399-185.834  20.402  1.00  0.00    -0.255 N 
HETATM    9  N2  UNL     1      33.233-186.722  19.919  1.00  0.00    -0.238 N 
HETATM   10  N1  UNL     1      33.228-186.698  18.596  1.00  0.00    -0.283 N 
ATOM     11  H2  UNL     1      33.807-187.346  20.486  1.00  0.00     0.208 HD
HETATM   12  C4  UNL     1      32.362-185.762  18.215  1.00  0.00     0.113 A 
ATOM     13  H1  UNL     1      33.787-187.289  17.980  1.00  0.00     0.188 HD
HETATM   14  C16 UNL     1      31.821-185.200  19.347  1.00  0.00     0.186 A 
BRANCH  12  15
HETATM   15  C2  UNL     1      31.976-185.338  16.822  1.00  0.00     0.098 C 
HETATM   16  C1  UNL     1      32.186-186.482  15.875  1.00  0.00     0.052 C 
HETATM   17  C3  UNL     1      32.860-184.169  16.378  1.00  0.00     0.052 C 
BRANCH  15  18
HETATM   18  O1  UNL     1      30.666-184.906  16.752  1.00  0.00    -0.384 OA
ATOM     19  H1  UNL     1      30.620-183.980  16.962  1.00  0.00     0.211 HD
ENDBRANCH  15  18
ENDBRANCH  12  15
BRANCH  14  20
HETATM   20  O6  UNL     1      30.872-184.181  19.366  1.00  0.00    -0.343 OA
ATOM     21  H6  UNL     1      30.119-184.142  19.944  1.00  0.00     0.219 HD
ENDBRANCH  14  20
ENDBRANCH   7   8
ENDBRANCH   6   7
ENDBRANCH   5   6
ENDBRANCH   4   5
ENDBRANCH   3   4
ENDBRANCH   2   3
BRANCH   2  22
HETATM   22  O2  UNL     1      31.927-183.734  25.868  1.00  0.00    -0.309 OA
ATOM     23  H2  UNL     1      32.298-182.874  26.031  1.00  0.00     0.237 HD
ENDBRANCH   2  22
ENDBRANCH   1   2
BRANCH   1  24
HETATM   24  O3  UNL     1      30.198-181.473  25.890  1.00  0.00    -0.362 OA
ATOM     25  H3  UNL     1      29.315-181.577  25.555  1.00  0.00     0.213 HD
ENDBRANCH   1  24
BRANCH   1  26
HETATM   26  N5  UNL     1      29.327-182.525  27.776  1.00  0.00    -0.184 N 
HETATM   27  C11 UNL     1      28.757-182.636  28.856  1.00  0.00     0.696 A 
HETATM   28  N6  UNL     1      27.362-182.539  28.816  1.00  0.00    -0.168 N 
HETATM   29  N9  UNL     1      29.315-182.649  30.076  1.00  0.00    -0.066 N 
HETATM   30  C12 UNL     1      26.612-182.456  29.889  1.00  0.00     0.183 A 
ATOM     31  H6  UNL     1      26.904-182.534  27.904  1.00  0.00     0.186 HD
HETATM   32  C13 UNL     1      27.179-182.460  31.114  1.00  0.00     0.142 A 
HETATM   33  N7  UNL     1      26.373-182.357  32.282  1.00  0.00    -0.094 NA
HETATM   34  C14 UNL     1      28.582-182.562  31.230  1.00  0.00     0.157 A 
HETATM   35  C15 UNL     1      30.677-183.111  30.310  1.00  0.00     0.438 C 
HETATM   36  O5  UNL     1      31.225-182.459  31.273  1.00  0.00    -0.227 OA
HETATM   37  N10 UNL     1      31.232-184.096  29.604  1.00  0.00    -0.271 NA
ATOM     38  H5  UNL     1      28.533-182.395  27.149  1.00  0.00     0.181 HD
BRANCH  30  39
HETATM   39  O4  UNL     1      25.203-182.359  29.820  1.00  0.00    -0.344 OA
ATOM     40  H4  UNL     1      24.660-182.292  30.597  1.00  0.00     0.219 HD
ENDBRANCH  30  39
BRANCH  34  41
HETATM   41  N8  UNL     1      29.022-182.579  32.405  1.00  0.00    -0.383 N 
ATOM     42  H82 UNL     1      28.758-183.225  33.149  1.00  0.00     0.157 HD
ATOM     43  H81 UNL     1      29.704-181.854  32.624  1.00  0.00     0.157 HD
ENDBRANCH  34  41
BRANCH  37  44
HETATM   44  N11 UNL     1      31.791-185.085  28.899  1.00  0.00    -0.275 N 
ATOM     45 2H11 UNL     1      31.434-184.408  29.575  1.00  0.00     0.191 HD
ATOM     46 1H11 UNL     1      32.216-185.839  28.359  1.00  0.00     0.191 HD
ENDBRANCH  37  44
ENDBRANCH   1  26
TORSDOF 16
ENDMDL
MODEL 2
REMARK VINA RESULT: -8.307736908      1.079      1.259
REMARK  16 active torsions:
REMARK  status: ('A' for Active; 'I' for Inactive)
REMARK    1  A    between atoms: C2_2  and  O1_4 
REMARK    2  A    between atoms: C2_2  and  C4_6 
REMARK    3  A    between atoms: N3_11  and  C5_12 
REMARK    4  A    between atoms: C5_12  and  C6_13 
REMARK    5  A    between atoms: C6_13  and  C7_14 
REMARK    6  A    between atoms: C7_14  and  C8_15 
REMARK    7  A    between atoms: C8_15  and  C9_16 
REMARK    8  A    between atoms: C9_16  and  N4_17 
REMARK    9  A    between atoms: N4_17  and  O2_18 
REMARK   10  A    between atoms: N4_17  and  C10_20 
REMARK   11  A    between atoms: C10_20  and  O3_21 
REMARK   12  A    between atoms: C10_20  and  N5_23 
REMARK   13  A    between atoms: C12_28  and  O4_29 
REMARK   14  A    between atoms: C14_33  and  N8_34 
REMARK       I    between atoms: N9_37  and  C15_38 
REMARK       I    between atoms: C15_38  and  N10_40 
REMARK   15  A    between atoms: N10_40  and  N11_41 
REMARK   16  A    between atoms: C16_44  and  O6_45 
ROOT
HETATM    1  C10 UNL     1      30.362-182.467  26.919  1.00  0.00     0.340 C 
ENDROOT
BRANCH   1   2
HETATM    2  N4  UNL     1      30.629-183.744  26.204  1.00  0.00    -0.152 NA
BRANCH   2   3
HETATM    3  C9  UNL     1      29.838-183.846  25.027  1.00  0.00     0.125 C 
BRANCH   3   4
HETATM    4  C8  UNL     1      30.583-184.388  23.884  1.00  0.00     0.017 C 
BRANCH   4   5
HETATM    5  C7  UNL     1      30.080-185.700  23.297  1.00  0.00     0.003 C 
BRANCH   5   6
HETATM    6  C6  UNL     1      31.175-186.439  22.606  1.00  0.00     0.022 C 
BRANCH   6   7
HETATM    7  C5  UNL     1      32.199-185.642  21.910  1.00  0.00     0.153 C 
BRANCH   7   8
HETATM    8  N3  UNL     1      31.965-185.265  20.548  1.00  0.00    -0.255 N 
HETATM    9  N2  UNL     1      31.249-184.262  20.102  1.00  0.00    -0.238 N 
HETATM   10  N1  UNL     1      31.224-184.256  18.779  1.00  0.00    -0.283 N 
ATOM     11  H2  UNL     1      30.777-183.579  20.694  1.00  0.00     0.208 HD
HETATM   12  C4  UNL     1      31.947-185.292  18.360  1.00  0.00     0.113 A 
ATOM     13  H1  UNL     1      30.738-183.581  18.189  1.00  0.00     0.188 HD
HETATM   14  C16 UNL     1      32.429-185.948  19.468  1.00  0.00     0.186 A 
BRANCH  12  15
HETATM   15  C2  UNL     1      32.244-185.733  16.951  1.00  0.00     0.098 C 
HETATM   16  C1  UNL     1      33.528-185.108  16.492  1.00  0.00     0.052 C 
HETATM   17  C3  UNL     1      31.118-185.270  16.021  1.00  0.00     0.052 C 
BRANCH  15  18
HETATM   18  O1  UNL     1      32.324-187.107  16.839  1.00  0.00    -0.384 OA
ATOM     19  H1  UNL     1      32.409-187.497  17.701  1.00  0.00     0.211 HD
ENDBRANCH  15  18
ENDBRANCH  12  15
BRANCH  14  20
HETATM   20  O6  UNL     1      33.231-187.085  19.446  1.00  0.00    -0.343 OA
ATOM     21  H6  UNL     1      33.197-187.795  20.076  1.00  0.00     0.219 HD
ENDBRANCH  14  20
ENDBRANCH   7   8
ENDBRANCH   6   7
ENDBRANCH   5   6
ENDBRANCH   4   5
ENDBRANCH   3   4
ENDBRANCH   2   3
BRANCH   2  22
HETATM   22  O2  UNL     1      31.932-183.735  25.889  1.00  0.00    -0.309 OA
ATOM     23  H2  UNL     1      32.268-182.847  25.901  1.00  0.00     0.237 HD
ENDBRANCH   2  22
ENDBRANCH   1   2
BRANCH   1  24
HETATM   24  O3  UNL     1      30.207-181.470  25.907  1.00  0.00    -0.362 OA
ATOM     25  H3  UNL     1      31.037-181.010  25.860  1.00  0.00     0.213 HD
ENDBRANCH   1  24
BRANCH   1  26
HETATM   26  N5  UNL     1      29.328-182.522  27.789  1.00  0.00    -0.184 N 
HETATM   27  C11 UNL     1      28.755-182.636  28.867  1.00  0.00     0.696 A 
HETATM   28  N6  UNL     1      27.360-182.530  28.824  1.00  0.00    -0.168 N 
HETATM   29  N9  UNL     1      29.309-182.662  30.088  1.00  0.00    -0.066 N 
HETATM   30  C12 UNL     1      26.608-182.449  29.895  1.00  0.00     0.183 A 
ATOM     31  H6  UNL     1      26.905-182.515  27.911  1.00  0.00     0.186 HD
HETATM   32  C13 UNL     1      27.172-182.466  31.122  1.00  0.00     0.142 A 
HETATM   33  N7  UNL     1      26.363-182.365  32.288  1.00  0.00    -0.094 NA
HETATM   34  C14 UNL     1      28.574-182.578  31.240  1.00  0.00     0.157 A 
HETATM   35  C15 UNL     1      30.668-183.135  30.322  1.00  0.00     0.438 C 
HETATM   36  O5  UNL     1      31.217-182.494  31.292  1.00  0.00    -0.227 OA
HETATM   37  N10 UNL     1      31.217-184.119  29.611  1.00  0.00    -0.271 NA
ATOM     38  H5  UNL     1      28.537-182.383  27.161  1.00  0.00     0.181 HD
BRANCH  30  39
HETATM   39  O4  UNL     1      25.200-182.342  29.822  1.00  0.00    -0.344 OA
ATOM     40  H4  UNL     1      24.739-181.542  30.049  1.00  0.00     0.219 HD
ENDBRANCH  30  39
BRANCH  34  41
HETATM   41  N8  UNL     1      29.010-182.606  32.417  1.00  0.00    -0.383 N 
ATOM     42  H82 UNL     1      28.988-183.398  33.060  1.00  0.00     0.157 HD
ATOM     43  H81 UNL     1      29.413-181.731  32.752  1.00  0.00     0.157 HD
ENDBRANCH  34  41
BRANCH  37  44
HETATM   44  N11 UNL     1      31.771-185.107  28.901  1.00  0.00    -0.275 N 
ATOM     45 2H11 UNL     1      31.202-184.446  29.431  1.00  0.00     0.191 HD
ATOM     46 1H11 UNL     1      32.196-185.859  28.359  1.00  0.00     0.191 HD
ENDBRANCH  37  44
ENDBRANCH   1  26
TORSDOF 16
ENDMDL
MODEL 3
REMARK VINA RESULT: -8.307134999      1.147      1.389
REMARK  16 active torsions:
REMARK  status: ('A' for Active; 'I' for Inactive)
REMARK    1  A    between atoms: C2_2  and  O1_4 
REMARK    2  A    between atoms: C2_2  and  C4_6 
REMARK    3  A    between atoms: N3_11  and  C5_12 
REMARK    4  A    between atoms: C5_12  and  C6_13 
REMARK    5  A    between atoms: C6_13  and  C7_14 
REMARK    6  A    between atoms: C7_14  and  C8_15 
REMARK    7  A    between atoms: C8_15  and  C9_16 
REMARK    8  A    between atoms: C9_16  and  N4_17 
REMARK    9  A    between atoms: N4_17  and  O2_18 
REMARK   10  A    between atoms: N4_17  and  C10_20 
REMARK   11  A    between atoms: C10_20  and  O3_21 
REMARK   12  A    between atoms: C10_20  and  N5_23 
REMARK   13  A    between atoms: C12_28  and  O4_29 
REMARK   14  A    between atoms: C14_33  and  N8_34 
REMARK       I    between atoms: N9_37  and  C15_38 
REMARK       I    between atoms: C15_38  and  N10_40 
REMARK   15  A    between atoms: N10_40  and  N11_41 
REMARK   16  A    between atoms: C16_44  and  O6_45 
ROOT
HETATM    1  C10 UNL     1      30.472-182.311  26.993  1.00  0.00     0.340 C 
ENDROOT
BRANCH   1   2
HETATM    2  N4  UNL     1      30.822-183.585  26.309  1.00  0.00    -0.152 NA
BRANCH   2   3
HETATM    3  C9  UNL     1      30.457-183.545  24.935  1.00  0.00     0.125 C 
BRANCH   3   4
HETATM    4  C8  UNL     1      29.400-184.506  24.597  1.00  0.00     0.017 C 
BRANCH   4   5
HETATM    5  C7  UNL     1      29.780-185.637  23.651  1.00  0.00     0.003 C 
BRANCH   5   6
HETATM    6  C6  UNL     1      30.977-185.281  22.837  1.00  0.00     0.022 C 
BRANCH   6   7
HETATM    7  C5  UNL     1      31.040-185.798  21.460  1.00  0.00     0.153 C 
BRANCH   7   8
HETATM    8  N3  UNL     1      32.078-185.321  20.595  1.00  0.00    -0.255 N 
HETATM    9  N2  UNL     1      33.304-185.768  20.486  1.00  0.00    -0.238 N 
HETATM   10  N1  UNL     1      33.990-185.046  19.615  1.00  0.00    -0.283 N 
ATOM     11  H2  UNL     1      33.678-186.565  21.001  1.00  0.00     0.208 HD
HETATM   12  C4  UNL     1      33.178-184.100  19.150  1.00  0.00     0.113 A 
ATOM     13  H1  UNL     1      34.965-185.188  19.350  1.00  0.00     0.188 HD
HETATM   14  C16 UNL     1      31.955-184.256  19.758  1.00  0.00     0.186 A 
BRANCH  12  15
HETATM   15  C2  UNL     1      33.459-183.024  18.135  1.00  0.00     0.098 C 
HETATM   16  C1  UNL     1      33.181-183.550  16.758  1.00  0.00     0.052 C 
HETATM   17  C3  UNL     1      34.934-182.618  18.212  1.00  0.00     0.052 C 
BRANCH  15  18
HETATM   18  O1  UNL     1      32.712-181.884  18.361  1.00  0.00    -0.384 OA
ATOM     19  H1  UNL     1      31.808-182.119  18.536  1.00  0.00     0.211 HD
ENDBRANCH  15  18
ENDBRANCH  12  15
BRANCH  14  20
HETATM   20  O6  UNL     1      30.836-183.458  19.535  1.00  0.00    -0.343 OA
ATOM     21  H6  UNL     1      30.679-182.608  19.930  1.00  0.00     0.219 HD
ENDBRANCH  14  20
ENDBRANCH   7   8
ENDBRANCH   6   7
ENDBRANCH   5   6
ENDBRANCH   4   5
ENDBRANCH   3   4
ENDBRANCH   2   3
BRANCH   2  22
HETATM   22  O2  UNL     1      32.148-183.729  26.434  1.00  0.00    -0.309 OA
ATOM     23  H2  UNL     1      32.408-183.618  27.341  1.00  0.00     0.237 HD
ENDBRANCH   2  22
ENDBRANCH   1   2
BRANCH   1  24
HETATM   24  O3  UNL     1      30.305-181.339  25.959  1.00  0.00    -0.362 OA
ATOM     25  H3  UNL     1      29.916-180.577  26.373  1.00  0.00     0.213 HD
ENDBRANCH   1  24
BRANCH   1  26
HETATM   26  N5  UNL     1      29.414-182.401  27.830  1.00  0.00    -0.184 N 
HETATM   27  C11 UNL     1      28.811-182.559  28.886  1.00  0.00     0.696 A 
HETATM   28  N6  UNL     1      27.418-182.449  28.808  1.00  0.00    -0.168 N 
HETATM   29  N9  UNL     1      29.330-182.637  30.120  1.00  0.00    -0.066 N 
HETATM   30  C12 UNL     1      26.636-182.412  29.860  1.00  0.00     0.183 A 
ATOM     31  H6  UNL     1      26.989-182.395  27.884  1.00  0.00     0.186 HD
HETATM   32  C13 UNL     1      27.165-182.481  31.100  1.00  0.00     0.142 A 
HETATM   33  N7  UNL     1      26.324-182.427  32.246  1.00  0.00    -0.094 NA
HETATM   34  C14 UNL     1      28.563-182.600  31.254  1.00  0.00     0.157 A 
HETATM   35  C15 UNL     1      30.682-183.121  30.372  1.00  0.00     0.438 C 
HETATM   36  O5  UNL     1      31.204-182.522  31.383  1.00  0.00    -0.227 OA
HETATM   37  N10 UNL     1      31.250-184.076  29.636  1.00  0.00    -0.271 NA
ATOM     38  H5  UNL     1      28.641-182.234  27.187  1.00  0.00     0.181 HD
BRANCH  30  39
HETATM   39  O4  UNL     1      25.230-182.299  29.752  1.00  0.00    -0.344 OA
ATOM     40  H4  UNL     1      24.658-183.058  29.755  1.00  0.00     0.219 HD
ENDBRANCH  30  39
BRANCH  34  41
HETATM   41  N8  UNL     1      28.966-182.678  32.440  1.00  0.00    -0.383 N 
ATOM     42  H82 UNL     1      28.581-183.266  33.180  1.00  0.00     0.157 HD
ATOM     43  H81 UNL     1      29.753-182.073  32.672  1.00  0.00     0.157 HD
ENDBRANCH  34  41
BRANCH  37  44
HETATM   44  N11 UNL     1      31.824-185.034  28.901  1.00  0.00    -0.275 N 
ATOM     45 2H11 UNL     1      31.263-184.421  29.494  1.00  0.00     0.191 HD
ATOM     46 1H11 UNL     1      32.263-185.763  28.339  1.00  0.00     0.191 HD
ENDBRANCH  37  44
ENDBRANCH   1  26
TORSDOF 16
ENDMDL
MODEL 4
REMARK VINA RESULT: -8.260978562      3.434      8.839
REMARK  16 active torsions:
REMARK  status: ('A' for Active; 'I' for Inactive)
REMARK    1  A    between atoms: C2_2  and  O1_4 
REMARK    2  A    between atoms: C2_2  and  C4_6 
REMARK    3  A    between atoms: N3_11  and  C5_12 
REMARK    4  A    between atoms: C5_12  and  C6_13 
REMARK    5  A    between atoms: C6_13  and  C7_14 
REMARK    6  A    between atoms: C7_14  and  C8_15 
REMARK    7  A    between atoms: C8_15  and  C9_16 
REMARK    8  A    between atoms: C9_16  and  N4_17 
REMARK    9  A    between atoms: N4_17  and  O2_18 
REMARK   10  A    between atoms: N4_17  and  C10_20 
REMARK   11  A    between atoms: C10_20  and  O3_21 
REMARK   12  A    between atoms: C10_20  and  N5_23 
REMARK   13  A    between atoms: C12_28  and  O4_29 
REMARK   14  A    between atoms: C14_33  and  N8_34 
REMARK       I    between atoms: N9_37  and  C15_38 
REMARK       I    between atoms: C15_38  and  N10_40 
REMARK   15  A    between atoms: N10_40  and  N11_41 
REMARK   16  A    between atoms: C16_44  and  O6_45 
ROOT
HETATM    1  C10 UNL     1      33.431-183.251  21.011  1.00  0.00     0.340 C 
ENDROOT
BRANCH   1   2
HETATM    2  N4  UNL     1      33.895-182.103  21.836  1.00  0.00    -0.152 NA
BRANCH   2   3
HETATM    3  C9  UNL     1      35.228-182.305  22.289  1.00  0.00     0.125 C 
BRANCH   3   4
HETATM    4  C8  UNL     1      35.469-181.739  23.622  1.00  0.00     0.017 C 
BRANCH   4   5
HETATM    5  C7  UNL     1      36.368-182.541  24.554  1.00  0.00     0.003 C 
BRANCH   5   6
HETATM    6  C6  UNL     1      35.613-183.029  25.744  1.00  0.00     0.022 C 
BRANCH   6   7
HETATM    7  C5  UNL     1      34.499-183.961  25.507  1.00  0.00     0.153 C 
BRANCH   7   8
HETATM    8  N3  UNL     1      33.247-183.713  26.157  1.00  0.00    -0.255 N 
HETATM    9  N2  UNL     1      32.882-184.069  27.364  1.00  0.00    -0.238 N 
HETATM   10  N1  UNL     1      31.632-183.704  27.602  1.00  0.00    -0.283 N 
ATOM     11  H2  UNL     1      33.479-184.560  28.029  1.00  0.00     0.208 HD
HETATM   12  C4  UNL     1      31.178-183.093  26.510  1.00  0.00     0.113 A 
ATOM     13  H1  UNL     1      31.112-183.862  28.465  1.00  0.00     0.188 HD
HETATM   14  C16 UNL     1      32.188-183.086  25.578  1.00  0.00     0.186 A 
BRANCH  12  15
HETATM   15  C2  UNL     1      29.824-182.483  26.258  1.00  0.00     0.098 C 
HETATM   16  C1  UNL     1      29.848-181.035  26.649  1.00  0.00     0.052 C 
HETATM   17  C3  UNL     1      28.772-183.200  27.111  1.00  0.00     0.052 C 
BRANCH  15  18
HETATM   18  O1  UNL     1      29.432-182.607  24.940  1.00  0.00    -0.384 OA
ATOM     19  H1  UNL     1      29.757-183.425  24.582  1.00  0.00     0.211 HD
ENDBRANCH  15  18
ENDBRANCH  12  15
BRANCH  14  20
HETATM   20  O6  UNL     1      32.104-182.537  24.301  1.00  0.00    -0.343 OA
ATOM     21  H6  UNL     1      31.471-182.784  23.636  1.00  0.00     0.219 HD
ENDBRANCH  14  20
ENDBRANCH   7   8
ENDBRANCH   6   7
ENDBRANCH   5   6
ENDBRANCH   4   5
ENDBRANCH   3   4
ENDBRANCH   2   3
BRANCH   2  22
HETATM   22  O2  UNL     1      33.830-181.021  21.048  1.00  0.00    -0.309 OA
ATOM     23  H2  UNL     1      34.190-181.216  20.191  1.00  0.00     0.237 HD
ENDBRANCH   2  22
ENDBRANCH   1   2
BRANCH   1  24
HETATM   24  O3  UNL     1      34.598-184.017  20.706  1.00  0.00    -0.362 OA
ATOM     25  H3  UNL     1      35.220-183.410  20.322  1.00  0.00     0.213 HD
ENDBRANCH   1  24
BRANCH   1  26
HETATM   26  N5  UNL     1      32.438-183.976  21.574  1.00  0.00    -0.184 N 
HETATM   27  C11 UNL     1      31.664-184.913  21.732  1.00  0.00     0.696 A 
HETATM   28  N6  UNL     1      30.785-184.796  22.814  1.00  0.00    -0.168 N 
HETATM   29  N9  UNL     1      31.686-186.103  21.114  1.00  0.00    -0.066 N 
HETATM   30  C12 UNL     1      30.021-185.776  23.233  1.00  0.00     0.183 A 
ATOM     31  H6  UNL     1      30.737-183.902  23.303  1.00  0.00     0.186 HD
HETATM   32  C13 UNL     1      30.054-186.975  22.614  1.00  0.00     0.142 A 
HETATM   33  N7  UNL     1      29.237-188.046  23.071  1.00  0.00    -0.094 NA
HETATM   34  C14 UNL     1      30.913-187.162  21.509  1.00  0.00     0.157 A 
HETATM   35  C15 UNL     1      32.242-186.282  19.778  1.00  0.00     0.438 C 
HETATM   36  O5  UNL     1      32.778-187.445  19.654  1.00  0.00    -0.227 OA
HETATM   37  N10 UNL     1      32.163-185.342  18.837  1.00  0.00    -0.271 NA
ATOM     38  H5  UNL     1      32.161-183.363  22.342  1.00  0.00     0.181 HD
BRANCH  30  39
HETATM   39  O4  UNL     1      29.141-185.631  24.331  1.00  0.00    -0.344 OA
ATOM     40  H4  UNL     1      28.218-185.847  24.275  1.00  0.00     0.219 HD
ENDBRANCH  30  39
BRANCH  34  41
HETATM   41  N8  UNL     1      30.865-188.300  20.982  1.00  0.00    -0.383 N 
ATOM     42  H82 UNL     1      30.323-189.102  21.303  1.00  0.00     0.157 HD
ATOM     43  H81 UNL     1      31.447-188.419  20.153  1.00  0.00     0.157 HD
ENDBRANCH  34  41
BRANCH  37  44
HETATM   44  N11 UNL     1      32.084-184.403  17.889  1.00  0.00    -0.275 N 
ATOM     45 2H11 UNL     1      31.993-185.057  18.667  1.00  0.00     0.191 HD
ATOM     46 1H11 UNL     1      32.027-183.686  17.165  1.00  0.00     0.191 HD
ENDBRANCH  37  44
ENDBRANCH   1  26
TORSDOF 16
ENDMDL
MODEL 5
REMARK VINA RESULT: -8.237153793      3.413      8.691
REMARK  16 active torsions:
REMARK  status: ('A' for Active; 'I' for Inactive)
REMARK    1  A    between atoms: C2_2  and  O1_4 
REMARK    2  A    between atoms: C2_2  and  C4_6 
REMARK    3  A    between atoms: N3_11  and  C5_12 
REMARK    4  A    between atoms: C5_12  and  C6_13 
REMARK    5  A    between atoms: C6_13  and  C7_14 
REMARK    6  A    between atoms: C7_14  and  C8_15 
REMARK    7  A    between atoms: C8_15  and  C9_16 
REMARK    8  A    between atoms: C9_16  and  N4_17 
REMARK    9  A    between atoms: N4_17  and  O2_18 
REMARK   10  A    between atoms: N4_17  and  C10_20 
REMARK   11  A    between atoms: C10_20  and  O3_21 
REMARK   12  A    between atoms: C10_20  and  N5_23 
REMARK   13  A    between atoms: C12_28  and  O4_29 
REMARK   14  A    between atoms: C14_33  and  N8_34 
REMARK       I    between atoms: N9_37  and  C15_38 
REMARK       I    between atoms: C15_38  and  N10_40 
REMARK   15  A    between atoms: N10_40  and  N11_41 
REMARK   16  A    between atoms: C16_44  and  O6_45 
ROOT
HETATM    1  C10 UNL     1      32.537-182.734  21.681  1.00  0.00     0.340 C 
ENDROOT
BRANCH   1   2
HETATM    2  N4  UNL     1      32.436-183.803  20.651  1.00  0.00    -0.152 NA
BRANCH   2   3
HETATM    3  C9  UNL     1      32.510-185.093  21.246  1.00  0.00     0.125 C 
BRANCH   3   4
HETATM    4  C8  UNL     1      31.205-185.763  21.318  1.00  0.00     0.017 C 
BRANCH   4   5
HETATM    5  C7  UNL     1      30.897-186.526  22.599  1.00  0.00     0.003 C 
BRANCH   5   6
HETATM    6  C6  UNL     1      29.799-185.871  23.367  1.00  0.00     0.022 C 
BRANCH   6   7
HETATM    7  C5  UNL     1      30.102-184.593  24.032  1.00  0.00     0.153 C 
BRANCH   7   8
HETATM    8  N3  UNL     1      29.290-184.186  25.139  1.00  0.00    -0.255 N 
HETATM    9  N2  UNL     1      27.991-184.016  25.164  1.00  0.00    -0.238 N 
HETATM   10  N1  UNL     1      27.598-183.588  26.353  1.00  0.00    -0.283 N 
ATOM     11  H2  UNL     1      27.368-184.191  24.376  1.00  0.00     0.208 HD
HETATM   12  C4  UNL     1      28.681-183.478  27.118  1.00  0.00     0.113 A 
ATOM     13  H1  UNL     1      26.638-183.381  26.632  1.00  0.00     0.188 HD
HETATM   14  C16 UNL     1      29.769-183.853  26.367  1.00  0.00     0.186 A 
BRANCH  12  15
HETATM   15  C2  UNL     1      28.787-183.039  28.555  1.00  0.00     0.098 C 
HETATM   16  C1  UNL     1      27.416-182.984  29.163  1.00  0.00     0.052 C 
HETATM   17  C3  UNL     1      29.405-181.639  28.620  1.00  0.00     0.052 C 
BRANCH  15  18
HETATM   18  O1  UNL     1      29.596-183.876  29.298  1.00  0.00    -0.384 OA
ATOM     19  H1  UNL     1      30.207-184.325  28.727  1.00  0.00     0.211 HD
ENDBRANCH  15  18
ENDBRANCH  12  15
BRANCH  14  20
HETATM   20  O6  UNL     1      31.088-183.874  26.813  1.00  0.00    -0.343 OA
ATOM     21  H6  UNL     1      31.767-183.263  26.551  1.00  0.00     0.219 HD
ENDBRANCH  14  20
ENDBRANCH   7   8
ENDBRANCH   6   7
ENDBRANCH   5   6
ENDBRANCH   4   5
ENDBRANCH   3   4
ENDBRANCH   2   3
BRANCH   2  22
HETATM   22  O2  UNL     1      31.251-183.636  20.048  1.00  0.00    -0.309 OA
ATOM     23  H2  UNL     1      31.373-183.489  19.117  1.00  0.00     0.237 HD
ENDBRANCH   2  22
ENDBRANCH   1   2
BRANCH   1  24
HETATM   24  O3  UNL     1      31.216-182.212  21.843  1.00  0.00    -0.362 OA
ATOM     25  H3  UNL     1      30.934-182.472  22.712  1.00  0.00     0.213 HD
ENDBRANCH   1  24
BRANCH   1  26
HETATM   26  N5  UNL     1      33.110-183.130  22.840  1.00  0.00    -0.184 N 
HETATM   27  C11 UNL     1      33.996-183.294  23.671  1.00  0.00     0.696 A 
HETATM   28  N6  UNL     1      33.605-183.933  24.852  1.00  0.00    -0.168 N 
HETATM   29  N9  UNL     1      35.232-182.773  23.661  1.00  0.00    -0.066 N 
HETATM   30  C12 UNL     1      34.373-184.028  25.911  1.00  0.00     0.183 A 
ATOM     31  H6  UNL     1      32.673-184.346  24.893  1.00  0.00     0.186 HD
HETATM   32  C13 UNL     1      35.613-183.494  25.899  1.00  0.00     0.142 A 
HETATM   33  N7  UNL     1      36.447-183.582  27.048  1.00  0.00    -0.094 NA
HETATM   34  C14 UNL     1      36.077-182.840  24.737  1.00  0.00     0.157 A 
HETATM   35  C15 UNL     1      35.922-182.417  22.428  1.00  0.00     0.438 C 
HETATM   36  O5  UNL     1      36.686-181.397  22.605  1.00  0.00    -0.227 OA
HETATM   37  N10 UNL     1      35.766-183.101  21.295  1.00  0.00    -0.271 NA
ATOM     38  H5  UNL     1      32.315-183.553  23.316  1.00  0.00     0.181 HD
BRANCH  30  39
HETATM   39  O4  UNL     1      33.952-184.680  27.094  1.00  0.00    -0.344 OA
ATOM     40  H4  UNL     1      33.511-184.219  27.798  1.00  0.00     0.219 HD
ENDBRANCH  30  39
BRANCH  34  41
HETATM   41  N8  UNL     1      37.247-182.392  24.807  1.00  0.00    -0.383 N 
ATOM     42  H82 UNL     1      37.920-182.549  25.557  1.00  0.00     0.157 HD
ATOM     43  H81 UNL     1      37.532-181.798  24.028  1.00  0.00     0.157 HD
ENDBRANCH  34  41
BRANCH  37  44
HETATM   44  N11 UNL     1      35.612-183.786  20.157  1.00  0.00    -0.275 N 
ATOM     45 2H11 UNL     1      35.557-183.279  21.041  1.00  0.00     0.191 HD
ATOM     46 1H11 UNL     1      35.498-184.308  19.288  1.00  0.00     0.191 HD
ENDBRANCH  37  44
ENDBRANCH   1  26
TORSDOF 16
ENDMDL
