MODEL 1
REMARK VINA RESULT: -6.337527881      0.000      0.000
REMARK  2 active torsions:
REMARK  status: ('A' for Active; 'I' for Inactive)
REMARK    1  A    between atoms: C4_7  and  N3_8 
REMARK    2  A    between atoms: N3_8  and  C5_10 
ROOT
HETATM    1  C1  UNL     1      28.637 -23.161 -29.051  1.00  0.00     0.111 A 
HETATM    2  C2  UNL     1      29.292 -22.377 -29.969  1.00  0.00     0.068 A 
HETATM    3  C3  UNL     1      30.658 -22.397 -29.638  1.00  0.00     0.125 A 
HETATM    4  N1  UNL     1      30.801 -23.169 -28.558  1.00  0.00    -0.252 N 
HETATM    5  N2  UNL     1      29.562 -23.611 -28.234  1.00  0.00    -0.306 N 
ATOM      6  H2  UNL     1      29.369 -24.224 -27.442  1.00  0.00     0.186 HD
HETATM    7  C4  UNL     1      32.047 -23.411 -27.882  1.00  0.00     0.216 A 
HETATM    8  C11 UNL     1      33.223 -22.829 -28.582  1.00  0.00     0.075 A 
HETATM    9  C12 UNL     1      34.203 -23.925 -29.061  1.00  0.00     0.014 C 
HETATM   10  C13 UNL     1      35.440 -23.224 -29.554  1.00  0.00     0.001 C 
HETATM   11  C14 UNL     1      35.101 -22.508 -30.845  1.00  0.00     0.006 C 
HETATM   12  C15 UNL     1      34.132 -21.382 -30.438  1.00  0.00     0.053 C 
HETATM   13  C16 UNL     1      32.952 -22.000 -29.758  1.00  0.00    -0.004 A 
HETATM   14  N4  UNL     1      31.791 -21.806 -30.236  1.00  0.00    -0.348 N 
ATOM     15  H4  UNL     1      31.676 -21.218 -31.061  1.00  0.00     0.167 HD
ENDROOT
BRANCH   7  16
HETATM   16  N3  UNL     1      32.285 -24.755 -27.601  1.00  0.00    -0.373 N 
ATOM     17  H3  UNL     1      32.466 -25.376 -28.390  1.00  0.00     0.161 HD
BRANCH  16  18
HETATM   18  C5  UNL     1      32.295 -25.313 -26.333  1.00  0.00    -0.016 C 
HETATM   19  C6  UNL     1      31.223 -26.294 -25.949  1.00  0.00     0.052 C 
HETATM   20  C7  UNL     1      31.498 -26.757 -24.539  1.00  0.00     0.006 C 
HETATM   21  C8  UNL     1      32.730 -27.622 -24.488  1.00  0.00     0.001 C 
HETATM   22  C9  UNL     1      33.758 -27.192 -25.499  1.00  0.00     0.006 C 
HETATM   23  C10 UNL     1      33.579 -25.686 -25.664  1.00  0.00     0.052 C 
ENDBRANCH  16  18
ENDBRANCH   7  16
TORSDOF 2
ENDMDL
MODEL 2
REMARK VINA RESULT: -6.321282775      1.444      5.133
REMARK  2 active torsions:
REMARK  status: ('A' for Active; 'I' for Inactive)
REMARK    1  A    between atoms: C4_7  and  N3_8 
REMARK    2  A    between atoms: N3_8  and  C5_10 
ROOT
HETATM    1  C1  UNL     1      30.206 -21.617 -29.499  1.00  0.00     0.111 A 
HETATM    2  C2  UNL     1      29.531 -22.544 -28.742  1.00  0.00     0.068 A 
HETATM    3  C3  UNL     1      30.477 -23.469 -28.268  1.00  0.00     0.125 A 
HETATM    4  N1  UNL     1      31.673 -23.097 -28.732  1.00  0.00    -0.252 N 
HETATM    5  N2  UNL     1      31.469 -21.978 -29.469  1.00  0.00    -0.306 N 
ATOM      6  H2  UNL     1      32.214 -21.472 -29.948  1.00  0.00     0.186 HD
HETATM    7  C4  UNL     1      32.899 -23.812 -28.503  1.00  0.00     0.216 A 
HETATM    8  C11 UNL     1      32.752 -24.955 -27.565  1.00  0.00     0.075 A 
HETATM    9  C12 UNL     1      33.580 -24.748 -26.275  1.00  0.00     0.014 C 
HETATM   10  C13 UNL     1      33.530 -26.041 -25.507  1.00  0.00     0.001 C 
HETATM   11  C14 UNL     1      32.127 -26.220 -24.965  1.00  0.00     0.006 C 
HETATM   12  C15 UNL     1      31.242 -26.451 -26.205  1.00  0.00     0.053 C 
HETATM   13  C16 UNL     1      31.395 -25.275 -27.116  1.00  0.00    -0.004 A 
HETATM   14  N4  UNL     1      30.367 -24.601 -27.434  1.00  0.00    -0.348 N 
ATOM     15  H4  UNL     1      29.451 -24.881 -27.082  1.00  0.00     0.167 HD
ENDROOT
BRANCH   7  16
HETATM   16  N3  UNL     1      33.956 -23.001 -28.094  1.00  0.00    -0.373 N 
ATOM     17  H3  UNL     1      34.028 -22.789 -27.098  1.00  0.00     0.161 HD
BRANCH  16  18
HETATM   18  C5  UNL     1      34.916 -22.460 -28.934  1.00  0.00    -0.016 C 
HETATM   19  C6  UNL     1      36.056 -21.678 -28.346  1.00  0.00     0.052 C 
HETATM   20  C7  UNL     1      36.955 -21.240 -29.478  1.00  0.00     0.006 C 
HETATM   21  C8  UNL     1      37.676 -22.419 -30.077  1.00  0.00     0.001 C 
HETATM   22  C9  UNL     1      36.838 -23.667 -30.039  1.00  0.00     0.006 C 
HETATM   23  C10 UNL     1      35.389 -23.201 -30.144  1.00  0.00     0.052 C 
ENDBRANCH  16  18
ENDBRANCH   7  16
TORSDOF 2
ENDMDL
MODEL 3
REMARK VINA RESULT: -6.153517606      2.742      3.602
REMARK  2 active torsions:
REMARK  status: ('A' for Active; 'I' for Inactive)
REMARK    1  A    between atoms: C4_7  and  N3_8 
REMARK    2  A    between atoms: N3_8  and  C5_10 
ROOT
HETATM    1  C1  UNL     1      29.462 -22.681 -28.897  1.00  0.00     0.111 A 
HETATM    2  C2  UNL     1      29.609 -21.458 -28.289  1.00  0.00     0.068 A 
HETATM    3  C3  UNL     1      30.357 -21.661 -27.116  1.00  0.00     0.125 A 
HETATM    4  N1  UNL     1      30.640 -22.964 -27.037  1.00  0.00    -0.252 N 
HETATM    5  N2  UNL     1      30.084 -23.545 -28.128  1.00  0.00    -0.306 N 
ATOM      6  H2  UNL     1      30.142 -24.543 -28.329  1.00  0.00     0.186 HD
HETATM    7  C4  UNL     1      31.358 -23.583 -25.956  1.00  0.00     0.216 A 
HETATM    8  C11 UNL     1      31.899 -22.610 -24.971  1.00  0.00     0.075 A 
HETATM    9  C12 UNL     1      33.445 -22.632 -24.934  1.00  0.00     0.014 C 
HETATM   10  C13 UNL     1      33.870 -21.781 -23.768  1.00  0.00     0.001 C 
HETATM   11  C14 UNL     1      33.575 -20.333 -24.101  1.00  0.00     0.006 C 
HETATM   12  C15 UNL     1      32.038 -20.233 -24.138  1.00  0.00     0.053 C 
HETATM   13  C16 UNL     1      31.528 -21.205 -25.152  1.00  0.00    -0.004 A 
HETATM   14  N4  UNL     1      30.831 -20.777 -26.124  1.00  0.00    -0.348 N 
ATOM     15  H4  UNL     1      30.612 -19.782 -26.189  1.00  0.00     0.167 HD
ENDROOT
BRANCH   7  16
HETATM   16  N3  UNL     1      32.372 -24.443 -26.373  1.00  0.00    -0.373 N 
ATOM     17  H3  UNL     1      33.093 -24.060 -26.985  1.00  0.00     0.161 HD
BRANCH  16  18
HETATM   18  C5  UNL     1      32.478 -25.778 -26.018  1.00  0.00    -0.016 C 
HETATM   19  C6  UNL     1      33.746 -26.276 -25.382  1.00  0.00     0.052 C 
HETATM   20  C7  UNL     1      33.570 -27.744 -25.078  1.00  0.00     0.006 C 
HETATM   21  C8  UNL     1      32.574 -27.946 -23.964  1.00  0.00     0.001 C 
HETATM   22  C9  UNL     1      31.487 -26.907 -23.990  1.00  0.00     0.006 C 
HETATM   23  C10 UNL     1      31.310 -26.523 -25.456  1.00  0.00     0.052 C 
ENDBRANCH  16  18
ENDBRANCH   7  16
TORSDOF 2
ENDMDL
MODEL 4
REMARK VINA RESULT: -6.041131394      3.222      5.468
REMARK  2 active torsions:
REMARK  status: ('A' for Active; 'I' for Inactive)
REMARK    1  A    between atoms: C4_7  and  N3_8 
REMARK    2  A    between atoms: N3_8  and  C5_10 
ROOT
HETATM    1  C1  UNL     1      33.083 -21.507 -28.729  1.00  0.00     0.111 A 
HETATM    2  C2  UNL     1      33.314 -22.776 -29.200  1.00  0.00     0.068 A 
HETATM    3  C3  UNL     1      33.362 -23.635 -28.088  1.00  0.00     0.125 A 
HETATM    4  N1  UNL     1      33.165 -22.892 -26.995  1.00  0.00    -0.252 N 
HETATM    5  N2  UNL     1      33.001 -21.616 -27.422  1.00  0.00    -0.306 N 
ATOM      6  H2  UNL     1      32.832 -20.827 -26.797  1.00  0.00     0.186 HD
HETATM    7  C4  UNL     1      33.182 -23.393 -25.648  1.00  0.00     0.216 A 
HETATM    8  C11 UNL     1      33.302 -24.873 -25.569  1.00  0.00     0.075 A 
HETATM    9  C12 UNL     1      32.049 -25.516 -24.929  1.00  0.00     0.014 C 
HETATM   10  C13 UNL     1      32.366 -26.969 -24.704  1.00  0.00     0.001 C 
HETATM   11  C14 UNL     1      32.429 -27.658 -26.052  1.00  0.00     0.006 C 
HETATM   12  C15 UNL     1      33.675 -27.074 -26.744  1.00  0.00     0.053 C 
HETATM   13  C16 UNL     1      33.514 -25.591 -26.828  1.00  0.00    -0.004 A 
HETATM   14  N4  UNL     1      33.539 -25.029 -27.967  1.00  0.00    -0.348 N 
ATOM     15  H4  UNL     1      33.689 -25.592 -28.805  1.00  0.00     0.167 HD
ENDROOT
BRANCH   7  16
HETATM   16  N3  UNL     1      32.105 -22.967 -24.874  1.00  0.00    -0.373 N 
ATOM     17  H3  UNL     1      31.246 -23.515 -24.921  1.00  0.00     0.161 HD
BRANCH  16  18
HETATM   18  C5  UNL     1      32.112 -21.857 -24.044  1.00  0.00    -0.016 C 
HETATM   19  C6  UNL     1      33.421 -21.221 -23.672  1.00  0.00     0.052 C 
HETATM   20  C7  UNL     1      33.128 -20.027 -22.796  1.00  0.00     0.006 C 
HETATM   21  C8  UNL     1      32.473 -18.926 -23.590  1.00  0.00     0.001 C 
HETATM   22  C9  UNL     1      31.588 -19.471 -24.678  1.00  0.00     0.006 C 
HETATM   23  C10 UNL     1      31.057 -20.803 -24.157  1.00  0.00     0.052 C 
ENDBRANCH  16  18
ENDBRANCH   7  16
TORSDOF 2
ENDMDL
MODEL 5
REMARK VINA RESULT: -5.998722104      2.808      3.810
REMARK  2 active torsions:
REMARK  status: ('A' for Active; 'I' for Inactive)
REMARK    1  A    between atoms: C4_7  and  N3_8 
REMARK    2  A    between atoms: N3_8  and  C5_10 
ROOT
HETATM    1  C1  UNL     1      28.628 -21.548 -28.442  1.00  0.00     0.111 A 
HETATM    2  C2  UNL     1      28.879 -20.553 -27.530  1.00  0.00     0.068 A 
HETATM    3  C3  UNL     1      29.803 -21.059 -26.599  1.00  0.00     0.125 A 
HETATM    4  N1  UNL     1      30.086 -22.315 -26.954  1.00  0.00    -0.252 N 
HETATM    5  N2  UNL     1      29.359 -22.574 -28.069  1.00  0.00    -0.306 N 
ATOM      6  H2  UNL     1      29.377 -23.466 -28.562  1.00  0.00     0.186 HD
HETATM    7  C4  UNL     1      30.963 -23.194 -26.229  1.00  0.00     0.216 A 
HETATM    8  C11 UNL     1      31.660 -22.532 -25.096  1.00  0.00     0.075 A 
HETATM    9  C12 UNL     1      33.192 -22.501 -25.306  1.00  0.00     0.014 C 
HETATM   10  C13 UNL     1      33.804 -22.012 -24.021  1.00  0.00     0.001 C 
HETATM   11  C14 UNL     1      33.470 -20.543 -23.861  1.00  0.00     0.006 C 
HETATM   12  C15 UNL     1      31.947 -20.500 -23.629  1.00  0.00     0.053 C 
HETATM   13  C16 UNL     1      31.275 -21.152 -24.794  1.00  0.00    -0.004 A 
HETATM   14  N4  UNL     1      30.435 -20.486 -25.476  1.00  0.00    -0.348 N 
ATOM     15  H4  UNL     1      30.216 -19.526 -25.209  1.00  0.00     0.167 HD
ENDROOT
BRANCH   7  16
HETATM   16  N3  UNL     1      31.892 -23.853 -27.032  1.00  0.00    -0.373 N 
ATOM     17  H3  UNL     1      32.411 -23.292 -27.708  1.00  0.00     0.161 HD
BRANCH  16  18
HETATM   18  C5  UNL     1      32.164 -25.211 -26.984  1.00  0.00    -0.016 C 
HETATM   19  C6  UNL     1      33.591 -25.676 -26.915  1.00  0.00     0.052 C 
HETATM   20  C7  UNL     1      33.588 -27.184 -26.842  1.00  0.00     0.006 C 
HETATM   21  C8  UNL     1      33.051 -27.656 -25.515  1.00  0.00     0.001 C 
HETATM   22  C9  UNL     1      31.986 -26.738 -24.983  1.00  0.00     0.006 C 
HETATM   23  C10 UNL     1      31.294 -26.146 -26.207  1.00  0.00     0.052 C 
ENDBRANCH  16  18
ENDBRANCH   7  16
TORSDOF 2
ENDMDL
