MODEL 1
REMARK VINA RESULT: -8.247504032      0.000      0.000
REMARK  13 active torsions:
REMARK  status: ('A' for Active; 'I' for Inactive)
REMARK    1  A    between atoms: O1_2  and  N1_3 
REMARK    2  A    between atoms: N1_3  and  C2_4 
REMARK    3  A    between atoms: N1_3  and  C15_42 
REMARK    4  A    between atoms: C2_4  and  C3_5 
REMARK    5  A    between atoms: N4_13  and  C7_14 
REMARK    6  A    between atoms: C8_18  and  O2_19 
REMARK    7  A    between atoms: C9_21  and  C10_22 
REMARK    8  A    between atoms: C10_22  and  N8_23 
REMARK    9  A    between atoms: C12_29  and  N11_30 
REMARK   10  A    between atoms: C15_42  and  C16_43 
REMARK   11  A    between atoms: C15_42  and  C17_46 
REMARK   12  A    between atoms: C16_43  and  O3_44 
REMARK   13  A    between atoms: C17_46  and  O4_47 
ROOT
HETATM    1  C3  UNL     1      12.533   9.739 -32.349  1.00  0.00     0.059 A 
HETATM    2  N2  UNL     1      13.780  10.018 -32.001  1.00  0.00    -0.339 N 
ATOM      3  H2  UNL     1      14.448  10.493 -32.608  1.00  0.00     0.167 HD
HETATM    4  C4  UNL     1      14.064   9.598 -30.738  1.00  0.00     0.137 A 
HETATM    5  C5  UNL     1      12.908   9.012 -30.282  1.00  0.00     0.040 A 
HETATM    6  C6  UNL     1      13.153   8.564 -28.982  1.00  0.00     0.123 A 
HETATM    7  N3  UNL     1      14.408   8.909 -28.741  1.00  0.00    -0.305 N 
ATOM      8  H3  UNL     1      14.886   8.719 -27.861  1.00  0.00     0.186 HD
HETATM    9  N4  UNL     1      14.966   9.518 -29.747  1.00  0.00    -0.250 N 
HETATM   10  C9  UNL     1      11.941   9.079 -31.242  1.00  0.00     0.025 A 
ENDROOT
BRANCH  10  11
HETATM   11  C10 UNL     1      10.604   8.630 -31.244  1.00  0.00     0.134 C 
BRANCH  11  12
HETATM   12  N8  UNL     1      10.125   7.342 -30.845  1.00  0.00    -0.233 N 
HETATM   13  N9  UNL     1      10.286   6.636 -29.758  1.00  0.00    -0.234 N 
HETATM   14  N10 UNL     1       9.542   5.521 -29.811  1.00  0.00    -0.279 N 
ATOM     15  H9  UNL     1      10.893   6.896 -28.980  1.00  0.00     0.209 HD
HETATM   16  C11 UNL     1       8.877   5.496 -30.960  1.00  0.00     0.140 A 
ATOM     17  H10 UNL     1       9.493   4.807 -29.085  1.00  0.00     0.189 HD
HETATM   18  C12 UNL     1       7.918   4.640 -31.482  1.00  0.00     0.147 A 
HETATM   19  C14 UNL     1       9.251   6.642 -31.618  1.00  0.00     0.175 A 
HETATM   20  N12 UNL     1       7.364   4.993 -32.676  1.00  0.00    -0.175 N 
HETATM   21  C13 UNL     1       7.759   6.139 -33.309  1.00  0.00     0.679 A 
ATOM     22  H12 UNL     1       6.651   4.399 -33.100  1.00  0.00     0.186 HD
HETATM   23  N13 UNL     1       7.126   6.487 -34.407  1.00  0.00    -0.234 N 
HETATM   24  N14 UNL     1       8.685   6.950 -32.798  1.00  0.00    -0.172 N 
ATOM     25 2H13 UNL     1       6.417   5.867 -34.798  1.00  0.00     0.174 HD
ATOM     26 1H13 UNL     1       7.420   7.342 -34.879  1.00  0.00     0.174 HD
ATOM     27  H14 UNL     1       8.961   7.794 -33.298  1.00  0.00     0.186 HD
BRANCH  18  28
HETATM   28  N11 UNL     1       7.547   3.592 -30.861  1.00  0.00    -0.383 N 
ATOM     29 2H11 UNL     1       6.720   3.590 -30.264  1.00  0.00     0.157 HD
ATOM     30 1H11 UNL     1       8.077   2.722 -30.914  1.00  0.00     0.157 HD
ENDBRANCH  18  28
ENDBRANCH  11  12
ENDBRANCH  10  11
BRANCH   1  31
HETATM   31  C2  UNL     1      11.735  10.127 -33.507  1.00  0.00     0.120 C 
BRANCH  31  32
HETATM   32  N1  UNL     1      11.400  11.458 -33.799  1.00  0.00    -0.163 NA
BRANCH  32  33
HETATM   33  O1  UNL     1      11.884  12.294 -32.768  1.00  0.00    -0.304 OA
HETATM   34  C1  UNL     1      12.780  13.210 -33.230  1.00  0.00     0.230 C 
ENDBRANCH  32  33
BRANCH  32  35
HETATM   35  C15 UNL     1      10.009  11.849 -33.923  1.00  0.00     0.138 C 
BRANCH  35  36
HETATM   36  C16 UNL     1       9.844  12.309 -35.399  1.00  0.00     0.188 C 
BRANCH  36  37
HETATM   37  O3  UNL     1      10.867  13.099 -35.826  1.00  0.00    -0.399 OA
ATOM     38  H3  UNL     1      11.641  12.603 -36.065  1.00  0.00     0.209 HD
ENDBRANCH  36  37
ENDBRANCH  35  36
BRANCH  35  39
HETATM   39  C17 UNL     1       9.191  10.559 -33.795  1.00  0.00     0.188 C 
BRANCH  39  40
HETATM   40  O4  UNL     1       8.369  10.771 -32.667  1.00  0.00    -0.399 OA
ATOM     41  H4  UNL     1       7.496  10.540 -32.961  1.00  0.00     0.209 HD
ENDBRANCH  39  40
ENDBRANCH  35  39
ENDBRANCH  32  35
ENDBRANCH  31  32
ENDBRANCH   1  31
BRANCH   9  42
HETATM   42  C7  UNL     1      16.277  10.186 -29.744  1.00  0.00     0.265 C 
HETATM   43  N5  UNL     1      16.636  10.323 -28.277  1.00  0.00    -0.098 NA
HETATM   44  N6  UNL     1      17.445   9.199 -28.072  1.00  0.00    -0.035 NA
HETATM   45  N7  UNL     1      18.362   9.403 -29.136  1.00  0.00    -0.094 NA
HETATM   46  C8  UNL     1      17.414   9.415 -30.273  1.00  0.00     0.270 C 
BRANCH  46  47
HETATM   47  O2  UNL     1      17.158   8.126 -30.689  1.00  0.00    -0.375 OA
ATOM     48  H2  UNL     1      17.873   7.655 -31.101  1.00  0.00     0.211 HD
ENDBRANCH  46  47
ENDBRANCH   9  42
TORSDOF 13
ENDMDL
MODEL 2
REMARK VINA RESULT: -8.198528791      0.993      1.735
REMARK  13 active torsions:
REMARK  status: ('A' for Active; 'I' for Inactive)
REMARK    1  A    between atoms: O1_2  and  N1_3 
REMARK    2  A    between atoms: N1_3  and  C2_4 
REMARK    3  A    between atoms: N1_3  and  C15_42 
REMARK    4  A    between atoms: C2_4  and  C3_5 
REMARK    5  A    between atoms: N4_13  and  C7_14 
REMARK    6  A    between atoms: C8_18  and  O2_19 
REMARK    7  A    between atoms: C9_21  and  C10_22 
REMARK    8  A    between atoms: C10_22  and  N8_23 
REMARK    9  A    between atoms: C12_29  and  N11_30 
REMARK   10  A    between atoms: C15_42  and  C16_43 
REMARK   11  A    between atoms: C15_42  and  C17_46 
REMARK   12  A    between atoms: C16_43  and  O3_44 
REMARK   13  A    between atoms: C17_46  and  O4_47 
ROOT
HETATM    1  C3  UNL     1      12.754   9.473 -32.287  1.00  0.00     0.059 A 
HETATM    2  N2  UNL     1      13.977   9.773 -31.879  1.00  0.00    -0.339 N 
ATOM      3  H2  UNL     1      14.706  10.146 -32.488  1.00  0.00     0.167 HD
HETATM    4  C4  UNL     1      14.149   9.525 -30.552  1.00  0.00     0.137 A 
HETATM    5  C5  UNL     1      12.943   9.031 -30.117  1.00  0.00     0.040 A 
HETATM    6  C6  UNL     1      13.070   8.761 -28.752  1.00  0.00     0.123 A 
HETATM    7  N3  UNL     1      14.313   9.110 -28.458  1.00  0.00    -0.305 N 
ATOM      8  H3  UNL     1      14.715   9.033 -27.525  1.00  0.00     0.186 HD
HETATM    9  N4  UNL     1      14.967   9.563 -29.488  1.00  0.00    -0.250 N 
HETATM   10  C9  UNL     1      12.057   8.984 -31.153  1.00  0.00     0.025 A 
ENDROOT
BRANCH  10  11
HETATM   11  C10 UNL     1      10.710   8.567 -31.204  1.00  0.00     0.134 C 
BRANCH  11  12
HETATM   12  N8  UNL     1      10.183   7.300 -30.796  1.00  0.00    -0.233 N 
HETATM   13  N9  UNL     1      10.296   6.610 -29.693  1.00  0.00    -0.234 N 
HETATM   14  N10 UNL     1       9.520   5.516 -29.747  1.00  0.00    -0.279 N 
ATOM     15  H9  UNL     1      10.890   6.865 -28.904  1.00  0.00     0.209 HD
HETATM   16  C11 UNL     1       8.884   5.490 -30.912  1.00  0.00     0.140 A 
ATOM     17  H10 UNL     1       9.432   4.817 -29.010  1.00  0.00     0.189 HD
HETATM   18  C12 UNL     1       7.913   4.654 -31.444  1.00  0.00     0.147 A 
HETATM   19  C14 UNL     1       9.309   6.613 -31.579  1.00  0.00     0.175 A 
HETATM   20  N12 UNL     1       7.400   5.002 -32.657  1.00  0.00    -0.175 N 
HETATM   21  C13 UNL     1       7.844   6.125 -33.298  1.00  0.00     0.679 A 
ATOM     22  H12 UNL     1       6.680   4.422 -33.089  1.00  0.00     0.186 HD
HETATM   23  N13 UNL     1       7.251   6.472 -34.419  1.00  0.00    -0.234 N 
HETATM   24  N14 UNL     1       8.781   6.916 -32.779  1.00  0.00    -0.172 N 
ATOM     25 2H13 UNL     1       6.534   5.865 -34.817  1.00  0.00     0.174 HD
ATOM     26 1H13 UNL     1       7.582   7.309 -34.898  1.00  0.00     0.174 HD
ATOM     27  H14 UNL     1       9.095   7.743 -33.285  1.00  0.00     0.186 HD
BRANCH  18  28
HETATM   28  N11 UNL     1       7.495   3.628 -30.814  1.00  0.00    -0.383 N 
ATOM     29 2H11 UNL     1       8.142   2.967 -30.383  1.00  0.00     0.157 HD
ATOM     30 1H11 UNL     1       6.502   3.413 -30.740  1.00  0.00     0.157 HD
ENDBRANCH  18  28
ENDBRANCH  11  12
ENDBRANCH  10  11
BRANCH   1  31
HETATM   31  C2  UNL     1      12.062   9.714 -33.548  1.00  0.00     0.120 C 
BRANCH  31  32
HETATM   32  N1  UNL     1      10.712   9.393 -33.759  1.00  0.00    -0.163 NA
BRANCH  32  33
HETATM   33  O1  UNL     1      10.633   8.231 -34.560  1.00  0.00    -0.304 OA
HETATM   34  C1  UNL     1      11.435   8.309 -35.658  1.00  0.00     0.230 C 
ENDBRANCH  32  33
BRANCH  32  35
HETATM   35  C15 UNL     1       9.836  10.328 -34.437  1.00  0.00     0.138 C 
BRANCH  35  36
HETATM   36  C16 UNL     1       8.433  10.107 -33.805  1.00  0.00     0.188 C 
BRANCH  36  37
HETATM   37  O3  UNL     1       8.304  10.696 -32.583  1.00  0.00    -0.399 OA
ATOM     38  H3  UNL     1       7.743  10.205 -31.995  1.00  0.00     0.209 HD
ENDBRANCH  36  37
ENDBRANCH  35  36
BRANCH  35  39
HETATM   39  C17 UNL     1      10.278  11.726 -33.989  1.00  0.00     0.188 C 
BRANCH  39  40
HETATM   40  O4  UNL     1       9.464  12.610 -34.729  1.00  0.00    -0.399 OA
ATOM     41  H4  UNL     1       9.151  13.239 -34.090  1.00  0.00     0.209 HD
ENDBRANCH  39  40
ENDBRANCH  35  39
ENDBRANCH  32  35
ENDBRANCH  31  32
ENDBRANCH   1  31
BRANCH   9  42
HETATM   42  C7  UNL     1      16.294  10.198 -29.468  1.00  0.00     0.265 C 
HETATM   43  N5  UNL     1      16.661  10.276 -27.999  1.00  0.00    -0.098 NA
HETATM   44  N6  UNL     1      17.443   9.126 -27.836  1.00  0.00    -0.035 NA
HETATM   45  N7  UNL     1      18.361   9.344 -28.897  1.00  0.00    -0.094 NA
HETATM   46  C8  UNL     1      17.410   9.418 -30.029  1.00  0.00     0.270 C 
BRANCH  46  47
HETATM   47  O2  UNL     1      17.121   8.152 -30.488  1.00  0.00    -0.375 OA
ATOM     48  H2  UNL     1      17.655   7.817 -31.198  1.00  0.00     0.211 HD
ENDBRANCH  46  47
ENDBRANCH   9  42
TORSDOF 13
ENDMDL
MODEL 3
REMARK VINA RESULT: -8.160934220      0.883      1.198
REMARK  13 active torsions:
REMARK  status: ('A' for Active; 'I' for Inactive)
REMARK    1  A    between atoms: O1_2  and  N1_3 
REMARK    2  A    between atoms: N1_3  and  C2_4 
REMARK    3  A    between atoms: N1_3  and  C15_42 
REMARK    4  A    between atoms: C2_4  and  C3_5 
REMARK    5  A    between atoms: N4_13  and  C7_14 
REMARK    6  A    between atoms: C8_18  and  O2_19 
REMARK    7  A    between atoms: C9_21  and  C10_22 
REMARK    8  A    between atoms: C10_22  and  N8_23 
REMARK    9  A    between atoms: C12_29  and  N11_30 
REMARK   10  A    between atoms: C15_42  and  C16_43 
REMARK   11  A    between atoms: C15_42  and  C17_46 
REMARK   12  A    between atoms: C16_43  and  O3_44 
REMARK   13  A    between atoms: C17_46  and  O4_47 
ROOT
HETATM    1  C3  UNL     1      12.763  10.180 -32.113  1.00  0.00     0.059 A 
HETATM    2  N2  UNL     1      13.994  10.424 -31.692  1.00  0.00    -0.339 N 
ATOM      3  H2  UNL     1      14.645  11.048 -32.166  1.00  0.00     0.167 HD
HETATM    4  C4  UNL     1      14.288   9.743 -30.550  1.00  0.00     0.137 A 
HETATM    5  C5  UNL     1      13.154   9.024 -30.255  1.00  0.00     0.040 A 
HETATM    6  C6  UNL     1      13.409   8.306 -29.085  1.00  0.00     0.123 A 
HETATM    7  N3  UNL     1      14.647   8.637 -28.753  1.00  0.00    -0.305 N 
ATOM      8  H3  UNL     1      15.127   8.274 -27.930  1.00  0.00     0.186 HD
HETATM    9  N4  UNL     1      15.185   9.478 -29.588  1.00  0.00    -0.250 N 
HETATM   10  C9  UNL     1      12.192   9.266 -31.191  1.00  0.00     0.025 A 
ENDROOT
BRANCH  10  11
HETATM   11  C10 UNL     1      10.874   8.777 -31.315  1.00  0.00     0.134 C 
BRANCH  11  12
HETATM   12  N8  UNL     1      10.371   7.524 -30.839  1.00  0.00    -0.233 N 
HETATM   13  N9  UNL     1      10.509   6.889 -29.707  1.00  0.00    -0.234 N 
HETATM   14  N10 UNL     1       9.747   5.784 -29.696  1.00  0.00    -0.279 N 
ATOM     15  H9  UNL     1      11.112   7.189 -28.940  1.00  0.00     0.209 HD
HETATM   16  C11 UNL     1       9.094   5.695 -30.848  1.00  0.00     0.140 A 
ATOM     17  H10 UNL     1       9.679   5.120 -28.926  1.00  0.00     0.189 HD
HETATM   18  C12 UNL     1       8.126   4.822 -31.325  1.00  0.00     0.147 A 
HETATM   19  C14 UNL     1       9.493   6.790 -31.575  1.00  0.00     0.175 A 
HETATM   20  N12 UNL     1       7.590   5.105 -32.545  1.00  0.00    -0.175 N 
HETATM   21  C13 UNL     1       8.010   6.202 -33.246  1.00  0.00     0.679 A 
ATOM     22  H12 UNL     1       6.872   4.496 -32.937  1.00  0.00     0.186 HD
HETATM   23  N13 UNL     1       7.395   6.487 -34.372  1.00  0.00    -0.234 N 
HETATM   24  N14 UNL     1       8.944   7.029 -32.779  1.00  0.00    -0.172 N 
ATOM     25 2H13 UNL     1       6.680   5.854 -34.730  1.00  0.00     0.174 HD
ATOM     26 1H13 UNL     1       7.708   7.305 -34.895  1.00  0.00     0.174 HD
ATOM     27  H14 UNL     1       9.240   7.835 -33.329  1.00  0.00     0.186 HD
BRANCH  18  28
HETATM   28  N11 UNL     1       7.732   3.822 -30.641  1.00  0.00    -0.383 N 
ATOM     29 2H11 UNL     1       8.286   3.452 -29.869  1.00  0.00     0.157 HD
ATOM     30 1H11 UNL     1       6.861   3.337 -30.855  1.00  0.00     0.157 HD
ENDBRANCH  18  28
ENDBRANCH  11  12
ENDBRANCH  10  11
BRANCH   1  31
HETATM   31  C2  UNL     1      11.957  10.786 -33.167  1.00  0.00     0.120 C 
BRANCH  31  32
HETATM   32  N1  UNL     1      10.796  10.192 -33.686  1.00  0.00    -0.163 NA
BRANCH  32  33
HETATM   33  O1  UNL     1      11.075   9.677 -34.973  1.00  0.00    -0.304 OA
HETATM   34  C1  UNL     1      11.493   8.382 -34.927  1.00  0.00     0.230 C 
ENDBRANCH  32  33
BRANCH  32  35
HETATM   35  C15 UNL     1       9.601  10.985 -33.895  1.00  0.00     0.138 C 
BRANCH  35  36
HETATM   36  C16 UNL     1       9.599  11.330 -35.412  1.00  0.00     0.188 C 
BRANCH  36  37
HETATM   37  O3  UNL     1      10.262  12.486 -35.693  1.00  0.00    -0.399 OA
ATOM     38  H3  UNL     1      10.544  12.539 -36.599  1.00  0.00     0.209 HD
ENDBRANCH  36  37
ENDBRANCH  35  36
BRANCH  35  39
HETATM   39  C17 UNL     1       8.417  10.033 -33.684  1.00  0.00     0.188 C 
BRANCH  39  40
HETATM   40  O4  UNL     1       8.075  10.190 -32.324  1.00  0.00    -0.399 OA
ATOM     41  H4  UNL     1       7.192   9.845 -32.259  1.00  0.00     0.209 HD
ENDBRANCH  39  40
ENDBRANCH  35  39
ENDBRANCH  32  35
ENDBRANCH  31  32
ENDBRANCH   1  31
BRANCH   9  42
HETATM   42  C7  UNL     1      16.467  10.179 -29.415  1.00  0.00     0.265 C 
HETATM   43  N5  UNL     1      16.721  10.154 -27.920  1.00  0.00    -0.098 NA
HETATM   44  N6  UNL     1      17.556   9.037 -27.788  1.00  0.00    -0.035 NA
HETATM   45  N7  UNL     1      18.534   9.393 -28.754  1.00  0.00    -0.094 NA
HETATM   46  C8  UNL     1      17.665   9.510 -29.947  1.00  0.00     0.270 C 
BRANCH  46  47
HETATM   47  O2  UNL     1      17.487   8.273 -30.526  1.00  0.00    -0.375 OA
ATOM     48  H2  UNL     1      16.931   8.231 -31.295  1.00  0.00     0.211 HD
ENDBRANCH  46  47
ENDBRANCH   9  42
TORSDOF 13
ENDMDL
MODEL 4
REMARK VINA RESULT: -8.001131292      1.391      1.934
REMARK  13 active torsions:
REMARK  status: ('A' for Active; 'I' for Inactive)
REMARK    1  A    between atoms: O1_2  and  N1_3 
REMARK    2  A    between atoms: N1_3  and  C2_4 
REMARK    3  A    between atoms: N1_3  and  C15_42 
REMARK    4  A    between atoms: C2_4  and  C3_5 
REMARK    5  A    between atoms: N4_13  and  C7_14 
REMARK    6  A    between atoms: C8_18  and  O2_19 
REMARK    7  A    between atoms: C9_21  and  C10_22 
REMARK    8  A    between atoms: C10_22  and  N8_23 
REMARK    9  A    between atoms: C12_29  and  N11_30 
REMARK   10  A    between atoms: C15_42  and  C16_43 
REMARK   11  A    between atoms: C15_42  and  C17_46 
REMARK   12  A    between atoms: C16_43  and  O3_44 
REMARK   13  A    between atoms: C17_46  and  O4_47 
ROOT
HETATM    1  C3  UNL     1      12.294  10.022 -32.303  1.00  0.00     0.059 A 
HETATM    2  N2  UNL     1      13.550  10.294 -31.984  1.00  0.00    -0.339 N 
ATOM      3  H2  UNL     1      14.157  10.906 -32.529  1.00  0.00     0.167 HD
HETATM    4  C4  UNL     1      13.936   9.661 -30.842  1.00  0.00     0.137 A 
HETATM    5  C5  UNL     1      12.836   8.943 -30.437  1.00  0.00     0.040 A 
HETATM    6  C6  UNL     1      13.186   8.273 -29.262  1.00  0.00     0.123 A 
HETATM    7  N3  UNL     1      14.440   8.629 -29.036  1.00  0.00    -0.305 N 
ATOM      8  H3  UNL     1      14.985   8.302 -28.238  1.00  0.00     0.186 HD
HETATM    9  N4  UNL     1      14.905   9.442 -29.940  1.00  0.00    -0.250 N 
HETATM   10  C9  UNL     1      11.804   9.139 -31.307  1.00  0.00     0.025 A 
ENDROOT
BRANCH  10  11
HETATM   11  C10 UNL     1      10.488   8.632 -31.314  1.00  0.00     0.134 C 
BRANCH  11  12
HETATM   12  N8  UNL     1      10.057   7.341 -30.871  1.00  0.00    -0.233 N 
HETATM   13  N9  UNL     1      10.264   6.671 -29.770  1.00  0.00    -0.234 N 
HETATM   14  N10 UNL     1       9.552   5.533 -29.777  1.00  0.00    -0.279 N 
ATOM     15  H9  UNL     1      10.878   6.970 -29.012  1.00  0.00     0.209 HD
HETATM   16  C11 UNL     1       8.864   5.457 -30.909  1.00  0.00     0.140 A 
ATOM     17  H10 UNL     1       9.542   4.837 -29.031  1.00  0.00     0.189 HD
HETATM   18  C12 UNL     1       7.920   4.559 -31.387  1.00  0.00     0.147 A 
HETATM   19  C14 UNL     1       9.189   6.596 -31.605  1.00  0.00     0.175 A 
HETATM   20  N12 UNL     1       7.330   4.863 -32.576  1.00  0.00    -0.175 N 
HETATM   21  C13 UNL     1       7.676   6.003 -33.248  1.00  0.00     0.679 A 
ATOM     22  H12 UNL     1       6.626   4.237 -32.968  1.00  0.00     0.186 HD
HETATM   23  N13 UNL     1       7.009   6.302 -34.341  1.00  0.00    -0.234 N 
HETATM   24  N14 UNL     1       8.587   6.854 -32.780  1.00  0.00    -0.172 N 
ATOM     25 2H13 UNL     1       6.312   5.650 -34.699  1.00  0.00     0.174 HD
ATOM     26 1H13 UNL     1       7.267   7.152 -34.842  1.00  0.00     0.174 HD
ATOM     27  H14 UNL     1       8.827   7.693 -33.308  1.00  0.00     0.186 HD
BRANCH  18  28
HETATM   28  N11 UNL     1       7.595   3.517 -30.730  1.00  0.00    -0.383 N 
ATOM     29 2H11 UNL     1       8.286   2.811 -30.473  1.00  0.00     0.157 HD
ATOM     30 1H11 UNL     1       6.630   3.335 -30.458  1.00  0.00     0.157 HD
ENDBRANCH  18  28
ENDBRANCH  11  12
ENDBRANCH  10  11
BRANCH   1  31
HETATM   31  C2  UNL     1      11.405  10.579 -33.317  1.00  0.00     0.120 C 
BRANCH  31  32
HETATM   32  N1  UNL     1      11.308  10.068 -34.620  1.00  0.00    -0.163 NA
BRANCH  32  33
HETATM   33  O1  UNL     1      10.364  10.828 -35.347  1.00  0.00    -0.304 OA
HETATM   34  C1  UNL     1      10.057  11.998 -34.722  1.00  0.00     0.230 C 
ENDBRANCH  32  33
BRANCH  32  35
HETATM   35  C15 UNL     1      10.877   8.701 -34.838  1.00  0.00     0.138 C 
BRANCH  35  36
HETATM   36  C16 UNL     1       9.780   8.788 -35.937  1.00  0.00     0.188 C 
BRANCH  36  37
HETATM   37  O3  UNL     1       8.531   8.529 -35.460  1.00  0.00    -0.399 OA
ATOM     38  H3  UNL     1       7.846   8.749 -36.081  1.00  0.00     0.209 HD
ENDBRANCH  36  37
ENDBRANCH  35  36
BRANCH  35  39
HETATM   39  C17 UNL     1      12.062   7.980 -35.490  1.00  0.00     0.188 C 
BRANCH  39  40
HETATM   40  O4  UNL     1      12.152   8.543 -36.781  1.00  0.00    -0.399 OA
ATOM     41  H4  UNL     1      11.986   7.816 -37.371  1.00  0.00     0.209 HD
ENDBRANCH  39  40
ENDBRANCH  35  39
ENDBRANCH  32  35
ENDBRANCH  31  32
ENDBRANCH   1  31
BRANCH   9  42
HETATM   42  C7  UNL     1      16.188  10.162 -29.890  1.00  0.00     0.265 C 
HETATM   43  N5  UNL     1      16.495  10.296 -28.411  1.00  0.00    -0.098 NA
HETATM   44  N6  UNL     1      17.343   9.203 -28.192  1.00  0.00    -0.035 NA
HETATM   45  N7  UNL     1      18.283   9.456 -29.226  1.00  0.00    -0.094 NA
HETATM   46  C8  UNL     1      17.370   9.444 -30.391  1.00  0.00     0.270 C 
BRANCH  46  47
HETATM   47  O2  UNL     1      17.180   8.151 -30.829  1.00  0.00    -0.375 OA
ATOM     48  H2  UNL     1      16.858   7.522 -30.194  1.00  0.00     0.211 HD
ENDBRANCH  46  47
ENDBRANCH   9  42
TORSDOF 13
ENDMDL
MODEL 5
REMARK VINA RESULT: -7.731167488      1.888      2.397
REMARK  13 active torsions:
REMARK  status: ('A' for Active; 'I' for Inactive)
REMARK    1  A    between atoms: O1_2  and  N1_3 
REMARK    2  A    between atoms: N1_3  and  C2_4 
REMARK    3  A    between atoms: N1_3  and  C15_42 
REMARK    4  A    between atoms: C2_4  and  C3_5 
REMARK    5  A    between atoms: N4_13  and  C7_14 
REMARK    6  A    between atoms: C8_18  and  O2_19 
REMARK    7  A    between atoms: C9_21  and  C10_22 
REMARK    8  A    between atoms: C10_22  and  N8_23 
REMARK    9  A    between atoms: C12_29  and  N11_30 
REMARK   10  A    between atoms: C15_42  and  C16_43 
REMARK   11  A    between atoms: C15_42  and  C17_46 
REMARK   12  A    between atoms: C16_43  and  O3_44 
REMARK   13  A    between atoms: C17_46  and  O4_47 
ROOT
HETATM    1  C3  UNL     1      12.641   9.856 -31.760  1.00  0.00     0.059 A 
HETATM    2  N2  UNL     1      13.931  10.124 -31.634  1.00  0.00    -0.339 N 
ATOM      3  H2  UNL     1      14.475  10.644 -32.322  1.00  0.00     0.167 HD
HETATM    4  C4  UNL     1      14.447   9.622 -30.478  1.00  0.00     0.137 A 
HETATM    5  C5  UNL     1      13.395   8.996 -29.854  1.00  0.00     0.040 A 
HETATM    6  C6  UNL     1      13.877   8.463 -28.656  1.00  0.00     0.123 A 
HETATM    7  N3  UNL     1      15.157   8.803 -28.632  1.00  0.00    -0.305 N 
ATOM      8  H3  UNL     1      15.791   8.558 -27.873  1.00  0.00     0.186 HD
HETATM    9  N4  UNL     1      15.518   9.483 -29.681  1.00  0.00    -0.250 N 
HETATM   10  C9  UNL     1      12.265   9.118 -30.609  1.00  0.00     0.025 A 
ENDROOT
BRANCH  10  11
HETATM   11  C10 UNL     1      10.949   8.658 -30.391  1.00  0.00     0.134 C 
BRANCH  11  12
HETATM   12  N8  UNL     1      10.294   7.571 -31.053  1.00  0.00    -0.233 N 
HETATM   13  N9  UNL     1      10.327   6.278 -30.873  1.00  0.00    -0.234 N 
HETATM   14  N10 UNL     1       9.446   5.673 -31.684  1.00  0.00    -0.279 N 
ATOM     15  H9  UNL     1      10.936   5.797 -30.211  1.00  0.00     0.209 HD
HETATM   16  C11 UNL     1       8.821   6.590 -32.412  1.00  0.00     0.140 A 
ATOM     17  H10 UNL     1       9.281   4.668 -31.733  1.00  0.00     0.189 HD
HETATM   18  C12 UNL     1       7.776   6.529 -33.322  1.00  0.00     0.147 A 
HETATM   19  C14 UNL     1       9.363   7.791 -32.019  1.00  0.00     0.175 A 
HETATM   20  N12 UNL     1       7.312   7.716 -33.805  1.00  0.00    -0.175 N 
HETATM   21  C13 UNL     1       7.873   8.894 -33.398  1.00  0.00     0.679 A 
ATOM     22  H12 UNL     1       6.542   7.724 -34.475  1.00  0.00     0.186 HD
HETATM   23  N13 UNL     1       7.328  10.015 -33.817  1.00  0.00    -0.234 N 
HETATM   24  N14 UNL     1       8.879   8.939 -32.527  1.00  0.00    -0.172 N 
ATOM     25 2H13 UNL     1       6.557   9.981 -34.484  1.00  0.00     0.174 HD
ATOM     26 1H13 UNL     1       7.746  10.894 -33.513  1.00  0.00     0.174 HD
ATOM     27  H14 UNL     1       9.280   9.834 -32.248  1.00  0.00     0.186 HD
BRANCH  18  28
HETATM   28  N11 UNL     1       7.253   5.420 -33.666  1.00  0.00    -0.383 N 
ATOM     29 2H11 UNL     1       6.996   4.715 -32.975  1.00  0.00     0.157 HD
ATOM     30 1H11 UNL     1       7.095   5.183 -34.645  1.00  0.00     0.157 HD
ENDBRANCH  18  28
ENDBRANCH  11  12
ENDBRANCH  10  11
BRANCH   1  31
HETATM   31  C2  UNL     1      11.641  10.314 -32.719  1.00  0.00     0.120 C 
BRANCH  31  32
HETATM   32  N1  UNL     1      11.661   9.963 -34.078  1.00  0.00    -0.163 NA
BRANCH  32  33
HETATM   33  O1  UNL     1      10.547  10.547 -34.723  1.00  0.00    -0.304 OA
HETATM   34  C1  UNL     1      10.304  11.812 -34.282  1.00  0.00     0.230 C 
ENDBRANCH  32  33
BRANCH  32  35
HETATM   35  C15 UNL     1      11.585   8.571 -34.473  1.00  0.00     0.138 C 
BRANCH  35  36
HETATM   36  C16 UNL     1      10.813   8.570 -35.823  1.00  0.00     0.188 C 
BRANCH  36  37
HETATM   37  O3  UNL     1      11.598   8.918 -36.881  1.00  0.00    -0.399 OA
ATOM     38  H3  UNL     1      12.521   8.957 -36.659  1.00  0.00     0.209 HD
ENDBRANCH  36  37
ENDBRANCH  35  36
BRANCH  35  39
HETATM   39  C17 UNL     1      13.019   8.146 -34.814  1.00  0.00     0.188 C 
BRANCH  39  40
HETATM   40  O4  UNL     1      12.885   6.852 -35.359  1.00  0.00    -0.399 OA
ATOM     41  H4  UNL     1      13.765   6.496 -35.349  1.00  0.00     0.209 HD
ENDBRANCH  39  40
ENDBRANCH  35  39
ENDBRANCH  32  35
ENDBRANCH  31  32
ENDBRANCH   1  31
BRANCH   9  42
HETATM   42  C7  UNL     1      16.809  10.162 -29.879  1.00  0.00     0.265 C 
HETATM   43  N5  UNL     1      17.366  10.344 -28.481  1.00  0.00    -0.098 NA
HETATM   44  N6  UNL     1      18.209   9.232 -28.360  1.00  0.00    -0.035 NA
HETATM   45  N7  UNL     1      18.967   9.413 -29.546  1.00  0.00    -0.094 NA
HETATM   46  C8  UNL     1      17.870   9.385 -30.540  1.00  0.00     0.270 C 
BRANCH  46  47
HETATM   47  O2  UNL     1      17.575   8.083 -30.882  1.00  0.00    -0.375 OA
ATOM     48  H2  UNL     1      17.685   7.424 -30.208  1.00  0.00     0.211 HD
ENDBRANCH  46  47
ENDBRANCH   9  42
TORSDOF 13
ENDMDL
