MODEL 1
REMARK VINA RESULT: -9.259525149      0.000      0.000
REMARK  16 active torsions:
REMARK  status: ('A' for Active; 'I' for Inactive)
REMARK    1  A    between atoms: N1_1  and  C1_4 
REMARK    2  A    between atoms: C2_7  and  S1_8 
REMARK    3  A    between atoms: S1_8  and  C3_9 
REMARK    4  A    between atoms: C3_9  and  C4_10 
REMARK    5  A    between atoms: C4_10  and  C5_12 
REMARK    6  A    between atoms: C6_16  and  C7_17 
REMARK    7  A    between atoms: C7_17  and  C8_18 
REMARK    8  A    between atoms: C8_18  and  O3_19 
REMARK    9  A    between atoms: C8_18  and  O4_21 
REMARK   10  A    between atoms: C9_23  and  O5_24 
REMARK   11  A    between atoms: C10_28  and  N5_29 
REMARK   12  A    between atoms: N5_29  and  C11_31 
REMARK   13  A    between atoms: C13_38  and  C14_39 
REMARK   14  A    between atoms: C14_39  and  O6_40 
REMARK   15  A    between atoms: C14_39  and  N9_42 
REMARK   16  A    between atoms: N9_42  and  N10_43 
ROOT
HETATM    1  C1  UNL     1      12.061   9.025 -29.219  1.00  0.00     0.692 A 
HETATM    2  N2  UNL     1      13.401   8.826 -29.198  1.00  0.00    -0.170 N 
ATOM      3  H2  UNL     1      13.890   8.852 -28.304  1.00  0.00     0.186 HD
HETATM    4  C2  UNL     1      14.105   8.594 -30.317  1.00  0.00     0.174 A 
HETATM    5  N4  UNL     1      13.404   8.572 -31.464  1.00  0.00    -0.169 N 
ATOM      6  H4  UNL     1      13.905   8.400 -32.335  1.00  0.00     0.186 HD
HETATM    7  C10 UNL     1      12.058   8.769 -31.518  1.00  0.00     0.700 A 
HETATM    8  N11 UNL     1      11.383   8.998 -30.385  1.00  0.00    -0.022 N 
ATOM      9  H11 UNL     1      10.375   9.149 -30.403  1.00  0.00     0.203 HD
ENDROOT
BRANCH   4  10
HETATM   10  S1  UNL     1      15.873   8.335 -30.325  1.00  0.00    -0.085 SA
BRANCH  10  11
HETATM   11  C3  UNL     1      16.624   9.829 -29.570  1.00  0.00     0.168 C 
BRANCH  11  12
HETATM   12  C4  UNL     1      18.012   9.545 -29.223  1.00  0.00     0.190 C 
HETATM   13  O1  UNL     1      18.336   9.311 -27.995  1.00  0.00    -0.290 OA
BRANCH  12  14
HETATM   14  C5  UNL     1      19.088   9.502 -30.183  1.00  0.00     0.137 A 
HETATM   15  N3  UNL     1      18.887   9.364 -31.533  1.00  0.00    -0.255 N 
HETATM   16  O2  UNL     1      20.001   9.358 -32.159  1.00  0.00    -0.239 OA
ATOM     17  H3  UNL     1      17.972   9.278 -31.976  1.00  0.00     0.195 HD
HETATM   18  C6  UNL     1      21.011   9.484 -31.348  1.00  0.00     0.116 A 
HETATM   19  C9  UNL     1      20.450   9.579 -30.056  1.00  0.00     0.130 A 
BRANCH  18  20
HETATM   20  C7  UNL     1      22.454   9.522 -31.675  1.00  0.00     0.130 C 
BRANCH  20  21
HETATM   21  C8  UNL     1      22.950   8.270 -32.345  1.00  0.00     0.260 C 
BRANCH  21  22
HETATM   22  O3  UNL     1      21.949   7.810 -33.225  1.00  0.00    -0.371 OA
ATOM     23  H3  UNL     1      21.228   7.471 -32.707  1.00  0.00     0.212 HD
ENDBRANCH  21  22
BRANCH  21  24
HETATM   24  O4  UNL     1      24.080   8.473 -33.103  1.00  0.00    -0.371 OA
ATOM     25  H4  UNL     1      24.382   9.373 -33.089  1.00  0.00     0.212 HD
ENDBRANCH  21  24
ENDBRANCH  20  21
ENDBRANCH  18  20
BRANCH  19  26
HETATM   26  O5  UNL     1      21.203   9.722 -28.932  1.00  0.00    -0.356 OA
ATOM     27  H5  UNL     1      20.974  10.125 -28.102  1.00  0.00     0.218 HD
ENDBRANCH  19  26
ENDBRANCH  12  14
ENDBRANCH  11  12
ENDBRANCH  10  11
ENDBRANCH   4  10
BRANCH   1  28
HETATM   28  N1  UNL     1      11.385   9.247 -28.118  1.00  0.00    -0.234 N 
ATOM     29  H12 UNL     1      11.741   9.949 -27.470  1.00  0.00     0.174 HD
ATOM     30  H11 UNL     1      10.525   8.738 -27.909  1.00  0.00     0.174 HD
ENDBRANCH   1  28
BRANCH   7  31
HETATM   31  N5  UNL     1      11.438   8.736 -32.655  1.00  0.00    -0.174 N 
ATOM     32  H5  UNL     1      11.932   8.383 -33.475  1.00  0.00     0.186 HD
BRANCH  31  33
HETATM   33  C11 UNL     1      10.099   9.171 -32.802  1.00  0.00     0.149 A 
HETATM   34  N6  UNL     1       9.666  10.428 -33.023  1.00  0.00    -0.283 N 
HETATM   35  N7  UNL     1       8.367  10.421 -33.090  1.00  0.00    -0.286 N 
ATOM     36  H6  UNL     1      10.261  11.251 -33.123  1.00  0.00     0.188 HD
HETATM   37  C12 UNL     1       7.882   9.181 -32.918  1.00  0.00     0.144 A 
ATOM     38  H7  UNL     1       7.792  11.248 -33.252  1.00  0.00     0.188 HD
HETATM   39  N8  UNL     1       6.491   8.796 -32.932  1.00  0.00    -0.081 NA
HETATM   40  C13 UNL     1       8.977   8.378 -32.734  1.00  0.00     0.076 A 
BRANCH  40  41
HETATM   41  C14 UNL     1       8.886   6.908 -32.508  1.00  0.00     0.271 C 
BRANCH  41  42
HETATM   42  O6  UNL     1       9.885   6.311 -33.311  1.00  0.00    -0.374 OA
ATOM     43  H6  UNL     1      10.534   5.952 -32.716  1.00  0.00     0.212 HD
ENDBRANCH  41  42
BRANCH  41  44
HETATM   44  N9  UNL     1       9.300   6.685 -31.129  1.00  0.00    -0.111 NA
BRANCH  44  45
HETATM   45  N10 UNL     1       9.550   5.358 -30.857  1.00  0.00    -0.346 N 
ATOM     46 2H10 UNL     1      10.189   4.790 -31.413  1.00  0.00     0.172 HD
ATOM     47 1H10 UNL     1       9.028   5.018 -30.049  1.00  0.00     0.172 HD
ENDBRANCH  44  45
ENDBRANCH  41  44
ENDBRANCH  40  41
ENDBRANCH  31  33
ENDBRANCH   7  31
TORSDOF 16
ENDMDL
MODEL 2
REMARK VINA RESULT: -8.770427977      2.855      9.942
REMARK  16 active torsions:
REMARK  status: ('A' for Active; 'I' for Inactive)
REMARK    1  A    between atoms: N1_1  and  C1_4 
REMARK    2  A    between atoms: C2_7  and  S1_8 
REMARK    3  A    between atoms: S1_8  and  C3_9 
REMARK    4  A    between atoms: C3_9  and  C4_10 
REMARK    5  A    between atoms: C4_10  and  C5_12 
REMARK    6  A    between atoms: C6_16  and  C7_17 
REMARK    7  A    between atoms: C7_17  and  C8_18 
REMARK    8  A    between atoms: C8_18  and  O3_19 
REMARK    9  A    between atoms: C8_18  and  O4_21 
REMARK   10  A    between atoms: C9_23  and  O5_24 
REMARK   11  A    between atoms: C10_28  and  N5_29 
REMARK   12  A    between atoms: N5_29  and  C11_31 
REMARK   13  A    between atoms: C13_38  and  C14_39 
REMARK   14  A    between atoms: C14_39  and  O6_40 
REMARK   15  A    between atoms: C14_39  and  N9_42 
REMARK   16  A    between atoms: N9_42  and  N10_43 
ROOT
HETATM    1  C1  UNL     1      12.055   8.885 -29.166  1.00  0.00     0.692 A 
HETATM    2  N2  UNL     1      11.507   9.119 -30.383  1.00  0.00    -0.170 N 
ATOM      3  H2  UNL     1      10.539   9.434 -30.437  1.00  0.00     0.186 HD
HETATM    4  C2  UNL     1      12.199   8.950 -31.521  1.00  0.00     0.174 A 
HETATM    5  N4  UNL     1      13.470   8.532 -31.384  1.00  0.00    -0.169 N 
ATOM      6  H4  UNL     1      14.027   8.391 -32.226  1.00  0.00     0.186 HD
HETATM    7  C10 UNL     1      14.048   8.288 -30.176  1.00  0.00     0.700 A 
HETATM    8  N11 UNL     1      13.332   8.466 -29.058  1.00  0.00    -0.022 N 
ATOM      9  H11 UNL     1      13.746   8.288 -28.143  1.00  0.00     0.203 HD
ENDROOT
BRANCH   4  10
HETATM   10  S1  UNL     1      11.506   9.241 -33.141  1.00  0.00    -0.085 SA
BRANCH  10  11
HETATM   11  C3  UNL     1       9.683   9.149 -32.954  1.00  0.00     0.168 C 
BRANCH  11  12
HETATM   12  C4  UNL     1       9.182   8.000 -33.699  1.00  0.00     0.190 C 
HETATM   13  O1  UNL     1       9.233   7.994 -34.989  1.00  0.00    -0.290 OA
BRANCH  12  14
HETATM   14  C5  UNL     1       8.614   6.826 -33.080  1.00  0.00     0.137 A 
HETATM   15  N3  UNL     1       7.385   6.319 -33.417  1.00  0.00    -0.255 N 
HETATM   16  O2  UNL     1       7.120   5.277 -32.726  1.00  0.00    -0.239 OA
ATOM     17  H3  UNL     1       6.767   6.719 -34.123  1.00  0.00     0.195 HD
HETATM   18  C6  UNL     1       8.083   4.988 -31.900  1.00  0.00     0.116 A 
HETATM   19  C9  UNL     1       9.069   5.977 -32.106  1.00  0.00     0.130 A 
BRANCH  18  20
HETATM   20  C7  UNL     1       8.163   3.869 -30.935  1.00  0.00     0.130 C 
BRANCH  20  21
HETATM   21  C8  UNL     1       8.202   4.317 -29.499  1.00  0.00     0.260 C 
BRANCH  21  22
HETATM   22  O3  UNL     1       9.548   4.348 -29.080  1.00  0.00    -0.371 OA
ATOM     23  H3  UNL     1       9.684   5.136 -28.568  1.00  0.00     0.212 HD
ENDBRANCH  21  22
BRANCH  21  24
HETATM   24  O4  UNL     1       7.700   5.584 -29.313  1.00  0.00    -0.371 OA
ATOM     25  H4  UNL     1       6.848   5.591 -28.895  1.00  0.00     0.212 HD
ENDBRANCH  21  24
ENDBRANCH  20  21
ENDBRANCH  18  20
BRANCH  19  26
HETATM   26  O5  UNL     1      10.241   6.009 -31.415  1.00  0.00    -0.356 OA
ATOM     27  H5  UNL     1      10.423   6.373 -30.557  1.00  0.00     0.218 HD
ENDBRANCH  19  26
ENDBRANCH  12  14
ENDBRANCH  11  12
ENDBRANCH  10  11
ENDBRANCH   4  10
BRANCH   1  28
HETATM   28  N1  UNL     1      11.368   9.058 -28.062  1.00  0.00    -0.234 N 
ATOM     29  H12 UNL     1      10.429   8.665 -28.016  1.00  0.00     0.174 HD
ATOM     30  H11 UNL     1      11.756   9.569 -27.268  1.00  0.00     0.174 HD
ENDBRANCH   1  28
BRANCH   7  31
HETATM   31  N5  UNL     1      15.278   7.887 -30.109  1.00  0.00    -0.174 N 
ATOM     32  H5  UNL     1      15.495   7.054 -29.561  1.00  0.00     0.186 HD
BRANCH  31  33
HETATM   33  C11 UNL     1      16.333   8.563 -30.767  1.00  0.00     0.149 A 
HETATM   34  N6  UNL     1      16.468   8.778 -32.091  1.00  0.00    -0.283 N 
HETATM   35  N7  UNL     1      17.575   9.428 -32.303  1.00  0.00    -0.286 N 
ATOM     36  H6  UNL     1      15.808   8.480 -32.810  1.00  0.00     0.188 HD
HETATM   37  C12 UNL     1      18.219   9.671 -31.150  1.00  0.00     0.144 A 
ATOM     38  H7  UNL     1      17.910   9.714 -33.222  1.00  0.00     0.188 HD
HETATM   39  N8  UNL     1      19.473  10.368 -31.001  1.00  0.00    -0.081 NA
HETATM   40  C13 UNL     1      17.436   9.125 -30.167  1.00  0.00     0.076 A 
BRANCH  40  41
HETATM   41  C14 UNL     1      17.786   9.174 -28.719  1.00  0.00     0.271 C 
BRANCH  41  42
HETATM   42  O6  UNL     1      19.125   9.621 -28.639  1.00  0.00    -0.374 OA
ATOM     43  H6  UNL     1      19.253  10.228 -29.359  1.00  0.00     0.212 HD
ENDBRANCH  41  42
BRANCH  41  44
HETATM   44  N9  UNL     1      16.977  10.241 -28.145  1.00  0.00    -0.111 NA
BRANCH  44  45
HETATM   45  N10 UNL     1      16.126   9.790 -27.159  1.00  0.00    -0.346 N 
ATOM     46 2H10 UNL     1      16.255   8.897 -26.683  1.00  0.00     0.172 HD
ATOM     47 1H10 UNL     1      15.366  10.443 -26.967  1.00  0.00     0.172 HD
ENDBRANCH  44  45
ENDBRANCH  41  44
ENDBRANCH  40  41
ENDBRANCH  31  33
ENDBRANCH   7  31
TORSDOF 16
ENDMDL
MODEL 3
REMARK VINA RESULT: -8.680669104      1.610      2.103
REMARK  16 active torsions:
REMARK  status: ('A' for Active; 'I' for Inactive)
REMARK    1  A    between atoms: N1_1  and  C1_4 
REMARK    2  A    between atoms: C2_7  and  S1_8 
REMARK    3  A    between atoms: S1_8  and  C3_9 
REMARK    4  A    between atoms: C3_9  and  C4_10 
REMARK    5  A    between atoms: C4_10  and  C5_12 
REMARK    6  A    between atoms: C6_16  and  C7_17 
REMARK    7  A    between atoms: C7_17  and  C8_18 
REMARK    8  A    between atoms: C8_18  and  O3_19 
REMARK    9  A    between atoms: C8_18  and  O4_21 
REMARK   10  A    between atoms: C9_23  and  O5_24 
REMARK   11  A    between atoms: C10_28  and  N5_29 
REMARK   12  A    between atoms: N5_29  and  C11_31 
REMARK   13  A    between atoms: C13_38  and  C14_39 
REMARK   14  A    between atoms: C14_39  and  O6_40 
REMARK   15  A    between atoms: C14_39  and  N9_42 
REMARK   16  A    between atoms: N9_42  and  N10_43 
ROOT
HETATM    1  C1  UNL     1      12.427  11.524 -31.872  1.00  0.00     0.692 A 
HETATM    2  N2  UNL     1      13.002  10.592 -31.074  1.00  0.00    -0.170 N 
ATOM      3  H2  UNL     1      13.604  10.899 -30.310  1.00  0.00     0.186 HD
HETATM    4  C2  UNL     1      12.804   9.277 -31.257  1.00  0.00     0.174 A 
HETATM    5  N4  UNL     1      12.003   8.935 -32.280  1.00  0.00    -0.169 N 
ATOM      6  H4  UNL     1      11.830   7.945 -32.451  1.00  0.00     0.186 HD
HETATM    7  C10 UNL     1      11.411   9.848 -33.100  1.00  0.00     0.700 A 
HETATM    8  N11 UNL     1      11.628  11.153 -32.893  1.00  0.00    -0.022 N 
ATOM      9  H11 UNL     1      11.195  11.852 -33.495  1.00  0.00     0.203 HD
ENDROOT
BRANCH   4  10
HETATM   10  S1  UNL     1      13.553   8.022 -30.228  1.00  0.00    -0.085 SA
BRANCH  10  11
HETATM   11  C3  UNL     1      15.275   7.815 -30.825  1.00  0.00     0.168 C 
BRANCH  11  12
HETATM   12  C4  UNL     1      16.151   8.715 -30.084  1.00  0.00     0.190 C 
HETATM   13  O1  UNL     1      15.807   9.130 -28.910  1.00  0.00    -0.290 OA
BRANCH  12  14
HETATM   14  C5  UNL     1      17.418   9.193 -30.580  1.00  0.00     0.137 A 
HETATM   15  N3  UNL     1      17.647   9.484 -31.901  1.00  0.00    -0.255 N 
HETATM   16  O2  UNL     1      18.846   9.891 -32.074  1.00  0.00    -0.239 OA
ATOM     17  H3  UNL     1      16.954   9.388 -32.644  1.00  0.00     0.195 HD
HETATM   18  C6  UNL     1      19.513   9.917 -30.957  1.00  0.00     0.116 A 
HETATM   19  C9  UNL     1      18.612   9.468 -29.967  1.00  0.00     0.130 A 
BRANCH  18  20
HETATM   20  C7  UNL     1      20.919  10.323 -30.734  1.00  0.00     0.130 C 
BRANCH  20  21
HETATM   21  C8  UNL     1      21.918   9.414 -31.396  1.00  0.00     0.260 C 
BRANCH  21  22
HETATM   22  O3  UNL     1      21.276   8.747 -32.459  1.00  0.00    -0.371 OA
ATOM     23  H3  UNL     1      20.477   8.354 -32.127  1.00  0.00     0.212 HD
ENDBRANCH  21  22
BRANCH  21  24
HETATM   24  O4  UNL     1      22.987  10.088 -31.939  1.00  0.00    -0.371 OA
ATOM     25  H4  UNL     1      22.965  10.121 -32.888  1.00  0.00     0.212 HD
ENDBRANCH  21  24
ENDBRANCH  20  21
ENDBRANCH  18  20
BRANCH  19  26
HETATM   26  O5  UNL     1      18.951   9.358 -28.654  1.00  0.00    -0.356 OA
ATOM     27  H5  UNL     1      19.188   8.584 -28.157  1.00  0.00     0.218 HD
ENDBRANCH  19  26
ENDBRANCH  12  14
ENDBRANCH  11  12
ENDBRANCH  10  11
ENDBRANCH   4  10
BRANCH   1  28
HETATM   28  N1  UNL     1      12.626  12.806 -31.680  1.00  0.00    -0.234 N 
ATOM     29  H12 UNL     1      13.317  13.276 -32.264  1.00  0.00     0.174 HD
ATOM     30  H11 UNL     1      12.108  13.324 -30.970  1.00  0.00     0.174 HD
ENDBRANCH   1  28
BRANCH   7  31
HETATM   31  N5  UNL     1      10.648   9.456 -34.071  1.00  0.00    -0.174 N 
ATOM     32  H5  UNL     1      11.080   9.130 -34.935  1.00  0.00     0.186 HD
BRANCH  31  33
HETATM   33  C11 UNL     1       9.236   9.465 -33.976  1.00  0.00     0.149 A 
HETATM   34  N6  UNL     1       8.391  10.416 -34.419  1.00  0.00    -0.283 N 
HETATM   35  N7  UNL     1       7.171  10.062 -34.136  1.00  0.00    -0.286 N 
ATOM     36  H6  UNL     1       8.663  11.275 -34.898  1.00  0.00     0.188 HD
HETATM   37  C12 UNL     1       7.147   8.879 -33.502  1.00  0.00     0.144 A 
ATOM     38  H7  UNL     1       6.342  10.610 -34.366  1.00  0.00     0.188 HD
HETATM   39  N8  UNL     1       5.973   8.179 -33.041  1.00  0.00    -0.081 NA
HETATM   40  C13 UNL     1       8.456   8.491 -33.396  1.00  0.00     0.076 A 
BRANCH  40  41
HETATM   41  C14 UNL     1       8.883   7.216 -32.751  1.00  0.00     0.271 C 
BRANCH  41  42
HETATM   42  O6  UNL     1      10.019   6.762 -33.460  1.00  0.00    -0.374 OA
ATOM     43  H6  UNL     1       9.836   6.896 -34.383  1.00  0.00     0.212 HD
ENDBRANCH  41  42
BRANCH  41  44
HETATM   44  N9  UNL     1       9.363   7.577 -31.423  1.00  0.00    -0.111 NA
BRANCH  44  45
HETATM   45  N10 UNL     1       9.856   6.496 -30.725  1.00  0.00    -0.346 N 
ATOM     46 2H10 UNL     1       9.448   6.171 -29.848  1.00  0.00     0.172 HD
ATOM     47 1H10 UNL     1      10.662   6.068 -31.180  1.00  0.00     0.172 HD
ENDBRANCH  44  45
ENDBRANCH  41  44
ENDBRANCH  40  41
ENDBRANCH  31  33
ENDBRANCH   7  31
TORSDOF 16
ENDMDL
MODEL 4
REMARK VINA RESULT: -8.637468151      3.113      9.694
REMARK  16 active torsions:
REMARK  status: ('A' for Active; 'I' for Inactive)
REMARK    1  A    between atoms: N1_1  and  C1_4 
REMARK    2  A    between atoms: C2_7  and  S1_8 
REMARK    3  A    between atoms: S1_8  and  C3_9 
REMARK    4  A    between atoms: C3_9  and  C4_10 
REMARK    5  A    between atoms: C4_10  and  C5_12 
REMARK    6  A    between atoms: C6_16  and  C7_17 
REMARK    7  A    between atoms: C7_17  and  C8_18 
REMARK    8  A    between atoms: C8_18  and  O3_19 
REMARK    9  A    between atoms: C8_18  and  O4_21 
REMARK   10  A    between atoms: C9_23  and  O5_24 
REMARK   11  A    between atoms: C10_28  and  N5_29 
REMARK   12  A    between atoms: N5_29  and  C11_31 
REMARK   13  A    between atoms: C13_38  and  C14_39 
REMARK   14  A    between atoms: C14_39  and  O6_40 
REMARK   15  A    between atoms: C14_39  and  N9_42 
REMARK   16  A    between atoms: N9_42  and  N10_43 
ROOT
HETATM    1  C1  UNL     1      12.025   9.055 -28.935  1.00  0.00     0.692 A 
HETATM    2  N2  UNL     1      11.733   9.584 -30.148  1.00  0.00    -0.170 N 
ATOM      3  H2  UNL     1      10.836  10.050 -30.281  1.00  0.00     0.186 HD
HETATM    4  C2  UNL     1      12.588   9.516 -31.180  1.00  0.00     0.174 A 
HETATM    5  N4  UNL     1      13.753   8.889 -30.943  1.00  0.00    -0.169 N 
ATOM      6  H4  UNL     1      14.428   8.815 -31.704  1.00  0.00     0.186 HD
HETATM    7  C10 UNL     1      14.076   8.347 -29.736  1.00  0.00     0.700 A 
HETATM    8  N11 UNL     1      13.202   8.431 -28.725  1.00  0.00    -0.022 N 
ATOM      9  H11 UNL     1      13.423   8.032 -27.813  1.00  0.00     0.203 HD
ENDROOT
BRANCH   4  10
HETATM   10  S1  UNL     1      12.232  10.195 -32.794  1.00  0.00    -0.085 SA
BRANCH  10  11
HETATM   11  C3  UNL     1      11.364   8.881 -33.735  1.00  0.00     0.168 C 
BRANCH  11  12
HETATM   12  C4  UNL     1      10.014   8.724 -33.205  1.00  0.00     0.190 C 
HETATM   13  O1  UNL     1       9.235   9.749 -33.107  1.00  0.00    -0.290 OA
BRANCH  12  14
HETATM   14  C5  UNL     1       9.464   7.464 -32.768  1.00  0.00     0.137 A 
HETATM   15  N3  UNL     1       8.369   6.879 -33.352  1.00  0.00    -0.255 N 
HETATM   16  O2  UNL     1       8.089   5.770 -32.781  1.00  0.00    -0.239 OA
ATOM     17  H3  UNL     1       7.849   7.275 -34.136  1.00  0.00     0.195 HD
HETATM   18  C6  UNL     1       8.914   5.505 -31.810  1.00  0.00     0.116 A 
HETATM   19  C9  UNL     1       9.820   6.588 -31.777  1.00  0.00     0.130 A 
BRANCH  18  20
HETATM   20  C7  UNL     1       8.931   4.330 -30.911  1.00  0.00     0.130 C 
BRANCH  20  21
HETATM   21  C8  UNL     1       7.678   4.185 -30.091  1.00  0.00     0.260 C 
BRANCH  21  22
HETATM   22  O3  UNL     1       7.533   5.340 -29.295  1.00  0.00    -0.371 OA
ATOM     23  H3  UNL     1       7.251   5.072 -28.428  1.00  0.00     0.212 HD
ENDBRANCH  21  22
BRANCH  21  24
HETATM   24  O4  UNL     1       6.539   4.084 -30.855  1.00  0.00    -0.371 OA
ATOM     25  H4  UNL     1       6.370   3.200 -31.158  1.00  0.00     0.212 HD
ENDBRANCH  21  24
ENDBRANCH  20  21
ENDBRANCH  18  20
BRANCH  19  26
HETATM   26  O5  UNL     1      10.842   6.670 -30.882  1.00  0.00    -0.356 OA
ATOM     27  H5  UNL     1      11.071   7.380 -30.295  1.00  0.00     0.218 HD
ENDBRANCH  19  26
ENDBRANCH  12  14
ENDBRANCH  11  12
ENDBRANCH  10  11
ENDBRANCH   4  10
BRANCH   1  28
HETATM   28  N1  UNL     1      11.182   9.133 -27.934  1.00  0.00    -0.234 N 
ATOM     29  H12 UNL     1      11.223   9.958 -27.336  1.00  0.00     0.174 HD
ATOM     30  H11 UNL     1      10.501   8.395 -27.753  1.00  0.00     0.174 HD
ENDBRANCH   1  28
BRANCH   7  31
HETATM   31  N5  UNL     1      15.216   7.755 -29.569  1.00  0.00    -0.174 N 
ATOM     32  H5  UNL     1      15.273   6.747 -29.718  1.00  0.00     0.186 HD
BRANCH  31  33
HETATM   33  C11 UNL     1      16.385   8.455 -29.187  1.00  0.00     0.149 A 
HETATM   34  N6  UNL     1      16.709   8.897 -27.955  1.00  0.00    -0.283 N 
HETATM   35  N7  UNL     1      17.861   9.500 -28.013  1.00  0.00    -0.286 N 
ATOM     36  H6  UNL     1      16.144   8.778 -27.115  1.00  0.00     0.188 HD
HETATM   37  C12 UNL     1      18.349   9.489 -29.264  1.00  0.00     0.144 A 
ATOM     38  H7  UNL     1      18.331   9.926 -27.215  1.00  0.00     0.188 HD
HETATM   39  N8  UNL     1      19.599  10.060 -29.700  1.00  0.00    -0.081 NA
HETATM   40  C13 UNL     1      17.416   8.825 -30.018  1.00  0.00     0.076 A 
BRANCH  40  41
HETATM   41  C14 UNL     1      17.567   8.584 -31.481  1.00  0.00     0.271 C 
BRANCH  41  42
HETATM   42  O6  UNL     1      17.114   7.267 -31.725  1.00  0.00    -0.374 OA
ATOM     43  H6  UNL     1      16.267   7.344 -32.150  1.00  0.00     0.212 HD
ENDBRANCH  41  42
BRANCH  41  44
HETATM   44  N9  UNL     1      16.606   9.461 -32.136  1.00  0.00    -0.111 NA
BRANCH  44  45
HETATM   45  N10 UNL     1      15.938   8.841 -33.169  1.00  0.00    -0.346 N 
ATOM     46 2H10 UNL     1      16.410   8.497 -34.006  1.00  0.00     0.172 HD
ATOM     47 1H10 UNL     1      14.934   8.768 -33.001  1.00  0.00     0.172 HD
ENDBRANCH  44  45
ENDBRANCH  41  44
ENDBRANCH  40  41
ENDBRANCH  31  33
ENDBRANCH   7  31
TORSDOF 16
ENDMDL
MODEL 5
REMARK VINA RESULT: -8.607656306      1.796      2.851
REMARK  16 active torsions:
REMARK  status: ('A' for Active; 'I' for Inactive)
REMARK    1  A    between atoms: N1_1  and  C1_4 
REMARK    2  A    between atoms: C2_7  and  S1_8 
REMARK    3  A    between atoms: S1_8  and  C3_9 
REMARK    4  A    between atoms: C3_9  and  C4_10 
REMARK    5  A    between atoms: C4_10  and  C5_12 
REMARK    6  A    between atoms: C6_16  and  C7_17 
REMARK    7  A    between atoms: C7_17  and  C8_18 
REMARK    8  A    between atoms: C8_18  and  O3_19 
REMARK    9  A    between atoms: C8_18  and  O4_21 
REMARK   10  A    between atoms: C9_23  and  O5_24 
REMARK   11  A    between atoms: C10_28  and  N5_29 
REMARK   12  A    between atoms: N5_29  and  C11_31 
REMARK   13  A    between atoms: C13_38  and  C14_39 
REMARK   14  A    between atoms: C14_39  and  O6_40 
REMARK   15  A    between atoms: C14_39  and  N9_42 
REMARK   16  A    between atoms: N9_42  and  N10_43 
ROOT
HETATM    1  C1  UNL     1      12.064   9.055 -28.816  1.00  0.00     0.692 A 
HETATM    2  N2  UNL     1      13.279   8.703 -29.303  1.00  0.00    -0.170 N 
ATOM      3  H2  UNL     1      14.117   9.033 -28.825  1.00  0.00     0.186 HD
HETATM    4  C2  UNL     1      13.414   7.932 -30.393  1.00  0.00     0.174 A 
HETATM    5  N4  UNL     1      12.273   7.530 -30.979  1.00  0.00    -0.169 N 
ATOM      6  H4  UNL     1      12.336   6.944 -31.811  1.00  0.00     0.186 HD
HETATM    7  C10 UNL     1      11.038   7.867 -30.515  1.00  0.00     0.700 A 
HETATM    8  N11 UNL     1      10.935   8.638 -29.425  1.00  0.00    -0.022 N 
ATOM      9  H11 UNL     1      10.020   8.903 -29.061  1.00  0.00     0.203 HD
ENDROOT
BRANCH   4  10
HETATM   10  S1  UNL     1      15.000   7.455 -31.065  1.00  0.00    -0.085 SA
BRANCH  10  11
HETATM   11  C3  UNL     1      15.786   8.991 -31.688  1.00  0.00     0.168 C 
BRANCH  11  12
HETATM   12  C4  UNL     1      16.726   9.488 -30.689  1.00  0.00     0.190 C 
HETATM   13  O1  UNL     1      16.292   9.906 -29.547  1.00  0.00    -0.290 OA
BRANCH  12  14
HETATM   14  C5  UNL     1      18.153   9.548 -30.887  1.00  0.00     0.137 A 
HETATM   15  N3  UNL     1      18.736   9.672 -32.123  1.00  0.00    -0.255 N 
HETATM   16  O2  UNL     1      20.010   9.706 -32.022  1.00  0.00    -0.239 OA
ATOM     17  H3  UNL     1      18.222   9.729 -33.003  1.00  0.00     0.195 HD
HETATM   18  C6  UNL     1      20.398   9.614 -30.784  1.00  0.00     0.116 A 
HETATM   19  C9  UNL     1      19.214   9.510 -30.022  1.00  0.00     0.130 A 
BRANCH  18  20
HETATM   20  C7  UNL     1      21.779   9.615 -30.250  1.00  0.00     0.130 C 
BRANCH  20  21
HETATM   21  C8  UNL     1      22.831   9.425 -31.308  1.00  0.00     0.260 C 
BRANCH  21  22
HETATM   22  O3  UNL     1      22.408   8.397 -32.176  1.00  0.00    -0.371 OA
ATOM     23  H3  UNL     1      22.466   8.716 -33.069  1.00  0.00     0.212 HD
ENDBRANCH  21  22
BRANCH  21  24
HETATM   24  O4  UNL     1      23.026  10.543 -32.085  1.00  0.00    -0.371 OA
ATOM     25  H4  UNL     1      23.758  10.459 -32.685  1.00  0.00     0.212 HD
ENDBRANCH  21  24
ENDBRANCH  20  21
ENDBRANCH  18  20
BRANCH  19  26
HETATM   26  O5  UNL     1      19.215   9.396 -28.666  1.00  0.00    -0.356 OA
ATOM     27  H5  UNL     1      19.325   8.621 -28.128  1.00  0.00     0.218 HD
ENDBRANCH  19  26
ENDBRANCH  12  14
ENDBRANCH  11  12
ENDBRANCH  10  11
ENDBRANCH   4  10
BRANCH   1  28
HETATM   28  N1  UNL     1      11.946   9.806 -27.748  1.00  0.00    -0.234 N 
ATOM     29  H12 UNL     1      12.035  10.815 -27.859  1.00  0.00     0.174 HD
ATOM     30  H11 UNL     1      11.770   9.399 -26.828  1.00  0.00     0.174 HD
ENDBRANCH   1  28
BRANCH   7  31
HETATM   31  N5  UNL     1       9.974   7.448 -31.124  1.00  0.00    -0.174 N 
ATOM     32  H5  UNL     1       9.590   8.008 -31.885  1.00  0.00     0.186 HD
BRANCH  31  33
HETATM   33  C11 UNL     1       9.324   6.242 -30.771  1.00  0.00     0.149 A 
HETATM   34  N6  UNL     1       9.416   5.573 -29.604  1.00  0.00    -0.283 N 
HETATM   35  N7  UNL     1       8.676   4.504 -29.671  1.00  0.00    -0.286 N 
ATOM     36  H6  UNL     1       9.976   5.857 -28.800  1.00  0.00     0.188 HD
HETATM   37  C12 UNL     1       8.067   4.414 -30.864  1.00  0.00     0.144 A 
ATOM     38  H7  UNL     1       8.571   3.826 -28.917  1.00  0.00     0.188 HD
HETATM   39  N8  UNL     1       7.171   3.366 -31.290  1.00  0.00    -0.081 NA
HETATM   40  C13 UNL     1       8.473   5.515 -31.571  1.00  0.00     0.076 A 
BRANCH  40  41
HETATM   41  C14 UNL     1       8.024   5.807 -32.962  1.00  0.00     0.271 C 
BRANCH  41  42
HETATM   42  O6  UNL     1       6.641   5.517 -33.012  1.00  0.00    -0.374 OA
ATOM     43  H6  UNL     1       6.196   6.338 -33.188  1.00  0.00     0.212 HD
ENDBRANCH  41  42
BRANCH  41  44
HETATM   44  N9  UNL     1       8.132   7.251 -33.126  1.00  0.00    -0.111 NA
BRANCH  44  45
HETATM   45  N10 UNL     1       7.495   7.706 -34.260  1.00  0.00    -0.346 N 
ATOM     46 2H10 UNL     1       7.535   7.213 -35.152  1.00  0.00     0.172 HD
ATOM     47 1H10 UNL     1       6.989   8.577 -34.103  1.00  0.00     0.172 HD
ENDBRANCH  44  45
ENDBRANCH  41  44
ENDBRANCH  40  41
ENDBRANCH  31  33
ENDBRANCH   7  31
TORSDOF 16
ENDMDL
