MODEL 1
REMARK VINA RESULT: -8.021867856      0.000      0.000
REMARK  14 active torsions:
REMARK  status: ('A' for Active; 'I' for Inactive)
REMARK    1  A    between atoms: C2_2  and  N1_3 
REMARK    2  A    between atoms: C2_2  and  C8_24 
REMARK    3  A    between atoms: N1_3  and  O1_4 
REMARK    4  A    between atoms: O1_4  and  C3_5 
REMARK    5  A    between atoms: C3_5  and  S1_6 
REMARK    6  A    between atoms: S1_6  and  C4_7 
REMARK    7  A    between atoms: C5_10  and  N3_11 
REMARK    8  A    between atoms: C6_16  and  N5_17 
REMARK    9  A    between atoms: C9_25  and  O2_26 
REMARK   10  A    between atoms: N10_31  and  C12_32 
REMARK   11  A    between atoms: C12_32  and  C14_35 
REMARK   12  A    between atoms: C14_35  and  O3_36 
REMARK   13  A    between atoms: C14_35  and  N12_38 
REMARK   14  A    between atoms: N12_38  and  N13_39 
ROOT
HETATM    1  C12 UNL     1       8.861   8.601 -33.683  1.00  0.00     0.245 C 
HETATM    2  C13 UNL     1       8.931   8.716 -35.158  1.00  0.00     0.089 C 
HETATM    3  N11 UNL     1       8.997   8.807 -36.308  1.00  0.00    -0.195 NA
ENDROOT
BRANCH   1   4
HETATM    4  N10 UNL     1      10.081   9.104 -33.047  1.00  0.00    -0.300 N 
HETATM    5  C11 UNL     1      10.595  10.276 -33.468  1.00  0.00     0.125 A 
HETATM    6  C10 UNL     1      11.735  10.811 -32.922  1.00  0.00     0.096 A 
HETATM    7  C9  UNL     1      12.409  10.144 -31.894  1.00  0.00     0.110 A 
HETATM    8  N9  UNL     1      12.294  12.038 -33.361  1.00  0.00    -0.098 NA
HETATM    9  C8  UNL     1      11.898   8.951 -31.454  1.00  0.00     0.106 A 
HETATM   10  C15 UNL     1      10.729   8.466 -32.063  1.00  0.00     0.265 A 
HETATM   11  O4  UNL     1      10.265   7.386 -31.675  1.00  0.00    -0.267 OA
BRANCH   7  12
HETATM   12  O2  UNL     1      13.567  10.717 -31.365  1.00  0.00    -0.358 OA
ATOM     13  H2  UNL     1      14.284  11.029 -31.906  1.00  0.00     0.217 HD
ENDBRANCH   7  12
BRANCH   9  14
HETATM   14  C2  UNL     1      12.557   8.250 -30.364  1.00  0.00     0.132 C 
HETATM   15  C1  UNL     1      12.097   8.528 -28.951  1.00  0.00     0.089 C 
BRANCH  14  16
HETATM   16  N1  UNL     1      13.458   7.446 -30.502  1.00  0.00    -0.284 NA
BRANCH  16  17
HETATM   17  O1  UNL     1      14.368   6.643 -30.686  1.00  0.00    -0.199 OA
BRANCH  17  18
HETATM   18  C3  UNL     1      15.329   6.358 -31.643  1.00  0.00     0.299 C 
BRANCH  18  19
HETATM   19  S1  UNL     1      16.163   7.880 -32.205  1.00  0.00    -0.063 SA
BRANCH  19  20
HETATM   20  C4  UNL     1      17.089   8.564 -30.867  1.00  0.00     0.176 A 
HETATM   21  N2  UNL     1      16.514   8.818 -29.696  1.00  0.00    -0.170 N 
HETATM   22  C5  UNL     1      17.235   9.354 -28.679  1.00  0.00     0.692 A 
ATOM     23  H2  UNL     1      15.524   8.610 -29.561  1.00  0.00     0.186 HD
HETATM   24  N4  UNL     1      18.522   9.622 -28.863  1.00  0.00    -0.022 N 
HETATM   25  C6  UNL     1      19.151   9.373 -30.053  1.00  0.00     0.701 A 
ATOM     26  H4  UNL     1      19.058  10.025 -28.095  1.00  0.00     0.203 HD
HETATM   27  N8  UNL     1      18.408   8.846 -31.035  1.00  0.00    -0.169 N 
ATOM     28  H8  UNL     1      18.845   8.649 -31.935  1.00  0.00     0.186 HD
BRANCH  22  29
HETATM   29  N3  UNL     1      16.632   9.594 -27.543  1.00  0.00    -0.234 N 
ATOM     30  H32 UNL     1      15.647   9.375 -27.397  1.00  0.00     0.174 HD
ATOM     31  H31 UNL     1      17.171  10.010 -26.783  1.00  0.00     0.174 HD
ENDBRANCH  22  29
BRANCH  25  32
HETATM   32  N5  UNL     1      20.496   9.687 -30.094  1.00  0.00    -0.165 N 
HETATM   33  C7  UNL     1      21.400   9.446 -30.876  1.00  0.00     0.215 C 
HETATM   34  N6  UNL     1      21.310   8.713 -32.069  1.00  0.00    -0.066 NA
HETATM   35  N7  UNL     1      22.722   9.954 -30.565  1.00  0.00    -0.066 NA
ATOM     36  H5  UNL     1      20.800  10.241 -29.294  1.00  0.00     0.186 HD
ENDBRANCH  25  32
ENDBRANCH  19  20
ENDBRANCH  18  19
ENDBRANCH  17  18
ENDBRANCH  16  17
ENDBRANCH  14  16
ENDBRANCH   9  14
ENDBRANCH   1   4
BRANCH   1  37
HETATM   37  C14 UNL     1       7.609   9.267 -33.198  1.00  0.00     0.267 C 
BRANCH  37  38
HETATM   38  O3  UNL     1       7.241  10.173 -34.252  1.00  0.00    -0.375 OA
ATOM     39  H3  UNL     1       6.790   9.633 -34.890  1.00  0.00     0.211 HD
ENDBRANCH  37  38
BRANCH  37  40
HETATM   40  N12 UNL     1       6.471   8.353 -33.109  1.00  0.00    -0.113 NA
BRANCH  40  41
HETATM   41  N13 UNL     1       5.298   9.024 -32.735  1.00  0.00    -0.346 N 
ATOM     42 2H13 UNL     1       5.200   9.537 -31.859  1.00  0.00     0.172 HD
ATOM     43 1H13 UNL     1       4.570   8.932 -33.444  1.00  0.00     0.172 HD
ENDBRANCH  40  41
ENDBRANCH  37  40
ENDBRANCH   1  37
TORSDOF 14
ENDMDL
MODEL 2
REMARK VINA RESULT: -7.966274184      1.707      3.048
REMARK  14 active torsions:
REMARK  status: ('A' for Active; 'I' for Inactive)
REMARK    1  A    between atoms: C2_2  and  N1_3 
REMARK    2  A    between atoms: C2_2  and  C8_24 
REMARK    3  A    between atoms: N1_3  and  O1_4 
REMARK    4  A    between atoms: O1_4  and  C3_5 
REMARK    5  A    between atoms: C3_5  and  S1_6 
REMARK    6  A    between atoms: S1_6  and  C4_7 
REMARK    7  A    between atoms: C5_10  and  N3_11 
REMARK    8  A    between atoms: C6_16  and  N5_17 
REMARK    9  A    between atoms: C9_25  and  O2_26 
REMARK   10  A    between atoms: N10_31  and  C12_32 
REMARK   11  A    between atoms: C12_32  and  C14_35 
REMARK   12  A    between atoms: C14_35  and  O3_36 
REMARK   13  A    between atoms: C14_35  and  N12_38 
REMARK   14  A    between atoms: N12_38  and  N13_39 
ROOT
HETATM    1  C12 UNL     1       9.900   9.450 -34.617  1.00  0.00     0.245 C 
HETATM    2  C13 UNL     1       8.514   9.877 -34.915  1.00  0.00     0.089 C 
HETATM    3  N11 UNL     1       7.429  10.208 -35.138  1.00  0.00    -0.195 NA
ENDROOT
BRANCH   1   4
HETATM    4  N10 UNL     1       9.957   8.618 -33.411  1.00  0.00    -0.300 N 
HETATM    5  C11 UNL     1       9.076   7.608 -33.280  1.00  0.00     0.125 A 
HETATM    6  C10 UNL     1       9.065   6.787 -32.180  1.00  0.00     0.096 A 
HETATM    7  C9  UNL     1       9.987   6.976 -31.146  1.00  0.00     0.110 A 
HETATM    8  N9  UNL     1       8.138   5.725 -32.023  1.00  0.00    -0.098 NA
HETATM    9  C8  UNL     1      10.892   7.999 -31.265  1.00  0.00     0.106 A 
HETATM   10  C15 UNL     1      10.838   8.799 -32.419  1.00  0.00     0.265 A 
HETATM   11  O4  UNL     1      11.648   9.729 -32.531  1.00  0.00    -0.267 OA
BRANCH   7  12
HETATM   12  O2  UNL     1       9.946   6.123 -30.042  1.00  0.00    -0.358 OA
ATOM     13  H2  UNL     1       9.540   5.264 -30.066  1.00  0.00     0.217 HD
ENDBRANCH   7  12
BRANCH   9  14
HETATM   14  C2  UNL     1      11.884   8.201 -30.222  1.00  0.00     0.132 C 
HETATM   15  C1  UNL     1      11.531   9.105 -29.062  1.00  0.00     0.089 C 
BRANCH  14  16
HETATM   16  N1  UNL     1      12.987   7.692 -30.207  1.00  0.00    -0.284 NA
BRANCH  16  17
HETATM   17  O1  UNL     1      14.100   7.176 -30.239  1.00  0.00    -0.199 OA
BRANCH  17  18
HETATM   18  C3  UNL     1      14.962   6.612 -31.166  1.00  0.00     0.299 C 
BRANCH  18  19
HETATM   19  S1  UNL     1      16.078   7.870 -31.873  1.00  0.00    -0.063 SA
BRANCH  19  20
HETATM   20  C4  UNL     1      17.074   8.552 -30.586  1.00  0.00     0.176 A 
HETATM   21  N2  UNL     1      16.559   8.824 -29.392  1.00  0.00    -0.170 N 
HETATM   22  C5  UNL     1      17.335   9.358 -28.415  1.00  0.00     0.692 A 
ATOM     23  H2  UNL     1      15.574   8.631 -29.209  1.00  0.00     0.186 HD
HETATM   24  N4  UNL     1      18.615   9.606 -28.661  1.00  0.00    -0.022 N 
HETATM   25  C6  UNL     1      19.184   9.339 -29.877  1.00  0.00     0.701 A 
ATOM     26  H4  UNL     1      19.192  10.009 -27.923  1.00  0.00     0.203 HD
HETATM   27  N8  UNL     1      18.388   8.813 -30.818  1.00  0.00    -0.169 N 
ATOM     28  H8  UNL     1      18.780   8.603 -31.736  1.00  0.00     0.186 HD
BRANCH  22  29
HETATM   29  N3  UNL     1      16.789   9.617 -27.254  1.00  0.00    -0.234 N 
ATOM     30  H32 UNL     1      15.817   9.911 -27.167  1.00  0.00     0.174 HD
ATOM     31  H31 UNL     1      17.359   9.515 -26.414  1.00  0.00     0.174 HD
ENDBRANCH  22  29
BRANCH  25  32
HETATM   32  N5  UNL     1      20.530   9.633 -29.984  1.00  0.00    -0.165 N 
HETATM   33  C7  UNL     1      21.381   9.416 -30.829  1.00  0.00     0.215 C 
HETATM   34  N6  UNL     1      21.206   8.743 -32.048  1.00  0.00    -0.066 NA
HETATM   35  N7  UNL     1      22.729   9.887 -30.575  1.00  0.00    -0.066 NA
ATOM     36  H5  UNL     1      20.891  10.143 -29.178  1.00  0.00     0.186 HD
ENDBRANCH  25  32
ENDBRANCH  19  20
ENDBRANCH  18  19
ENDBRANCH  17  18
ENDBRANCH  16  17
ENDBRANCH  14  16
ENDBRANCH   9  14
ENDBRANCH   1   4
BRANCH   1  37
HETATM   37  C14 UNL     1      10.484   8.794 -35.831  1.00  0.00     0.267 C 
BRANCH  37  38
HETATM   38  O3  UNL     1      10.598   9.850 -36.800  1.00  0.00    -0.375 OA
ATOM     39  H3  UNL     1      11.177   9.504 -37.469  1.00  0.00     0.211 HD
ENDBRANCH  37  38
BRANCH  37  40
HETATM   40  N12 UNL     1      11.863   8.350 -35.634  1.00  0.00    -0.113 NA
BRANCH  40  41
HETATM   41  N13 UNL     1      12.456   7.956 -36.842  1.00  0.00    -0.346 N 
ATOM     42 2H13 UNL     1      12.017   7.309 -37.498  1.00  0.00     0.172 HD
ATOM     43 1H13 UNL     1      13.367   8.395 -36.975  1.00  0.00     0.172 HD
ENDBRANCH  40  41
ENDBRANCH  37  40
ENDBRANCH   1  37
TORSDOF 14
ENDMDL
MODEL 3
REMARK VINA RESULT: -7.927911000      1.706      2.628
REMARK  14 active torsions:
REMARK  status: ('A' for Active; 'I' for Inactive)
REMARK    1  A    between atoms: C2_2  and  N1_3 
REMARK    2  A    between atoms: C2_2  and  C8_24 
REMARK    3  A    between atoms: N1_3  and  O1_4 
REMARK    4  A    between atoms: O1_4  and  C3_5 
REMARK    5  A    between atoms: C3_5  and  S1_6 
REMARK    6  A    between atoms: S1_6  and  C4_7 
REMARK    7  A    between atoms: C5_10  and  N3_11 
REMARK    8  A    between atoms: C6_16  and  N5_17 
REMARK    9  A    between atoms: C9_25  and  O2_26 
REMARK   10  A    between atoms: N10_31  and  C12_32 
REMARK   11  A    between atoms: C12_32  and  C14_35 
REMARK   12  A    between atoms: C14_35  and  O3_36 
REMARK   13  A    between atoms: C14_35  and  N12_38 
REMARK   14  A    between atoms: N12_38  and  N13_39 
ROOT
HETATM    1  C12 UNL     1       9.563   8.782 -34.708  1.00  0.00     0.245 C 
HETATM    2  C13 UNL     1      10.779   8.633 -35.539  1.00  0.00     0.089 C 
HETATM    3  N11 UNL     1      11.732   8.509 -36.182  1.00  0.00    -0.195 NA
ENDROOT
BRANCH   1   4
HETATM    4  N10 UNL     1       9.703   8.091 -33.424  1.00  0.00    -0.300 N 
HETATM    5  C11 UNL     1       8.850   7.090 -33.132  1.00  0.00     0.125 A 
HETATM    6  C10 UNL     1       8.916   6.396 -31.949  1.00  0.00     0.096 A 
HETATM    7  C9  UNL     1       9.890   6.713 -30.996  1.00  0.00     0.110 A 
HETATM    8  N9  UNL     1       8.021   5.347 -31.623  1.00  0.00    -0.098 NA
HETATM    9  C8  UNL     1      10.766   7.728 -31.279  1.00  0.00     0.106 A 
HETATM   10  C15 UNL     1      10.633   8.393 -32.509  1.00  0.00     0.265 A 
HETATM   11  O4  UNL     1      11.418   9.315 -32.770  1.00  0.00    -0.267 OA
BRANCH   7  12
HETATM   12  O2  UNL     1       9.927   5.987 -29.804  1.00  0.00    -0.358 OA
ATOM     13  H2  UNL     1       9.321   6.138 -29.088  1.00  0.00     0.217 HD
ENDBRANCH   7  12
BRANCH   9  14
HETATM   14  C2  UNL     1      11.810   8.058 -30.323  1.00  0.00     0.132 C 
HETATM   15  C1  UNL     1      11.482   9.026 -29.209  1.00  0.00     0.089 C 
BRANCH  14  16
HETATM   16  N1  UNL     1      12.939   7.609 -30.348  1.00  0.00    -0.284 NA
BRANCH  16  17
HETATM   17  O1  UNL     1      14.066   7.126 -30.405  1.00  0.00    -0.199 OA
BRANCH  17  18
HETATM   18  C3  UNL     1      14.944   6.638 -31.360  1.00  0.00     0.299 C 
BRANCH  18  19
HETATM   19  S1  UNL     1      16.022   7.965 -31.996  1.00  0.00    -0.063 SA
BRANCH  19  20
HETATM   20  C4  UNL     1      17.012   8.592 -30.676  1.00  0.00     0.176 A 
HETATM   21  N2  UNL     1      16.488   8.822 -29.477  1.00  0.00    -0.170 N 
HETATM   22  C5  UNL     1      17.259   9.315 -28.474  1.00  0.00     0.692 A 
ATOM     23  H2  UNL     1      15.500   8.629 -29.309  1.00  0.00     0.186 HD
HETATM   24  N4  UNL     1      18.542   9.564 -28.700  1.00  0.00    -0.022 N 
HETATM   25  C6  UNL     1      19.120   9.338 -29.921  1.00  0.00     0.701 A 
ATOM     26  H4  UNL     1      19.116   9.934 -27.943  1.00  0.00     0.203 HD
HETATM   27  N8  UNL     1      18.329   8.854 -30.887  1.00  0.00    -0.169 N 
ATOM     28  H8  UNL     1      18.727   8.676 -31.810  1.00  0.00     0.186 HD
BRANCH  22  29
HETATM   29  N3  UNL     1      16.705   9.533 -27.309  1.00  0.00    -0.234 N 
ATOM     30  H32 UNL     1      15.744   9.255 -27.106  1.00  0.00     0.174 HD
ATOM     31  H31 UNL     1      17.257   9.991 -26.584  1.00  0.00     0.174 HD
ENDBRANCH  22  29
BRANCH  25  32
HETATM   32  N5  UNL     1      20.468   9.628 -30.005  1.00  0.00    -0.165 N 
HETATM   33  C7  UNL     1      21.329   9.425 -30.846  1.00  0.00     0.215 C 
HETATM   34  N6  UNL     1      21.165   8.780 -32.081  1.00  0.00    -0.066 NA
HETATM   35  N7  UNL     1      22.675   9.884 -30.565  1.00  0.00    -0.066 NA
ATOM     36  H5  UNL     1      20.822  10.118 -29.185  1.00  0.00     0.186 HD
ENDBRANCH  25  32
ENDBRANCH  19  20
ENDBRANCH  18  19
ENDBRANCH  17  18
ENDBRANCH  16  17
ENDBRANCH  14  16
ENDBRANCH   9  14
ENDBRANCH   1   4
BRANCH   1  37
HETATM   37  C14 UNL     1       9.232  10.238 -34.578  1.00  0.00     0.267 C 
BRANCH  37  38
HETATM   38  O3  UNL     1      10.318  10.922 -35.225  1.00  0.00    -0.375 OA
ATOM     39  H3  UNL     1      10.532  11.644 -34.645  1.00  0.00     0.211 HD
ENDBRANCH  37  38
BRANCH  37  40
HETATM   40  N12 UNL     1       8.058  10.631 -35.356  1.00  0.00    -0.113 NA
BRANCH  40  41
HETATM   41  N13 UNL     1       6.867  10.229 -34.733  1.00  0.00    -0.346 N 
ATOM     42 2H13 UNL     1       6.837   9.582 -33.944  1.00  0.00     0.172 HD
ATOM     43 1H13 UNL     1       6.052  10.663 -35.165  1.00  0.00     0.172 HD
ENDBRANCH  40  41
ENDBRANCH  37  40
ENDBRANCH   1  37
TORSDOF 14
ENDMDL
MODEL 4
REMARK VINA RESULT: -7.726998217      2.889      9.953
REMARK  14 active torsions:
REMARK  status: ('A' for Active; 'I' for Inactive)
REMARK    1  A    between atoms: C2_2  and  N1_3 
REMARK    2  A    between atoms: C2_2  and  C8_24 
REMARK    3  A    between atoms: N1_3  and  O1_4 
REMARK    4  A    between atoms: O1_4  and  C3_5 
REMARK    5  A    between atoms: C3_5  and  S1_6 
REMARK    6  A    between atoms: S1_6  and  C4_7 
REMARK    7  A    between atoms: C5_10  and  N3_11 
REMARK    8  A    between atoms: C6_16  and  N5_17 
REMARK    9  A    between atoms: C9_25  and  O2_26 
REMARK   10  A    between atoms: N10_31  and  C12_32 
REMARK   11  A    between atoms: C12_32  and  C14_35 
REMARK   12  A    between atoms: C14_35  and  O3_36 
REMARK   13  A    between atoms: C14_35  and  N12_38 
REMARK   14  A    between atoms: N12_38  and  N13_39 
ROOT
HETATM    1  C12 UNL     1      20.289  10.032 -31.232  1.00  0.00     0.245 C 
HETATM    2  C13 UNL     1      20.830   8.849 -31.940  1.00  0.00     0.089 C 
HETATM    3  N11 UNL     1      21.242   7.920 -32.491  1.00  0.00    -0.195 NA
ENDROOT
BRANCH   1   4
HETATM    4  N10 UNL     1      19.006   9.733 -30.590  1.00  0.00    -0.300 N 
HETATM    5  C11 UNL     1      18.940   9.738 -29.245  1.00  0.00     0.125 A 
HETATM    6  C10 UNL     1      17.776   9.467 -28.570  1.00  0.00     0.096 A 
HETATM    7  C9  UNL     1      16.602   9.174 -29.272  1.00  0.00     0.110 A 
HETATM    8  N9  UNL     1      17.692   9.459 -27.154  1.00  0.00    -0.098 NA
HETATM    9  C8  UNL     1      16.653   9.166 -30.642  1.00  0.00     0.106 A 
HETATM   10  C15 UNL     1      17.882   9.451 -31.260  1.00  0.00     0.265 A 
HETATM   11  O4  UNL     1      17.936   9.440 -32.497  1.00  0.00    -0.267 OA
BRANCH   7  12
HETATM   12  O2  UNL     1      15.437   8.901 -28.553  1.00  0.00    -0.358 OA
ATOM     13  H2  UNL     1      14.677   9.470 -28.564  1.00  0.00     0.217 HD
ENDBRANCH   7  12
BRANCH   9  14
HETATM   14  C2  UNL     1      15.442   8.898 -31.400  1.00  0.00     0.132 C 
HETATM   15  C1  UNL     1      15.355   7.602 -32.176  1.00  0.00     0.089 C 
BRANCH  14  16
HETATM   16  N1  UNL     1      14.482   9.640 -31.457  1.00  0.00    -0.284 NA
BRANCH  16  17
HETATM   17  O1  UNL     1      13.523  10.400 -31.559  1.00  0.00    -0.199 OA
BRANCH  17  18
HETATM   18  C3  UNL     1      12.685  10.894 -32.545  1.00  0.00     0.299 C 
BRANCH  18  19
HETATM   19  S1  UNL     1      11.620   9.575 -33.219  1.00  0.00    -0.063 SA
BRANCH  19  20
HETATM   20  C4  UNL     1      11.074   8.537 -31.900  1.00  0.00     0.176 A 
HETATM   21  N2  UNL     1      11.391   8.810 -30.639  1.00  0.00    -0.170 N 
HETATM   22  C5  UNL     1      10.973   7.997 -29.635  1.00  0.00     0.692 A 
ATOM     23  H2  UNL     1      11.952   9.634 -30.423  1.00  0.00     0.186 HD
HETATM   24  N4  UNL     1      10.244   6.926 -29.924  1.00  0.00    -0.022 N 
HETATM   25  C6  UNL     1       9.896   6.612 -31.210  1.00  0.00     0.701 A 
ATOM     26  H4  UNL     1       9.935   6.319 -29.165  1.00  0.00     0.203 HD
HETATM   27  N8  UNL     1      10.327   7.436 -32.175  1.00  0.00    -0.169 N 
ATOM     28  H8  UNL     1      10.086   7.230 -33.145  1.00  0.00     0.186 HD
BRANCH  22  29
HETATM   29  N3  UNL     1      11.310   8.296 -28.407  1.00  0.00    -0.234 N 
ATOM     30  H32 UNL     1      11.928   9.078 -28.191  1.00  0.00     0.174 HD
ATOM     31  H31 UNL     1      10.935   7.728 -27.646  1.00  0.00     0.174 HD
ENDBRANCH  22  29
BRANCH  25  32
HETATM   32  N5  UNL     1       9.121   5.478 -31.358  1.00  0.00    -0.165 N 
HETATM   33  C7  UNL     1       8.292   4.919 -30.660  1.00  0.00     0.215 C 
HETATM   34  N6  UNL     1       7.856   5.318 -29.387  1.00  0.00    -0.066 NA
HETATM   35  N7  UNL     1       7.679   3.707 -31.169  1.00  0.00    -0.066 NA
ATOM     36  H5  UNL     1       9.276   5.004 -32.248  1.00  0.00     0.186 HD
ENDBRANCH  25  32
ENDBRANCH  19  20
ENDBRANCH  18  19
ENDBRANCH  17  18
ENDBRANCH  16  17
ENDBRANCH  14  16
ENDBRANCH   9  14
ENDBRANCH   1   4
BRANCH   1  37
HETATM   37  C14 UNL     1      21.328  10.559 -30.290  1.00  0.00     0.267 C 
BRANCH  37  38
HETATM   38  O3  UNL     1      21.768   9.410 -29.548  1.00  0.00    -0.375 OA
ATOM     39  H3  UNL     1      21.192   9.372 -28.792  1.00  0.00     0.211 HD
ENDBRANCH  37  38
BRANCH  37  40
HETATM   40  N12 UNL     1      22.537  11.020 -30.971  1.00  0.00    -0.113 NA
BRANCH  40  41
HETATM   41  N13 UNL     1      23.507  10.009 -31.043  1.00  0.00    -0.346 N 
ATOM     42 2H13 UNL     1      23.551   9.327 -31.800  1.00  0.00     0.172 HD
ATOM     43 1H13 UNL     1      24.149  10.048 -30.251  1.00  0.00     0.172 HD
ENDBRANCH  40  41
ENDBRANCH  37  40
ENDBRANCH   1  37
TORSDOF 14
ENDMDL
MODEL 5
REMARK VINA RESULT: -7.638277953      2.287      3.612
REMARK  14 active torsions:
REMARK  status: ('A' for Active; 'I' for Inactive)
REMARK    1  A    between atoms: C2_2  and  N1_3 
REMARK    2  A    between atoms: C2_2  and  C8_24 
REMARK    3  A    between atoms: N1_3  and  O1_4 
REMARK    4  A    between atoms: O1_4  and  C3_5 
REMARK    5  A    between atoms: C3_5  and  S1_6 
REMARK    6  A    between atoms: S1_6  and  C4_7 
REMARK    7  A    between atoms: C5_10  and  N3_11 
REMARK    8  A    between atoms: C6_16  and  N5_17 
REMARK    9  A    between atoms: C9_25  and  O2_26 
REMARK   10  A    between atoms: N10_31  and  C12_32 
REMARK   11  A    between atoms: C12_32  and  C14_35 
REMARK   12  A    between atoms: C14_35  and  O3_36 
REMARK   13  A    between atoms: C14_35  and  N12_38 
REMARK   14  A    between atoms: N12_38  and  N13_39 
ROOT
HETATM    1  C12 UNL     1       6.344   8.109 -35.359  1.00  0.00     0.245 C 
HETATM    2  C13 UNL     1       6.363   7.899 -36.824  1.00  0.00     0.089 C 
HETATM    3  N11 UNL     1       6.389   7.731 -37.968  1.00  0.00    -0.195 NA
ENDROOT
BRANCH   1   4
HETATM    4  N10 UNL     1       7.695   8.078 -34.794  1.00  0.00    -0.300 N 
HETATM    5  C11 UNL     1       8.674   8.761 -35.419  1.00  0.00     0.125 A 
HETATM    6  C10 UNL     1       9.964   8.780 -34.952  1.00  0.00     0.096 A 
HETATM    7  C9  UNL     1      10.308   8.078 -33.792  1.00  0.00     0.110 A 
HETATM    8  N9  UNL     1      11.007   9.486 -35.604  1.00  0.00    -0.098 NA
HETATM    9  C8  UNL     1       9.323   7.379 -33.144  1.00  0.00     0.106 A 
HETATM   10  C15 UNL     1       8.027   7.406 -33.684  1.00  0.00     0.265 A 
HETATM   11  O4  UNL     1       7.134   6.772 -33.107  1.00  0.00    -0.267 OA
BRANCH   7  12
HETATM   12  O2  UNL     1      11.631   8.118 -33.348  1.00  0.00    -0.358 OA
ATOM     13  H2  UNL     1      12.316   7.569 -33.713  1.00  0.00     0.217 HD
ENDBRANCH   7  12
BRANCH   9  14
HETATM   14  C2  UNL     1       9.642   6.668 -31.917  1.00  0.00     0.132 C 
HETATM   15  C1  UNL     1       9.047   5.292 -31.710  1.00  0.00     0.089 C 
BRANCH  14  16
HETATM   16  N1  UNL     1      10.361   7.095 -31.035  1.00  0.00    -0.284 NA
BRANCH  16  17
HETATM   17  O1  UNL     1      11.117   7.539 -30.176  1.00  0.00    -0.199 OA
BRANCH  17  18
HETATM   18  C3  UNL     1      11.420   8.753 -29.582  1.00  0.00     0.299 C 
BRANCH  18  19
HETATM   19  S1  UNL     1      13.042   8.688 -28.749  1.00  0.00    -0.063 SA
BRANCH  19  20
HETATM   20  C4  UNL     1      14.318   8.631 -29.966  1.00  0.00     0.176 A 
HETATM   21  N2  UNL     1      14.041   8.366 -31.238  1.00  0.00    -0.170 N 
HETATM   22  C5  UNL     1      15.034   8.315 -32.161  1.00  0.00     0.692 A 
ATOM     23  H2  UNL     1      13.075   8.198 -31.522  1.00  0.00     0.186 HD
HETATM   24  N4  UNL     1      16.287   8.534 -31.784  1.00  0.00    -0.022 N 
HETATM   25  C6  UNL     1      16.614   8.812 -30.484  1.00  0.00     0.701 A 
ATOM     26  H4  UNL     1      17.029   8.494 -32.482  1.00  0.00     0.203 HD
HETATM   27  N8  UNL     1      15.609   8.853 -29.599  1.00  0.00    -0.169 N 
ATOM     28  H8  UNL     1      15.817   9.056 -28.622  1.00  0.00     0.186 HD
BRANCH  22  29
HETATM   29  N3  UNL     1      14.721   8.046 -33.403  1.00  0.00    -0.234 N 
ATOM     30  H32 UNL     1      14.245   8.723 -33.999  1.00  0.00     0.174 HD
ATOM     31  H31 UNL     1      14.967   7.131 -33.781  1.00  0.00     0.174 HD
ENDBRANCH  22  29
BRANCH  25  32
HETATM   32  N5  UNL     1      17.956   9.035 -30.240  1.00  0.00    -0.165 N 
HETATM   33  C7  UNL     1      18.593   9.394 -29.264  1.00  0.00     0.215 C 
HETATM   34  N6  UNL     1      18.085   9.707 -27.994  1.00  0.00    -0.066 NA
HETATM   35  N7  UNL     1      20.031   9.524 -29.401  1.00  0.00    -0.066 NA
ATOM     36  H5  UNL     1      18.542   8.861 -31.056  1.00  0.00     0.186 HD
ENDBRANCH  25  32
ENDBRANCH  19  20
ENDBRANCH  18  19
ENDBRANCH  17  18
ENDBRANCH  16  17
ENDBRANCH  14  16
ENDBRANCH   9  14
ENDBRANCH   1   4
BRANCH   1  37
HETATM   37  C14 UNL     1       5.591   9.368 -35.053  1.00  0.00     0.267 C 
BRANCH  37  38
HETATM   38  O3  UNL     1       4.890   9.682 -36.269  1.00  0.00    -0.375 OA
ATOM     39  H3  UNL     1       3.969   9.616 -36.043  1.00  0.00     0.211 HD
ENDBRANCH  37  38
BRANCH  37  40
HETATM   40  N12 UNL     1       4.522   9.173 -34.074  1.00  0.00    -0.113 NA
BRANCH  40  41
HETATM   41  N13 UNL     1       5.030   9.065 -32.771  1.00  0.00    -0.346 N 
ATOM     42 2H13 UNL     1       6.021   8.940 -32.563  1.00  0.00     0.172 HD
ATOM     43 1H13 UNL     1       4.289   9.128 -32.073  1.00  0.00     0.172 HD
ENDBRANCH  40  41
ENDBRANCH  37  40
ENDBRANCH   1  37
TORSDOF 14
ENDMDL
