MODEL 1
REMARK VINA RESULT: -8.885934866      0.000      0.000
REMARK  3 active torsions:
REMARK  status: ('A' for Active; 'I' for Inactive)
REMARK    1  A    between atoms: O1_2  and  C2_3 
REMARK    2  A    between atoms: C5_7  and  C6_8 
REMARK    3  A    between atoms: C18_26  and  O4_27 
ROOT
HETATM    1  C6  UNL     1     -15.196   7.392  -7.785  1.00  0.00     0.066 C 
HETATM    2  C7  UNL     1     -14.099   7.997  -6.944  1.00  0.00     0.177 C 
HETATM    3  C8  UNL     1     -13.433   9.177  -7.444  1.00  0.00     0.073 C 
HETATM    4  N1  UNL     1     -12.884  10.158  -7.820  1.00  0.00    -0.196 NA
HETATM    5  C9  UNL     1     -14.857   8.537  -5.730  1.00  0.00     0.136 C 
HETATM    6  N2  UNL     1     -14.386   8.401  -4.590  1.00  0.00    -0.382 N 
ATOM      7  H21 UNL     1     -14.891   8.760  -3.781  1.00  0.00     0.158 HD
ATOM      8  H22 UNL     1     -13.497   7.941  -4.392  1.00  0.00     0.158 HD
HETATM    9  O2  UNL     1     -16.059   9.157  -5.998  1.00  0.00    -0.301 OA
HETATM   10  C10 UNL     1     -16.546   9.296  -7.312  1.00  0.00     0.064 C 
HETATM   11  C11 UNL     1     -17.598  10.027  -7.523  1.00  0.00     0.016 C 
HETATM   12  C12 UNL     1     -18.225  10.260  -8.866  1.00  0.00    -0.021 C 
HETATM   13  C13 UNL     1     -18.558  11.718  -9.058  1.00  0.00     0.019 C 
HETATM   14  C14 UNL     1     -19.529   9.468  -8.907  1.00  0.00     0.019 C 
HETATM   15  C15 UNL     1     -17.306   9.836  -9.978  1.00  0.00     0.092 C 
HETATM   16  C16 UNL     1     -16.721   8.490  -9.545  1.00  0.00     0.139 C 
HETATM   17  O3  UNL     1     -17.102   7.574 -10.205  1.00  0.00    -0.297 OA
HETATM   18  C17 UNL     1     -15.830   8.595  -8.431  1.00  0.00     0.122 C 
ENDROOT
BRANCH   1  19
HETATM   19  C5  UNL     1     -14.895   6.282  -8.657  1.00  0.00     0.004 A 
HETATM   20  C4  UNL     1     -15.585   5.051  -8.460  1.00  0.00     0.046 A 
HETATM   21  C3  UNL     1     -15.477   3.995  -9.313  1.00  0.00     0.061 A 
HETATM   22 CL1  UNL     1     -16.552   4.881  -6.981  1.00  0.00    -0.084 Cl
HETATM   23  C2  UNL     1     -14.684   4.056 -10.436  1.00  0.00     0.072 A 
HETATM   24  C20 UNL     1     -14.010   5.232 -10.638  1.00  0.00     0.074 A 
HETATM   25  C18 UNL     1     -14.108   6.332  -9.771  1.00  0.00     0.079 A 
BRANCH  23  26
HETATM   26  O1  UNL     1     -14.583   2.981 -11.305  1.00  0.00    -0.356 OA
HETATM   27  C1  UNL     1     -13.728   2.933 -12.408  1.00  0.00     0.210 C 
ENDBRANCH  23  26
BRANCH  25  28
HETATM   28  O4  UNL     1     -13.396   7.467 -10.063  1.00  0.00    -0.355 OA
HETATM   29  C19 UNL     1     -12.046   7.342 -10.462  1.00  0.00     0.210 C 
ENDBRANCH  25  28
ENDBRANCH   1  19
TORSDOF 3
ENDMDL
MODEL 2
REMARK VINA RESULT: -8.413528378      2.550      5.533
REMARK  3 active torsions:
REMARK  status: ('A' for Active; 'I' for Inactive)
REMARK    1  A    between atoms: O1_2  and  C2_3 
REMARK    2  A    between atoms: C5_7  and  C6_8 
REMARK    3  A    between atoms: C18_26  and  O4_27 
ROOT
HETATM    1  C6  UNL     1     -15.712   8.206  -8.102  1.00  0.00     0.066 C 
HETATM    2  C7  UNL     1     -15.892   7.056  -7.142  1.00  0.00     0.177 C 
HETATM    3  C8  UNL     1     -15.614   5.723  -7.621  1.00  0.00     0.073 C 
HETATM    4  N1  UNL     1     -15.373   4.619  -7.981  1.00  0.00    -0.196 NA
HETATM    5  C9  UNL     1     -14.772   7.281  -6.125  1.00  0.00     0.136 C 
HETATM    6  N2  UNL     1     -14.986   7.114  -4.914  1.00  0.00    -0.382 N 
ATOM      7  H21 UNL     1     -14.239   7.264  -4.237  1.00  0.00     0.158 HD
ATOM      8  H22 UNL     1     -15.886   6.825  -4.529  1.00  0.00     0.158 HD
HETATM    9  O2  UNL     1     -13.556   7.671  -6.646  1.00  0.00    -0.301 OA
HETATM   10  C10 UNL     1     -13.360   7.838  -8.031  1.00  0.00     0.064 C 
HETATM   11  C11 UNL     1     -12.160   8.048  -8.479  1.00  0.00     0.016 C 
HETATM   12  C12 UNL     1     -11.807   8.243  -9.924  1.00  0.00    -0.021 C 
HETATM   13  C13 UNL     1     -10.590   7.435 -10.295  1.00  0.00     0.019 C 
HETATM   14  C14 UNL     1     -11.470   9.719 -10.118  1.00  0.00     0.019 C 
HETATM   15  C15 UNL     1     -12.939   7.830 -10.824  1.00  0.00     0.092 C 
HETATM   16  C16 UNL     1     -14.208   8.397 -10.183  1.00  0.00     0.139 C 
HETATM   17  O3  UNL     1     -14.707   9.273 -10.818  1.00  0.00    -0.297 OA
HETATM   18  C17 UNL     1     -14.548   7.762  -8.947  1.00  0.00     0.122 C 
ENDROOT
BRANCH   1  19
HETATM   19  C5  UNL     1     -16.855   8.728  -8.812  1.00  0.00     0.004 A 
HETATM   20  C4  UNL     1     -17.261  10.071  -8.562  1.00  0.00     0.046 A 
HETATM   21  C3  UNL     1     -18.233  10.697  -9.280  1.00  0.00     0.061 A 
HETATM   22 CL1  UNL     1     -16.512  10.911  -7.190  1.00  0.00    -0.084 Cl
HETATM   23  C2  UNL     1     -18.891  10.061 -10.308  1.00  0.00     0.072 A 
HETATM   24  C20 UNL     1     -18.515   8.768 -10.559  1.00  0.00     0.074 A 
HETATM   25  C18 UNL     1     -17.515   8.103  -9.830  1.00  0.00     0.079 A 
BRANCH  23  26
HETATM   26  O1  UNL     1     -19.875  10.707 -11.041  1.00  0.00    -0.356 OA
HETATM   27  C1  UNL     1     -20.148  10.459 -12.388  1.00  0.00     0.210 C 
ENDBRANCH  23  26
BRANCH  25  28
HETATM   28  O4  UNL     1     -17.208   6.809 -10.161  1.00  0.00    -0.355 OA
HETATM   29  C19 UNL     1     -18.246   5.849 -10.193  1.00  0.00     0.210 C 
ENDBRANCH  25  28
ENDBRANCH   1  19
TORSDOF 3
ENDMDL
MODEL 3
REMARK VINA RESULT: -8.312395982      2.517      3.746
REMARK  3 active torsions:
REMARK  status: ('A' for Active; 'I' for Inactive)
REMARK    1  A    between atoms: O1_2  and  C2_3 
REMARK    2  A    between atoms: C5_7  and  C6_8 
REMARK    3  A    between atoms: C18_26  and  O4_27 
ROOT
HETATM    1  C6  UNL     1     -14.659   7.315  -8.119  1.00  0.00     0.066 C 
HETATM    2  C7  UNL     1     -14.571   6.866  -6.681  1.00  0.00     0.177 C 
HETATM    3  C8  UNL     1     -14.896   7.824  -5.650  1.00  0.00     0.073 C 
HETATM    4  N1  UNL     1     -15.178   8.582  -4.784  1.00  0.00    -0.196 NA
HETATM    5  C9  UNL     1     -15.715   5.858  -6.566  1.00  0.00     0.136 C 
HETATM    6  N2  UNL     1     -15.554   4.800  -5.938  1.00  0.00    -0.382 N 
ATOM      7  H21 UNL     1     -16.317   4.128  -5.862  1.00  0.00     0.158 HD
ATOM      8  H22 UNL     1     -14.684   4.542  -5.471  1.00  0.00     0.158 HD
HETATM    9  O2  UNL     1     -16.891   6.207  -7.198  1.00  0.00    -0.301 OA
HETATM   10  C10 UNL     1     -17.027   7.426  -7.891  1.00  0.00     0.064 C 
HETATM   11  C11 UNL     1     -18.198   7.777  -8.328  1.00  0.00     0.016 C 
HETATM   12  C12 UNL     1     -18.488   9.042  -9.081  1.00  0.00    -0.021 C 
HETATM   13  C13 UNL     1     -19.729   9.712  -8.549  1.00  0.00     0.019 C 
HETATM   14  C14 UNL     1     -18.745   8.661 -10.536  1.00  0.00     0.019 C 
HETATM   15  C15 UNL     1     -17.346  10.014  -8.975  1.00  0.00     0.092 C 
HETATM   16  C16 UNL     1     -16.074   9.187  -9.178  1.00  0.00     0.139 C 
HETATM   17  O3  UNL     1     -15.510   9.429 -10.199  1.00  0.00    -0.297 OA
HETATM   18  C17 UNL     1     -15.812   8.283  -8.101  1.00  0.00     0.122 C 
ENDROOT
BRANCH   1  19
HETATM   19  C5  UNL     1     -13.466   7.754  -8.803  1.00  0.00     0.004 A 
HETATM   20  C4  UNL     1     -13.153   7.178 -10.068  1.00  0.00     0.046 A 
HETATM   21  C3  UNL     1     -12.134   7.623 -10.853  1.00  0.00     0.061 A 
HETATM   22 CL1  UNL     1     -14.092   5.760 -10.579  1.00  0.00    -0.084 Cl
HETATM   23  C2  UNL     1     -11.333   8.674 -10.467  1.00  0.00     0.072 A 
HETATM   24  C20 UNL     1     -11.620   9.236  -9.250  1.00  0.00     0.074 A 
HETATM   25  C18 UNL     1     -12.666   8.792  -8.425  1.00  0.00     0.079 A 
BRANCH  23  26
HETATM   26  O1  UNL     1     -10.302   9.128 -11.273  1.00  0.00    -0.356 OA
HETATM   27  C1  UNL     1     -10.354  10.292 -12.043  1.00  0.00     0.210 C 
ENDBRANCH  23  26
BRANCH  25  28
HETATM   28  O4  UNL     1     -12.875   9.424  -7.227  1.00  0.00    -0.355 OA
HETATM   29  C19 UNL     1     -13.242  10.790  -7.231  1.00  0.00     0.210 C 
ENDBRANCH  25  28
ENDBRANCH   1  19
TORSDOF 3
ENDMDL
MODEL 4
REMARK VINA RESULT: -8.004604310      2.620      3.967
REMARK  3 active torsions:
REMARK  status: ('A' for Active; 'I' for Inactive)
REMARK    1  A    between atoms: O1_2  and  C2_3 
REMARK    2  A    between atoms: C5_7  and  C6_8 
REMARK    3  A    between atoms: C18_26  and  O4_27 
ROOT
HETATM    1  C6  UNL     1     -15.421   7.396  -8.316  1.00  0.00     0.066 C 
HETATM    2  C7  UNL     1     -15.771   6.871  -6.945  1.00  0.00     0.177 C 
HETATM    3  C8  UNL     1     -16.346   7.793  -5.993  1.00  0.00     0.073 C 
HETATM    4  N1  UNL     1     -16.838   8.522  -5.199  1.00  0.00    -0.196 NA
HETATM    5  C9  UNL     1     -16.936   5.922  -7.229  1.00  0.00     0.136 C 
HETATM    6  N2  UNL     1     -17.004   4.827  -6.648  1.00  0.00    -0.382 N 
ATOM      7  H21 UNL     1     -17.780   4.195  -6.838  1.00  0.00     0.158 HD
ATOM      8  H22 UNL     1     -16.317   4.500  -5.969  1.00  0.00     0.158 HD
HETATM    9  O2  UNL     1     -17.863   6.366  -8.148  1.00  0.00    -0.301 OA
HETATM   10  C10 UNL     1     -17.747   7.622  -8.774  1.00  0.00     0.064 C 
HETATM   11  C11 UNL     1     -18.727   8.058  -9.505  1.00  0.00     0.016 C 
HETATM   12  C12 UNL     1     -18.739   9.372 -10.228  1.00  0.00    -0.021 C 
HETATM   13  C13 UNL     1     -20.055  10.081 -10.035  1.00  0.00     0.019 C 
HETATM   14  C14 UNL     1     -18.576   9.078 -11.717  1.00  0.00     0.019 C 
HETATM   15  C15 UNL     1     -17.641  10.275  -9.737  1.00  0.00     0.092 C 
HETATM   16  C16 UNL     1     -16.397   9.391  -9.618  1.00  0.00     0.139 C 
HETATM   17  O3  UNL     1     -15.552   9.653 -10.416  1.00  0.00    -0.297 OA
HETATM   18  C17 UNL     1     -16.493   8.423  -8.570  1.00  0.00     0.122 C 
ENDROOT
BRANCH   1  19
HETATM   19  C5  UNL     1     -14.065   7.803  -8.600  1.00  0.00     0.004 A 
HETATM   20  C4  UNL     1     -13.384   7.196  -9.694  1.00  0.00     0.046 A 
HETATM   21  C3  UNL     1     -12.161   7.610 -10.127  1.00  0.00     0.061 A 
HETATM   22 CL1  UNL     1     -14.144   5.782 -10.451  1.00  0.00    -0.084 Cl
HETATM   23  C2  UNL     1     -11.501   8.658  -9.525  1.00  0.00     0.072 A 
HETATM   24  C20 UNL     1     -12.143   9.249  -8.469  1.00  0.00     0.074 A 
HETATM   25  C18 UNL     1     -13.403   8.838  -8.006  1.00  0.00     0.079 A 
BRANCH  23  26
HETATM   26  O1  UNL     1     -10.261   9.080  -9.975  1.00  0.00    -0.356 OA
HETATM   27  C1  UNL     1     -10.060   9.909 -11.081  1.00  0.00     0.210 C 
ENDBRANCH  23  26
BRANCH  25  28
HETATM   28  O4  UNL     1     -13.963   9.498  -6.943  1.00  0.00    -0.355 OA
HETATM   29  C19 UNL     1     -14.088  10.905  -7.003  1.00  0.00     0.210 C 
ENDBRANCH  25  28
ENDBRANCH   1  19
TORSDOF 3
ENDMDL
MODEL 5
REMARK VINA RESULT: -8.000988610      2.704      4.389
REMARK  3 active torsions:
REMARK  status: ('A' for Active; 'I' for Inactive)
REMARK    1  A    between atoms: O1_2  and  C2_3 
REMARK    2  A    between atoms: C5_7  and  C6_8 
REMARK    3  A    between atoms: C18_26  and  O4_27 
ROOT
HETATM    1  C6  UNL     1     -16.892   8.390  -9.164  1.00  0.00     0.066 C 
HETATM    2  C7  UNL     1     -18.337   8.700  -9.470  1.00  0.00     0.177 C 
HETATM    3  C8  UNL     1     -19.298   8.572  -8.400  1.00  0.00     0.073 C 
HETATM    4  N1  UNL     1     -20.106   8.496  -7.536  1.00  0.00    -0.196 NA
HETATM    5  C9  UNL     1     -18.318  10.209  -9.717  1.00  0.00     0.136 C 
HETATM    6  N2  UNL     1     -18.981  10.696 -10.645  1.00  0.00    -0.382 N 
ATOM      7  H21 UNL     1     -18.969  11.703 -10.810  1.00  0.00     0.158 HD
ATOM      8  H22 UNL     1     -19.563  10.148 -11.280  1.00  0.00     0.158 HD
HETATM    9  O2  UNL     1     -17.531  10.949  -8.860  1.00  0.00    -0.301 OA
HETATM   10  C10 UNL     1     -16.804  10.349  -7.814  1.00  0.00     0.064 C 
HETATM   11  C11 UNL     1     -16.211  11.105  -6.941  1.00  0.00     0.016 C 
HETATM   12  C12 UNL     1     -15.404  10.604  -5.780  1.00  0.00    -0.021 C 
HETATM   13  C13 UNL     1     -15.756  11.349  -4.517  1.00  0.00     0.019 C 
HETATM   14  C14 UNL     1     -13.935  10.873  -6.092  1.00  0.00     0.019 C 
HETATM   15  C15 UNL     1     -15.641   9.138  -5.543  1.00  0.00     0.092 C 
HETATM   16  C16 UNL     1     -15.622   8.484  -6.927  1.00  0.00     0.139 C 
HETATM   17  O3  UNL     1     -14.679   7.776  -7.102  1.00  0.00    -0.297 OA
HETATM   18  C17 UNL     1     -16.740   8.851  -7.739  1.00  0.00     0.122 C 
ENDROOT
BRANCH   1  19
HETATM   19  C5  UNL     1     -16.362   7.083  -9.474  1.00  0.00     0.004 A 
HETATM   20  C4  UNL     1     -15.051   6.989 -10.024  1.00  0.00     0.046 A 
HETATM   21  C3  UNL     1     -14.411   5.803 -10.216  1.00  0.00     0.061 A 
HETATM   22 CL1  UNL     1     -14.276   8.495 -10.556  1.00  0.00    -0.084 Cl
HETATM   23  C2  UNL     1     -15.001   4.605  -9.884  1.00  0.00     0.072 A 
HETATM   24  C20 UNL     1     -16.264   4.678  -9.357  1.00  0.00     0.074 A 
HETATM   25  C18 UNL     1     -16.941   5.890  -9.150  1.00  0.00     0.079 A 
BRANCH  23  26
HETATM   26  O1  UNL     1     -14.342   3.401 -10.075  1.00  0.00    -0.356 OA
HETATM   27  C1  UNL     1     -14.438   2.621 -11.230  1.00  0.00     0.210 C 
ENDBRANCH  23  26
BRANCH  25  28
HETATM   28  O4  UNL     1     -18.202   5.858  -8.613  1.00  0.00    -0.355 OA
HETATM   29  C19 UNL     1     -18.765   4.607  -8.269  1.00  0.00     0.210 C 
ENDBRANCH  25  28
ENDBRANCH   1  19
TORSDOF 3
ENDMDL
