MODEL 1
REMARK VINA RESULT: -7.272806542      0.000      0.000
REMARK  3 active torsions:
REMARK  status: ('A' for Active; 'I' for Inactive)
REMARK    1  A    between atoms: C3_3  and  C4_4 
REMARK    2  A    between atoms: C7_7  and  O1_8 
REMARK    3  A    between atoms: O1_8  and  C8_9 
ROOT
HETATM    1  C8  UNL     1     -14.627   8.410  -8.639  1.00  0.00     0.190 A 
HETATM    2  N1  UNL     1     -13.351   8.216  -8.414  1.00  0.00    -0.316 N 
ATOM      3  H1  UNL     1     -13.053   7.775  -7.544  1.00  0.00     0.170 HD
HETATM    4  C9  UNL     1     -12.460   8.581  -9.292  1.00  0.00     0.125 A 
HETATM    5  N2  UNL     1     -11.092   8.448  -9.206  1.00  0.00    -0.345 N 
ATOM      6  H2  UNL     1     -10.685   8.019  -8.374  1.00  0.00     0.167 HD
HETATM    7  C10 UNL     1     -10.296   8.859 -10.167  1.00  0.00     0.007 A 
HETATM    8  C11 UNL     1      -8.805   8.692 -10.026  1.00  0.00     0.068 C 
HETATM    9  C12 UNL     1     -10.707   9.464 -11.361  1.00  0.00     0.033 A 
HETATM   10  C13 UNL     1     -12.074   9.603 -11.460  1.00  0.00    -0.039 A 
HETATM   11  C14 UNL     1     -12.703  10.216 -12.641  1.00  0.00     0.050 C 
HETATM   12  C15 UNL     1     -12.905   9.168 -10.445  1.00  0.00     0.059 A 
HETATM   13  S1  UNL     1     -14.614   9.153 -10.178  1.00  0.00    -0.042 SA
ENDROOT
BRANCH   1  14
HETATM   14  O1  UNL     1     -15.671   8.068  -7.788  1.00  0.00    -0.296 OA
BRANCH  14  15
HETATM   15  C7  UNL     1     -15.924   6.715  -7.501  1.00  0.00     0.331 C 
HETATM   16  C6  UNL     1     -15.256   5.844  -8.548  1.00  0.00     0.078 C 
HETATM   17  C4  UNL     1     -16.425   5.114  -9.171  1.00  0.00     0.016 C 
HETATM   18  C5  UNL     1     -17.100   5.995 -10.166  1.00  0.00     0.023 C 
HETATM   19  C16 UNL     1     -17.342   5.000  -7.946  1.00  0.00     0.271 C 
HETATM   20  N3  UNL     1     -17.340   6.398  -7.519  1.00  0.00    -0.034 N 
HETATM   21 BR1  UNL     1     -19.081   4.369  -8.389  1.00  0.00    -0.059 Br
ATOM     22  H32 UNL     1     -17.833   6.581  -6.645  1.00  0.00     0.281 HD
ATOM     23  H31 UNL     1     -17.912   7.022  -8.088  1.00  0.00     0.281 HD
BRANCH  17  24
HETATM   24  C3  UNL     1     -16.054   3.792  -9.698  1.00  0.00    -0.019 C 
HETATM   25  C2  UNL     1     -15.025   3.639 -10.521  1.00  0.00    -0.034 C 
HETATM   26  C1  UNL     1     -14.617   2.335 -11.072  1.00  0.00     0.036 C 
ENDBRANCH  17  24
ENDBRANCH  14  15
ENDBRANCH   1  14
TORSDOF 3
ENDMDL
MODEL 2
REMARK VINA RESULT: -7.209709202      3.555      5.827
REMARK  3 active torsions:
REMARK  status: ('A' for Active; 'I' for Inactive)
REMARK    1  A    between atoms: C3_3  and  C4_4 
REMARK    2  A    between atoms: C7_7  and  O1_8 
REMARK    3  A    between atoms: O1_8  and  C8_9 
ROOT
HETATM    1  C8  UNL     1     -18.039   6.628  -8.558  1.00  0.00     0.190 A 
HETATM    2  N1  UNL     1     -18.586   6.965  -9.700  1.00  0.00    -0.316 N 
ATOM      3  H1  UNL     1     -18.825   6.242 -10.378  1.00  0.00     0.170 HD
HETATM    4  C9  UNL     1     -18.828   8.215  -9.976  1.00  0.00     0.125 A 
HETATM    5  N2  UNL     1     -19.393   8.729 -11.122  1.00  0.00    -0.345 N 
ATOM      6  H2  UNL     1     -19.671   8.091 -11.868  1.00  0.00     0.167 HD
HETATM    7  C10 UNL     1     -19.585  10.019 -11.280  1.00  0.00     0.007 A 
HETATM    8  C11 UNL     1     -20.207  10.533 -12.552  1.00  0.00     0.068 C 
HETATM    9  C12 UNL     1     -19.256  11.010 -10.347  1.00  0.00     0.033 A 
HETATM   10  C13 UNL     1     -18.689  10.510  -9.196  1.00  0.00    -0.039 A 
HETATM   11  C14 UNL     1     -18.274  11.393  -8.094  1.00  0.00     0.050 C 
HETATM   12  C15 UNL     1     -18.490   9.151  -9.037  1.00  0.00     0.059 A 
HETATM   13  S1  UNL     1     -17.835   8.144  -7.794  1.00  0.00    -0.042 SA
ENDROOT
BRANCH   1  14
HETATM   14  O1  UNL     1     -17.731   5.337  -8.145  1.00  0.00    -0.296 OA
BRANCH  14  15
HETATM   15  C7  UNL     1     -16.406   4.876  -8.221  1.00  0.00     0.331 C 
HETATM   16  C6  UNL     1     -15.543   5.928  -8.893  1.00  0.00     0.078 C 
HETATM   17  C4  UNL     1     -15.033   5.209 -10.120  1.00  0.00     0.016 C 
HETATM   18  C5  UNL     1     -16.076   5.217 -11.184  1.00  0.00     0.023 C 
HETATM   19  C16 UNL     1     -14.939   3.782  -9.564  1.00  0.00     0.271 C 
HETATM   20  N3  UNL     1     -16.284   3.661  -9.003  1.00  0.00    -0.034 N 
HETATM   21 BR1  UNL     1     -14.587   2.491 -10.915  1.00  0.00    -0.059 Br
ATOM     22  H32 UNL     1     -16.457   2.798  -8.486  1.00  0.00     0.281 HD
ATOM     23  H31 UNL     1     -17.024   3.515  -9.688  1.00  0.00     0.281 HD
BRANCH  17  24
HETATM   24  C3  UNL     1     -13.721   5.705 -10.566  1.00  0.00    -0.019 C 
HETATM   25  C2  UNL     1     -13.307   6.931 -10.268  1.00  0.00    -0.034 C 
HETATM   26  C1  UNL     1     -12.004   7.469 -10.692  1.00  0.00     0.036 C 
ENDBRANCH  17  24
ENDBRANCH  14  15
ENDBRANCH   1  14
TORSDOF 3
ENDMDL
MODEL 3
REMARK VINA RESULT: -7.066243561      3.493      5.234
REMARK  3 active torsions:
REMARK  status: ('A' for Active; 'I' for Inactive)
REMARK    1  A    between atoms: C3_3  and  C4_4 
REMARK    2  A    between atoms: C7_7  and  O1_8 
REMARK    3  A    between atoms: O1_8  and  C8_9 
ROOT
HETATM    1  C8  UNL     1     -16.387   6.046  -9.036  1.00  0.00     0.190 A 
HETATM    2  N1  UNL     1     -16.231   5.128  -9.957  1.00  0.00    -0.316 N 
ATOM      3  H1  UNL     1     -16.983   4.465 -10.142  1.00  0.00     0.170 HD
HETATM    4  C9  UNL     1     -15.123   5.055 -10.639  1.00  0.00     0.125 A 
HETATM    5  N2  UNL     1     -14.805   4.156 -11.632  1.00  0.00    -0.345 N 
ATOM      6  H2  UNL     1     -15.489   3.446 -11.897  1.00  0.00     0.167 HD
HETATM    7  C10 UNL     1     -13.646   4.187 -12.248  1.00  0.00     0.007 A 
HETATM    8  C11 UNL     1     -13.345   3.181 -13.329  1.00  0.00     0.068 C 
HETATM    9  C12 UNL     1     -12.614   5.099 -11.993  1.00  0.00     0.033 A 
HETATM   10  C13 UNL     1     -12.918   6.005 -11.001  1.00  0.00    -0.039 A 
HETATM   11  C14 UNL     1     -11.963   7.045 -10.587  1.00  0.00     0.050 C 
HETATM   12  C15 UNL     1     -14.141   5.965 -10.358  1.00  0.00     0.059 A 
HETATM   13  S1  UNL     1     -14.898   6.883  -9.103  1.00  0.00    -0.042 SA
ENDROOT
BRANCH   1  14
HETATM   14  O1  UNL     1     -17.514   6.230  -8.243  1.00  0.00    -0.296 OA
BRANCH  14  15
HETATM   15  C7  UNL     1     -18.524   7.115  -8.659  1.00  0.00     0.331 C 
HETATM   16  C6  UNL     1     -18.407   7.347 -10.154  1.00  0.00     0.078 C 
HETATM   17  C4  UNL     1     -18.159   8.836 -10.242  1.00  0.00     0.016 C 
HETATM   18  C5  UNL     1     -16.724   9.129  -9.966  1.00  0.00     0.023 C 
HETATM   19  C16 UNL     1     -18.976   9.308  -9.032  1.00  0.00     0.271 C 
HETATM   20  N3  UNL     1     -18.429   8.411  -8.016  1.00  0.00    -0.034 N 
HETATM   21 BR1  UNL     1     -18.691  11.143  -8.625  1.00  0.00    -0.059 Br
ATOM     22  H32 UNL     1     -18.879   8.472  -7.102  1.00  0.00     0.281 HD
ATOM     23  H31 UNL     1     -17.497   8.657  -7.683  1.00  0.00     0.281 HD
BRANCH  17  24
HETATM   24  C3  UNL     1     -18.658   9.422 -11.497  1.00  0.00    -0.019 C 
HETATM   25  C2  UNL     1     -19.796  10.102 -11.538  1.00  0.00    -0.034 C 
HETATM   26  C1  UNL     1     -20.333  10.705 -12.770  1.00  0.00     0.036 C 
ENDBRANCH  17  24
ENDBRANCH  14  15
ENDBRANCH   1  14
TORSDOF 3
ENDMDL
MODEL 4
REMARK VINA RESULT: -7.030299508      3.395      4.938
REMARK  3 active torsions:
REMARK  status: ('A' for Active; 'I' for Inactive)
REMARK    1  A    between atoms: C3_3  and  C4_4 
REMARK    2  A    between atoms: C7_7  and  O1_8 
REMARK    3  A    between atoms: O1_8  and  C8_9 
ROOT
HETATM    1  C8  UNL     1     -16.653   6.099  -8.874  1.00  0.00     0.190 A 
HETATM    2  N1  UNL     1     -15.551   6.806  -8.890  1.00  0.00    -0.316 N 
ATOM      3  H1  UNL     1     -15.475   7.636  -8.302  1.00  0.00     0.170 HD
HETATM    4  C9  UNL     1     -14.551   6.460  -9.650  1.00  0.00     0.125 A 
HETATM    5  N2  UNL     1     -13.335   7.092  -9.780  1.00  0.00    -0.345 N 
ATOM      6  H2  UNL     1     -13.153   7.936  -9.235  1.00  0.00     0.167 HD
HETATM    7  C10 UNL     1     -12.403   6.639 -10.586  1.00  0.00     0.007 A 
HETATM    8  C11 UNL     1     -11.088   7.367 -10.694  1.00  0.00     0.068 C 
HETATM    9  C12 UNL     1     -12.508   5.499 -11.393  1.00  0.00     0.033 A 
HETATM   10  C13 UNL     1     -13.721   4.856 -11.274  1.00  0.00    -0.039 A 
HETATM   11  C14 UNL     1     -14.026   3.637 -12.040  1.00  0.00     0.050 C 
HETATM   12  C15 UNL     1     -14.697   5.339 -10.422  1.00  0.00     0.059 A 
HETATM   13  S1  UNL     1     -16.299   4.852  -9.990  1.00  0.00    -0.042 SA
ENDROOT
BRANCH   1  14
HETATM   14  O1  UNL     1     -17.786   6.360  -8.112  1.00  0.00    -0.296 OA
BRANCH  14  15
HETATM   15  C7  UNL     1     -18.749   7.270  -8.582  1.00  0.00     0.331 C 
HETATM   16  C6  UNL     1     -18.574   7.464 -10.076  1.00  0.00     0.078 C 
HETATM   17  C4  UNL     1     -18.270   8.941 -10.188  1.00  0.00     0.016 C 
HETATM   18  C5  UNL     1     -16.835   9.189  -9.869  1.00  0.00     0.023 C 
HETATM   19  C16 UNL     1     -19.109   9.468  -9.018  1.00  0.00     0.271 C 
HETATM   20  N3  UNL     1     -18.629   8.576  -7.964  1.00  0.00    -0.034 N 
HETATM   21 BR1  UNL     1     -18.772  11.301  -8.641  1.00  0.00    -0.059 Br
ATOM     22  H32 UNL     1     -19.107   8.674  -7.068  1.00  0.00     0.281 HD
ATOM     23  H31 UNL     1     -17.700   8.797  -7.605  1.00  0.00     0.281 HD
BRANCH  17  24
HETATM   24  C3  UNL     1     -18.705   9.515 -11.472  1.00  0.00    -0.019 C 
HETATM   25  C2  UNL     1     -19.862  10.152 -11.588  1.00  0.00    -0.034 C 
HETATM   26  C1  UNL     1     -20.337  10.742 -12.851  1.00  0.00     0.036 C 
ENDBRANCH  17  24
ENDBRANCH  14  15
ENDBRANCH   1  14
TORSDOF 3
ENDMDL
MODEL 5
REMARK VINA RESULT: -6.940081695      1.238      2.094
REMARK  3 active torsions:
REMARK  status: ('A' for Active; 'I' for Inactive)
REMARK    1  A    between atoms: C3_3  and  C4_4 
REMARK    2  A    between atoms: C7_7  and  O1_8 
REMARK    3  A    between atoms: O1_8  and  C8_9 
ROOT
HETATM    1  C8  UNL     1     -14.454   8.081  -7.967  1.00  0.00     0.190 A 
HETATM    2  N1  UNL     1     -14.764   8.661  -9.100  1.00  0.00    -0.316 N 
ATOM      3  H1  UNL     1     -15.744   8.805  -9.341  1.00  0.00     0.170 HD
HETATM    4  C9  UNL     1     -13.832   9.055  -9.920  1.00  0.00     0.125 A 
HETATM    5  N2  UNL     1     -13.991   9.676 -11.139  1.00  0.00    -0.345 N 
ATOM      6  H2  UNL     1     -14.934   9.868 -11.479  1.00  0.00     0.167 HD
HETATM    7  C10 UNL     1     -12.962  10.026 -11.876  1.00  0.00     0.007 A 
HETATM    8  C11 UNL     1     -13.188  10.702 -13.204  1.00  0.00     0.068 C 
HETATM    9  C12 UNL     1     -11.617   9.827 -11.543  1.00  0.00     0.033 A 
HETATM   10  C13 UNL     1     -11.442   9.207 -10.325  1.00  0.00    -0.039 A 
HETATM   11  C14 UNL     1     -10.101   8.910  -9.796  1.00  0.00     0.050 C 
HETATM   12  C15 UNL     1     -12.530   8.842  -9.554  1.00  0.00     0.059 A 
HETATM   13  S1  UNL     1     -12.745   8.071  -8.021  1.00  0.00    -0.042 SA
ENDROOT
BRANCH   1  14
HETATM   14  O1  UNL     1     -15.349   7.617  -7.010  1.00  0.00    -0.296 OA
BRANCH  14  15
HETATM   15  C7  UNL     1     -15.706   6.258  -6.989  1.00  0.00     0.331 C 
HETATM   16  C6  UNL     1     -15.108   5.560  -8.196  1.00  0.00     0.078 C 
HETATM   17  C4  UNL     1     -16.331   5.058  -8.932  1.00  0.00     0.016 C 
HETATM   18  C5  UNL     1     -16.935   6.166  -9.725  1.00  0.00     0.023 C 
HETATM   19  C16 UNL     1     -17.253   4.776  -7.740  1.00  0.00     0.271 C 
HETATM   20  N3  UNL     1     -17.142   6.059  -7.047  1.00  0.00    -0.034 N 
HETATM   21 BR1  UNL     1     -19.036   4.378  -8.270  1.00  0.00    -0.059 Br
ATOM     22  H32 UNL     1     -17.619   6.104  -6.147  1.00  0.00     0.281 HD
ATOM     23  H31 UNL     1     -17.664   6.824  -7.474  1.00  0.00     0.281 HD
BRANCH  17  24
HETATM   24  C3  UNL     1     -16.063   3.840  -9.713  1.00  0.00    -0.019 C 
HETATM   25  C2  UNL     1     -14.925   3.678 -10.375  1.00  0.00    -0.034 C 
HETATM   26  C1  UNL     1     -14.615   2.477 -11.169  1.00  0.00     0.036 C 
ENDBRANCH  17  24
ENDBRANCH  14  15
ENDBRANCH   1  14
TORSDOF 3
ENDMDL
