MODEL 1
REMARK VINA RESULT: -8.786626187      0.000      0.000
REMARK  5 active torsions:
REMARK  status: ('A' for Active; 'I' for Inactive)
REMARK    1  A    between atoms: C2_2  and  C3_3 
REMARK    2  A    between atoms: C2_2  and  C9_11 
REMARK    3  A    between atoms: C3_3  and  C4_4 
REMARK    4  A    between atoms: C4_4  and  C5_5 
REMARK    5  A    between atoms: C16_18  and  O2_19 
ROOT
HETATM    1  C9  UNL     1      13.724  -4.239 -23.457  1.00  0.00     0.022 C 
HETATM    2  C10 UNL     1      12.594  -4.818 -24.238  1.00  0.00     0.010 C 
HETATM    3  C11 UNL     1      11.622  -5.055 -23.060  1.00  0.00     0.006 C 
HETATM    4  C12 UNL     1      11.787  -3.752 -22.255  1.00  0.00    -0.001 C 
HETATM    5  C13 UNL     1      11.656  -4.015 -20.819  1.00  0.00    -0.005 C 
HETATM    6  C14 UNL     1      11.276  -5.468 -20.487  1.00  0.00     0.008 C 
HETATM    7  C15 UNL     1      10.767  -5.498 -19.058  1.00  0.00     0.032 C 
HETATM    8  C16 UNL     1      11.084  -4.270 -18.281  1.00  0.00     0.118 C 
HETATM    9  C17 UNL     1      12.435  -3.689 -18.540  1.00  0.00     0.036 C 
HETATM   10  C18 UNL     1      12.862  -3.731 -19.968  1.00  0.00    -0.008 C 
HETATM   11  C19 UNL     1      13.334  -2.329 -20.384  1.00  0.00     0.006 C 
HETATM   12  C20 UNL     1      13.968  -2.568 -21.722  1.00  0.00     0.010 C 
HETATM   13  C21 UNL     1      13.033  -3.096 -22.758  1.00  0.00    -0.033 C 
HETATM   14  C22 UNL     1      12.654  -1.941 -23.637  1.00  0.00     0.016 C 
ENDROOT
BRANCH   1  15
HETATM   15  C2  UNL     1      14.988  -3.987 -24.096  1.00  0.00    -0.084 C 
HETATM   16  C1  UNL     1      14.948  -3.701 -25.416  1.00  0.00     0.015 C 
BRANCH  15  17
HETATM   17  C3  UNL     1      16.331  -4.031 -23.519  1.00  0.00     0.040 C 
BRANCH  17  18
HETATM   18  C4  UNL     1      16.588  -4.996 -22.421  1.00  0.00     0.069 C 
BRANCH  18  19
HETATM   19  C5  UNL     1      16.713  -4.443 -21.075  1.00  0.00     0.055 A 
HETATM   20  C6  UNL     1      17.466  -3.360 -20.690  1.00  0.00     0.036 A 
HETATM   21  C7  UNL     1      17.274  -3.213 -19.338  1.00  0.00     0.052 A 
HETATM   22  C8  UNL     1      16.412  -4.212 -18.941  1.00  0.00     0.145 A 
HETATM   23 CL1  UNL     1      15.811  -4.514 -17.310  1.00  0.00    -0.057 Cl
HETATM   24  O1  UNL     1      16.127  -4.889 -20.005  1.00  0.00    -0.303 OA
ENDBRANCH  18  19
ENDBRANCH  17  18
ENDBRANCH  15  17
ENDBRANCH   1  15
BRANCH   8  25
HETATM   25  O2  UNL     1      11.048  -4.625 -16.911  1.00  0.00    -0.396 OA
ATOM     26  H2  UNL     1      10.681  -3.885 -16.441  1.00  0.00     0.210 HD
ENDBRANCH   8  25
TORSDOF 5
ENDMDL
MODEL 2
REMARK VINA RESULT: -8.660073502      2.934      5.023
REMARK  5 active torsions:
REMARK  status: ('A' for Active; 'I' for Inactive)
REMARK    1  A    between atoms: C2_2  and  C3_3 
REMARK    2  A    between atoms: C2_2  and  C9_11 
REMARK    3  A    between atoms: C3_3  and  C4_4 
REMARK    4  A    between atoms: C4_4  and  C5_5 
REMARK    5  A    between atoms: C16_18  and  O2_19 
ROOT
HETATM    1  C9  UNL     1      16.460  -3.205 -21.110  1.00  0.00     0.022 C 
HETATM    2  C10 UNL     1      17.291  -2.145 -20.471  1.00  0.00     0.010 C 
HETATM    3  C11 UNL     1      16.139  -1.236 -19.990  1.00  0.00     0.006 C 
HETATM    4  C12 UNL     1      15.139  -2.268 -19.435  1.00  0.00    -0.001 C 
HETATM    5  C13 UNL     1      13.761  -1.823 -19.665  1.00  0.00    -0.005 C 
HETATM    6  C14 UNL     1      13.657  -0.417 -20.280  1.00  0.00     0.008 C 
HETATM    7  C15 UNL     1      12.237   0.076 -20.070  1.00  0.00     0.032 C 
HETATM    8  C16 UNL     1      11.282  -0.994 -19.677  1.00  0.00     0.118 C 
HETATM    9  C17 UNL     1      11.483  -2.305 -20.363  1.00  0.00     0.036 C 
HETATM   10  C18 UNL     1      12.911  -2.691 -20.551  1.00  0.00    -0.008 C 
HETATM   11  C19 UNL     1      13.109  -4.123 -20.030  1.00  0.00     0.006 C 
HETATM   12  C20 UNL     1      14.486  -4.472 -20.510  1.00  0.00     0.010 C 
HETATM   13  C21 UNL     1      15.565  -3.600 -19.963  1.00  0.00    -0.033 C 
HETATM   14  C22 UNL     1      16.235  -4.367 -18.862  1.00  0.00     0.016 C 
ENDROOT
BRANCH   1  15
HETATM   15  C2  UNL     1      17.087  -4.247 -21.878  1.00  0.00    -0.084 C 
HETATM   16  C1  UNL     1      18.325  -4.622 -21.487  1.00  0.00     0.015 C 
BRANCH  15  17
HETATM   17  C3  UNL     1      16.582  -4.944 -23.061  1.00  0.00     0.040 C 
BRANCH  17  18
HETATM   18  C4  UNL     1      16.128  -4.125 -24.213  1.00  0.00     0.069 C 
BRANCH  18  19
HETATM   19  C5  UNL     1      14.690  -4.088 -24.468  1.00  0.00     0.055 A 
HETATM   20  C6  UNL     1      13.755  -3.302 -23.839  1.00  0.00     0.036 A 
HETATM   21  C7  UNL     1      12.542  -3.609 -24.407  1.00  0.00     0.052 A 
HETATM   22  C8  UNL     1      12.777  -4.573 -25.364  1.00  0.00     0.145 A 
HETATM   23 CL1  UNL     1      11.585  -5.344 -26.410  1.00  0.00    -0.057 Cl
HETATM   24  O1  UNL     1      14.049  -4.802 -25.344  1.00  0.00    -0.303 OA
ENDBRANCH  18  19
ENDBRANCH  17  18
ENDBRANCH  15  17
ENDBRANCH   1  15
BRANCH   8  25
HETATM   25  O2  UNL     1       9.986  -0.544 -20.030  1.00  0.00    -0.396 OA
ATOM     26  H2  UNL     1       9.609  -1.202 -20.601  1.00  0.00     0.210 HD
ENDBRANCH   8  25
TORSDOF 5
ENDMDL
MODEL 3
REMARK VINA RESULT: -8.533041918      2.869      4.725
REMARK  5 active torsions:
REMARK  status: ('A' for Active; 'I' for Inactive)
REMARK    1  A    between atoms: C2_2  and  C3_3 
REMARK    2  A    between atoms: C2_2  and  C9_11 
REMARK    3  A    between atoms: C3_3  and  C4_4 
REMARK    4  A    between atoms: C4_4  and  C5_5 
REMARK    5  A    between atoms: C16_18  and  O2_19 
ROOT
HETATM    1  C9  UNL     1      15.467  -2.688 -20.790  1.00  0.00     0.022 C 
HETATM    2  C10 UNL     1      15.370  -1.297 -20.263  1.00  0.00     0.010 C 
HETATM    3  C11 UNL     1      13.901  -1.025 -20.655  1.00  0.00     0.006 C 
HETATM    4  C12 UNL     1      13.223  -2.351 -20.260  1.00  0.00    -0.001 C 
HETATM    5  C13 UNL     1      12.132  -2.667 -21.186  1.00  0.00    -0.005 C 
HETATM    6  C14 UNL     1      11.861  -1.565 -22.226  1.00  0.00     0.008 C 
HETATM    7  C15 UNL     1      10.486  -1.814 -22.817  1.00  0.00     0.032 C 
HETATM    8  C16 UNL     1       9.943  -3.167 -22.525  1.00  0.00     0.118 C 
HETATM    9  C17 UNL     1      10.944  -4.274 -22.570  1.00  0.00     0.036 C 
HETATM   10  C18 UNL     1      12.276  -3.927 -21.994  1.00  0.00    -0.008 C 
HETATM   11  C19 UNL     1      12.676  -5.014 -20.985  1.00  0.00     0.006 C 
HETATM   12  C20 UNL     1      14.110  -4.690 -20.688  1.00  0.00     0.010 C 
HETATM   13  C21 UNL     1      14.320  -3.349 -20.070  1.00  0.00    -0.033 C 
HETATM   14  C22 UNL     1      14.527  -3.570 -18.600  1.00  0.00     0.016 C 
ENDROOT
BRANCH   1  15
HETATM   15  C2  UNL     1      16.738  -3.362 -20.816  1.00  0.00    -0.084 C 
HETATM   16  C1  UNL     1      17.431  -3.384 -19.656  1.00  0.00     0.015 C 
BRANCH  15  17
HETATM   17  C3  UNL     1      17.412  -4.004 -21.944  1.00  0.00     0.040 C 
BRANCH  17  18
HETATM   18  C4  UNL     1      16.653  -5.008 -22.731  1.00  0.00     0.069 C 
BRANCH  18  19
HETATM   19  C5  UNL     1      15.903  -4.512 -23.881  1.00  0.00     0.055 A 
HETATM   20  C6  UNL     1      16.346  -3.645 -24.850  1.00  0.00     0.036 A 
HETATM   21  C7  UNL     1      15.300  -3.468 -25.723  1.00  0.00     0.052 A 
HETATM   22  C8  UNL     1      14.252  -4.232 -25.258  1.00  0.00     0.145 A 
HETATM   23 CL1  UNL     1      12.651  -4.393 -25.980  1.00  0.00    -0.057 Cl
HETATM   24  O1  UNL     1      14.675  -4.812 -24.183  1.00  0.00    -0.303 OA
ENDBRANCH  18  19
ENDBRANCH  17  18
ENDBRANCH  15  17
ENDBRANCH   1  15
BRANCH   8  25
HETATM   25  O2  UNL     1       8.978  -3.451 -23.522  1.00  0.00    -0.396 OA
ATOM     26  H2  UNL     1       8.138  -3.163 -23.186  1.00  0.00     0.210 HD
ENDBRANCH   8  25
TORSDOF 5
ENDMDL
MODEL 4
REMARK VINA RESULT: -8.395699936      1.628      2.218
REMARK  5 active torsions:
REMARK  status: ('A' for Active; 'I' for Inactive)
REMARK    1  A    between atoms: C2_2  and  C3_3 
REMARK    2  A    between atoms: C2_2  and  C9_11 
REMARK    3  A    between atoms: C3_3  and  C4_4 
REMARK    4  A    between atoms: C4_4  and  C5_5 
REMARK    5  A    between atoms: C16_18  and  O2_19 
ROOT
HETATM    1  C9  UNL     1      12.506  -4.305 -22.637  1.00  0.00     0.022 C 
HETATM    2  C10 UNL     1      11.212  -5.038 -22.528  1.00  0.00     0.010 C 
HETATM    3  C11 UNL     1      11.041  -4.937 -20.996  1.00  0.00     0.006 C 
HETATM    4  C12 UNL     1      11.449  -3.475 -20.733  1.00  0.00    -0.001 C 
HETATM    5  C13 UNL     1      12.125  -3.354 -19.438  1.00  0.00    -0.005 C 
HETATM    6  C14 UNL     1      12.151  -4.662 -18.628  1.00  0.00     0.008 C 
HETATM    7  C15 UNL     1      12.477  -4.308 -17.189  1.00  0.00     0.032 C 
HETATM    8  C16 UNL     1      13.007  -2.930 -17.014  1.00  0.00     0.118 C 
HETATM    9  C17 UNL     1      13.940  -2.470 -18.085  1.00  0.00     0.036 C 
HETATM   10  C18 UNL     1      13.555  -2.891 -19.463  1.00  0.00    -0.008 C 
HETATM   11  C19 UNL     1      13.567  -1.657 -20.379  1.00  0.00     0.006 C 
HETATM   12  C20 UNL     1      13.426  -2.249 -21.749  1.00  0.00     0.010 C 
HETATM   13  C21 UNL     1      12.157  -3.003 -21.963  1.00  0.00    -0.033 C 
HETATM   14  C22 UNL     1      11.238  -2.106 -22.738  1.00  0.00     0.016 C 
ENDROOT
BRANCH   1  15
HETATM   15  C2  UNL     1      13.206  -4.259 -23.893  1.00  0.00    -0.084 C 
HETATM   16  C1  UNL     1      12.539  -4.731 -24.970  1.00  0.00     0.015 C 
BRANCH  15  17
HETATM   17  C3  UNL     1      14.567  -3.802 -24.168  1.00  0.00     0.040 C 
BRANCH  17  18
HETATM   18  C4  UNL     1      15.693  -4.693 -23.791  1.00  0.00     0.069 C 
BRANCH  18  19
HETATM   19  C5  UNL     1      16.324  -4.445 -22.498  1.00  0.00     0.055 A 
HETATM   20  C6  UNL     1      15.954  -4.963 -21.280  1.00  0.00     0.036 A 
HETATM   21  C7  UNL     1      16.833  -4.452 -20.356  1.00  0.00     0.052 A 
HETATM   22  C8  UNL     1      17.711  -3.639 -21.040  1.00  0.00     0.145 A 
HETATM   23 CL1  UNL     1      19.055  -2.719 -20.363  1.00  0.00    -0.057 Cl
HETATM   24  O1  UNL     1      17.354  -3.683 -22.282  1.00  0.00    -0.303 OA
ENDBRANCH  18  19
ENDBRANCH  17  18
ENDBRANCH  15  17
ENDBRANCH   1  15
BRANCH   8  25
HETATM   25  O2  UNL     1      13.739  -2.916 -15.803  1.00  0.00    -0.396 OA
ATOM     26  H2  UNL     1      13.985  -2.015 -15.636  1.00  0.00     0.210 HD
ENDBRANCH   8  25
TORSDOF 5
ENDMDL
MODEL 5
REMARK VINA RESULT: -8.395158145      3.078      5.834
REMARK  5 active torsions:
REMARK  status: ('A' for Active; 'I' for Inactive)
REMARK    1  A    between atoms: C2_2  and  C3_3 
REMARK    2  A    between atoms: C2_2  and  C9_11 
REMARK    3  A    between atoms: C3_3  and  C4_4 
REMARK    4  A    between atoms: C4_4  and  C5_5 
REMARK    5  A    between atoms: C16_18  and  O2_19 
ROOT
HETATM    1  C9  UNL     1      12.928  -3.788 -20.701  1.00  0.00     0.022 C 
HETATM    2  C10 UNL     1      13.007  -5.245 -20.395  1.00  0.00     0.010 C 
HETATM    3  C11 UNL     1      14.534  -5.334 -20.184  1.00  0.00     0.006 C 
HETATM    4  C12 UNL     1      14.807  -4.067 -19.352  1.00  0.00    -0.001 C 
HETATM    5  C13 UNL     1      16.118  -3.503 -19.688  1.00  0.00    -0.005 C 
HETATM    6  C14 UNL     1      16.927  -4.361 -20.676  1.00  0.00     0.008 C 
HETATM    7  C15 UNL     1      18.374  -3.908 -20.605  1.00  0.00     0.032 C 
HETATM    8  C16 UNL     1      18.562  -2.603 -19.917  1.00  0.00     0.118 C 
HETATM    9  C17 UNL     1      17.512  -1.580 -20.203  1.00  0.00     0.036 C 
HETATM   10  C18 UNL     1      16.125  -2.123 -20.284  1.00  0.00    -0.008 C 
HETATM   11  C19 UNL     1      15.212  -1.283 -19.379  1.00  0.00     0.006 C 
HETATM   12  C20 UNL     1      13.838  -1.756 -19.751  1.00  0.00     0.010 C 
HETATM   13  C21 UNL     1      13.594  -3.203 -19.482  1.00  0.00    -0.033 C 
HETATM   14  C22 UNL     1      12.799  -3.286 -18.213  1.00  0.00     0.016 C 
ENDROOT
BRANCH   1  15
HETATM   15  C2  UNL     1      11.688  -3.210 -21.146  1.00  0.00    -0.084 C 
HETATM   16  C1  UNL     1      10.556  -3.825 -20.735  1.00  0.00     0.015 C 
BRANCH  15  17
HETATM   17  C3  UNL     1      11.475  -2.058 -22.020  1.00  0.00     0.040 C 
BRANCH  17  18
HETATM   18  C4  UNL     1      12.480  -1.791 -23.080  1.00  0.00     0.069 C 
BRANCH  18  19
HETATM   19  C5  UNL     1      12.782  -2.890 -23.992  1.00  0.00     0.055 A 
HETATM   20  C6  UNL     1      14.017  -3.428 -24.264  1.00  0.00     0.036 A 
HETATM   21  C7  UNL     1      13.812  -4.435 -25.176  1.00  0.00     0.052 A 
HETATM   22  C8  UNL     1      12.459  -4.479 -25.431  1.00  0.00     0.145 A 
HETATM   23 CL1  UNL     1      11.618  -5.578 -26.525  1.00  0.00    -0.057 Cl
HETATM   24  O1  UNL     1      11.922  -3.552 -24.707  1.00  0.00    -0.303 OA
ENDBRANCH  18  19
ENDBRANCH  17  18
ENDBRANCH  15  17
ENDBRANCH   1  15
BRANCH   8  25
HETATM   25  O2  UNL     1      19.789  -2.066 -20.373  1.00  0.00    -0.396 OA
ATOM     26  H2  UNL     1      19.947  -2.427 -21.237  1.00  0.00     0.210 HD
ENDBRANCH   8  25
TORSDOF 5
ENDMDL
