MODEL 1
REMARK VINA RESULT: -9.052975010      0.000      0.000
REMARK  5 active torsions:
REMARK  status: ('A' for Active; 'I' for Inactive)
REMARK    1  A    between atoms: C3_3  and  O1_4 
REMARK    2  A    between atoms: C8_11  and  C9_12 
REMARK    3  A    between atoms: C15_19  and  O2_20 
REMARK    4  A    between atoms: O2_20  and  C16_21 
REMARK    5  A    between atoms: C16_21  and  C17_23 
ROOT
HETATM    1  C1  UNL     1       2.429 -10.043 -16.892  1.00  0.00     0.019 C 
HETATM    2  C2  UNL     1       3.544  -9.321 -16.811  1.00  0.00    -0.030 C 
HETATM    3  C3  UNL     1       3.429  -7.988 -16.153  1.00  0.00     0.150 C 
HETATM    4  C4  UNL     1       2.355  -7.128 -16.712  1.00  0.00     0.056 C 
HETATM    5  C5  UNL     1       2.196  -7.128 -18.192  1.00  0.00     0.085 C 
HETATM    6 CL1  UNL     1       0.464  -6.708 -18.495  1.00  0.00    -0.125 Cl
HETATM    7  C6  UNL     1       3.019  -6.028 -18.826  1.00  0.00     0.025 C 
HETATM    8  C7  UNL     1       3.141  -6.120 -20.282  1.00  0.00     0.040 C 
HETATM    9  C8  UNL     1       4.202  -6.914 -20.919  1.00  0.00    -0.062 C 
HETATM   10  C12 UNL     1       5.102  -7.701 -20.441  1.00  0.00    -0.018 C 
HETATM   11  C13 UNL     1       5.469  -8.150 -19.092  1.00  0.00     0.051 C 
HETATM   12  C14 UNL     1       5.008  -9.598 -18.820  1.00  0.00     0.119 C 
HETATM   13 CL2  UNL     1       6.153 -10.763 -19.506  1.00  0.00    -0.122 Cl
HETATM   14  C15 UNL     1       4.835  -9.831 -17.349  1.00  0.00     0.181 C 
ENDROOT
BRANCH  14  15
HETATM   15  O2  UNL     1       4.896 -11.249 -17.136  1.00  0.00    -0.310 OA
BRANCH  15  16
HETATM   16  C16 UNL     1       5.505 -11.779 -16.007  1.00  0.00     0.263 C 
HETATM   17  O3  UNL     1       6.638 -11.412 -15.690  1.00  0.00    -0.265 OA
BRANCH  16  18
HETATM   18  C17 UNL     1       4.796 -12.783 -15.185  1.00  0.00     0.085 C 
HETATM   19  C18 UNL     1       3.979 -12.076 -14.128  1.00  0.00     0.014 C 
HETATM   20  C19 UNL     1       2.825 -13.021 -13.882  1.00  0.00     0.001 C 
HETATM   21  C20 UNL     1       2.462 -13.424 -15.307  1.00  0.00     0.001 C 
HETATM   22  C21 UNL     1       3.801 -13.592 -15.991  1.00  0.00     0.014 C 
ENDBRANCH  16  18
ENDBRANCH  15  16
ENDBRANCH  14  15
BRANCH   3  23
HETATM   23  O1  UNL     1       3.061  -8.288 -14.815  1.00  0.00    -0.391 OA
ATOM     24  H1  UNL     1       3.236  -7.485 -14.338  1.00  0.00     0.210 HD
ENDBRANCH   3  23
BRANCH   9  25
HETATM   25  C9  UNL     1       4.175  -6.726 -22.413  1.00  0.00     0.002 C 
HETATM   26  C10 UNL     1       3.084  -6.818 -23.125  1.00  0.00    -0.030 C 
HETATM   27  C11 UNL     1       3.216  -6.604 -24.606  1.00  0.00     0.036 C 
ENDBRANCH   9  25
TORSDOF 5
ENDMDL
MODEL 2
REMARK VINA RESULT: -8.747793160      3.123      4.946
REMARK  5 active torsions:
REMARK  status: ('A' for Active; 'I' for Inactive)
REMARK    1  A    between atoms: C3_3  and  O1_4 
REMARK    2  A    between atoms: C8_11  and  C9_12 
REMARK    3  A    between atoms: C15_19  and  O2_20 
REMARK    4  A    between atoms: O2_20  and  C16_21 
REMARK    5  A    between atoms: C16_21  and  C17_23 
ROOT
HETATM    1  C1  UNL     1       7.199  -8.225 -15.874  1.00  0.00     0.019 C 
HETATM    2  C2  UNL     1       6.124  -8.994 -16.022  1.00  0.00    -0.030 C 
HETATM    3  C3  UNL     1       6.223 -10.095 -17.023  1.00  0.00     0.150 C 
HETATM    4  C4  UNL     1       6.667  -9.651 -18.368  1.00  0.00     0.056 C 
HETATM    5  C5  UNL     1       6.097  -8.372 -18.875  1.00  0.00     0.085 C 
HETATM    6 CL1  UNL     1       7.323  -7.718 -20.032  1.00  0.00    -0.125 Cl
HETATM    7  C6  UNL     1       4.840  -8.619 -19.680  1.00  0.00     0.025 C 
HETATM    8  C7  UNL     1       4.066  -7.415 -19.988  1.00  0.00     0.040 C 
HETATM    9  C8  UNL     1       3.049  -6.895 -19.061  1.00  0.00    -0.062 C 
HETATM   10  C12 UNL     1       2.697  -7.246 -17.873  1.00  0.00    -0.018 C 
HETATM   11  C13 UNL     1       3.132  -8.287 -16.933  1.00  0.00     0.051 C 
HETATM   12  C14 UNL     1       3.992  -7.708 -15.788  1.00  0.00     0.119 C 
HETATM   13 CL2  UNL     1       2.967  -7.011 -14.523  1.00  0.00    -0.122 Cl
HETATM   14  C15 UNL     1       4.892  -8.762 -15.218  1.00  0.00     0.181 C 
ENDROOT
BRANCH  14  15
HETATM   15  O2  UNL     1       5.273  -8.326 -13.904  1.00  0.00    -0.310 OA
BRANCH  15  16
HETATM   16  C16 UNL     1       5.018  -9.108 -12.787  1.00  0.00     0.263 C 
HETATM   17  O3  UNL     1       3.992  -9.789 -12.734  1.00  0.00    -0.265 OA
BRANCH  16  18
HETATM   18  C17 UNL     1       5.975  -9.125 -11.660  1.00  0.00     0.085 C 
HETATM   19  C18 UNL     1       6.206  -7.711 -11.179  1.00  0.00     0.014 C 
HETATM   20  C19 UNL     1       6.534  -7.884  -9.714  1.00  0.00     0.001 C 
HETATM   21  C20 UNL     1       5.490  -8.912  -9.295  1.00  0.00     0.001 C 
HETATM   22  C21 UNL     1       5.440  -9.877 -10.459  1.00  0.00     0.014 C 
ENDBRANCH  16  18
ENDBRANCH  15  16
ENDBRANCH  14  15
BRANCH   3  23
HETATM   23  O1  UNL     1       7.240 -10.942 -16.513  1.00  0.00    -0.391 OA
ATOM     24  H1  UNL     1       8.050 -10.533 -16.795  1.00  0.00     0.210 HD
ENDBRANCH   3  23
BRANCH   9  25
HETATM   25  C9  UNL     1       2.317  -5.734 -19.681  1.00  0.00     0.002 C 
HETATM   26  C10 UNL     1       1.440  -5.015 -19.033  1.00  0.00    -0.030 C 
HETATM   27  C11 UNL     1       0.792  -3.889 -19.787  1.00  0.00     0.036 C 
ENDBRANCH   9  25
TORSDOF 5
ENDMDL
MODEL 3
REMARK VINA RESULT: -8.511517974      1.133      1.251
REMARK  5 active torsions:
REMARK  status: ('A' for Active; 'I' for Inactive)
REMARK    1  A    between atoms: C3_3  and  O1_4 
REMARK    2  A    between atoms: C8_11  and  C9_12 
REMARK    3  A    between atoms: C15_19  and  O2_20 
REMARK    4  A    between atoms: O2_20  and  C16_21 
REMARK    5  A    between atoms: C16_21  and  C17_23 
ROOT
HETATM    1  C1  UNL     1       2.667 -10.529 -17.076  1.00  0.00     0.019 C 
HETATM    2  C2  UNL     1       3.802  -9.893 -16.797  1.00  0.00    -0.030 C 
HETATM    3  C3  UNL     1       3.677  -8.572 -16.117  1.00  0.00     0.150 C 
HETATM    4  C4  UNL     1       2.768  -7.622 -16.805  1.00  0.00     0.056 C 
HETATM    5  C5  UNL     1       2.846  -7.573 -18.291  1.00  0.00     0.085 C 
HETATM    6 CL1  UNL     1       1.218  -7.018 -18.846  1.00  0.00    -0.125 Cl
HETATM    7  C6  UNL     1       3.834  -6.522 -18.749  1.00  0.00     0.025 C 
HETATM    8  C7  UNL     1       4.178  -6.587 -20.170  1.00  0.00     0.040 C 
HETATM    9  C8  UNL     1       5.269  -7.442 -20.662  1.00  0.00    -0.062 C 
HETATM   10  C12 UNL     1       6.025  -8.306 -20.078  1.00  0.00    -0.018 C 
HETATM   11  C13 UNL     1       6.141  -8.813 -18.705  1.00  0.00     0.051 C 
HETATM   12  C14 UNL     1       5.543 -10.229 -18.560  1.00  0.00     0.119 C 
HETATM   13 CL2  UNL     1       6.699 -11.459 -19.100  1.00  0.00    -0.122 Cl
HETATM   14  C15 UNL     1       5.124 -10.485 -17.143  1.00  0.00     0.181 C 
ENDROOT
BRANCH  14  15
HETATM   15  O2  UNL     1       5.052 -11.908 -16.974  1.00  0.00    -0.310 OA
BRANCH  15  16
HETATM   16  C16 UNL     1       5.584 -12.525 -15.852  1.00  0.00     0.263 C 
HETATM   17  O3  UNL     1       6.795 -12.463 -15.632  1.00  0.00    -0.265 OA
BRANCH  16  18
HETATM   18  C17 UNL     1       4.700 -13.256 -14.918  1.00  0.00     0.085 C 
HETATM   19  C18 UNL     1       4.037 -12.271 -13.984  1.00  0.00     0.014 C 
HETATM   20  C19 UNL     1       2.725 -12.938 -13.639  1.00  0.00     0.001 C 
HETATM   21  C20 UNL     1       2.286 -13.454 -15.004  1.00  0.00     0.001 C 
HETATM   22  C21 UNL     1       3.566 -13.964 -15.630  1.00  0.00     0.014 C 
ENDBRANCH  16  18
ENDBRANCH  15  16
ENDBRANCH  14  15
BRANCH   3  23
HETATM   23  O1  UNL     1       3.083  -8.877 -14.865  1.00  0.00    -0.391 OA
ATOM     24  H1  UNL     1       2.564  -9.654 -15.034  1.00  0.00     0.210 HD
ENDBRANCH   3  23
BRANCH   9  25
HETATM   25  C9  UNL     1       5.492  -7.216 -22.134  1.00  0.00     0.002 C 
HETATM   26  C10 UNL     1       6.397  -7.857 -22.825  1.00  0.00    -0.030 C 
HETATM   27  C11 UNL     1       6.500  -7.522 -24.286  1.00  0.00     0.036 C 
ENDBRANCH   9  25
TORSDOF 5
ENDMDL
MODEL 4
REMARK VINA RESULT: -8.414525819      3.253      4.036
REMARK  5 active torsions:
REMARK  status: ('A' for Active; 'I' for Inactive)
REMARK    1  A    between atoms: C3_3  and  O1_4 
REMARK    2  A    between atoms: C8_11  and  C9_12 
REMARK    3  A    between atoms: C15_19  and  O2_20 
REMARK    4  A    between atoms: O2_20  and  C16_21 
REMARK    5  A    between atoms: C16_21  and  C17_23 
ROOT
HETATM    1  C1  UNL     1       3.458  -9.314 -14.983  1.00  0.00     0.019 C 
HETATM    2  C2  UNL     1       4.312  -8.295 -14.939  1.00  0.00    -0.030 C 
HETATM    3  C3  UNL     1       3.726  -6.928 -15.043  1.00  0.00     0.150 C 
HETATM    4  C4  UNL     1       2.835  -6.740 -16.215  1.00  0.00     0.056 C 
HETATM    5  C5  UNL     1       3.279  -7.347 -17.500  1.00  0.00     0.085 C 
HETATM    6 CL1  UNL     1       1.765  -7.657 -18.439  1.00  0.00    -0.125 Cl
HETATM    7  C6  UNL     1       4.091  -6.362 -18.314  1.00  0.00     0.025 C 
HETATM    8  C7  UNL     1       4.793  -6.948 -19.457  1.00  0.00     0.040 C 
HETATM    9  C8  UNL     1       6.135  -7.533 -19.320  1.00  0.00    -0.062 C 
HETATM   10  C12 UNL     1       6.890  -7.746 -18.298  1.00  0.00    -0.018 C 
HETATM   11  C13 UNL     1       6.761  -7.510 -16.854  1.00  0.00     0.051 C 
HETATM   12  C14 UNL     1       6.476  -8.815 -16.080  1.00  0.00     0.119 C 
HETATM   13 CL2  UNL     1       7.976  -9.712 -15.787  1.00  0.00    -0.122 Cl
HETATM   14  C15 UNL     1       5.777  -8.521 -14.787  1.00  0.00     0.181 C 
ENDROOT
BRANCH  14  15
HETATM   15  O2  UNL     1       5.982  -9.653 -13.928  1.00  0.00    -0.310 OA
BRANCH  15  16
HETATM   16  C16 UNL     1       5.610  -9.617 -12.592  1.00  0.00     0.263 C 
HETATM   17  O3  UNL     1       4.847 -10.475 -12.144  1.00  0.00    -0.265 OA
BRANCH  16  18
HETATM   18  C17 UNL     1       6.127  -8.551 -11.706  1.00  0.00     0.085 C 
HETATM   19  C18 UNL     1       4.968  -7.866 -11.021  1.00  0.00     0.014 C 
HETATM   20  C19 UNL     1       5.559  -7.393  -9.714  1.00  0.00     0.001 C 
HETATM   21  C20 UNL     1       6.373  -8.612  -9.296  1.00  0.00     0.001 C 
HETATM   22  C21 UNL     1       6.991  -9.098 -10.589  1.00  0.00     0.014 C 
ENDBRANCH  16  18
ENDBRANCH  15  16
ENDBRANCH  14  15
BRANCH   3  23
HETATM   23  O1  UNL     1       2.914  -6.806 -13.885  1.00  0.00    -0.391 OA
ATOM     24  H1  UNL     1       3.476  -6.379 -13.249  1.00  0.00     0.210 HD
ENDBRANCH   3  23
BRANCH   9  25
HETATM   25  C9  UNL     1       6.672  -7.939 -20.668  1.00  0.00     0.002 C 
HETATM   26  C10 UNL     1       6.180  -7.498 -21.794  1.00  0.00    -0.030 C 
HETATM   27  C11 UNL     1       6.823  -7.994 -23.058  1.00  0.00     0.036 C 
ENDBRANCH   9  25
TORSDOF 5
ENDMDL
MODEL 5
REMARK VINA RESULT: -8.287623946      1.635      2.679
REMARK  5 active torsions:
REMARK  status: ('A' for Active; 'I' for Inactive)
REMARK    1  A    between atoms: C3_3  and  O1_4 
REMARK    2  A    between atoms: C8_11  and  C9_12 
REMARK    3  A    between atoms: C15_19  and  O2_20 
REMARK    4  A    between atoms: O2_20  and  C16_21 
REMARK    5  A    between atoms: C16_21  and  C17_23 
ROOT
HETATM    1  C1  UNL     1       2.360  -9.734 -17.114  1.00  0.00     0.019 C 
HETATM    2  C2  UNL     1       3.412  -8.920 -17.149  1.00  0.00    -0.030 C 
HETATM    3  C3  UNL     1       3.267  -7.613 -16.447  1.00  0.00     0.150 C 
HETATM    4  C4  UNL     1       2.065  -6.840 -16.849  1.00  0.00     0.056 C 
HETATM    5  C5  UNL     1       1.728  -6.830 -18.300  1.00  0.00     0.085 C 
HETATM    6 CL1  UNL     1      -0.057  -6.555 -18.382  1.00  0.00    -0.125 Cl
HETATM    7  C6  UNL     1       2.373  -5.653 -18.998  1.00  0.00     0.025 C 
HETATM    8  C7  UNL     1       2.323  -5.710 -20.460  1.00  0.00     0.040 C 
HETATM    9  C8  UNL     1       3.362  -6.400 -21.241  1.00  0.00    -0.062 C 
HETATM   10  C12 UNL     1       4.376  -7.114 -20.895  1.00  0.00    -0.018 C 
HETATM   11  C13 UNL     1       4.940  -7.552 -19.612  1.00  0.00     0.051 C 
HETATM   12  C14 UNL     1       4.638  -9.038 -19.325  1.00  0.00     0.119 C 
HETATM   13 CL2  UNL     1       5.785 -10.089 -20.174  1.00  0.00    -0.122 Cl
HETATM   14  C15 UNL     1       4.666  -9.308 -17.851  1.00  0.00     0.181 C 
ENDROOT
BRANCH  14  15
HETATM   15  O2  UNL     1       4.871 -10.719 -17.684  1.00  0.00    -0.310 OA
BRANCH  15  16
HETATM   16  C16 UNL     1       5.492 -11.225 -16.551  1.00  0.00     0.263 C 
HETATM   17  O3  UNL     1       4.924 -12.081 -15.869  1.00  0.00    -0.265 OA
BRANCH  16  18
HETATM   18  C17 UNL     1       6.834 -10.740 -16.161  1.00  0.00     0.085 C 
HETATM   19  C18 UNL     1       7.645 -10.463 -17.405  1.00  0.00     0.014 C 
HETATM   20  C19 UNL     1       8.590  -9.366 -16.974  1.00  0.00     0.001 C 
HETATM   21  C20 UNL     1       7.654  -8.460 -16.183  1.00  0.00     0.001 C 
HETATM   22  C21 UNL     1       6.777  -9.424 -15.414  1.00  0.00     0.014 C 
ENDBRANCH  16  18
ENDBRANCH  15  16
ENDBRANCH  14  15
BRANCH   3  23
HETATM   23  O1  UNL     1       3.092  -7.965 -15.083  1.00  0.00    -0.391 OA
ATOM     24  H1  UNL     1       3.951  -7.842 -14.697  1.00  0.00     0.210 HD
ENDBRANCH   3  23
BRANCH   9  25
HETATM   25  C9  UNL     1       3.137  -6.190 -22.715  1.00  0.00     0.002 C 
HETATM   26  C10 UNL     1       3.713  -6.917 -23.635  1.00  0.00    -0.030 C 
HETATM   27  C11 UNL     1       3.390  -6.588 -25.065  1.00  0.00     0.036 C 
ENDBRANCH   9  25
TORSDOF 5
ENDMDL
