MODEL 1
REMARK VINA RESULT: -8.717708436      0.000      0.000
REMARK  5 active torsions:
REMARK  status: ('A' for Active; 'I' for Inactive)
REMARK       I    between atoms: C1_2  and  N1_3 
REMARK       I    between atoms: C1_2  and  N2_13 
REMARK    1  A    between atoms: N1_3  and  C2_5 
REMARK    2  A    between atoms: C2_5  and  C3_6 
REMARK    3  A    between atoms: C3_6  and  C4_7 
REMARK    4  A    between atoms: C4_7  and  C5_8 
REMARK    5  A    between atoms: C13_17  and  C14_18 
REMARK       I    between atoms: C14_18  and  N3_20 
ROOT
HETATM    1  O1  UNL     1      -7.974  17.172   6.915  1.00  0.00    -0.247 OA
HETATM    2  C1  UNL     1      -7.600  18.381   6.734  1.00  0.00     0.318 C 
HETATM    3  N1  UNL     1      -6.226  18.602   6.476  1.00  0.00    -0.343 N 
ATOM      4  H1  UNL     1      -5.912  19.560   6.322  1.00  0.00     0.164 HD
HETATM    5  N2  UNL     1      -8.536  19.438   6.792  1.00  0.00    -0.333 N 
HETATM    6  C10 UNL     1      -8.163  20.818   6.596  1.00  0.00     0.127 C 
HETATM    7  C11 UNL     1      -9.412  21.679   6.728  1.00  0.00     0.021 C 
HETATM    8  C12 UNL     1     -10.503  21.227   5.815  1.00  0.00     0.017 C 
HETATM    9  C13 UNL     1     -10.685  19.743   5.864  1.00  0.00     0.096 C 
HETATM   10  C19 UNL     1      -9.929  19.186   7.057  1.00  0.00     0.141 C 
ENDROOT
BRANCH   3  11
HETATM   11  C2  UNL     1      -5.245  17.545   6.421  1.00  0.00     0.124 C 
BRANCH  11  12
HETATM   12  C3  UNL     1      -4.654  17.223   7.736  1.00  0.00     0.020 C 
BRANCH  12  13
HETATM   13  C4  UNL     1      -5.263  16.164   8.562  1.00  0.00     0.006 C 
BRANCH  13  14
HETATM   14  C5  UNL     1      -5.017  14.739   8.237  1.00  0.00    -0.014 C 
HETATM   15  C6  UNL     1      -3.753  14.382   7.557  1.00  0.00     0.004 C 
HETATM   16  C7  UNL     1      -4.093  13.354   6.485  1.00  0.00     0.000 C 
HETATM   17  C8  UNL     1      -5.418  13.909   5.985  1.00  0.00     0.000 C 
HETATM   18  C9  UNL     1      -6.097  14.229   7.290  1.00  0.00     0.004 C 
ENDBRANCH  13  14
ENDBRANCH  12  13
ENDBRANCH  11  12
ENDBRANCH   3  11
BRANCH   9  19
HETATM   19  C14 UNL     1     -12.066  19.273   5.793  1.00  0.00     0.225 C 
HETATM   20  O2  UNL     1     -12.989  20.139   5.995  1.00  0.00    -0.273 OA
HETATM   21  N3  UNL     1     -12.492  17.967   5.527  1.00  0.00    -0.352 N 
HETATM   22  C15 UNL     1     -11.665  16.819   5.266  1.00  0.00     0.126 C 
HETATM   23  C18 UNL     1     -13.897  17.533   5.457  1.00  0.00     0.126 C 
HETATM   24  C16 UNL     1     -12.460  15.697   5.944  1.00  0.00     0.021 C 
HETATM   25  C17 UNL     1     -13.855  16.043   5.471  1.00  0.00     0.021 C 
ENDBRANCH   9  19
TORSDOF 5
ENDMDL
MODEL 2
REMARK VINA RESULT: -8.176802254      1.738      3.182
REMARK  5 active torsions:
REMARK  status: ('A' for Active; 'I' for Inactive)
REMARK       I    between atoms: C1_2  and  N1_3 
REMARK       I    between atoms: C1_2  and  N2_13 
REMARK    1  A    between atoms: N1_3  and  C2_5 
REMARK    2  A    between atoms: C2_5  and  C3_6 
REMARK    3  A    between atoms: C3_6  and  C4_7 
REMARK    4  A    between atoms: C4_7  and  C5_8 
REMARK    5  A    between atoms: C13_17  and  C14_18 
REMARK       I    between atoms: C14_18  and  N3_20 
ROOT
HETATM    1  O1  UNL     1      -7.942  17.045   6.941  1.00  0.00    -0.247 OA
HETATM    2  C1  UNL     1      -7.531  18.234   6.715  1.00  0.00     0.318 C 
HETATM    3  N1  UNL     1      -6.153  18.401   6.440  1.00  0.00    -0.343 N 
ATOM      4  H1  UNL     1      -5.809  19.342   6.251  1.00  0.00     0.164 HD
HETATM    5  N2  UNL     1      -8.431  19.323   6.745  1.00  0.00    -0.333 N 
HETATM    6  C10 UNL     1      -8.014  20.682   6.498  1.00  0.00     0.127 C 
HETATM    7  C11 UNL     1      -9.233  21.588   6.610  1.00  0.00     0.021 C 
HETATM    8  C12 UNL     1     -10.346  21.141   5.721  1.00  0.00     0.017 C 
HETATM    9  C13 UNL     1     -10.577  19.667   5.822  1.00  0.00     0.096 C 
HETATM   10  C19 UNL     1      -9.829  19.126   7.028  1.00  0.00     0.141 C 
ENDROOT
BRANCH   3  11
HETATM   11  C2  UNL     1      -5.207  17.311   6.414  1.00  0.00     0.124 C 
BRANCH  11  12
HETATM   12  C3  UNL     1      -4.179  17.399   7.471  1.00  0.00     0.020 C 
BRANCH  12  13
HETATM   13  C4  UNL     1      -2.831  17.892   7.130  1.00  0.00     0.006 C 
BRANCH  13  14
HETATM   14  C5  UNL     1      -2.508  19.329   7.289  1.00  0.00    -0.014 C 
HETATM   15  C6  UNL     1      -3.430  20.173   8.080  1.00  0.00     0.004 C 
HETATM   16  C7  UNL     1      -3.583  21.493   7.334  1.00  0.00     0.000 C 
HETATM   17  C8  UNL     1      -3.608  20.995   5.897  1.00  0.00     0.000 C 
HETATM   18  C9  UNL     1      -2.472  20.008   5.924  1.00  0.00     0.004 C 
ENDBRANCH  13  14
ENDBRANCH  12  13
ENDBRANCH  11  12
ENDBRANCH   3  11
BRANCH   9  19
HETATM   19  C14 UNL     1     -11.973  19.240   5.778  1.00  0.00     0.225 C 
HETATM   20  O2  UNL     1     -12.865  20.136   5.995  1.00  0.00    -0.273 OA
HETATM   21  N3  UNL     1     -12.445  17.949   5.523  1.00  0.00    -0.352 N 
HETATM   22  C15 UNL     1     -11.659  16.774   5.250  1.00  0.00     0.126 C 
HETATM   23  C18 UNL     1     -13.864  17.559   5.480  1.00  0.00     0.126 C 
HETATM   24  C16 UNL     1     -12.477  15.680   5.945  1.00  0.00     0.021 C 
HETATM   25  C17 UNL     1     -13.869  16.069   5.497  1.00  0.00     0.021 C 
ENDBRANCH   9  19
TORSDOF 5
ENDMDL
MODEL 3
REMARK VINA RESULT: -8.141044991      1.942      2.769
REMARK  5 active torsions:
REMARK  status: ('A' for Active; 'I' for Inactive)
REMARK       I    between atoms: C1_2  and  N1_3 
REMARK       I    between atoms: C1_2  and  N2_13 
REMARK    1  A    between atoms: N1_3  and  C2_5 
REMARK    2  A    between atoms: C2_5  and  C3_6 
REMARK    3  A    between atoms: C3_6  and  C4_7 
REMARK    4  A    between atoms: C4_7  and  C5_8 
REMARK    5  A    between atoms: C13_17  and  C14_18 
REMARK       I    between atoms: C14_18  and  N3_20 
ROOT
HETATM    1  O1  UNL     1      -7.963  17.008   6.949  1.00  0.00    -0.247 OA
HETATM    2  C1  UNL     1      -7.535  18.190   6.717  1.00  0.00     0.318 C 
HETATM    3  N1  UNL     1      -6.156  18.337   6.438  1.00  0.00    -0.343 N 
ATOM      4  H1  UNL     1      -5.800  19.272   6.243  1.00  0.00     0.164 HD
HETATM    5  N2  UNL     1      -8.420  19.292   6.745  1.00  0.00    -0.333 N 
HETATM    6  C10 UNL     1      -7.985  20.644   6.491  1.00  0.00     0.127 C 
HETATM    7  C11 UNL     1      -9.191  21.568   6.603  1.00  0.00     0.021 C 
HETATM    8  C12 UNL     1     -10.313  21.133   5.719  1.00  0.00     0.017 C 
HETATM    9  C13 UNL     1     -10.564  19.662   5.827  1.00  0.00     0.096 C 
HETATM   10  C19 UNL     1      -9.821  19.116   7.033  1.00  0.00     0.141 C 
ENDROOT
BRANCH   3  11
HETATM   11  C2  UNL     1      -5.226  17.234   6.413  1.00  0.00     0.124 C 
BRANCH  11  12
HETATM   12  C3  UNL     1      -4.169  17.333   7.440  1.00  0.00     0.020 C 
BRANCH  12  13
HETATM   13  C4  UNL     1      -3.192  18.435   7.367  1.00  0.00     0.006 C 
BRANCH  13  14
HETATM   14  C5  UNL     1      -1.853  18.199   6.777  1.00  0.00    -0.014 C 
HETATM   15  C6  UNL     1      -1.300  16.827   6.818  1.00  0.00     0.004 C 
HETATM   16  C7  UNL     1       0.174  16.948   7.182  1.00  0.00     0.000 C 
HETATM   17  C8  UNL     1       0.113  18.072   8.206  1.00  0.00     0.000 C 
HETATM   18  C9  UNL     1      -0.808  19.036   7.506  1.00  0.00     0.004 C 
ENDBRANCH  13  14
ENDBRANCH  12  13
ENDBRANCH  11  12
ENDBRANCH   3  11
BRANCH   9  19
HETATM   19  C14 UNL     1     -11.966  19.255   5.789  1.00  0.00     0.225 C 
HETATM   20  O2  UNL     1     -12.844  20.161   6.024  1.00  0.00    -0.273 OA
HETATM   21  N3  UNL     1     -12.458  17.974   5.522  1.00  0.00    -0.352 N 
HETATM   22  C15 UNL     1     -11.690  16.792   5.227  1.00  0.00     0.126 C 
HETATM   23  C18 UNL     1     -13.882  17.604   5.484  1.00  0.00     0.126 C 
HETATM   24  C16 UNL     1     -12.517  15.700   5.914  1.00  0.00     0.021 C 
HETATM   25  C17 UNL     1     -13.907  16.113   5.483  1.00  0.00     0.021 C 
ENDBRANCH   9  19
TORSDOF 5
ENDMDL
MODEL 4
REMARK VINA RESULT: -8.092114334      1.720      7.627
REMARK  5 active torsions:
REMARK  status: ('A' for Active; 'I' for Inactive)
REMARK       I    between atoms: C1_2  and  N1_3 
REMARK       I    between atoms: C1_2  and  N2_13 
REMARK    1  A    between atoms: N1_3  and  C2_5 
REMARK    2  A    between atoms: C2_5  and  C3_6 
REMARK    3  A    between atoms: C3_6  and  C4_7 
REMARK    4  A    between atoms: C4_7  and  C5_8 
REMARK    5  A    between atoms: C13_17  and  C14_18 
REMARK       I    between atoms: C14_18  and  N3_20 
ROOT
HETATM    1  O1  UNL     1      -8.959  17.788   6.403  1.00  0.00    -0.247 OA
HETATM    2  C1  UNL     1      -8.107  18.736   6.513  1.00  0.00     0.318 C 
HETATM    3  N1  UNL     1      -8.614  20.047   6.674  1.00  0.00    -0.343 N 
ATOM      4  H1  UNL     1      -7.948  20.813   6.771  1.00  0.00     0.164 HD
HETATM    5  N2  UNL     1      -6.721  18.462   6.471  1.00  0.00    -0.333 N 
HETATM    6  C10 UNL     1      -5.722  19.497   6.589  1.00  0.00     0.127 C 
HETATM    7  C11 UNL     1      -4.346  18.850   6.501  1.00  0.00     0.021 C 
HETATM    8  C12 UNL     1      -4.179  17.752   7.498  1.00  0.00     0.017 C 
HETATM    9  C13 UNL     1      -5.364  16.839   7.520  1.00  0.00     0.096 C 
HETATM   10  C19 UNL     1      -6.231  17.118   6.305  1.00  0.00     0.141 C 
ENDROOT
BRANCH   3  11
HETATM   11  C2  UNL     1     -10.022  20.359   6.710  1.00  0.00     0.124 C 
BRANCH  11  12
HETATM   12  C3  UNL     1     -10.605  20.598   5.374  1.00  0.00     0.020 C 
BRANCH  12  13
HETATM   13  C4  UNL     1     -11.540  19.609   4.805  1.00  0.00     0.006 C 
BRANCH  13  14
HETATM   14  C5  UNL     1     -12.325  18.731   5.705  1.00  0.00    -0.014 C 
HETATM   15  C6  UNL     1     -12.317  17.274   5.446  1.00  0.00     0.004 C 
HETATM   16  C7  UNL     1     -13.744  16.776   5.638  1.00  0.00     0.000 C 
HETATM   17  C8  UNL     1     -14.523  17.933   5.029  1.00  0.00     0.000 C 
HETATM   18  C9  UNL     1     -13.801  19.105   5.639  1.00  0.00     0.004 C 
ENDBRANCH  13  14
ENDBRANCH  12  13
ENDBRANCH  11  12
ENDBRANCH   3  11
BRANCH   9  19
HETATM   19  C14 UNL     1      -5.067  15.420   7.696  1.00  0.00     0.225 C 
HETATM   20  O2  UNL     1      -5.308  14.912   8.848  1.00  0.00    -0.273 OA
HETATM   21  N3  UNL     1      -4.546  14.550   6.733  1.00  0.00    -0.352 N 
HETATM   22  C15 UNL     1      -4.195  14.867   5.373  1.00  0.00     0.126 C 
HETATM   23  C18 UNL     1      -4.267  13.121   6.946  1.00  0.00     0.126 C 
HETATM   24  C16 UNL     1      -2.960  13.986   5.154  1.00  0.00     0.021 C 
HETATM   25  C17 UNL     1      -3.444  12.696   5.778  1.00  0.00     0.021 C 
ENDBRANCH   9  19
TORSDOF 5
ENDMDL
MODEL 5
REMARK VINA RESULT: -8.035606812      1.805      2.520
REMARK  5 active torsions:
REMARK  status: ('A' for Active; 'I' for Inactive)
REMARK       I    between atoms: C1_2  and  N1_3 
REMARK       I    between atoms: C1_2  and  N2_13 
REMARK    1  A    between atoms: N1_3  and  C2_5 
REMARK    2  A    between atoms: C2_5  and  C3_6 
REMARK    3  A    between atoms: C3_6  and  C4_7 
REMARK    4  A    between atoms: C4_7  and  C5_8 
REMARK    5  A    between atoms: C13_17  and  C14_18 
REMARK       I    between atoms: C14_18  and  N3_20 
ROOT
HETATM    1  O1  UNL     1      -7.976  17.068   6.936  1.00  0.00    -0.247 OA
HETATM    2  C1  UNL     1      -7.573  18.262   6.719  1.00  0.00     0.318 C 
HETATM    3  N1  UNL     1      -6.195  18.443   6.452  1.00  0.00    -0.343 N 
ATOM      4  H1  UNL     1      -5.859  19.388   6.270  1.00  0.00     0.164 HD
HETATM    5  N2  UNL     1      -8.484  19.343   6.749  1.00  0.00    -0.333 N 
HETATM    6  C10 UNL     1      -8.078  20.707   6.512  1.00  0.00     0.127 C 
HETATM    7  C11 UNL     1      -9.305  21.601   6.622  1.00  0.00     0.021 C 
HETATM    8  C12 UNL     1     -10.410  21.150   5.725  1.00  0.00     0.017 C 
HETATM    9  C13 UNL     1     -10.628  19.673   5.816  1.00  0.00     0.096 C 
HETATM   10  C19 UNL     1      -9.882  19.132   7.024  1.00  0.00     0.141 C 
ENDROOT
BRANCH   3  11
HETATM   11  C2  UNL     1      -5.240  17.361   6.425  1.00  0.00     0.124 C 
BRANCH  11  12
HETATM   12  C3  UNL     1      -4.208  17.463   7.477  1.00  0.00     0.020 C 
BRANCH  12  13
HETATM   13  C4  UNL     1      -3.255  18.588   7.450  1.00  0.00     0.006 C 
BRANCH  13  14
HETATM   14  C5  UNL     1      -1.921  18.411   6.830  1.00  0.00    -0.014 C 
HETATM   15  C6  UNL     1      -1.681  19.006   5.497  1.00  0.00     0.004 C 
HETATM   16  C7  UNL     1      -0.899  17.983   4.682  1.00  0.00     0.000 C 
HETATM   17  C8  UNL     1      -1.572  16.697   5.138  1.00  0.00     0.000 C 
HETATM   18  C9  UNL     1      -1.636  16.928   6.624  1.00  0.00     0.004 C 
ENDBRANCH  13  14
ENDBRANCH  12  13
ENDBRANCH  11  12
ENDBRANCH   3  11
BRANCH   9  19
HETATM   19  C14 UNL     1     -12.020  19.234   5.763  1.00  0.00     0.225 C 
HETATM   20  O2  UNL     1     -12.921  20.125   5.958  1.00  0.00    -0.273 OA
HETATM   21  N3  UNL     1     -12.478  17.936   5.518  1.00  0.00    -0.352 N 
HETATM   22  C15 UNL     1     -11.680  16.764   5.267  1.00  0.00     0.126 C 
HETATM   23  C18 UNL     1     -13.893  17.534   5.463  1.00  0.00     0.126 C 
HETATM   24  C16 UNL     1     -12.496  15.672   5.966  1.00  0.00     0.021 C 
HETATM   25  C17 UNL     1     -13.886  16.043   5.498  1.00  0.00     0.021 C 
ENDBRANCH   9  19
TORSDOF 5
ENDMDL
