MODEL 1
REMARK VINA RESULT: -7.852233518      0.000      0.000
REMARK  6 active torsions:
REMARK  status: ('A' for Active; 'I' for Inactive)
REMARK    1  A    between atoms: C2_3  and  O1_4 
REMARK    2  A    between atoms: O1_4  and  C3_5 
REMARK    3  A    between atoms: C3_5  and  C4_6 
REMARK    4  A    between atoms: C4_6  and  N2_7 
REMARK    5  A    between atoms: C6_12  and  N4_13 
REMARK    6  A    between atoms: C11_21  and  N6_22 
ROOT
HETATM    1  N2  UNL     1     -29.473   4.893 -32.036  1.00  0.00    -0.202 N 
ATOM      2  H2  UNL     1     -30.402   4.817 -32.449  1.00  0.00     0.183 HD
HETATM    3  C5  UNL     1     -28.697   4.940 -32.966  1.00  0.00     0.712 A 
HETATM    4  N3  UNL     1     -29.205   4.884 -34.239  1.00  0.00    -0.021 N 
ATOM      5  H3  UNL     1     -30.216   4.807 -34.346  1.00  0.00     0.203 HD
HETATM    6  C6  UNL     1     -28.467   4.922 -35.336  1.00  0.00     0.709 A 
HETATM    7  N5  UNL     1     -27.125   5.023 -35.210  1.00  0.00    -0.021 N 
ATOM      8  H5  UNL     1     -26.529   5.055 -36.037  1.00  0.00     0.203 HD
HETATM    9  C11 UNL     1     -26.592   5.080 -33.991  1.00  0.00     0.706 A 
HETATM   10  N7  UNL     1     -27.372   5.039 -32.864  1.00  0.00    -0.018 N 
HETATM   11  C12 UNL     1     -26.662   5.116 -31.605  1.00  0.00     0.195 C 
ENDROOT
BRANCH   1  12
HETATM   12  C4  UNL     1     -29.662   4.896 -30.682  1.00  0.00     0.105 C 
BRANCH  12  13
HETATM   13  C3  UNL     1     -29.453   6.217 -29.965  1.00  0.00     0.224 C 
BRANCH  13  14
HETATM   14  O1  UNL     1     -29.051   5.939 -28.653  1.00  0.00    -0.317 OA
BRANCH  14  15
HETATM   15  C2  UNL     1     -29.683   6.470 -27.535  1.00  0.00     0.229 A 
HETATM   16  N1  UNL     1     -30.293   5.730 -26.599  1.00  0.00    -0.283 N 
HETATM   17  C1  UNL     1     -30.301   4.297 -26.746  1.00  0.00     0.163 C 
HETATM   18  C15 UNL     1     -30.899   6.273 -25.523  1.00  0.00     0.278 A 
HETATM   19  C14 UNL     1     -30.897   7.623 -25.374  1.00  0.00     0.155 A 
HETATM   20  O3  UNL     1     -31.472   5.578 -24.644  1.00  0.00    -0.266 OA
HETATM   21  C13 UNL     1     -30.272   8.412 -26.330  1.00  0.00     0.149 A 
HETATM   22  N10 UNL     1     -31.537   8.214 -24.234  1.00  0.00    -0.093 NA
HETATM   23  N8  UNL     1     -29.686   7.805 -27.379  1.00  0.00    -0.308 N 
HETATM   24  N9  UNL     1     -30.256   9.825 -26.198  1.00  0.00    -0.080 NA
ATOM     25  H8  UNL     1     -29.227   8.382 -28.083  1.00  0.00     0.170 HD
ENDBRANCH  14  15
ENDBRANCH  13  14
ENDBRANCH  12  13
ENDBRANCH   1  12
BRANCH   6  26
HETATM   26  N4  UNL     1     -28.990   4.875 -36.654  1.00  0.00    -0.213 N 
HETATM   27  C7  UNL     1     -30.351   4.413 -36.831  1.00  0.00     0.167 C 
HETATM   28  C8  UNL     1     -30.750   4.740 -38.257  1.00  0.00     0.188 C 
HETATM   29  O2  UNL     1     -29.938   4.124 -39.181  1.00  0.00    -0.388 OA
HETATM   30  C9  UNL     1     -28.591   4.178 -38.895  1.00  0.00     0.188 C 
HETATM   31  C10 UNL     1     -28.261   5.248 -37.847  1.00  0.00     0.167 C 
ENDBRANCH   6  26
BRANCH   9  32
HETATM   32  N6  UNL     1     -25.318   5.177 -33.878  1.00  0.00    -0.233 N 
ATOM     33  H62 UNL     1     -24.830   4.622 -33.174  1.00  0.00     0.174 HD
ATOM     34  H61 UNL     1     -24.816   5.813 -34.498  1.00  0.00     0.174 HD
ENDBRANCH   9  32
TORSDOF 6
ENDMDL
MODEL 2
REMARK VINA RESULT: -7.671942184      2.690      3.738
REMARK  6 active torsions:
REMARK  status: ('A' for Active; 'I' for Inactive)
REMARK    1  A    between atoms: C2_3  and  O1_4 
REMARK    2  A    between atoms: O1_4  and  C3_5 
REMARK    3  A    between atoms: C3_5  and  C4_6 
REMARK    4  A    between atoms: C4_6  and  N2_7 
REMARK    5  A    between atoms: C6_12  and  N4_13 
REMARK    6  A    between atoms: C11_21  and  N6_22 
ROOT
HETATM    1  N2  UNL     1     -27.002   5.257 -32.100  1.00  0.00    -0.202 N 
ATOM      2  H2  UNL     1     -26.297   5.883 -31.711  1.00  0.00     0.183 HD
HETATM    3  C5  UNL     1     -26.806   5.234 -33.295  1.00  0.00     0.712 A 
HETATM    4  N3  UNL     1     -25.776   5.988 -33.799  1.00  0.00    -0.021 N 
ATOM      5  H3  UNL     1     -25.218   6.533 -33.142  1.00  0.00     0.203 HD
HETATM    6  C6  UNL     1     -25.460   6.051 -35.082  1.00  0.00     0.709 A 
HETATM    7  N5  UNL     1     -26.190   5.334 -35.965  1.00  0.00    -0.021 N 
ATOM      8  H5  UNL     1     -25.972   5.362 -36.960  1.00  0.00     0.203 HD
HETATM    9  C11 UNL     1     -27.200   4.590 -35.516  1.00  0.00     0.706 A 
HETATM   10  N7  UNL     1     -27.513   4.535 -34.183  1.00  0.00    -0.018 N 
HETATM   11  C12 UNL     1     -28.629   3.682 -33.833  1.00  0.00     0.195 C 
ENDROOT
BRANCH   1  12
HETATM   12  C4  UNL     1     -27.745   4.821 -31.037  1.00  0.00     0.105 C 
BRANCH  12  13
HETATM   13  C3  UNL     1     -28.452   5.882 -30.216  1.00  0.00     0.224 C 
BRANCH  13  14
HETATM   14  O1  UNL     1     -29.136   5.240 -29.175  1.00  0.00    -0.317 OA
BRANCH  14  15
HETATM   15  C2  UNL     1     -29.617   5.908 -28.056  1.00  0.00     0.229 A 
HETATM   16  N1  UNL     1     -30.169   5.295 -26.999  1.00  0.00    -0.283 N 
HETATM   17  C1  UNL     1     -30.276   3.859 -27.009  1.00  0.00     0.163 C 
HETATM   18  C15 UNL     1     -30.627   5.970 -25.925  1.00  0.00     0.278 A 
HETATM   19  C14 UNL     1     -30.530   7.325 -25.904  1.00  0.00     0.155 A 
HETATM   20  O3  UNL     1     -31.145   5.396 -24.933  1.00  0.00    -0.266 OA
HETATM   21  C13 UNL     1     -29.964   7.983 -26.987  1.00  0.00     0.149 A 
HETATM   22  N10 UNL     1     -31.013   8.055 -24.768  1.00  0.00    -0.093 NA
HETATM   23  N8  UNL     1     -29.526   7.249 -28.026  1.00  0.00    -0.308 N 
HETATM   24  N9  UNL     1     -29.851   9.398 -26.990  1.00  0.00    -0.080 NA
ATOM     25  H8  UNL     1     -29.109   7.729 -28.823  1.00  0.00     0.170 HD
ENDBRANCH  14  15
ENDBRANCH  13  14
ENDBRANCH  12  13
ENDBRANCH   1  12
BRANCH   6  26
HETATM   26  N4  UNL     1     -24.389   6.821 -35.604  1.00  0.00    -0.213 N 
HETATM   27  C7  UNL     1     -23.944   7.973 -34.848  1.00  0.00     0.167 C 
HETATM   28  C8  UNL     1     -22.631   8.424 -35.456  1.00  0.00     0.188 C 
HETATM   29  O2  UNL     1     -22.760   8.773 -36.780  1.00  0.00    -0.388 OA
HETATM   30  C9  UNL     1     -23.518   7.905 -37.536  1.00  0.00     0.188 C 
HETATM   31  C10 UNL     1     -23.704   6.547 -36.850  1.00  0.00     0.167 C 
ENDBRANCH   6  26
BRANCH   9  32
HETATM   32  N6  UNL     1     -27.888   3.910 -36.358  1.00  0.00    -0.233 N 
ATOM     33  H62 UNL     1     -28.513   3.176 -36.024  1.00  0.00     0.174 HD
ATOM     34  H61 UNL     1     -27.796   4.120 -37.352  1.00  0.00     0.174 HD
ENDBRANCH   9  32
TORSDOF 6
ENDMDL
MODEL 3
REMARK VINA RESULT: -7.631814689      2.316      3.770
REMARK  6 active torsions:
REMARK  status: ('A' for Active; 'I' for Inactive)
REMARK    1  A    between atoms: C2_3  and  O1_4 
REMARK    2  A    between atoms: O1_4  and  C3_5 
REMARK    3  A    between atoms: C3_5  and  C4_6 
REMARK    4  A    between atoms: C4_6  and  N2_7 
REMARK    5  A    between atoms: C6_12  and  N4_13 
REMARK    6  A    between atoms: C11_21  and  N6_22 
ROOT
HETATM    1  N2  UNL     1     -30.365   5.307 -30.770  1.00  0.00    -0.202 N 
ATOM      2  H2  UNL     1     -29.444   5.030 -30.432  1.00  0.00     0.183 HD
HETATM    3  C5  UNL     1     -30.250   5.456 -31.967  1.00  0.00     0.712 A 
HETATM    4  N3  UNL     1     -29.020   5.239 -32.533  1.00  0.00    -0.021 N 
ATOM      5  H3  UNL     1     -28.255   4.958 -31.920  1.00  0.00     0.203 HD
HETATM    6  C6  UNL     1     -28.762   5.371 -33.825  1.00  0.00     0.709 A 
HETATM    7  N5  UNL     1     -29.765   5.744 -34.650  1.00  0.00    -0.021 N 
ATOM      8  H5  UNL     1     -29.599   5.854 -35.650  1.00  0.00     0.203 HD
HETATM    9  C11 UNL     1     -30.976   5.965 -34.139  1.00  0.00     0.706 A 
HETATM   10  N7  UNL     1     -31.225   5.823 -32.799  1.00  0.00    -0.018 N 
HETATM   11  C12 UNL     1     -32.586   6.089 -32.380  1.00  0.00     0.195 C 
ENDROOT
BRANCH   1  12
HETATM   12  C4  UNL     1     -31.176   5.342 -29.669  1.00  0.00     0.105 C 
BRANCH  12  13
HETATM   13  C3  UNL     1     -30.702   4.580 -28.446  1.00  0.00     0.224 C 
BRANCH  13  14
HETATM   14  O1  UNL     1     -29.984   5.467 -27.633  1.00  0.00    -0.317 OA
BRANCH  14  15
HETATM   15  C2  UNL     1     -30.472   5.957 -26.428  1.00  0.00     0.229 A 
HETATM   16  N1  UNL     1     -30.780   7.244 -26.214  1.00  0.00    -0.283 N 
HETATM   17  C1  UNL     1     -30.602   8.187 -27.287  1.00  0.00     0.163 C 
HETATM   18  C15 UNL     1     -31.252   7.691 -25.032  1.00  0.00     0.278 A 
HETATM   19  C14 UNL     1     -31.424   6.811 -24.012  1.00  0.00     0.155 A 
HETATM   20  O3  UNL     1     -31.541   8.899 -24.830  1.00  0.00    -0.266 OA
HETATM   21  C13 UNL     1     -31.111   5.473 -24.209  1.00  0.00     0.149 A 
HETATM   22  N10 UNL     1     -31.926   7.273 -22.750  1.00  0.00    -0.093 NA
HETATM   23  N8  UNL     1     -30.645   5.093 -25.413  1.00  0.00    -0.308 N 
HETATM   24  N9  UNL     1     -31.283   4.532 -23.159  1.00  0.00    -0.080 NA
ATOM     25  H8  UNL     1     -30.414   4.111 -25.561  1.00  0.00     0.170 HD
ENDBRANCH  14  15
ENDBRANCH  13  14
ENDBRANCH  12  13
ENDBRANCH   1  12
BRANCH   6  26
HETATM   26  N4  UNL     1     -27.494   5.136 -34.414  1.00  0.00    -0.213 N 
HETATM   27  C7  UNL     1     -26.348   5.006 -33.539  1.00  0.00     0.167 C 
HETATM   28  C8  UNL     1     -25.204   4.473 -34.380  1.00  0.00     0.188 C 
HETATM   29  O2  UNL     1     -24.885   5.313 -35.421  1.00  0.00    -0.388 OA
HETATM   30  C9  UNL     1     -25.968   5.817 -36.110  1.00  0.00     0.188 C 
HETATM   31  C10 UNL     1     -27.251   5.024 -35.837  1.00  0.00     0.167 C 
ENDBRANCH   6  26
BRANCH   9  32
HETATM   32  N6  UNL     1     -31.924   6.317 -34.927  1.00  0.00    -0.233 N 
ATOM     33  H62 UNL     1     -32.863   5.944 -34.785  1.00  0.00     0.174 HD
ATOM     34  H61 UNL     1     -31.718   6.967 -35.686  1.00  0.00     0.174 HD
ENDBRANCH   9  32
TORSDOF 6
ENDMDL
MODEL 4
REMARK VINA RESULT: -7.607745137      1.591      2.427
REMARK  6 active torsions:
REMARK  status: ('A' for Active; 'I' for Inactive)
REMARK    1  A    between atoms: C2_3  and  O1_4 
REMARK    2  A    between atoms: O1_4  and  C3_5 
REMARK    3  A    between atoms: C3_5  and  C4_6 
REMARK    4  A    between atoms: C4_6  and  N2_7 
REMARK    5  A    between atoms: C6_12  and  N4_13 
REMARK    6  A    between atoms: C11_21  and  N6_22 
ROOT
HETATM    1  N2  UNL     1     -30.467   5.580 -31.091  1.00  0.00    -0.202 N 
ATOM      2  H2  UNL     1     -31.334   5.485 -31.619  1.00  0.00     0.183 HD
HETATM    3  C5  UNL     1     -29.572   5.354 -31.876  1.00  0.00     0.712 A 
HETATM    4  N3  UNL     1     -29.906   5.050 -33.171  1.00  0.00    -0.021 N 
ATOM      5  H3  UNL     1     -30.895   5.030 -33.417  1.00  0.00     0.203 HD
HETATM    6  C6  UNL     1     -29.026   4.781 -34.122  1.00  0.00     0.709 A 
HETATM    7  N5  UNL     1     -27.711   4.803 -33.812  1.00  0.00    -0.021 N 
ATOM      8  H5  UNL     1     -27.008   4.600 -34.522  1.00  0.00     0.203 HD
HETATM    9  C11 UNL     1     -27.345   5.094 -32.564  1.00  0.00     0.706 A 
HETATM   10  N7  UNL     1     -28.270   5.371 -31.592  1.00  0.00    -0.018 N 
HETATM   11  C12 UNL     1     -27.734   5.677 -30.282  1.00  0.00     0.195 C 
ENDROOT
BRANCH   1  12
HETATM   12  C4  UNL     1     -30.837   5.906 -29.815  1.00  0.00     0.105 C 
BRANCH  12  13
HETATM   13  C3  UNL     1     -30.696   4.822 -28.764  1.00  0.00     0.224 C 
BRANCH  13  14
HETATM   14  O1  UNL     1     -29.860   5.306 -27.750  1.00  0.00    -0.317 OA
BRANCH  14  15
HETATM   15  C2  UNL     1     -30.337   5.818 -26.551  1.00  0.00     0.229 A 
HETATM   16  N1  UNL     1     -30.528   7.124 -26.318  1.00  0.00    -0.283 N 
HETATM   17  C1  UNL     1     -30.225   8.066 -27.365  1.00  0.00     0.163 C 
HETATM   18  C15 UNL     1     -30.994   7.594 -25.142  1.00  0.00     0.278 A 
HETATM   19  C14 UNL     1     -31.283   6.715 -24.148  1.00  0.00     0.155 A 
HETATM   20  O3  UNL     1     -31.172   8.819 -24.924  1.00  0.00    -0.266 OA
HETATM   21  C13 UNL     1     -31.094   5.357 -24.364  1.00  0.00     0.149 A 
HETATM   22  N10 UNL     1     -31.780   7.200 -22.892  1.00  0.00    -0.093 NA
HETATM   23  N8  UNL     1     -30.626   4.957 -25.560  1.00  0.00    -0.308 N 
HETATM   24  N9  UNL     1     -31.389   4.418 -23.340  1.00  0.00    -0.080 NA
ATOM     25  H8  UNL     1     -30.486   3.959 -25.722  1.00  0.00     0.170 HD
ENDBRANCH  14  15
ENDBRANCH  13  14
ENDBRANCH  12  13
ENDBRANCH   1  12
BRANCH   6  26
HETATM   26  N4  UNL     1     -29.368   4.476 -35.464  1.00  0.00    -0.213 N 
HETATM   27  C7  UNL     1     -28.456   4.888 -36.512  1.00  0.00     0.167 C 
HETATM   28  C8  UNL     1     -28.898   4.193 -37.785  1.00  0.00     0.188 C 
HETATM   29  O2  UNL     1     -30.182   4.527 -38.145  1.00  0.00    -0.388 OA
HETATM   30  C9  UNL     1     -31.090   4.539 -37.107  1.00  0.00     0.188 C 
HETATM   31  C10 UNL     1     -30.573   3.787 -35.875  1.00  0.00     0.167 C 
ENDBRANCH   6  26
BRANCH   9  32
HETATM   32  N6  UNL     1     -26.095   5.115 -32.276  1.00  0.00    -0.233 N 
ATOM     33  H62 UNL     1     -25.414   4.780 -32.957  1.00  0.00     0.174 HD
ATOM     34  H61 UNL     1     -25.807   5.469 -31.364  1.00  0.00     0.174 HD
ENDBRANCH   9  32
TORSDOF 6
ENDMDL
MODEL 5
REMARK VINA RESULT: -7.553943734      2.301      3.825
REMARK  6 active torsions:
REMARK  status: ('A' for Active; 'I' for Inactive)
REMARK    1  A    between atoms: C2_3  and  O1_4 
REMARK    2  A    between atoms: O1_4  and  C3_5 
REMARK    3  A    between atoms: C3_5  and  C4_6 
REMARK    4  A    between atoms: C4_6  and  N2_7 
REMARK    5  A    between atoms: C6_12  and  N4_13 
REMARK    6  A    between atoms: C11_21  and  N6_22 
ROOT
HETATM    1  N2  UNL     1     -29.279   5.036 -29.910  1.00  0.00    -0.202 N 
ATOM      2  H2  UNL     1     -28.296   4.776 -29.827  1.00  0.00     0.183 HD
HETATM    3  C5  UNL     1     -29.481   5.206 -31.093  1.00  0.00     0.712 A 
HETATM    4  N3  UNL     1     -28.435   5.027 -31.962  1.00  0.00    -0.021 N 
ATOM      5  H3  UNL     1     -27.533   4.755 -31.573  1.00  0.00     0.203 HD
HETATM    6  C6  UNL     1     -28.523   5.184 -33.273  1.00  0.00     0.709 A 
HETATM    7  N5  UNL     1     -29.713   5.544 -33.803  1.00  0.00    -0.021 N 
ATOM      8  H5  UNL     1     -29.813   5.673 -34.810  1.00  0.00     0.203 HD
HETATM    9  C11 UNL     1     -30.754   5.728 -32.992  1.00  0.00     0.706 A 
HETATM   10  N7  UNL     1     -30.645   5.561 -31.636  1.00  0.00    -0.018 N 
HETATM   11  C12 UNL     1     -31.855   5.787 -30.875  1.00  0.00     0.195 C 
ENDROOT
BRANCH   1  12
HETATM   12  C4  UNL     1     -29.777   5.035 -28.636  1.00  0.00     0.105 C 
BRANCH  12  13
HETATM   13  C3  UNL     1     -29.665   6.332 -27.858  1.00  0.00     0.224 C 
BRANCH  13  14
HETATM   14  O1  UNL     1     -30.948   6.693 -27.429  1.00  0.00    -0.317 OA
BRANCH  14  15
HETATM   15  C2  UNL     1     -31.279   6.881 -26.093  1.00  0.00     0.229 A 
HETATM   16  N1  UNL     1     -31.829   8.003 -25.609  1.00  0.00    -0.283 N 
HETATM   17  C1  UNL     1     -32.101   9.089 -26.516  1.00  0.00     0.163 C 
HETATM   18  C15 UNL     1     -32.141   8.157 -24.305  1.00  0.00     0.278 A 
HETATM   19  C14 UNL     1     -31.890   7.140 -23.441  1.00  0.00     0.155 A 
HETATM   20  O3  UNL     1     -32.656   9.211 -23.851  1.00  0.00    -0.266 OA
HETATM   21  C13 UNL     1     -31.319   5.968 -23.917  1.00  0.00     0.149 A 
HETATM   22  N10 UNL     1     -32.216   7.290 -22.052  1.00  0.00    -0.093 NA
HETATM   23  N8  UNL     1     -31.034   5.880 -25.229  1.00  0.00    -0.308 N 
HETATM   24  N9  UNL     1     -31.047   4.890 -23.034  1.00  0.00    -0.080 NA
ATOM     25  H8  UNL     1     -30.615   5.020 -25.583  1.00  0.00     0.170 HD
ENDBRANCH  14  15
ENDBRANCH  13  14
ENDBRANCH  12  13
ENDBRANCH   1  12
BRANCH   6  26
HETATM   26  N4  UNL     1     -27.447   4.989 -34.175  1.00  0.00    -0.213 N 
HETATM   27  C7  UNL     1     -26.098   5.033 -33.649  1.00  0.00     0.167 C 
HETATM   28  C8  UNL     1     -25.179   4.507 -34.734  1.00  0.00     0.188 C 
HETATM   29  O2  UNL     1     -25.242   5.261 -35.883  1.00  0.00    -0.388 OA
HETATM   30  C9  UNL     1     -26.516   5.612 -36.276  1.00  0.00     0.188 C 
HETATM   31  C10 UNL     1     -27.591   4.755 -35.597  1.00  0.00     0.167 C 
ENDBRANCH   6  26
BRANCH   9  32
HETATM   32  N6  UNL     1     -31.881   6.069 -33.501  1.00  0.00    -0.233 N 
ATOM     33  H62 UNL     1     -31.963   6.956 -33.999  1.00  0.00     0.174 HD
ATOM     34  H61 UNL     1     -32.678   5.441 -33.396  1.00  0.00     0.174 HD
ENDBRANCH   9  32
TORSDOF 6
ENDMDL
