MODEL 1
REMARK VINA RESULT: -11.854619948      0.000      0.000
REMARK  10 active torsions:
REMARK  status: ('A' for Active; 'I' for Inactive)
REMARK    1  A    between atoms: C2_2  and  N1_3 
REMARK    2  A    between atoms: C2_2  and  C17_40 
REMARK    3  A    between atoms: N1_3  and  C3_5 
REMARK    4  A    between atoms: C6_8  and  O1_9 
REMARK    5  A    between atoms: O1_9  and  S1_10 
REMARK    6  A    between atoms: C7_14  and  C8_15 
REMARK    7  A    between atoms: C9_17  and  N2_18 
REMARK    8  A    between atoms: C11_20  and  C12_21 
REMARK    9  A    between atoms: C12_21  and  N3_22 
REMARK   10  A    between atoms: C15_34  and  C16_35 
REMARK       I    between atoms: C17_40  and  N11_42 
ROOT
HETATM    1  C3  UNL     1      21.663  -8.771 -21.459  1.00  0.00     0.102 A 
HETATM    2  C4  UNL     1      20.545  -9.399 -21.943  1.00  0.00     0.051 A 
HETATM    3  C5  UNL     1      19.875 -10.328 -21.171  1.00  0.00     0.044 A 
HETATM    4  C6  UNL     1      20.367 -10.605 -19.896  1.00  0.00     0.117 A 
HETATM    5  C7  UNL     1      21.480  -9.982 -19.410  1.00  0.00     0.076 A 
HETATM    6  N10 UNL     1      22.096  -9.088 -20.195  1.00  0.00    -0.342 N 
ATOM      7  H10 UNL     1      22.929  -8.620 -19.836  1.00  0.00     0.167 HD
ENDROOT
BRANCH   5   8
HETATM    8  C8  UNL     1      22.001 -10.244 -18.081  1.00  0.00     0.189 C 
HETATM    9  O5  UNL     1      23.375 -10.071 -17.924  1.00  0.00    -0.353 OA
HETATM   10  C9  UNL     1      23.459 -10.212 -16.520  1.00  0.00     0.246 C 
HETATM   11  C14 UNL     1      22.551  -9.112 -16.074  1.00  0.00     0.072 C 
HETATM   12  C15 UNL     1      21.414  -9.219 -17.091  1.00  0.00     0.114 C 
BRANCH  10  13
HETATM   13  N2  UNL     1      24.792 -10.149 -16.020  1.00  0.00    -0.258 N 
HETATM   14  C10 UNL     1      25.230 -10.708 -14.870  1.00  0.00     0.143 A 
HETATM   15  C11 UNL     1      26.565 -10.441 -14.717  1.00  0.00     0.064 A 
HETATM   16  N7  UNL     1      26.908  -9.708 -15.809  1.00  0.00    -0.287 N 
HETATM   17  N8  UNL     1      25.824  -9.559 -16.557  1.00  0.00    -0.238 N 
ATOM     18  H7  UNL     1      27.836  -9.338 -16.017  1.00  0.00     0.188 HD
ATOM     19  H8  UNL     1      25.800  -9.048 -17.440  1.00  0.00     0.208 HD
BRANCH  15  20
HETATM   20  C12 UNL     1      27.484 -10.843 -13.614  1.00  0.00     0.209 C 
BRANCH  20  21
HETATM   21  N3  UNL     1      26.756 -10.850 -12.343  1.00  0.00    -0.246 N 
HETATM   22  N4  UNL     1      26.106  -9.842 -11.785  1.00  0.00    -0.004 NA
HETATM   23  N5  UNL     1      25.582 -10.249 -10.643  1.00  0.00    -0.006 NA
HETATM   24  N6  UNL     1      25.895 -11.526 -10.458  1.00  0.00    -0.261 N 
HETATM   25  C13 UNL     1      26.623 -11.901 -11.512  1.00  0.00     0.204 A 
ATOM     26  H6  UNL     1      25.629 -12.109  -9.663  1.00  0.00     0.186 HD
HETATM   27  S2  UNL     1      27.235 -13.420 -11.712  1.00  0.00    -0.038 SA
ENDBRANCH  20  21
ENDBRANCH  15  20
ENDBRANCH  10  13
BRANCH  12  28
HETATM   28  C16 UNL     1      20.207  -9.847 -16.509  1.00  0.00     0.238 C 
HETATM   29  N9  UNL     1      18.957  -9.196 -16.601  1.00  0.00    -0.062 NA
HETATM   30  O6  UNL     1      20.365 -10.976 -15.939  1.00  0.00    -0.276 OA
ENDBRANCH  12  28
ENDBRANCH   5   8
BRANCH   4  31
HETATM   31  O1  UNL     1      19.695 -11.527 -19.135  1.00  0.00    -0.212 OA
BRANCH  31  32
HETATM   32  S1  UNL     1      20.167 -13.157 -19.177  1.00  0.00     0.257 S 
HETATM   33  O2  UNL     1      21.092 -13.456 -17.991  1.00  0.00    -0.572 OA
HETATM   34  O3  UNL     1      21.001 -13.473 -20.388  1.00  0.00    -0.572 OA
HETATM   35  O4  UNL     1      18.873 -14.212 -19.003  1.00  0.00    -0.572 OA
ENDBRANCH  31  32
ENDBRANCH   4  31
BRANCH   1  36
HETATM   36  N1  UNL     1      22.423  -7.813 -22.153  1.00  0.00    -0.363 N 
ATOM     37  H1  UNL     1      22.424  -6.864 -21.780  1.00  0.00     0.162 HD
BRANCH  36  38
HETATM   38  C2  UNL     1      23.194  -8.049 -23.332  1.00  0.00     0.173 C 
HETATM   39  C1  UNL     1      22.870  -9.389 -23.934  1.00  0.00     0.042 C 
BRANCH  38  40
HETATM   40  C17 UNL     1      23.034  -6.974 -24.317  1.00  0.00     0.269 C 
HETATM   41  O7  UNL     1      22.077  -6.147 -24.116  1.00  0.00    -0.269 OA
HETATM   42  N11 UNL     1      23.844  -6.765 -25.471  1.00  0.00    -0.167 N 
HETATM   43  N12 UNL     1      24.859  -7.550 -25.735  1.00  0.00    -0.248 N 
HETATM   44  C20 UNL     1      23.534  -5.741 -26.322  1.00  0.00     0.351 A 
HETATM   45  C18 UNL     1      25.584  -7.322 -26.861  1.00  0.00     0.328 A 
ATOM     46  H12 UNL     1      25.100  -8.317 -25.107  1.00  0.00     0.191 HD
HETATM   47  O8  UNL     1      26.555  -8.090 -27.094  1.00  0.00    -0.261 OA
HETATM   48  C19 UNL     1      25.258  -6.293 -27.698  1.00  0.00     0.319 A 
HETATM   49  O9  UNL     1      25.959  -6.113 -28.737  1.00  0.00    -0.262 OA
HETATM   50  N13 UNL     1      24.220  -5.483 -27.436  1.00  0.00    -0.269 N 
ATOM     51  H13 UNL     1      23.969  -4.712 -28.055  1.00  0.00     0.174 HD
HETATM   52  O10 UNL     1      22.556  -4.997 -26.052  1.00  0.00    -0.244 OA
ENDBRANCH  38  40
ENDBRANCH  36  38
ENDBRANCH   1  36
TORSDOF 10
ENDMDL
MODEL 2
REMARK VINA RESULT: -11.467923050      1.578      2.632
REMARK  10 active torsions:
REMARK  status: ('A' for Active; 'I' for Inactive)
REMARK    1  A    between atoms: C2_2  and  N1_3 
REMARK    2  A    between atoms: C2_2  and  C17_40 
REMARK    3  A    between atoms: N1_3  and  C3_5 
REMARK    4  A    between atoms: C6_8  and  O1_9 
REMARK    5  A    between atoms: O1_9  and  S1_10 
REMARK    6  A    between atoms: C7_14  and  C8_15 
REMARK    7  A    between atoms: C9_17  and  N2_18 
REMARK    8  A    between atoms: C11_20  and  C12_21 
REMARK    9  A    between atoms: C12_21  and  N3_22 
REMARK   10  A    between atoms: C15_34  and  C16_35 
REMARK       I    between atoms: C17_40  and  N11_42 
ROOT
HETATM    1  C3  UNL     1      21.629  -8.778 -21.456  1.00  0.00     0.102 A 
HETATM    2  C4  UNL     1      20.509  -9.409 -21.930  1.00  0.00     0.051 A 
HETATM    3  C5  UNL     1      19.847 -10.339 -21.151  1.00  0.00     0.044 A 
HETATM    4  C6  UNL     1      20.349 -10.612 -19.880  1.00  0.00     0.117 A 
HETATM    5  C7  UNL     1      21.464  -9.986 -19.404  1.00  0.00     0.076 A 
HETATM    6  N10 UNL     1      22.073  -9.092 -20.195  1.00  0.00    -0.342 N 
ATOM      7  H10 UNL     1      22.907  -8.622 -19.844  1.00  0.00     0.167 HD
ENDROOT
BRANCH   5   8
HETATM    8  C8  UNL     1      21.996 -10.244 -18.078  1.00  0.00     0.189 C 
HETATM    9  O5  UNL     1      23.373 -10.082 -17.936  1.00  0.00    -0.353 OA
HETATM   10  C9  UNL     1      23.470 -10.215 -16.531  1.00  0.00     0.246 C 
HETATM   11  C14 UNL     1      22.577  -9.103 -16.084  1.00  0.00     0.072 C 
HETATM   12  C15 UNL     1      21.428  -9.207 -17.089  1.00  0.00     0.114 C 
BRANCH  10  13
HETATM   13  N2  UNL     1      24.808 -10.161 -16.046  1.00  0.00    -0.258 N 
HETATM   14  C10 UNL     1      25.232 -10.627 -14.850  1.00  0.00     0.143 A 
HETATM   15  C11 UNL     1      26.579 -10.403 -14.728  1.00  0.00     0.064 A 
HETATM   16  N7  UNL     1      26.942  -9.792 -15.886  1.00  0.00    -0.287 N 
HETATM   17  N8  UNL     1      25.860  -9.668 -16.640  1.00  0.00    -0.238 N 
ATOM     18  H7  UNL     1      27.883  -9.482 -16.131  1.00  0.00     0.188 HD
ATOM     19  H8  UNL     1      25.850  -9.242 -17.567  1.00  0.00     0.208 HD
BRANCH  15  20
HETATM   20  C12 UNL     1      27.488 -10.738 -13.595  1.00  0.00     0.209 C 
BRANCH  20  21
HETATM   21  N3  UNL     1      26.726 -10.779 -12.345  1.00  0.00    -0.246 N 
HETATM   22  N4  UNL     1      26.034  -9.795 -11.795  1.00  0.00    -0.004 NA
HETATM   23  N5  UNL     1      25.490 -10.228 -10.672  1.00  0.00    -0.006 NA
HETATM   24  N6  UNL     1      25.832 -11.499 -10.492  1.00  0.00    -0.261 N 
HETATM   25  C13 UNL     1      26.599 -11.842 -11.529  1.00  0.00     0.204 A 
ATOM     26  H6  UNL     1      25.561 -12.097  -9.711  1.00  0.00     0.186 HD
HETATM   27  S2  UNL     1      27.257 -13.342 -11.729  1.00  0.00    -0.038 SA
ENDBRANCH  20  21
ENDBRANCH  15  20
ENDBRANCH  10  13
BRANCH  12  28
HETATM   28  C16 UNL     1      20.222  -9.820 -16.491  1.00  0.00     0.238 C 
HETATM   29  N9  UNL     1      18.972  -9.169 -16.595  1.00  0.00    -0.062 NA
HETATM   30  O6  UNL     1      20.379 -10.935 -15.896  1.00  0.00    -0.276 OA
ENDBRANCH  12  28
ENDBRANCH   5   8
BRANCH   4  31
HETATM   31  O1  UNL     1      19.685 -11.534 -19.112  1.00  0.00    -0.212 OA
BRANCH  31  32
HETATM   32  S1  UNL     1      20.163 -13.162 -19.150  1.00  0.00     0.257 S 
HETATM   33  O2  UNL     1      21.103 -13.450 -17.974  1.00  0.00    -0.572 OA
HETATM   34  O3  UNL     1      20.984 -13.481 -20.369  1.00  0.00    -0.572 OA
HETATM   35  O4  UNL     1      18.875 -14.221 -18.955  1.00  0.00    -0.572 OA
ENDBRANCH  31  32
ENDBRANCH   4  31
BRANCH   1  36
HETATM   36  N1  UNL     1      22.382  -7.820 -22.158  1.00  0.00    -0.363 N 
ATOM     37  H1  UNL     1      22.526  -6.920 -21.702  1.00  0.00     0.162 HD
BRANCH  36  38
HETATM   38  C2  UNL     1      22.962  -7.994 -23.452  1.00  0.00     0.173 C 
HETATM   39  C1  UNL     1      22.348  -9.164 -24.170  1.00  0.00     0.042 C 
BRANCH  38  40
HETATM   40  C17 UNL     1      22.876  -6.773 -24.260  1.00  0.00     0.269 C 
HETATM   41  O7  UNL     1      23.933  -6.425 -24.893  1.00  0.00    -0.269 OA
HETATM   42  N11 UNL     1      21.727  -5.943 -24.406  1.00  0.00    -0.167 N 
HETATM   43  N12 UNL     1      20.597  -6.242 -23.814  1.00  0.00    -0.248 N 
HETATM   44  C20 UNL     1      21.821  -4.806 -25.161  1.00  0.00     0.351 A 
HETATM   45  C18 UNL     1      19.539  -5.404 -23.967  1.00  0.00     0.328 A 
ATOM     46  H12 UNL     1      20.514  -7.087 -23.249  1.00  0.00     0.191 HD
HETATM   47  O8  UNL     1      18.463  -5.712 -23.388  1.00  0.00    -0.261 OA
HETATM   48  C19 UNL     1      19.654  -4.274 -24.726  1.00  0.00     0.319 A 
HETATM   49  O9  UNL     1      18.644  -3.518 -24.844  1.00  0.00    -0.262 OA
HETATM   50  N13 UNL     1      20.807  -3.959 -25.337  1.00  0.00    -0.269 N 
ATOM     51  H13 UNL     1      20.903  -3.117 -25.905  1.00  0.00     0.174 HD
HETATM   52  O10 UNL     1      22.914  -4.536 -25.724  1.00  0.00    -0.244 OA
ENDBRANCH  38  40
ENDBRANCH  36  38
ENDBRANCH   1  36
TORSDOF 10
ENDMDL
MODEL 3
REMARK VINA RESULT: -11.428209885      2.172      3.474
REMARK  10 active torsions:
REMARK  status: ('A' for Active; 'I' for Inactive)
REMARK    1  A    between atoms: C2_2  and  N1_3 
REMARK    2  A    between atoms: C2_2  and  C17_40 
REMARK    3  A    between atoms: N1_3  and  C3_5 
REMARK    4  A    between atoms: C6_8  and  O1_9 
REMARK    5  A    between atoms: O1_9  and  S1_10 
REMARK    6  A    between atoms: C7_14  and  C8_15 
REMARK    7  A    between atoms: C9_17  and  N2_18 
REMARK    8  A    between atoms: C11_20  and  C12_21 
REMARK    9  A    between atoms: C12_21  and  N3_22 
REMARK   10  A    between atoms: C15_34  and  C16_35 
REMARK       I    between atoms: C17_40  and  N11_42 
ROOT
HETATM    1  C3  UNL     1      21.686  -8.890 -21.356  1.00  0.00     0.102 A 
HETATM    2  C4  UNL     1      20.563  -9.528 -21.814  1.00  0.00     0.051 A 
HETATM    3  C5  UNL     1      19.895 -10.432 -21.010  1.00  0.00     0.044 A 
HETATM    4  C6  UNL     1      20.393 -10.672 -19.731  1.00  0.00     0.117 A 
HETATM    5  C7  UNL     1      21.511 -10.038 -19.270  1.00  0.00     0.076 A 
HETATM    6  N10 UNL     1      22.126  -9.171 -20.086  1.00  0.00    -0.342 N 
ATOM      7  H10 UNL     1      22.962  -8.695 -19.746  1.00  0.00     0.167 HD
ENDROOT
BRANCH   5   8
HETATM    8  C8  UNL     1      22.040 -10.262 -17.937  1.00  0.00     0.189 C 
HETATM    9  O5  UNL     1      23.414 -10.082 -17.792  1.00  0.00    -0.353 OA
HETATM   10  C9  UNL     1      23.505 -10.183 -16.385  1.00  0.00     0.246 C 
HETATM   11  C14 UNL     1      22.598  -9.072 -15.966  1.00  0.00     0.072 C 
HETATM   12  C15 UNL     1      21.456  -9.210 -16.974  1.00  0.00     0.114 C 
BRANCH  10  13
HETATM   13  N2  UNL     1      24.841 -10.104 -15.895  1.00  0.00    -0.258 N 
HETATM   14  C10 UNL     1      25.289 -10.643 -14.739  1.00  0.00     0.143 A 
HETATM   15  C11 UNL     1      26.624 -10.366 -14.598  1.00  0.00     0.064 A 
HETATM   16  N7  UNL     1      26.955  -9.648 -15.703  1.00  0.00    -0.287 N 
HETATM   17  N8  UNL     1      25.866  -9.516 -16.446  1.00  0.00    -0.238 N 
ATOM     18  H7  UNL     1      27.880  -9.275 -15.921  1.00  0.00     0.188 HD
ATOM     19  H8  UNL     1      25.834  -9.019 -17.336  1.00  0.00     0.208 HD
BRANCH  15  20
HETATM   20  C12 UNL     1      27.551 -10.746 -13.494  1.00  0.00     0.209 C 
BRANCH  20  21
HETATM   21  N3  UNL     1      26.799 -10.897 -12.246  1.00  0.00    -0.246 N 
HETATM   22  N4  UNL     1      26.085  -9.974 -11.623  1.00  0.00    -0.004 NA
HETATM   23  N5  UNL     1      25.560 -10.502 -10.532  1.00  0.00    -0.006 NA
HETATM   24  N6  UNL     1      25.936 -11.772 -10.446  1.00  0.00    -0.261 N 
HETATM   25  C13 UNL     1      26.705 -12.020 -11.509  1.00  0.00     0.204 A 
ATOM     26  H6  UNL     1      25.685 -12.432  -9.709  1.00  0.00     0.186 HD
HETATM   27  S2  UNL     1      27.400 -13.483 -11.819  1.00  0.00    -0.038 SA
ENDBRANCH  20  21
ENDBRANCH  15  20
ENDBRANCH  10  13
BRANCH  12  28
HETATM   28  C16 UNL     1      20.253  -9.822 -16.368  1.00  0.00     0.238 C 
HETATM   29  N9  UNL     1      19.000  -9.180 -16.481  1.00  0.00    -0.062 NA
HETATM   30  O6  UNL     1      20.417 -10.928 -15.758  1.00  0.00    -0.276 OA
ENDBRANCH  12  28
ENDBRANCH   5   8
BRANCH   4  31
HETATM   31  O1  UNL     1      19.723 -11.568 -18.938  1.00  0.00    -0.212 OA
BRANCH  31  32
HETATM   32  S1  UNL     1      20.152 -13.210 -18.976  1.00  0.00     0.257 S 
HETATM   33  O2  UNL     1      21.196 -13.494 -17.890  1.00  0.00    -0.572 OA
HETATM   34  O3  UNL     1      20.839 -13.585 -20.260  1.00  0.00    -0.572 OA
HETATM   35  O4  UNL     1      18.862 -14.226 -18.625  1.00  0.00    -0.572 OA
ENDBRANCH  31  32
ENDBRANCH   4  31
BRANCH   1  36
HETATM   36  N1  UNL     1      22.445  -7.956 -22.083  1.00  0.00    -0.363 N 
ATOM     37  H1  UNL     1      23.337  -7.671 -21.681  1.00  0.00     0.162 HD
BRANCH  36  38
HETATM   38  C2  UNL     1      22.079  -7.371 -23.334  1.00  0.00     0.173 C 
HETATM   39  C1  UNL     1      23.253  -6.682 -23.975  1.00  0.00     0.042 C 
BRANCH  38  40
HETATM   40  C17 UNL     1      21.480  -8.353 -24.245  1.00  0.00     0.269 C 
HETATM   41  O7  UNL     1      22.282  -9.163 -24.827  1.00  0.00    -0.269 OA
HETATM   42  N11 UNL     1      20.092  -8.487 -24.538  1.00  0.00    -0.167 N 
HETATM   43  N12 UNL     1      19.202  -7.715 -23.964  1.00  0.00    -0.248 N 
HETATM   44  C20 UNL     1      19.694  -9.425 -25.450  1.00  0.00     0.351 A 
HETATM   45  C18 UNL     1      17.894  -7.869 -24.297  1.00  0.00     0.328 A 
ATOM     46  H12 UNL     1      19.486  -7.012 -23.282  1.00  0.00     0.191 HD
HETATM   47  O8  UNL     1      17.057  -7.115 -23.733  1.00  0.00    -0.261 OA
HETATM   48  C19 UNL     1      17.518  -8.812 -25.211  1.00  0.00     0.319 A 
HETATM   49  O9  UNL     1      16.288  -8.925 -25.494  1.00  0.00    -0.262 OA
HETATM   50  N13 UNL     1      18.422  -9.608 -25.804  1.00  0.00    -0.269 N 
ATOM     51  H13 UNL     1      18.151 -10.315 -26.487  1.00  0.00     0.174 HD
HETATM   52  O10 UNL     1      20.563 -10.158 -25.990  1.00  0.00    -0.244 OA
ENDBRANCH  38  40
ENDBRANCH  36  38
ENDBRANCH   1  36
TORSDOF 10
ENDMDL
MODEL 4
REMARK VINA RESULT: -11.384884602      3.365     10.989
REMARK  10 active torsions:
REMARK  status: ('A' for Active; 'I' for Inactive)
REMARK    1  A    between atoms: C2_2  and  N1_3 
REMARK    2  A    between atoms: C2_2  and  C17_40 
REMARK    3  A    between atoms: N1_3  and  C3_5 
REMARK    4  A    between atoms: C6_8  and  O1_9 
REMARK    5  A    between atoms: O1_9  and  S1_10 
REMARK    6  A    between atoms: C7_14  and  C8_15 
REMARK    7  A    between atoms: C9_17  and  N2_18 
REMARK    8  A    between atoms: C11_20  and  C12_21 
REMARK    9  A    between atoms: C12_21  and  N3_22 
REMARK   10  A    between atoms: C15_34  and  C16_35 
REMARK       I    between atoms: C17_40  and  N11_42 
ROOT
HETATM    1  C3  UNL     1      24.970  -9.780 -17.497  1.00  0.00     0.102 A 
HETATM    2  C4  UNL     1      24.242  -9.592 -16.351  1.00  0.00     0.051 A 
HETATM    3  C5  UNL     1      22.889  -9.321 -16.417  1.00  0.00     0.044 A 
HETATM    4  C6  UNL     1      22.292  -9.245 -17.675  1.00  0.00     0.117 A 
HETATM    5  C7  UNL     1      23.013  -9.431 -18.819  1.00  0.00     0.076 A 
HETATM    6  N10 UNL     1      24.322  -9.692 -18.704  1.00  0.00    -0.342 N 
ATOM      7  H10 UNL     1      24.865  -9.832 -19.557  1.00  0.00     0.167 HD
ENDROOT
BRANCH   5   8
HETATM    8  C8  UNL     1      22.409  -9.371 -20.138  1.00  0.00     0.189 C 
HETATM    9  O5  UNL     1      23.035  -8.527 -21.052  1.00  0.00    -0.353 OA
HETATM   10  C9  UNL     1      22.314  -8.883 -22.215  1.00  0.00     0.246 C 
HETATM   11  C14 UNL     1      22.608 -10.346 -22.288  1.00  0.00     0.072 C 
HETATM   12  C15 UNL     1      22.525 -10.751 -20.815  1.00  0.00     0.114 C 
BRANCH  10  13
HETATM   13  N2  UNL     1      22.680  -8.125 -23.365  1.00  0.00    -0.258 N 
HETATM   14  C10 UNL     1      23.820  -8.273 -24.076  1.00  0.00     0.143 A 
HETATM   15  C11 UNL     1      23.827  -7.375 -25.112  1.00  0.00     0.064 A 
HETATM   16  N7  UNL     1      22.659  -6.690 -24.995  1.00  0.00    -0.287 N 
HETATM   17  N8  UNL     1      22.008  -7.169 -23.945  1.00  0.00    -0.238 N 
ATOM     18  H7  UNL     1      22.340  -5.940 -25.608  1.00  0.00     0.188 HD
ATOM     19  H8  UNL     1      21.098  -6.832 -23.630  1.00  0.00     0.208 HD
BRANCH  15  20
HETATM   20  C12 UNL     1      24.865  -7.158 -26.161  1.00  0.00     0.209 C 
BRANCH  20  21
HETATM   21  N3  UNL     1      24.400  -7.708 -27.436  1.00  0.00    -0.246 N 
HETATM   22  N4  UNL     1      23.349  -8.485 -27.640  1.00  0.00    -0.004 NA
HETATM   23  N5  UNL     1      23.266  -8.767 -28.927  1.00  0.00    -0.006 NA
HETATM   24  N6  UNL     1      24.270  -8.172 -29.562  1.00  0.00    -0.261 N 
HETATM   25  C13 UNL     1      24.975  -7.514 -28.638  1.00  0.00     0.204 A 
ATOM     26  H6  UNL     1      24.464  -8.210 -30.563  1.00  0.00     0.186 HD
HETATM   27  S2  UNL     1      26.322  -6.623 -28.973  1.00  0.00    -0.038 SA
ENDBRANCH  20  21
ENDBRANCH  15  20
ENDBRANCH  10  13
BRANCH  12  28
HETATM   28  C16 UNL     1      21.269 -11.471 -20.508  1.00  0.00     0.238 C 
HETATM   29  N9  UNL     1      21.312 -12.822 -20.097  1.00  0.00    -0.062 NA
HETATM   30  O6  UNL     1      20.185 -10.815 -20.634  1.00  0.00    -0.276 OA
ENDBRANCH  12  28
ENDBRANCH   5   8
BRANCH   4  31
HETATM   31  O1  UNL     1      20.949  -8.977 -17.733  1.00  0.00    -0.212 OA
BRANCH  31  32
HETATM   32  S1  UNL     1      19.859  -9.948 -16.866  1.00  0.00     0.257 S 
HETATM   33  O2  UNL     1      19.340 -11.073 -17.770  1.00  0.00    -0.572 OA
HETATM   34  O3  UNL     1      18.622  -9.191 -16.467  1.00  0.00    -0.572 OA
HETATM   35  O4  UNL     1      20.577 -10.726 -15.563  1.00  0.00    -0.572 OA
ENDBRANCH  31  32
ENDBRANCH   4  31
BRANCH   1  36
HETATM   36  N1  UNL     1      26.346 -10.059 -17.550  1.00  0.00    -0.363 N 
ATOM     37  H1  UNL     1      26.947  -9.352 -17.972  1.00  0.00     0.162 HD
BRANCH  36  38
HETATM   38  C2  UNL     1      26.980 -11.245 -17.066  1.00  0.00     0.173 C 
HETATM   39  C1  UNL     1      28.166 -11.612 -17.915  1.00  0.00     0.042 C 
BRANCH  38  40
HETATM   40  C17 UNL     1      27.356 -11.128 -15.653  1.00  0.00     0.269 C 
HETATM   41  O7  UNL     1      28.419 -10.463 -15.393  1.00  0.00    -0.269 OA
HETATM   42  N11 UNL     1      26.649 -11.683 -14.547  1.00  0.00    -0.167 N 
HETATM   43  N12 UNL     1      25.538 -12.354 -14.725  1.00  0.00    -0.248 N 
HETATM   44  C20 UNL     1      27.158 -11.526 -13.288  1.00  0.00     0.351 A 
HETATM   45  C18 UNL     1      24.915 -12.883 -13.639  1.00  0.00     0.328 A 
ATOM     46  H12 UNL     1      25.148 -12.478 -15.659  1.00  0.00     0.191 HD
HETATM   47  O8  UNL     1      23.849 -13.525 -13.834  1.00  0.00    -0.261 OA
HETATM   48  C19 UNL     1      25.440 -12.714 -12.389  1.00  0.00     0.319 A 
HETATM   49  O9  UNL     1      24.830 -13.222 -11.402  1.00  0.00    -0.262 OA
HETATM   50  N13 UNL     1      26.578 -12.027 -12.197  1.00  0.00    -0.269 N 
ATOM     51  H13 UNL     1      26.977 -11.897 -11.268  1.00  0.00     0.174 HD
HETATM   52  O10 UNL     1      28.225 -10.877 -13.137  1.00  0.00    -0.244 OA
ENDBRANCH  38  40
ENDBRANCH  36  38
ENDBRANCH   1  36
TORSDOF 10
ENDMDL
MODEL 5
REMARK VINA RESULT: -11.331043686      3.163     10.751
REMARK  10 active torsions:
REMARK  status: ('A' for Active; 'I' for Inactive)
REMARK    1  A    between atoms: C2_2  and  N1_3 
REMARK    2  A    between atoms: C2_2  and  C17_40 
REMARK    3  A    between atoms: N1_3  and  C3_5 
REMARK    4  A    between atoms: C6_8  and  O1_9 
REMARK    5  A    between atoms: O1_9  and  S1_10 
REMARK    6  A    between atoms: C7_14  and  C8_15 
REMARK    7  A    between atoms: C9_17  and  N2_18 
REMARK    8  A    between atoms: C11_20  and  C12_21 
REMARK    9  A    between atoms: C12_21  and  N3_22 
REMARK   10  A    between atoms: C15_34  and  C16_35 
REMARK       I    between atoms: C17_40  and  N11_42 
ROOT
HETATM    1  C3  UNL     1      24.981  -9.743 -17.586  1.00  0.00     0.102 A 
HETATM    2  C4  UNL     1      24.285  -9.499 -16.431  1.00  0.00     0.051 A 
HETATM    3  C5  UNL     1      22.930  -9.236 -16.472  1.00  0.00     0.044 A 
HETATM    4  C6  UNL     1      22.297  -9.227 -17.715  1.00  0.00     0.117 A 
HETATM    5  C7  UNL     1      22.985  -9.470 -18.868  1.00  0.00     0.076 A 
HETATM    6  N10 UNL     1      24.299  -9.720 -18.778  1.00  0.00    -0.342 N 
ATOM      7  H10 UNL     1      24.818  -9.903 -19.637  1.00  0.00     0.167 HD
ENDROOT
BRANCH   5   8
HETATM    8  C8  UNL     1      22.344  -9.481 -20.170  1.00  0.00     0.189 C 
HETATM    9  O5  UNL     1      22.946  -8.690 -21.147  1.00  0.00    -0.353 OA
HETATM   10  C9  UNL     1      22.190  -9.107 -22.268  1.00  0.00     0.246 C 
HETATM   11  C14 UNL     1      22.479 -10.574 -22.268  1.00  0.00     0.072 C 
HETATM   12  C15 UNL     1      22.437 -10.896 -20.773  1.00  0.00     0.114 C 
BRANCH  10  13
HETATM   13  N2  UNL     1      22.524  -8.416 -23.468  1.00  0.00    -0.258 N 
HETATM   14  C10 UNL     1      22.674  -8.980 -24.687  1.00  0.00     0.143 A 
HETATM   15  C11 UNL     1      22.993  -8.009 -25.600  1.00  0.00     0.064 A 
HETATM   16  N7  UNL     1      23.029  -6.852 -24.887  1.00  0.00    -0.287 N 
HETATM   17  N8  UNL     1      22.744  -7.140 -23.626  1.00  0.00    -0.238 N 
ATOM     18  H7  UNL     1      23.239  -5.925 -25.259  1.00  0.00     0.188 HD
ATOM     19  H8  UNL     1      22.700  -6.451 -22.874  1.00  0.00     0.208 HD
BRANCH  15  20
HETATM   20  C12 UNL     1      23.254  -8.142 -27.062  1.00  0.00     0.209 C 
BRANCH  20  21
HETATM   21  N3  UNL     1      24.690  -8.008 -27.320  1.00  0.00    -0.246 N 
HETATM   22  N4  UNL     1      25.447  -6.944 -27.114  1.00  0.00    -0.004 NA
HETATM   23  N5  UNL     1      26.687  -7.222 -27.474  1.00  0.00    -0.006 NA
HETATM   24  N6  UNL     1      26.735  -8.473 -27.917  1.00  0.00    -0.261 N 
HETATM   25  C13 UNL     1      25.496  -8.963 -27.823  1.00  0.00     0.204 A 
ATOM     26  H6  UNL     1      27.559  -8.965 -28.262  1.00  0.00     0.186 HD
HETATM   27  S2  UNL     1      25.079 -10.497 -28.264  1.00  0.00    -0.038 SA
ENDBRANCH  20  21
ENDBRANCH  15  20
ENDBRANCH  10  13
BRANCH  12  28
HETATM   28  C16 UNL     1      21.190 -11.594 -20.391  1.00  0.00     0.238 C 
HETATM   29  N9  UNL     1      21.239 -12.928 -19.927  1.00  0.00    -0.062 NA
HETATM   30  O6  UNL     1      20.105 -10.935 -20.504  1.00  0.00    -0.276 OA
ENDBRANCH  12  28
ENDBRANCH   5   8
BRANCH   4  31
HETATM   31  O1  UNL     1      20.951  -8.968 -17.748  1.00  0.00    -0.212 OA
BRANCH  31  32
HETATM   32  S1  UNL     1      19.886  -9.927 -16.837  1.00  0.00     0.257 S 
HETATM   33  O2  UNL     1      19.375 -11.088 -17.699  1.00  0.00    -0.572 OA
HETATM   34  O3  UNL     1      18.642  -9.177 -16.449  1.00  0.00    -0.572 OA
HETATM   35  O4  UNL     1      20.631 -10.651 -15.519  1.00  0.00    -0.572 OA
ENDBRANCH  31  32
ENDBRANCH   4  31
BRANCH   1  36
HETATM   36  N1  UNL     1      26.357 -10.020 -17.665  1.00  0.00    -0.363 N 
ATOM     37  H1  UNL     1      26.942  -9.332 -18.137  1.00  0.00     0.162 HD
BRANCH  36  38
HETATM   38  C2  UNL     1      27.009 -11.179 -17.142  1.00  0.00     0.173 C 
HETATM   39  C1  UNL     1      28.217 -11.539 -17.964  1.00  0.00     0.042 C 
BRANCH  38  40
HETATM   40  C17 UNL     1      27.361 -11.020 -15.727  1.00  0.00     0.269 C 
HETATM   41  O7  UNL     1      28.393 -10.308 -15.467  1.00  0.00    -0.269 OA
HETATM   42  N11 UNL     1      26.661 -11.582 -14.620  1.00  0.00    -0.167 N 
HETATM   43  N12 UNL     1      25.580 -12.300 -14.799  1.00  0.00    -0.248 N 
HETATM   44  C20 UNL     1      27.145 -11.380 -13.358  1.00  0.00     0.351 A 
HETATM   45  C18 UNL     1      24.964 -12.833 -13.711  1.00  0.00     0.328 A 
ATOM     46  H12 UNL     1      25.209 -12.458 -15.736  1.00  0.00     0.191 HD
HETATM   47  O8  UNL     1      23.927 -13.521 -13.907  1.00  0.00    -0.261 OA
HETATM   48  C19 UNL     1      25.465 -12.619 -12.458  1.00  0.00     0.319 A 
HETATM   49  O9  UNL     1      24.861 -13.132 -11.470  1.00  0.00    -0.262 OA
HETATM   50  N13 UNL     1      26.571 -11.883 -12.265  1.00  0.00    -0.269 N 
ATOM     51  H13 UNL     1      26.952 -11.719 -11.333  1.00  0.00     0.174 HD
HETATM   52  O10 UNL     1      28.183 -10.686 -13.205  1.00  0.00    -0.244 OA
ENDBRANCH  38  40
ENDBRANCH  36  38
ENDBRANCH   1  36
TORSDOF 10
ENDMDL
