MODEL 1
REMARK VINA RESULT: -6.826683845      0.000      0.000
REMARK  18 active torsions:
REMARK  status: ('A' for Active; 'I' for Inactive)
REMARK    1  A    between atoms: C2_2  and  C3_3 
REMARK    2  A    between atoms: C3_3  and  O1_4 
REMARK    3  A    between atoms: O1_4  and  C4_5 
REMARK    4  A    between atoms: C4_5  and  C5_6 
REMARK    5  A    between atoms: C5_6  and  O2_7 
REMARK    6  A    between atoms: C5_6  and  C6_9 
REMARK    7  A    between atoms: C9_14  and  O5_16 
REMARK    8  A    between atoms: C12_20  and  O7_21 
REMARK    9  A    between atoms: C13_24  and  O9_25 
REMARK   10  A    between atoms: C16_28  and  C17_29 
REMARK   11  A    between atoms: C17_29  and  N1_30 
REMARK   12  A    between atoms: C17_29  and  C18_34 
REMARK       I    between atoms: C18_34  and  N2_36 
REMARK       I    between atoms: N2_36  and  C19_38 
REMARK   13  A    between atoms: C19_38  and  O12_40 
REMARK   14  A    between atoms: O12_40  and  C20_41 
REMARK   15  A    between atoms: C26_49  and  O15_50 
REMARK   16  A    between atoms: O15_50  and  C27_51 
REMARK   17  A    between atoms: C27_51  and  C28_53 
REMARK   18  A    between atoms: C28_53  and  O17_54 
ROOT
HETATM    1  C4  UNL     1      22.564 -10.750 -26.698  1.00  0.00     0.160 C 
HETATM    2  C7  UNL     1      22.832  -9.630 -25.829  1.00  0.00     0.043 C 
HETATM    3  C8  UNL     1      23.696  -8.432 -25.915  1.00  0.00     0.048 C 
HETATM    4  C9  UNL     1      23.241  -7.688 -24.589  1.00  0.00     0.081 C 
HETATM    5  C10 UNL     1      22.645  -6.348 -24.921  1.00  0.00     0.049 C 
HETATM    6  C11 UNL     1      22.288  -8.582 -24.036  1.00  0.00     0.170 C 
HETATM    7  O6  UNL     1      21.315  -8.776 -23.222  1.00  0.00    -0.322 OA
HETATM    8  C12 UNL     1      20.913 -10.084 -23.289  1.00  0.00     0.313 C 
HETATM    9  O8  UNL     1      19.894 -10.127 -24.276  1.00  0.00    -0.299 OA
HETATM   10  C13 UNL     1      20.258  -9.338 -25.324  1.00  0.00     0.272 C 
HETATM   11  C15 UNL     1      21.638  -8.964 -25.388  1.00  0.00     0.081 C 
HETATM   12  C16 UNL     1      21.756 -11.254 -23.381  1.00  0.00     0.258 C 
HETATM   13  O13 UNL     1      22.453 -11.649 -24.435  1.00  0.00    -0.334 OA
HETATM   14  C24 UNL     1      22.098 -11.861 -25.709  1.00  0.00     0.229 C 
HETATM   15  O14 UNL     1      20.804 -12.335 -25.880  1.00  0.00    -0.347 OA
HETATM   16  C25 UNL     1      21.030 -13.685 -25.680  1.00  0.00     0.209 C 
HETATM   17  C26 UNL     1      22.445 -13.261 -26.187  1.00  0.00     0.221 C 
ENDROOT
BRANCH  12  18
HETATM   18  C17 UNL     1      22.515 -11.476 -22.103  1.00  0.00     0.311 C 
BRANCH  18  19
HETATM   19  N1  UNL     1      23.780 -12.168 -22.347  1.00  0.00    -0.064 N 
ATOM     20  H13 UNL     1      23.781 -12.638 -23.253  1.00  0.00     0.275 HD
ATOM     21  H12 UNL     1      24.541 -11.509 -22.512  1.00  0.00     0.275 HD
ATOM     22  H11 UNL     1      24.003 -12.815 -21.591  1.00  0.00     0.275 HD
ENDBRANCH  18  19
BRANCH  18  23
HETATM   23  C18 UNL     1      21.883 -12.189 -21.003  1.00  0.00     0.259 C 
HETATM   24  O10 UNL     1      21.843 -13.478 -21.010  1.00  0.00    -0.271 OA
HETATM   25  N2  UNL     1      21.278 -11.574 -19.852  1.00  0.00    -0.271 N 
HETATM   26  C19 UNL     1      20.706 -12.368 -18.831  1.00  0.00     0.368 C 
ATOM     27  H2  UNL     1      21.262 -10.557 -19.771  1.00  0.00     0.174 HD
HETATM   28  O11 UNL     1      20.710 -13.643 -18.925  1.00  0.00    -0.238 OA
BRANCH  26  29
HETATM   29  O12 UNL     1      20.114 -11.857 -17.687  1.00  0.00    -0.294 OA
BRANCH  29  30
HETATM   30  C20 UNL     1      20.736 -10.794 -16.948  1.00  0.00     0.061 C 
HETATM   31  C21 UNL     1      19.776  -9.653 -16.855  1.00  0.00     0.046 C 
HETATM   32  C22 UNL     1      21.981 -10.311 -17.655  1.00  0.00     0.046 C 
HETATM   33  C23 UNL     1      21.119 -11.258 -15.563  1.00  0.00     0.046 C 
ENDBRANCH  29  30
ENDBRANCH  26  29
ENDBRANCH  18  23
ENDBRANCH  12  18
BRANCH   8  34
HETATM   34  O7  UNL     1      20.015 -10.194 -22.161  1.00  0.00    -0.341 OA
ATOM     35  H7  UNL     1      20.311 -10.992 -21.740  1.00  0.00     0.215 HD
ENDBRANCH   8  34
BRANCH  10  36
HETATM   36  O9  UNL     1      19.394  -8.202 -25.085  1.00  0.00    -0.365 OA
HETATM   37  C14 UNL     1      18.107  -8.602 -24.842  1.00  0.00     0.204 C 
ENDBRANCH  10  36
BRANCH   1  38
HETATM   38  O1  UNL     1      21.651 -10.473 -27.637  1.00  0.00    -0.367 OA
BRANCH  38  39
HETATM   39  C3  UNL     1      21.105 -11.310 -28.497  1.00  0.00     0.196 C 
BRANCH  39  40
HETATM   40  C2  UNL     1      20.876 -10.544 -29.789  1.00  0.00    -0.011 C 
HETATM   41  C1  UNL     1      20.526 -11.137 -30.909  1.00  0.00     0.009 C 
ENDBRANCH  39  40
ENDBRANCH  38  39
ENDBRANCH   1  38
BRANCH   1  42
HETATM   42  C5  UNL     1      23.858 -11.113 -27.364  1.00  0.00     0.259 C 
BRANCH  42  43
HETATM   43  O2  UNL     1      24.872 -11.439 -26.453  1.00  0.00    -0.382 OA
ATOM     44  H2  UNL     1      25.223 -10.680 -26.000  1.00  0.00     0.210 HD
ENDBRANCH  42  43
BRANCH  42  45
HETATM   45  C6  UNL     1      24.420 -10.038 -28.198  1.00  0.00     0.206 C 
HETATM   46  O3  UNL     1      25.629  -9.673 -28.107  1.00  0.00    -0.646 OA
HETATM   47  O4  UNL     1      23.732  -9.297 -29.165  1.00  0.00    -0.646 OA
ENDBRANCH  42  45
ENDBRANCH   1  42
BRANCH  17  48
HETATM   48  O15 UNL     1      23.455 -13.959 -25.522  1.00  0.00    -0.306 OA
BRANCH  48  49
HETATM   49  C27 UNL     1      24.492 -14.612 -26.135  1.00  0.00     0.283 C 
HETATM   50  O16 UNL     1      24.299 -15.189 -27.220  1.00  0.00    -0.263 OA
BRANCH  49  51
HETATM   51  C28 UNL     1      25.823 -14.585 -25.437  1.00  0.00     0.275 C 
BRANCH  51  52
HETATM   52  O17 UNL     1      25.858 -13.649 -24.433  1.00  0.00    -0.391 OA
ATOM     53  H17 UNL     1      26.709 -13.609 -24.013  1.00  0.00     0.210 HD
ENDBRANCH  51  52
ENDBRANCH  49  51
ENDBRANCH  48  49
ENDBRANCH  17  48
BRANCH   4  54
HETATM   54  O5  UNL     1      24.381  -7.421 -23.812  1.00  0.00    -0.388 OA
ATOM     55  H5  UNL     1      24.279  -6.567 -23.409  1.00  0.00     0.210 HD
ENDBRANCH   4  54
TORSDOF 18
ENDMDL
MODEL 2
REMARK VINA RESULT: -6.785047420      2.536      6.336
REMARK  18 active torsions:
REMARK  status: ('A' for Active; 'I' for Inactive)
REMARK    1  A    between atoms: C2_2  and  C3_3 
REMARK    2  A    between atoms: C3_3  and  O1_4 
REMARK    3  A    between atoms: O1_4  and  C4_5 
REMARK    4  A    between atoms: C4_5  and  C5_6 
REMARK    5  A    between atoms: C5_6  and  O2_7 
REMARK    6  A    between atoms: C5_6  and  C6_9 
REMARK    7  A    between atoms: C9_14  and  O5_16 
REMARK    8  A    between atoms: C12_20  and  O7_21 
REMARK    9  A    between atoms: C13_24  and  O9_25 
REMARK   10  A    between atoms: C16_28  and  C17_29 
REMARK   11  A    between atoms: C17_29  and  N1_30 
REMARK   12  A    between atoms: C17_29  and  C18_34 
REMARK       I    between atoms: C18_34  and  N2_36 
REMARK       I    between atoms: N2_36  and  C19_38 
REMARK   13  A    between atoms: C19_38  and  O12_40 
REMARK   14  A    between atoms: O12_40  and  C20_41 
REMARK   15  A    between atoms: C26_49  and  O15_50 
REMARK   16  A    between atoms: O15_50  and  C27_51 
REMARK   17  A    between atoms: C27_51  and  C28_53 
REMARK   18  A    between atoms: C28_53  and  O17_54 
ROOT
HETATM    1  C4  UNL     1      21.874 -10.190 -25.981  1.00  0.00     0.160 C 
HETATM    2  C7  UNL     1      21.769 -10.586 -27.364  1.00  0.00     0.043 C 
HETATM    3  C8  UNL     1      20.643 -10.808 -28.298  1.00  0.00     0.048 C 
HETATM    4  C9  UNL     1      21.461 -11.067 -29.633  1.00  0.00     0.081 C 
HETATM    5  C10 UNL     1      21.118 -10.029 -30.665  1.00  0.00     0.049 C 
HETATM    6  C11 UNL     1      22.809 -10.975 -29.201  1.00  0.00     0.170 C 
HETATM    7  O6  UNL     1      24.047 -10.821 -29.505  1.00  0.00    -0.322 OA
HETATM    8  C12 UNL     1      24.810 -10.875 -28.369  1.00  0.00     0.313 C 
HETATM    9  O8  UNL     1      24.914  -9.537 -27.907  1.00  0.00    -0.299 OA
HETATM   10  C13 UNL     1      23.705  -8.926 -28.041  1.00  0.00     0.272 C 
HETATM   11  C15 UNL     1      22.578  -9.785 -28.240  1.00  0.00     0.081 C 
HETATM   12  C16 UNL     1      24.656 -11.784 -27.255  1.00  0.00     0.258 C 
HETATM   13  O13 UNL     1      23.699 -11.765 -26.341  1.00  0.00    -0.334 OA
HETATM   14  C24 UNL     1      23.247 -10.787 -25.546  1.00  0.00     0.229 C 
HETATM   15  O14 UNL     1      24.213  -9.877 -25.137  1.00  0.00    -0.347 OA
HETATM   16  C25 UNL     1      24.730 -10.566 -24.056  1.00  0.00     0.209 C 
HETATM   17  C26 UNL     1      23.287 -11.164 -24.075  1.00  0.00     0.221 C 
ENDROOT
BRANCH  12  18
HETATM   18  C17 UNL     1      25.014 -13.189 -27.650  1.00  0.00     0.311 C 
BRANCH  18  19
HETATM   19  N1  UNL     1      23.954 -13.805 -28.449  1.00  0.00    -0.064 N 
ATOM     20  H13 UNL     1      23.563 -14.623 -27.984  1.00  0.00     0.275 HD
ATOM     21  H12 UNL     1      23.118 -13.222 -28.472  1.00  0.00     0.275 HD
ATOM     22  H11 UNL     1      24.280 -14.029 -29.389  1.00  0.00     0.275 HD
ENDBRANCH  18  19
BRANCH  18  23
HETATM   23  C18 UNL     1      25.352 -14.164 -26.625  1.00  0.00     0.259 C 
HETATM   24  O10 UNL     1      25.469 -15.410 -26.936  1.00  0.00    -0.271 OA
HETATM   25  N2  UNL     1      25.587 -13.865 -25.238  1.00  0.00    -0.271 N 
HETATM   26  C19 UNL     1      25.926 -14.894 -24.329  1.00  0.00     0.368 C 
ATOM     27  H2  UNL     1      25.509 -12.903 -24.907  1.00  0.00     0.174 HD
HETATM   28  O11 UNL     1      26.017 -16.105 -24.728  1.00  0.00    -0.238 OA
BRANCH  26  29
HETATM   29  O12 UNL     1      26.179 -14.690 -22.982  1.00  0.00    -0.294 OA
BRANCH  29  30
HETATM   30  C20 UNL     1      27.412 -14.099 -22.545  1.00  0.00     0.061 C 
HETATM   31  C21 UNL     1      27.867 -14.805 -21.310  1.00  0.00     0.046 C 
HETATM   32  C22 UNL     1      27.214 -12.638 -22.212  1.00  0.00     0.046 C 
HETATM   33  C23 UNL     1      28.468 -14.209 -23.619  1.00  0.00     0.046 C 
ENDBRANCH  29  30
ENDBRANCH  26  29
ENDBRANCH  18  23
ENDBRANCH  12  18
BRANCH   8  34
HETATM   34  O7  UNL     1      26.153 -10.943 -28.897  1.00  0.00    -0.341 OA
ATOM     35  H7  UNL     1      26.062 -10.527 -29.746  1.00  0.00     0.215 HD
ENDBRANCH   8  34
BRANCH  10  36
HETATM   36  O9  UNL     1      23.976  -8.102 -29.200  1.00  0.00    -0.365 OA
HETATM   37  C14 UNL     1      25.004  -7.229 -28.956  1.00  0.00     0.204 C 
ENDBRANCH  10  36
BRANCH   1  38
HETATM   38  O1  UNL     1      21.806  -8.863 -25.812  1.00  0.00    -0.367 OA
BRANCH  38  39
HETATM   39  C3  UNL     1      22.040  -8.183 -24.708  1.00  0.00     0.196 C 
BRANCH  39  40
HETATM   40  C2  UNL     1      22.431  -6.773 -25.121  1.00  0.00    -0.011 C 
HETATM   41  C1  UNL     1      23.677  -6.426 -25.353  1.00  0.00     0.009 C 
ENDBRANCH  39  40
ENDBRANCH  38  39
ENDBRANCH   1  38
BRANCH   1  42
HETATM   42  C5  UNL     1      20.735 -10.836 -25.248  1.00  0.00     0.259 C 
BRANCH  42  43
HETATM   43  O2  UNL     1      20.271 -12.001 -25.874  1.00  0.00    -0.382 OA
ATOM     44  H2  UNL     1      19.483 -11.859 -26.387  1.00  0.00     0.210 HD
ENDBRANCH  42  43
BRANCH  42  45
HETATM   45  C6  UNL     1      19.551  -9.973 -25.110  1.00  0.00     0.206 C 
HETATM   46  O3  UNL     1      19.187  -9.498 -23.993  1.00  0.00    -0.646 OA
HETATM   47  O4  UNL     1      18.695  -9.573 -26.141  1.00  0.00    -0.646 OA
ENDBRANCH  42  45
ENDBRANCH   1  42
BRANCH  17  48
HETATM   48  O15 UNL     1      23.292 -12.519 -23.735  1.00  0.00    -0.306 OA
BRANCH  48  49
HETATM   49  C27 UNL     1      22.842 -13.032 -22.548  1.00  0.00     0.283 C 
HETATM   50  O16 UNL     1      22.944 -14.252 -22.328  1.00  0.00    -0.263 OA
BRANCH  49  51
HETATM   51  C28 UNL     1      22.242 -12.061 -21.569  1.00  0.00     0.275 C 
BRANCH  51  52
HETATM   52  O17 UNL     1      21.552 -12.700 -20.569  1.00  0.00    -0.391 OA
ATOM     53  H17 UNL     1      21.048 -12.092 -20.040  1.00  0.00     0.210 HD
ENDBRANCH  51  52
ENDBRANCH  49  51
ENDBRANCH  48  49
ENDBRANCH  17  48
BRANCH   4  54
HETATM   54  O5  UNL     1      21.054 -12.298 -30.175  1.00  0.00    -0.388 OA
ATOM     55  H5  UNL     1      21.108 -12.244 -31.122  1.00  0.00     0.210 HD
ENDBRANCH   4  54
TORSDOF 18
ENDMDL
MODEL 3
REMARK VINA RESULT: -6.784816997      2.716      6.355
REMARK  18 active torsions:
REMARK  status: ('A' for Active; 'I' for Inactive)
REMARK    1  A    between atoms: C2_2  and  C3_3 
REMARK    2  A    between atoms: C3_3  and  O1_4 
REMARK    3  A    between atoms: O1_4  and  C4_5 
REMARK    4  A    between atoms: C4_5  and  C5_6 
REMARK    5  A    between atoms: C5_6  and  O2_7 
REMARK    6  A    between atoms: C5_6  and  C6_9 
REMARK    7  A    between atoms: C9_14  and  O5_16 
REMARK    8  A    between atoms: C12_20  and  O7_21 
REMARK    9  A    between atoms: C13_24  and  O9_25 
REMARK   10  A    between atoms: C16_28  and  C17_29 
REMARK   11  A    between atoms: C17_29  and  N1_30 
REMARK   12  A    between atoms: C17_29  and  C18_34 
REMARK       I    between atoms: C18_34  and  N2_36 
REMARK       I    between atoms: N2_36  and  C19_38 
REMARK   13  A    between atoms: C19_38  and  O12_40 
REMARK   14  A    between atoms: O12_40  and  C20_41 
REMARK   15  A    between atoms: C26_49  and  O15_50 
REMARK   16  A    between atoms: O15_50  and  C27_51 
REMARK   17  A    between atoms: C27_51  and  C28_53 
REMARK   18  A    between atoms: C28_53  and  O17_54 
ROOT
HETATM    1  C4  UNL     1      20.343  -8.581 -23.764  1.00  0.00     0.160 C 
HETATM    2  C7  UNL     1      20.420  -9.631 -24.750  1.00  0.00     0.043 C 
HETATM    3  C8  UNL     1      19.463 -10.233 -25.704  1.00  0.00     0.048 C 
HETATM    4  C9  UNL     1      20.448 -11.202 -26.485  1.00  0.00     0.081 C 
HETATM    5  C10 UNL     1      20.498 -10.832 -27.941  1.00  0.00     0.049 C 
HETATM    6  C11 UNL     1      21.688 -10.986 -25.829  1.00  0.00     0.170 C 
HETATM    7  O6  UNL     1      22.967 -11.094 -25.847  1.00  0.00    -0.322 OA
HETATM    8  C12 UNL     1      23.486 -10.600 -24.680  1.00  0.00     0.313 C 
HETATM    9  O8  UNL     1      23.751  -9.227 -24.925  1.00  0.00    -0.299 OA
HETATM   10  C13 UNL     1      22.722  -8.697 -25.641  1.00  0.00     0.272 C 
HETATM   11  C15 UNL     1      21.510  -9.458 -25.670  1.00  0.00     0.081 C 
HETATM   12  C16 UNL     1      22.966 -10.784 -23.344  1.00  0.00     0.258 C 
HETATM   13  O13 UNL     1      21.878 -10.229 -22.832  1.00  0.00    -0.334 OA
HETATM   14  C24 UNL     1      21.478  -8.952 -22.763  1.00  0.00     0.229 C 
HETATM   15  O14 UNL     1      22.505  -8.028 -22.625  1.00  0.00    -0.347 OA
HETATM   16  C25 UNL     1      22.679  -8.087 -21.255  1.00  0.00     0.209 C 
HETATM   17  C26 UNL     1      21.179  -8.511 -21.341  1.00  0.00     0.221 C 
ENDROOT
BRANCH  12  18
HETATM   18  C17 UNL     1      23.122 -12.209 -22.894  1.00  0.00     0.311 C 
BRANCH  18  19
HETATM   19  N1  UNL     1      22.312 -12.486 -21.708  1.00  0.00    -0.064 N 
ATOM     20  H13 UNL     1      21.521 -13.091 -21.928  1.00  0.00     0.275 HD
ATOM     21  H12 UNL     1      22.802 -13.098 -21.055  1.00  0.00     0.275 HD
ATOM     22  H11 UNL     1      22.008 -11.623 -21.256  1.00  0.00     0.275 HD
ENDBRANCH  18  19
BRANCH  18  23
HETATM   23  C18 UNL     1      24.448 -12.731 -22.596  1.00  0.00     0.259 C 
HETATM   24  O10 UNL     1      24.696 -13.985 -22.762  1.00  0.00    -0.271 OA
HETATM   25  N2  UNL     1      25.561 -11.953 -22.123  1.00  0.00    -0.271 N 
HETATM   26  C19 UNL     1      26.813 -12.564 -21.882  1.00  0.00     0.368 C 
ATOM     27  H2  UNL     1      25.447 -10.953 -21.961  1.00  0.00     0.174 HD
HETATM   28  O11 UNL     1      26.967 -13.819 -22.071  1.00  0.00    -0.238 OA
BRANCH  26  29
HETATM   29  O12 UNL     1      27.937 -11.887 -21.437  1.00  0.00    -0.294 OA
BRANCH  29  30
HETATM   30  C20 UNL     1      28.399 -12.036 -20.085  1.00  0.00     0.061 C 
HETATM   31  C21 UNL     1      27.524 -11.220 -19.191  1.00  0.00     0.046 C 
HETATM   32  C22 UNL     1      29.818 -11.534 -19.949  1.00  0.00     0.046 C 
HETATM   33  C23 UNL     1      28.358 -13.486 -19.663  1.00  0.00     0.046 C 
ENDBRANCH  29  30
ENDBRANCH  26  29
ENDBRANCH  18  23
ENDBRANCH  12  18
BRANCH   8  34
HETATM   34  O7  UNL     1      24.867 -11.020 -24.749  1.00  0.00    -0.341 OA
ATOM     35  H7  UNL     1      24.922 -11.662 -24.051  1.00  0.00     0.215 HD
ENDBRANCH   8  34
BRANCH  10  36
HETATM   36  O9  UNL     1      23.348  -8.617 -26.944  1.00  0.00    -0.365 OA
HETATM   37  C14 UNL     1      24.448  -7.799 -26.914  1.00  0.00     0.204 C 
ENDBRANCH  10  36
BRANCH   1  38
HETATM   38  O1  UNL     1      20.493  -7.359 -24.292  1.00  0.00    -0.367 OA
BRANCH  38  39
HETATM   39  C3  UNL     1      20.576  -6.212 -23.647  1.00  0.00     0.196 C 
BRANCH  39  40
HETATM   40  C2  UNL     1      21.073  -5.173 -24.639  1.00  0.00    -0.011 C 
HETATM   41  C1  UNL     1      22.315  -5.144 -25.067  1.00  0.00     0.009 C 
ENDBRANCH  39  40
ENDBRANCH  38  39
ENDBRANCH   1  38
BRANCH   1  42
HETATM   42  C5  UNL     1      18.990  -8.675 -23.123  1.00  0.00     0.259 C 
BRANCH  42  43
HETATM   43  O2  UNL     1      18.735  -9.934 -22.562  1.00  0.00    -0.382 OA
ATOM     44  H2  UNL     1      18.564 -10.604 -23.214  1.00  0.00     0.210 HD
ENDBRANCH  42  43
BRANCH  42  45
HETATM   45  C6  UNL     1      17.874  -8.433 -24.052  1.00  0.00     0.206 C 
HETATM   46  O3  UNL     1      16.821  -9.137 -24.040  1.00  0.00    -0.646 OA
HETATM   47  O4  UNL     1      17.816  -7.439 -25.034  1.00  0.00    -0.646 OA
ENDBRANCH  42  45
ENDBRANCH   1  42
BRANCH  17  48
HETATM   48  O15 UNL     1      20.870  -9.488 -20.392  1.00  0.00    -0.306 OA
BRANCH  48  49
HETATM   49  C27 UNL     1      21.671  -9.840 -19.338  1.00  0.00     0.283 C 
HETATM   50  O16 UNL     1      22.814 -10.278 -19.555  1.00  0.00    -0.263 OA
BRANCH  49  51
HETATM   51  C28 UNL     1      21.099  -9.666 -17.958  1.00  0.00     0.275 C 
BRANCH  51  52
HETATM   52  O17 UNL     1      19.983  -8.865 -17.962  1.00  0.00    -0.391 OA
ATOM     53  H17 UNL     1      19.428  -9.026 -17.208  1.00  0.00     0.210 HD
ENDBRANCH  51  52
ENDBRANCH  49  51
ENDBRANCH  48  49
ENDBRANCH  17  48
BRANCH   4  54
HETATM   54  O5  UNL     1      19.925 -12.505 -26.436  1.00  0.00    -0.388 OA
ATOM     55  H5  UNL     1      20.550 -13.065 -25.990  1.00  0.00     0.210 HD
ENDBRANCH   4  54
TORSDOF 18
ENDMDL
MODEL 4
REMARK VINA RESULT: -6.778956404      2.128      6.767
REMARK  18 active torsions:
REMARK  status: ('A' for Active; 'I' for Inactive)
REMARK    1  A    between atoms: C2_2  and  C3_3 
REMARK    2  A    between atoms: C3_3  and  O1_4 
REMARK    3  A    between atoms: O1_4  and  C4_5 
REMARK    4  A    between atoms: C4_5  and  C5_6 
REMARK    5  A    between atoms: C5_6  and  O2_7 
REMARK    6  A    between atoms: C5_6  and  C6_9 
REMARK    7  A    between atoms: C9_14  and  O5_16 
REMARK    8  A    between atoms: C12_20  and  O7_21 
REMARK    9  A    between atoms: C13_24  and  O9_25 
REMARK   10  A    between atoms: C16_28  and  C17_29 
REMARK   11  A    between atoms: C17_29  and  N1_30 
REMARK   12  A    between atoms: C17_29  and  C18_34 
REMARK       I    between atoms: C18_34  and  N2_36 
REMARK       I    between atoms: N2_36  and  C19_38 
REMARK   13  A    between atoms: C19_38  and  O12_40 
REMARK   14  A    between atoms: O12_40  and  C20_41 
REMARK   15  A    between atoms: C26_49  and  O15_50 
REMARK   16  A    between atoms: O15_50  and  C27_51 
REMARK   17  A    between atoms: C27_51  and  C28_53 
REMARK   18  A    between atoms: C28_53  and  O17_54 
ROOT
HETATM    1  C4  UNL     1      20.442  -8.476 -23.962  1.00  0.00     0.160 C 
HETATM    2  C7  UNL     1      20.532  -9.513 -24.960  1.00  0.00     0.043 C 
HETATM    3  C8  UNL     1      19.616 -10.042 -25.995  1.00  0.00     0.048 C 
HETATM    4  C9  UNL     1      20.599 -11.055 -26.719  1.00  0.00     0.081 C 
HETATM    5  C10 UNL     1      20.780 -10.666 -28.160  1.00  0.00     0.049 C 
HETATM    6  C11 UNL     1      21.797 -10.924 -25.969  1.00  0.00     0.170 C 
HETATM    7  O6  UNL     1      23.065 -11.108 -25.894  1.00  0.00    -0.322 OA
HETATM    8  C12 UNL     1      23.523 -10.663 -24.682  1.00  0.00     0.313 C 
HETATM    9  O8  UNL     1      23.885  -9.305 -24.879  1.00  0.00    -0.299 OA
HETATM   10  C13 UNL     1      22.945  -8.704 -25.659  1.00  0.00     0.272 C 
HETATM   11  C15 UNL     1      21.697  -9.391 -25.793  1.00  0.00     0.081 C 
HETATM   12  C16 UNL     1      22.893 -10.837 -23.392  1.00  0.00     0.258 C 
HETATM   13  O13 UNL     1      21.804 -10.227 -22.951  1.00  0.00    -0.334 OA
HETATM   14  C24 UNL     1      21.475  -8.930 -22.886  1.00  0.00     0.229 C 
HETATM   15  O14 UNL     1      22.541  -8.071 -22.654  1.00  0.00    -0.347 OA
HETATM   16  C25 UNL     1      22.607  -8.161 -21.276  1.00  0.00     0.209 C 
HETATM   17  C26 UNL     1      21.096  -8.494 -21.482  1.00  0.00     0.221 C 
ENDROOT
BRANCH  12  18
HETATM   18  C17 UNL     1      22.933 -12.276 -22.961  1.00  0.00     0.311 C 
BRANCH  18  19
HETATM   19  N1  UNL     1      22.067 -12.510 -21.805  1.00  0.00    -0.064 N 
ATOM     20  H13 UNL     1      22.600 -12.523 -20.935  1.00  0.00     0.275 HD
ATOM     21  H12 UNL     1      21.474 -11.703 -21.613  1.00  0.00     0.275 HD
ATOM     22  H11 UNL     1      21.516 -13.360 -21.919  1.00  0.00     0.275 HD
ENDBRANCH  18  19
BRANCH  18  23
HETATM   23  C18 UNL     1      24.207 -12.896 -22.631  1.00  0.00     0.259 C 
HETATM   24  O10 UNL     1      25.107 -12.220 -22.002  1.00  0.00    -0.271 OA
HETATM   25  N2  UNL     1      24.577 -14.251 -22.941  1.00  0.00    -0.271 N 
HETATM   26  C19 UNL     1      25.841 -14.756 -22.556  1.00  0.00     0.368 C 
ATOM     27  H2  UNL     1      23.924 -14.852 -23.443  1.00  0.00     0.174 HD
HETATM   28  O11 UNL     1      26.674 -14.010 -21.936  1.00  0.00    -0.238 OA
BRANCH  26  29
HETATM   29  O12 UNL     1      26.271 -16.049 -22.806  1.00  0.00    -0.294 OA
BRANCH  29  30
HETATM   30  C20 UNL     1      27.179 -16.328 -23.884  1.00  0.00     0.061 C 
HETATM   31  C21 UNL     1      26.977 -17.741 -24.322  1.00  0.00     0.046 C 
HETATM   32  C22 UNL     1      28.611 -16.171 -23.429  1.00  0.00     0.046 C 
HETATM   33  C23 UNL     1      26.936 -15.390 -25.043  1.00  0.00     0.046 C 
ENDBRANCH  29  30
ENDBRANCH  26  29
ENDBRANCH  18  23
ENDBRANCH  12  18
BRANCH   8  34
HETATM   34  O7  UNL     1      24.878 -11.164 -24.656  1.00  0.00    -0.341 OA
ATOM     35  H7  UNL     1      24.923 -11.594 -23.811  1.00  0.00     0.215 HD
ENDBRANCH   8  34
BRANCH  10  36
HETATM   36  O9  UNL     1      23.671  -8.640 -26.909  1.00  0.00    -0.365 OA
HETATM   37  C14 UNL     1      24.862  -7.979 -26.756  1.00  0.00     0.204 C 
ENDBRANCH  10  36
BRANCH   1  38
HETATM   38  O1  UNL     1      20.702  -7.257 -24.452  1.00  0.00    -0.367 OA
BRANCH  38  39
HETATM   39  C3  UNL     1      21.094  -6.191 -23.783  1.00  0.00     0.196 C 
BRANCH  39  40
HETATM   40  C2  UNL     1      21.514  -5.147 -24.805  1.00  0.00    -0.011 C 
HETATM   41  C1  UNL     1      22.687  -5.172 -25.398  1.00  0.00     0.009 C 
ENDBRANCH  39  40
ENDBRANCH  38  39
ENDBRANCH   1  38
BRANCH   1  42
HETATM   42  C5  UNL     1      19.041  -8.500 -23.425  1.00  0.00     0.259 C 
BRANCH  42  43
HETATM   43  O2  UNL     1      18.481  -9.784 -23.411  1.00  0.00    -0.382 OA
ATOM     44  H2  UNL     1      18.102 -10.033 -24.247  1.00  0.00     0.210 HD
ENDBRANCH  42  43
BRANCH  42  45
HETATM   45  C6  UNL     1      18.096  -7.674 -24.193  1.00  0.00     0.206 C 
HETATM   46  O3  UNL     1      17.434  -8.135 -25.170  1.00  0.00    -0.646 OA
HETATM   47  O4  UNL     1      17.805  -6.325 -23.969  1.00  0.00    -0.646 OA
ENDBRANCH  42  45
ENDBRANCH   1  42
BRANCH  17  48
HETATM   48  O15 UNL     1      20.660  -9.466 -20.578  1.00  0.00    -0.306 OA
BRANCH  48  49
HETATM   49  C27 UNL     1      21.389  -9.935 -19.517  1.00  0.00     0.283 C 
HETATM   50  O16 UNL     1      22.544 -10.355 -19.704  1.00  0.00    -0.263 OA
BRANCH  49  51
HETATM   51  C28 UNL     1      20.725  -9.908 -18.168  1.00  0.00     0.275 C 
BRANCH  51  52
HETATM   52  O17 UNL     1      19.870  -8.842 -18.037  1.00  0.00    -0.391 OA
ATOM     53  H17 UNL     1      19.003  -9.038 -18.372  1.00  0.00     0.210 HD
ENDBRANCH  51  52
ENDBRANCH  49  51
ENDBRANCH  48  49
ENDBRANCH  17  48
BRANCH   4  54
HETATM   54  O5  UNL     1      20.000 -12.326 -26.735  1.00  0.00    -0.388 OA
ATOM     55  H5  UNL     1      20.574 -12.926 -27.196  1.00  0.00     0.210 HD
ENDBRANCH   4  54
TORSDOF 18
ENDMDL
MODEL 5
REMARK VINA RESULT: -6.770488088      3.925      7.850
REMARK  18 active torsions:
REMARK  status: ('A' for Active; 'I' for Inactive)
REMARK    1  A    between atoms: C2_2  and  C3_3 
REMARK    2  A    between atoms: C3_3  and  O1_4 
REMARK    3  A    between atoms: O1_4  and  C4_5 
REMARK    4  A    between atoms: C4_5  and  C5_6 
REMARK    5  A    between atoms: C5_6  and  O2_7 
REMARK    6  A    between atoms: C5_6  and  C6_9 
REMARK    7  A    between atoms: C9_14  and  O5_16 
REMARK    8  A    between atoms: C12_20  and  O7_21 
REMARK    9  A    between atoms: C13_24  and  O9_25 
REMARK   10  A    between atoms: C16_28  and  C17_29 
REMARK   11  A    between atoms: C17_29  and  N1_30 
REMARK   12  A    between atoms: C17_29  and  C18_34 
REMARK       I    between atoms: C18_34  and  N2_36 
REMARK       I    between atoms: N2_36  and  C19_38 
REMARK   13  A    between atoms: C19_38  and  O12_40 
REMARK   14  A    between atoms: O12_40  and  C20_41 
REMARK   15  A    between atoms: C26_49  and  O15_50 
REMARK   16  A    between atoms: O15_50  and  C27_51 
REMARK   17  A    between atoms: C27_51  and  C28_53 
REMARK   18  A    between atoms: C28_53  and  O17_54 
ROOT
HETATM    1  C4  UNL     1      24.209 -15.533 -25.082  1.00  0.00     0.160 C 
HETATM    2  C7  UNL     1      25.127 -16.607 -24.791  1.00  0.00     0.043 C 
HETATM    3  C8  UNL     1      24.991 -18.068 -24.607  1.00  0.00     0.048 C 
HETATM    4  C9  UNL     1      26.524 -18.458 -24.477  1.00  0.00     0.081 C 
HETATM    5  C10 UNL     1      26.918 -19.399 -25.581  1.00  0.00     0.049 C 
HETATM    6  C11 UNL     1      27.178 -17.203 -24.577  1.00  0.00     0.170 C 
HETATM    7  O6  UNL     1      28.261 -16.549 -24.793  1.00  0.00    -0.322 OA
HETATM    8  C12 UNL     1      28.019 -15.206 -24.675  1.00  0.00     0.313 C 
HETATM    9  O8  UNL     1      27.671 -14.759 -25.976  1.00  0.00    -0.299 OA
HETATM   10  C13 UNL     1      26.854 -15.680 -26.558  1.00  0.00     0.272 C 
HETATM   11  C15 UNL     1      26.253 -16.639 -25.682  1.00  0.00     0.081 C 
HETATM   12  C16 UNL     1      27.204 -14.549 -23.679  1.00  0.00     0.258 C 
HETATM   13  O13 UNL     1      25.883 -14.565 -23.597  1.00  0.00    -0.334 OA
HETATM   14  C24 UNL     1      24.931 -14.282 -24.497  1.00  0.00     0.229 C 
HETATM   15  O14 UNL     1      25.267 -13.284 -25.403  1.00  0.00    -0.347 OA
HETATM   16  C25 UNL     1      24.937 -12.174 -24.648  1.00  0.00     0.209 C 
HETATM   17  C26 UNL     1      23.965 -13.216 -24.009  1.00  0.00     0.221 C 
ENDROOT
BRANCH  12  18
HETATM   18  C17 UNL     1      27.842 -14.627 -22.321  1.00  0.00     0.311 C 
BRANCH  18  19
HETATM   19  N1  UNL     1      27.048 -15.447 -21.406  1.00  0.00    -0.064 N 
ATOM     20  H13 UNL     1      26.201 -14.963 -21.109  1.00  0.00     0.275 HD
ATOM     21  H12 UNL     1      26.617 -16.236 -21.888  1.00  0.00     0.275 HD
ATOM     22  H11 UNL     1      27.601 -15.756 -20.607  1.00  0.00     0.275 HD
ENDBRANCH  18  19
BRANCH  18  23
HETATM   23  C18 UNL     1      28.143 -13.404 -21.593  1.00  0.00     0.259 C 
HETATM   24  O10 UNL     1      28.906 -12.511 -22.125  1.00  0.00    -0.271 OA
HETATM   25  N2  UNL     1      27.648 -13.071 -20.284  1.00  0.00    -0.271 N 
HETATM   26  C19 UNL     1      27.994 -11.842 -19.677  1.00  0.00     0.368 C 
ATOM     27  H2  UNL     1      27.042 -13.726 -19.791  1.00  0.00     0.174 HD
HETATM   28  O11 UNL     1      28.761 -11.016 -20.280  1.00  0.00    -0.238 OA
BRANCH  26  29
HETATM   29  O12 UNL     1      27.552 -11.440 -18.427  1.00  0.00    -0.294 OA
BRANCH  29  30
HETATM   30  C20 UNL     1      28.271 -11.806 -17.239  1.00  0.00     0.061 C 
HETATM   31  C21 UNL     1      27.472 -12.824 -16.494  1.00  0.00     0.046 C 
HETATM   32  C22 UNL     1      28.466 -10.605 -16.343  1.00  0.00     0.046 C 
HETATM   33  C23 UNL     1      29.628 -12.370 -17.588  1.00  0.00     0.046 C 
ENDBRANCH  29  30
ENDBRANCH  26  29
ENDBRANCH  18  23
ENDBRANCH  12  18
BRANCH   8  34
HETATM   34  O7  UNL     1      29.351 -14.645 -24.691  1.00  0.00    -0.341 OA
ATOM     35  H7  UNL     1      29.410 -14.231 -23.838  1.00  0.00     0.215 HD
ENDBRANCH   8  34
BRANCH  10  36
HETATM   36  O9  UNL     1      27.791 -16.290 -27.477  1.00  0.00    -0.365 OA
HETATM   37  C14 UNL     1      28.293 -15.367 -28.357  1.00  0.00     0.204 C 
ENDBRANCH  10  36
BRANCH   1  38
HETATM   38  O1  UNL     1      23.942 -15.416 -26.389  1.00  0.00    -0.367 OA
BRANCH  38  39
HETATM   39  C3  UNL     1      23.108 -14.573 -26.965  1.00  0.00     0.196 C 
BRANCH  39  40
HETATM   40  C2  UNL     1      23.507 -14.472 -28.428  1.00  0.00    -0.011 C 
HETATM   41  C1  UNL     1      24.585 -13.831 -28.823  1.00  0.00     0.009 C 
ENDBRANCH  39  40
ENDBRANCH  38  39
ENDBRANCH   1  38
BRANCH   1  42
HETATM   42  C5  UNL     1      22.935 -15.828 -24.346  1.00  0.00     0.259 C 
BRANCH  42  43
HETATM   43  O2  UNL     1      23.120 -15.967 -22.964  1.00  0.00    -0.382 OA
ATOM     44  H2  UNL     1      22.785 -15.228 -22.468  1.00  0.00     0.210 HD
ENDBRANCH  42  43
BRANCH  42  45
HETATM   45  C6  UNL     1      22.275 -17.072 -24.775  1.00  0.00     0.206 C 
HETATM   46  O3  UNL     1      21.912 -17.963 -23.951  1.00  0.00    -0.646 OA
HETATM   47  O4  UNL     1      21.968 -17.434 -26.090  1.00  0.00    -0.646 OA
ENDBRANCH  42  45
ENDBRANCH   1  42
BRANCH  17  48
HETATM   48  O15 UNL     1      23.836 -13.015 -22.633  1.00  0.00    -0.306 OA
BRANCH  48  49
HETATM   49  C27 UNL     1      22.683 -12.630 -22.001  1.00  0.00     0.283 C 
HETATM   50  O16 UNL     1      22.004 -13.476 -21.394  1.00  0.00    -0.263 OA
BRANCH  49  51
HETATM   51  C28 UNL     1      22.311 -11.176 -22.088  1.00  0.00     0.275 C 
BRANCH  51  52
HETATM   52  O17 UNL     1      23.342 -10.358 -21.698  1.00  0.00    -0.391 OA
ATOM     53  H17 UNL     1      23.548  -9.706 -22.358  1.00  0.00     0.210 HD
ENDBRANCH  51  52
ENDBRANCH  49  51
ENDBRANCH  48  49
ENDBRANCH  17  48
BRANCH   4  54
HETATM   54  O5  UNL     1      26.704 -19.170 -23.280  1.00  0.00    -0.388 OA
ATOM     55  H5  UNL     1      27.426 -18.779 -22.801  1.00  0.00     0.210 HD
ENDBRANCH   4  54
TORSDOF 18
ENDMDL
