MODEL 1
REMARK VINA RESULT: -9.632613221      0.000      0.000
REMARK  15 active torsions:
REMARK  status: ('A' for Active; 'I' for Inactive)
REMARK    1  A    between atoms: C2_2  and  C3_3 
REMARK    2  A    between atoms: C3_3  and  C4_4 
REMARK    3  A    between atoms: C4_4  and  N1_5 
REMARK    4  A    between atoms: N2_10  and  C8_11 
REMARK    5  A    between atoms: C11_16  and  N3_17 
REMARK       I    between atoms: N3_17  and  C12_18 
REMARK    6  A    between atoms: N3_17  and  C13_21 
REMARK    7  A    between atoms: C14_22  and  O5_23 
REMARK    8  A    between atoms: C15_25  and  O6_26 
REMARK    9  A    between atoms: C15_25  and  N4_28 
REMARK   10  A    between atoms: N4_28  and  C16_31 
REMARK   11  A    between atoms: C16_31  and  C17_32 
REMARK   12  A    between atoms: C20_42  and  C21_43 
REMARK   13  A    between atoms: C24_50  and  C25_51 
REMARK   14  A    between atoms: C25_51  and  O8_52 
REMARK   15  A    between atoms: N10_54  and  N11_56 
ROOT
HETATM    1  N3  UNL     1      22.558  -9.918 -17.100  1.00  0.00    -0.298 N 
HETATM    2  C12 UNL     1      21.685  -9.807 -16.014  1.00  0.00     0.287 C 
HETATM    3  O3  UNL     1      20.430 -10.133 -16.136  1.00  0.00    -0.630 OA
HETATM    4  O4  UNL     1      21.990  -9.381 -14.742  1.00  0.00    -0.630 OA
ENDROOT
BRANCH   1   5
HETATM    5  C11 UNL     1      21.983 -10.543 -18.321  1.00  0.00     0.190 C 
HETATM    6  S1  UNL     1      23.306 -10.284 -19.563  1.00  0.00    -0.081 SA
HETATM    7  C7  UNL     1      22.513 -10.119 -21.135  1.00  0.00     0.110 A 
HETATM    8  C6  UNL     1      21.228  -9.657 -21.171  1.00  0.00     0.132 A 
HETATM    9  N2  UNL     1      23.159 -10.405 -22.264  1.00  0.00    -0.292 N 
HETATM   10  C5  UNL     1      20.637  -9.501 -22.425  1.00  0.00     0.281 A 
HETATM   11  N12 UNL     1      20.542  -9.368 -19.975  1.00  0.00    -0.368 N 
HETATM   12  N1  UNL     1      21.280  -9.786 -23.572  1.00  0.00    -0.264 N 
HETATM   13  O1  UNL     1      19.440  -9.073 -22.466  1.00  0.00    -0.265 OA
HETATM   14  C10 UNL     1      22.552 -10.241 -23.455  1.00  0.00     0.332 A 
HETATM   15  O2  UNL     1      23.182 -10.519 -24.506  1.00  0.00    -0.246 OA
HETATM   16  C24 UNL     1      20.662 -10.095 -18.727  1.00  0.00     0.192 C 
ATOM     17  H12 UNL     1      19.901  -8.574 -19.989  1.00  0.00     0.161 HD
BRANCH  12  18
HETATM   18  C4  UNL     1      20.668  -9.607 -24.870  1.00  0.00     0.137 C 
BRANCH  18  19
HETATM   19  C3  UNL     1      20.249 -10.864 -25.551  1.00  0.00     0.020 C 
BRANCH  19  20
HETATM   20  C2  UNL     1      19.242 -10.466 -26.636  1.00  0.00    -0.003 C 
HETATM   21  C1  UNL     1      18.154  -9.613 -26.019  1.00  0.00     0.005 C 
ENDBRANCH  19  20
ENDBRANCH  18  19
ENDBRANCH  12  18
BRANCH  16  22
HETATM   22  C25 UNL     1      19.800 -11.323 -18.959  1.00  0.00     0.156 C 
HETATM   23  N10 UNL     1      19.993 -12.438 -18.389  1.00  0.00    -0.288 N 
ATOM     24  H10 UNL     1      20.761 -12.553 -17.728  1.00  0.00     0.188 HD
BRANCH  22  25
HETATM   25  O8  UNL     1      18.763 -11.135 -19.862  1.00  0.00    -0.347 OA
ATOM     26  H8  UNL     1      18.740 -11.766 -20.572  1.00  0.00     0.219 HD
ENDBRANCH  22  25
BRANCH  23  27
HETATM   27  N11 UNL     1      19.146 -13.504 -18.674  1.00  0.00    -0.343 N 
ATOM     28 2H11 UNL     1      19.387 -14.147 -19.427  1.00  0.00     0.176 HD
ATOM     29 1H11 UNL     1      18.294 -13.626 -18.125  1.00  0.00     0.176 HD
ENDBRANCH  23  27
ENDBRANCH  16  22
BRANCH   9  30
HETATM   30  C8  UNL     1      24.539 -10.916 -22.195  1.00  0.00     0.130 C 
HETATM   31  C9  UNL     1      24.446 -12.409 -22.409  1.00  0.00     0.027 C 
ENDBRANCH   9  30
ENDBRANCH   1   5
BRANCH   1  32
HETATM   32  C13 UNL     1      23.855  -9.372 -17.230  1.00  0.00     0.191 A 
HETATM   33  C14 UNL     1      23.874  -7.881 -16.900  1.00  0.00     0.211 A 
HETATM   34  C15 UNL     1      24.882  -8.893 -16.364  1.00  0.00     0.277 A 
BRANCH  33  35
HETATM   35  O5  UNL     1      22.916  -7.311 -16.143  1.00  0.00    -0.388 OA
ATOM     36  H5  UNL     1      22.827  -6.368 -16.077  1.00  0.00     0.210 HD
ENDBRANCH  33  35
BRANCH  34  37
HETATM   37  O6  UNL     1      26.188  -8.796 -16.995  1.00  0.00    -0.361 OA
ATOM     38  H6  UNL     1      26.474  -7.904 -17.153  1.00  0.00     0.212 HD
ENDBRANCH  34  37
BRANCH  34  39
HETATM   39  N4  UNL     1      25.045  -8.883 -14.956  1.00  0.00    -0.020 N 
ATOM     40  H42 UNL     1      25.508  -8.028 -14.646  1.00  0.00     0.282 HD
ATOM     41  H41 UNL     1      24.148  -8.765 -14.485  1.00  0.00     0.282 HD
BRANCH  39  42
HETATM   42  C16 UNL     1      25.753 -10.080 -14.457  1.00  0.00     0.212 C 
HETATM   43  C18 UNL     1      24.657 -11.165 -14.478  1.00  0.00     0.052 C 
HETATM   44  C19 UNL     1      25.175 -12.432 -13.820  1.00  0.00     0.044 C 
HETATM   45  C20 UNL     1      25.659 -12.109 -12.419  1.00  0.00     0.254 C 
HETATM   46  N9  UNL     1      26.757 -11.149 -12.541  1.00  0.00    -0.061 N 
HETATM   47  C23 UNL     1      26.169  -9.889 -13.030  1.00  0.00     0.280 C 
ATOM     48  H92 UNL     1      27.290 -11.036 -11.679  1.00  0.00     0.278 HD
ATOM     49  H91 UNL     1      27.523 -11.488 -13.123  1.00  0.00     0.278 HD
BRANCH  42  50
HETATM   50  C17 UNL     1      26.822 -10.543 -15.318  1.00  0.00     0.148 A 
HETATM   51  N5  UNL     1      26.816 -11.522 -16.271  1.00  0.00    -0.273 N 
HETATM   52  N6  UNL     1      27.993 -11.632 -16.843  1.00  0.00    -0.225 N 
ATOM     53  H5  UNL     1      26.004 -12.092 -16.506  1.00  0.00     0.189 HD
HETATM   54  N7  UNL     1      28.782 -10.724 -16.268  1.00  0.00    -0.005 NA
ATOM     55  H6  UNL     1      28.252 -12.285 -17.582  1.00  0.00     0.205 HD
HETATM   56  N8  UNL     1      28.079 -10.070 -15.351  1.00  0.00    -0.268 N 
ATOM     57  H8  UNL     1      28.439  -9.320 -14.760  1.00  0.00     0.185 HD
ENDBRANCH  42  50
BRANCH  45  58
HETATM   58  C21 UNL     1      26.141 -13.332 -11.769  1.00  0.00     0.153 C 
HETATM   59  C22 UNL     1      27.533 -13.483 -11.244  1.00  0.00     0.093 C 
HETATM   60  O7  UNL     1      25.357 -14.279 -11.651  1.00  0.00    -0.296 OA
ENDBRANCH  45  58
ENDBRANCH  39  42
ENDBRANCH  34  39
ENDBRANCH   1  32
TORSDOF 15
ENDMDL
MODEL 2
REMARK VINA RESULT: -9.366884442      2.777      4.058
REMARK  15 active torsions:
REMARK  status: ('A' for Active; 'I' for Inactive)
REMARK    1  A    between atoms: C2_2  and  C3_3 
REMARK    2  A    between atoms: C3_3  and  C4_4 
REMARK    3  A    between atoms: C4_4  and  N1_5 
REMARK    4  A    between atoms: N2_10  and  C8_11 
REMARK    5  A    between atoms: C11_16  and  N3_17 
REMARK       I    between atoms: N3_17  and  C12_18 
REMARK    6  A    between atoms: N3_17  and  C13_21 
REMARK    7  A    between atoms: C14_22  and  O5_23 
REMARK    8  A    between atoms: C15_25  and  O6_26 
REMARK    9  A    between atoms: C15_25  and  N4_28 
REMARK   10  A    between atoms: N4_28  and  C16_31 
REMARK   11  A    between atoms: C16_31  and  C17_32 
REMARK   12  A    between atoms: C20_42  and  C21_43 
REMARK   13  A    between atoms: C24_50  and  C25_51 
REMARK   14  A    between atoms: C25_51  and  O8_52 
REMARK   15  A    between atoms: N10_54  and  N11_56 
ROOT
HETATM    1  N3  UNL     1      22.088 -10.456 -19.893  1.00  0.00    -0.298 N 
HETATM    2  C12 UNL     1      21.114 -11.279 -19.321  1.00  0.00     0.287 C 
HETATM    3  O3  UNL     1      20.021 -11.563 -19.969  1.00  0.00    -0.630 OA
HETATM    4  O4  UNL     1      21.157 -11.880 -18.084  1.00  0.00    -0.630 OA
ENDROOT
BRANCH   1   5
HETATM    5  C11 UNL     1      21.839 -10.058 -21.304  1.00  0.00     0.190 C 
HETATM    6  S1  UNL     1      23.046 -11.083 -22.228  1.00  0.00    -0.081 SA
HETATM    7  C7  UNL     1      23.516 -10.160 -23.662  1.00  0.00     0.110 A 
HETATM    8  C6  UNL     1      23.437  -8.796 -23.613  1.00  0.00     0.132 A 
HETATM    9  N2  UNL     1      23.969 -10.771 -24.755  1.00  0.00    -0.292 N 
HETATM   10  C5  UNL     1      23.848  -8.090 -24.744  1.00  0.00     0.281 A 
HETATM   11  N12 UNL     1      22.945  -8.152 -22.461  1.00  0.00    -0.368 N 
HETATM   12  N1  UNL     1      24.308  -8.696 -25.852  1.00  0.00    -0.264 N 
HETATM   13  O1  UNL     1      23.776  -6.820 -24.706  1.00  0.00    -0.265 OA
HETATM   14  C10 UNL     1      24.356 -10.050 -25.826  1.00  0.00     0.332 A 
HETATM   15  O2  UNL     1      24.779 -10.650 -26.845  1.00  0.00    -0.246 OA
HETATM   16  C24 UNL     1      21.882  -8.637 -21.603  1.00  0.00     0.192 C 
ATOM     17  H12 UNL     1      23.375  -7.263 -22.208  1.00  0.00     0.161 HD
BRANCH  12  18
HETATM   18  C4  UNL     1      24.748  -7.957 -27.016  1.00  0.00     0.137 C 
BRANCH  18  19
HETATM   19  C3  UNL     1      26.169  -7.514 -26.984  1.00  0.00     0.020 C 
BRANCH  19  20
HETATM   20  C2  UNL     1      26.869  -8.181 -28.173  1.00  0.00    -0.003 C 
HETATM   21  C1  UNL     1      28.079  -7.360 -28.565  1.00  0.00     0.005 C 
ENDBRANCH  19  20
ENDBRANCH  18  19
ENDBRANCH  12  18
BRANCH  16  22
HETATM   22  C25 UNL     1      20.625  -8.280 -22.375  1.00  0.00     0.156 C 
HETATM   23  N10 UNL     1      19.669  -9.086 -22.578  1.00  0.00    -0.288 N 
ATOM     24  H10 UNL     1      19.711 -10.038 -22.214  1.00  0.00     0.188 HD
BRANCH  22  25
HETATM   25  O8  UNL     1      20.597  -6.978 -22.857  1.00  0.00    -0.347 OA
ATOM     26  H8  UNL     1      19.890  -6.445 -22.510  1.00  0.00     0.219 HD
ENDBRANCH  22  25
BRANCH  23  27
HETATM   27  N11 UNL     1      18.561  -8.659 -23.303  1.00  0.00    -0.343 N 
ATOM     28 2H11 UNL     1      18.592  -7.758 -23.780  1.00  0.00     0.176 HD
ATOM     29 1H11 UNL     1      17.733  -9.254 -23.346  1.00  0.00     0.176 HD
ENDBRANCH  23  27
ENDBRANCH  16  22
BRANCH   9  30
HETATM   30  C8  UNL     1      24.029 -12.242 -24.785  1.00  0.00     0.130 C 
HETATM   31  C9  UNL     1      22.717 -12.704 -25.373  1.00  0.00     0.027 C 
ENDBRANCH   9  30
ENDBRANCH   1   5
BRANCH   1  32
HETATM   32  C13 UNL     1      23.184  -9.834 -19.255  1.00  0.00     0.191 A 
HETATM   33  C14 UNL     1      22.728  -8.894 -18.140  1.00  0.00     0.211 A 
HETATM   34  C15 UNL     1      23.849  -9.919 -17.995  1.00  0.00     0.277 A 
BRANCH  33  35
HETATM   35  O5  UNL     1      21.520  -9.024 -17.555  1.00  0.00    -0.388 OA
ATOM     36  H5  UNL     1      20.960  -8.273 -17.397  1.00  0.00     0.210 HD
ENDBRANCH  33  35
BRANCH  34  37
HETATM   37  O6  UNL     1      25.175  -9.325 -17.988  1.00  0.00    -0.361 OA
ATOM     38  H6  UNL     1      25.873  -9.938 -18.188  1.00  0.00     0.212 HD
ENDBRANCH  34  37
BRANCH  34  39
HETATM   39  N4  UNL     1      23.722 -10.787 -16.882  1.00  0.00    -0.020 N 
ATOM     40  H42 UNL     1      22.743 -10.911 -16.623  1.00  0.00     0.282 HD
ATOM     41  H41 UNL     1      23.948 -11.747 -17.139  1.00  0.00     0.282 HD
BRANCH  39  42
HETATM   42  C16 UNL     1      24.524 -10.345 -15.722  1.00  0.00     0.212 C 
HETATM   43  C18 UNL     1      24.130 -11.352 -14.623  1.00  0.00     0.052 C 
HETATM   44  C19 UNL     1      24.737 -10.930 -13.297  1.00  0.00     0.044 C 
HETATM   45  C20 UNL     1      24.309  -9.510 -12.976  1.00  0.00     0.254 C 
HETATM   46  N9  UNL     1      24.825  -8.644 -14.037  1.00  0.00    -0.061 N 
HETATM   47  C23 UNL     1      24.086  -8.987 -15.265  1.00  0.00     0.280 C 
ATOM     48  H92 UNL     1      24.780  -7.652 -13.805  1.00  0.00     0.278 HD
ATOM     49  H91 UNL     1      25.838  -8.704 -14.148  1.00  0.00     0.278 HD
BRANCH  42  50
HETATM   50  C17 UNL     1      25.957 -10.462 -15.908  1.00  0.00     0.148 A 
HETATM   51  N5  UNL     1      26.940  -9.529 -15.739  1.00  0.00    -0.273 N 
HETATM   52  N6  UNL     1      28.122 -10.036 -16.001  1.00  0.00    -0.225 N 
ATOM     53  H5  UNL     1      26.777  -8.566 -15.447  1.00  0.00     0.189 HD
HETATM   54  N7  UNL     1      27.924 -11.308 -16.346  1.00  0.00    -0.005 NA
ATOM     55  H6  UNL     1      29.018  -9.551 -15.952  1.00  0.00     0.205 HD
HETATM   56  N8  UNL     1      26.622 -11.564 -16.291  1.00  0.00    -0.268 N 
ATOM     57  H8  UNL     1      26.192 -12.464 -16.507  1.00  0.00     0.185 HD
ENDBRANCH  42  50
BRANCH  45  58
HETATM   58  C21 UNL     1      24.874  -9.103 -11.686  1.00  0.00     0.153 C 
HETATM   59  C22 UNL     1      25.851  -9.940 -10.923  1.00  0.00     0.093 C 
HETATM   60  O7  UNL     1      24.524  -8.019 -11.210  1.00  0.00    -0.296 OA
ENDBRANCH  45  58
ENDBRANCH  39  42
ENDBRANCH  34  39
ENDBRANCH   1  32
TORSDOF 15
ENDMDL
MODEL 3
REMARK VINA RESULT: -9.153281541      2.351      9.948
REMARK  15 active torsions:
REMARK  status: ('A' for Active; 'I' for Inactive)
REMARK    1  A    between atoms: C2_2  and  C3_3 
REMARK    2  A    between atoms: C3_3  and  C4_4 
REMARK    3  A    between atoms: C4_4  and  N1_5 
REMARK    4  A    between atoms: N2_10  and  C8_11 
REMARK    5  A    between atoms: C11_16  and  N3_17 
REMARK       I    between atoms: N3_17  and  C12_18 
REMARK    6  A    between atoms: N3_17  and  C13_21 
REMARK    7  A    between atoms: C14_22  and  O5_23 
REMARK    8  A    between atoms: C15_25  and  O6_26 
REMARK    9  A    between atoms: C15_25  and  N4_28 
REMARK   10  A    between atoms: N4_28  and  C16_31 
REMARK   11  A    between atoms: C16_31  and  C17_32 
REMARK   12  A    between atoms: C20_42  and  C21_43 
REMARK   13  A    between atoms: C24_50  and  C25_51 
REMARK   14  A    between atoms: C25_51  and  O8_52 
REMARK   15  A    between atoms: N10_54  and  N11_56 
ROOT
HETATM    1  N3  UNL     1      21.801 -10.252 -19.498  1.00  0.00    -0.298 N 
HETATM    2  C12 UNL     1      20.436 -10.545 -19.534  1.00  0.00     0.287 C 
HETATM    3  O3  UNL     1      19.735 -10.577 -18.436  1.00  0.00    -0.630 OA
HETATM    4  O4  UNL     1      19.672 -10.816 -20.646  1.00  0.00    -0.630 OA
ENDROOT
BRANCH   1   5
HETATM    5  C11 UNL     1      22.337  -9.862 -18.167  1.00  0.00     0.190 C 
HETATM    6  S1  UNL     1      24.149  -9.986 -18.413  1.00  0.00    -0.081 SA
HETATM    7  C7  UNL     1      24.851 -10.441 -16.855  1.00  0.00     0.110 A 
HETATM    8  C6  UNL     1      24.076 -11.134 -15.969  1.00  0.00     0.132 A 
HETATM    9  N2  UNL     1      26.116 -10.147 -16.559  1.00  0.00    -0.292 N 
HETATM   10  C5  UNL     1      24.664 -11.513 -14.762  1.00  0.00     0.281 A 
HETATM   11  N12 UNL     1      22.734 -11.432 -16.278  1.00  0.00    -0.368 N 
HETATM   12  N1  UNL     1      25.940 -11.223 -14.453  1.00  0.00    -0.264 N 
HETATM   13  O1  UNL     1      23.948 -12.158 -13.931  1.00  0.00    -0.265 OA
HETATM   14  C10 UNL     1      26.646 -10.532 -15.381  1.00  0.00     0.332 A 
HETATM   15  O2  UNL     1      27.841 -10.242 -15.125  1.00  0.00    -0.246 OA
HETATM   16  C24 UNL     1      21.821 -10.582 -17.015  1.00  0.00     0.192 C 
ATOM     17  H12 UNL     1      22.372 -12.328 -15.953  1.00  0.00     0.161 HD
BRANCH  12  18
HETATM   18  C4  UNL     1      26.550 -11.633 -13.207  1.00  0.00     0.137 C 
BRANCH  18  19
HETATM   19  C3  UNL     1      27.204 -12.970 -13.231  1.00  0.00     0.020 C 
BRANCH  19  20
HETATM   20  C2  UNL     1      28.368 -12.914 -12.234  1.00  0.00    -0.003 C 
HETATM   21  C1  UNL     1      28.294 -14.113 -11.313  1.00  0.00     0.005 C 
ENDBRANCH  19  20
ENDBRANCH  18  19
ENDBRANCH  12  18
BRANCH  16  22
HETATM   22  C25 UNL     1      21.386  -9.562 -15.979  1.00  0.00     0.156 C 
HETATM   23  N10 UNL     1      22.184  -8.781 -15.380  1.00  0.00    -0.288 N 
ATOM     24  H10 UNL     1      23.183  -8.809 -15.583  1.00  0.00     0.188 HD
BRANCH  22  25
HETATM   25  O8  UNL     1      20.022  -9.547 -15.724  1.00  0.00    -0.347 OA
ATOM     26  H8  UNL     1      19.760 -10.030 -14.949  1.00  0.00     0.219 HD
ENDBRANCH  22  25
BRANCH  23  27
HETATM   27  N11 UNL     1      21.683  -7.883 -14.442  1.00  0.00    -0.343 N 
ATOM     28 2H11 UNL     1      21.026  -8.213 -13.736  1.00  0.00     0.176 HD
ATOM     29 1H11 UNL     1      21.980  -6.908 -14.476  1.00  0.00     0.176 HD
ENDBRANCH  23  27
ENDBRANCH  16  22
BRANCH   9  30
HETATM   30  C8  UNL     1      26.924  -9.385 -17.527  1.00  0.00     0.130 C 
HETATM   31  C9  UNL     1      27.684 -10.409 -18.338  1.00  0.00     0.027 C 
ENDBRANCH   9  30
ENDBRANCH   1   5
BRANCH   1  32
HETATM   32  C13 UNL     1      22.755 -10.432 -20.526  1.00  0.00     0.191 A 
HETATM   33  C14 UNL     1      22.825 -11.889 -20.980  1.00  0.00     0.211 A 
HETATM   34  C15 UNL     1      22.748 -10.696 -21.928  1.00  0.00     0.277 A 
BRANCH  33  35
HETATM   35  O5  UNL     1      21.804 -12.744 -20.774  1.00  0.00    -0.388 OA
ATOM     36  H5  UNL     1      21.161 -12.926 -21.449  1.00  0.00     0.210 HD
ENDBRANCH  33  35
BRANCH  34  37
HETATM   37  O6  UNL     1      24.008 -10.402 -22.589  1.00  0.00    -0.361 OA
ATOM     38  H6  UNL     1      24.399 -11.151 -23.022  1.00  0.00     0.212 HD
ENDBRANCH  34  37
BRANCH  34  39
HETATM   39  N4  UNL     1      21.719 -10.774 -22.900  1.00  0.00    -0.020 N 
ATOM     40  H42 UNL     1      21.940 -11.470 -23.612  1.00  0.00     0.282 HD
ATOM     41  H41 UNL     1      20.878 -11.197 -22.510  1.00  0.00     0.282 HD
BRANCH  39  42
HETATM   42  C16 UNL     1      21.419  -9.464 -23.516  1.00  0.00     0.212 C 
HETATM   43  C18 UNL     1      22.161  -9.537 -24.866  1.00  0.00     0.052 C 
HETATM   44  C19 UNL     1      22.102  -8.187 -25.558  1.00  0.00     0.044 C 
HETATM   45  C20 UNL     1      22.662  -7.122 -24.633  1.00  0.00     0.254 C 
HETATM   46  N9  UNL     1      21.817  -7.086 -23.439  1.00  0.00    -0.061 N 
HETATM   47  C23 UNL     1      22.037  -8.355 -22.722  1.00  0.00     0.280 C 
ATOM     48  H92 UNL     1      21.977  -6.263 -22.858  1.00  0.00     0.278 HD
ATOM     49  H91 UNL     1      20.834  -6.907 -23.648  1.00  0.00     0.278 HD
BRANCH  42  50
HETATM   50  C17 UNL     1      20.016  -9.254 -23.816  1.00  0.00     0.148 A 
HETATM   51  N5  UNL     1      19.380  -9.194 -25.023  1.00  0.00    -0.273 N 
HETATM   52  N6  UNL     1      18.091  -8.997 -24.868  1.00  0.00    -0.225 N 
ATOM     53  H5  UNL     1      19.845  -9.291 -25.926  1.00  0.00     0.189 HD
HETATM   54  N7  UNL     1      17.872  -8.924 -23.555  1.00  0.00    -0.005 NA
ATOM     55  H6  UNL     1      17.394  -8.914 -25.608  1.00  0.00     0.205 HD
HETATM   56  N8  UNL     1      19.029  -9.078 -22.923  1.00  0.00    -0.268 N 
ATOM     57  H8  UNL     1      19.150  -9.065 -21.909  1.00  0.00     0.185 HD
ENDBRANCH  42  50
BRANCH  45  58
HETATM   58  C21 UNL     1      22.630  -5.819 -25.304  1.00  0.00     0.153 C 
HETATM   59  C22 UNL     1      23.423  -5.515 -26.535  1.00  0.00     0.093 C 
HETATM   60  O7  UNL     1      21.912  -4.933 -24.827  1.00  0.00    -0.296 OA
ENDBRANCH  45  58
ENDBRANCH  39  42
ENDBRANCH  34  39
ENDBRANCH   1  32
TORSDOF 15
ENDMDL
MODEL 4
REMARK VINA RESULT: -9.152939520      2.236      9.960
REMARK  15 active torsions:
REMARK  status: ('A' for Active; 'I' for Inactive)
REMARK    1  A    between atoms: C2_2  and  C3_3 
REMARK    2  A    between atoms: C3_3  and  C4_4 
REMARK    3  A    between atoms: C4_4  and  N1_5 
REMARK    4  A    between atoms: N2_10  and  C8_11 
REMARK    5  A    between atoms: C11_16  and  N3_17 
REMARK       I    between atoms: N3_17  and  C12_18 
REMARK    6  A    between atoms: N3_17  and  C13_21 
REMARK    7  A    between atoms: C14_22  and  O5_23 
REMARK    8  A    between atoms: C15_25  and  O6_26 
REMARK    9  A    between atoms: C15_25  and  N4_28 
REMARK   10  A    between atoms: N4_28  and  C16_31 
REMARK   11  A    between atoms: C16_31  and  C17_32 
REMARK   12  A    between atoms: C20_42  and  C21_43 
REMARK   13  A    between atoms: C24_50  and  C25_51 
REMARK   14  A    between atoms: C25_51  and  O8_52 
REMARK   15  A    between atoms: N10_54  and  N11_56 
ROOT
HETATM    1  N3  UNL     1      22.009 -10.849 -20.161  1.00  0.00    -0.298 N 
HETATM    2  C12 UNL     1      21.500 -12.124 -20.419  1.00  0.00     0.287 C 
HETATM    3  O3  UNL     1      21.084 -12.882 -19.444  1.00  0.00    -0.630 OA
HETATM    4  O4  UNL     1      21.360 -12.732 -21.645  1.00  0.00    -0.630 OA
ENDROOT
BRANCH   1   5
HETATM    5  C11 UNL     1      21.912 -10.395 -18.748  1.00  0.00     0.190 C 
HETATM    6  S1  UNL     1      23.627  -9.861 -18.382  1.00  0.00    -0.081 SA
HETATM    7  C7  UNL     1      23.903 -10.156 -16.660  1.00  0.00     0.110 A 
HETATM    8  C6  UNL     1      23.181 -11.139 -16.044  1.00  0.00     0.132 A 
HETATM    9  N2  UNL     1      24.815  -9.462 -15.981  1.00  0.00    -0.292 N 
HETATM   10  C5  UNL     1      23.443 -11.376 -14.694  1.00  0.00     0.281 A 
HETATM   11  N12 UNL     1      22.207 -11.863 -16.760  1.00  0.00    -0.368 N 
HETATM   12  N1  UNL     1      24.361 -10.683 -13.999  1.00  0.00    -0.264 N 
HETATM   13  O1  UNL     1      22.773 -12.289 -14.113  1.00  0.00    -0.265 OA
HETATM   14  C10 UNL     1      25.036  -9.723 -14.678  1.00  0.00     0.332 A 
HETATM   15  O2  UNL     1      25.901  -9.054 -14.059  1.00  0.00    -0.246 OA
HETATM   16  C24 UNL     1      21.342 -11.332 -17.796  1.00  0.00     0.192 C 
ATOM     17  H12 UNL     1      22.101 -12.850 -16.528  1.00  0.00     0.161 HD
BRANCH  12  18
HETATM   18  C4  UNL     1      24.640 -10.944 -12.604  1.00  0.00     0.137 C 
BRANCH  18  19
HETATM   19  C3  UNL     1      25.524 -12.114 -12.343  1.00  0.00     0.020 C 
BRANCH  19  20
HETATM   20  C2  UNL     1      26.854 -11.557 -11.821  1.00  0.00    -0.003 C 
HETATM   21  C1  UNL     1      27.951 -11.877 -12.814  1.00  0.00     0.005 C 
ENDBRANCH  19  20
ENDBRANCH  18  19
ENDBRANCH  12  18
BRANCH  16  22
HETATM   22  C25 UNL     1      20.267 -10.607 -17.008  1.00  0.00     0.156 C 
HETATM   23  N10 UNL     1      19.638  -9.596 -17.440  1.00  0.00    -0.288 N 
ATOM     24  H10 UNL     1      19.838  -9.221 -18.367  1.00  0.00     0.188 HD
BRANCH  22  25
HETATM   25  O8  UNL     1      20.015 -11.141 -15.752  1.00  0.00    -0.347 OA
ATOM     26  H8  UNL     1      19.715 -10.509 -15.109  1.00  0.00     0.219 HD
ENDBRANCH  22  25
BRANCH  23  27
HETATM   27  N11 UNL     1      18.670  -9.001 -16.636  1.00  0.00    -0.343 N 
ATOM     28 2H11 UNL     1      17.735  -9.406 -16.597  1.00  0.00     0.176 HD
ATOM     29 1H11 UNL     1      18.911  -8.169 -16.098  1.00  0.00     0.176 HD
ENDBRANCH  23  27
ENDBRANCH  16  22
BRANCH   9  30
HETATM   30  C8  UNL     1      25.567  -8.397 -16.667  1.00  0.00     0.130 C 
HETATM   31  C9  UNL     1      24.797  -7.120 -16.431  1.00  0.00     0.027 C 
ENDBRANCH   9  30
ENDBRANCH   1   5
BRANCH   1  32
HETATM   32  C13 UNL     1      22.738 -10.012 -21.036  1.00  0.00     0.191 A 
HETATM   33  C14 UNL     1      23.875 -10.769 -21.721  1.00  0.00     0.211 A 
HETATM   34  C15 UNL     1      22.894  -9.851 -22.445  1.00  0.00     0.277 A 
BRANCH  33  35
HETATM   35  O5  UNL     1      23.864 -12.111 -21.836  1.00  0.00    -0.388 OA
ATOM     36  H5  UNL     1      23.096 -12.579 -22.142  1.00  0.00     0.210 HD
ENDBRANCH  33  35
BRANCH  34  37
HETATM   37  O6  UNL     1      23.474  -8.576 -22.832  1.00  0.00    -0.361 OA
ATOM     38  H6  UNL     1      23.533  -7.949 -22.121  1.00  0.00     0.212 HD
ENDBRANCH  34  37
BRANCH  34  39
HETATM   39  N4  UNL     1      22.256 -10.432 -23.570  1.00  0.00    -0.020 N 
ATOM     40  H42 UNL     1      22.930 -10.645 -24.305  1.00  0.00     0.282 HD
ATOM     41  H41 UNL     1      21.934 -11.377 -23.361  1.00  0.00     0.282 HD
BRANCH  39  42
HETATM   42  C16 UNL     1      21.151  -9.598 -24.090  1.00  0.00     0.212 C 
HETATM   43  C18 UNL     1      20.154  -9.571 -22.913  1.00  0.00     0.052 C 
HETATM   44  C19 UNL     1      18.866  -8.895 -23.347  1.00  0.00     0.044 C 
HETATM   45  C20 UNL     1      18.315  -9.601 -24.572  1.00  0.00     0.254 C 
HETATM   46  N9  UNL     1      19.307  -9.472 -25.640  1.00  0.00    -0.061 N 
HETATM   47  C23 UNL     1      20.473 -10.280 -25.238  1.00  0.00     0.280 C 
ATOM     48  H92 UNL     1      18.943  -9.721 -26.559  1.00  0.00     0.278 HD
ATOM     49  H91 UNL     1      19.544  -8.503 -25.853  1.00  0.00     0.278 HD
BRANCH  42  50
HETATM   50  C17 UNL     1      21.519  -8.223 -24.363  1.00  0.00     0.148 A 
HETATM   51  N5  UNL     1      21.123  -7.073 -23.743  1.00  0.00    -0.273 N 
HETATM   52  N6  UNL     1      21.695  -6.023 -24.287  1.00  0.00    -0.225 N 
ATOM     53  H5  UNL     1      20.469  -7.034 -22.962  1.00  0.00     0.189 HD
HETATM   54  N7  UNL     1      22.472  -6.478 -25.270  1.00  0.00    -0.005 NA
ATOM     55  H6  UNL     1      21.568  -5.049 -24.011  1.00  0.00     0.205 HD
HETATM   56  N8  UNL     1      22.366  -7.800 -25.316  1.00  0.00    -0.268 N 
ATOM     57  H8  UNL     1      22.855  -8.405 -25.977  1.00  0.00     0.185 HD
ENDBRANCH  42  50
BRANCH  45  58
HETATM   58  C21 UNL     1      17.058  -8.968 -24.984  1.00  0.00     0.153 C 
HETATM   59  C22 UNL     1      16.234  -8.119 -24.068  1.00  0.00     0.093 C 
HETATM   60  O7  UNL     1      16.666  -9.145 -26.141  1.00  0.00    -0.296 OA
ENDBRANCH  45  58
ENDBRANCH  39  42
ENDBRANCH  34  39
ENDBRANCH   1  32
TORSDOF 15
ENDMDL
MODEL 5
REMARK VINA RESULT: -9.146060376      0.693      1.087
REMARK  15 active torsions:
REMARK  status: ('A' for Active; 'I' for Inactive)
REMARK    1  A    between atoms: C2_2  and  C3_3 
REMARK    2  A    between atoms: C3_3  and  C4_4 
REMARK    3  A    between atoms: C4_4  and  N1_5 
REMARK    4  A    between atoms: N2_10  and  C8_11 
REMARK    5  A    between atoms: C11_16  and  N3_17 
REMARK       I    between atoms: N3_17  and  C12_18 
REMARK    6  A    between atoms: N3_17  and  C13_21 
REMARK    7  A    between atoms: C14_22  and  O5_23 
REMARK    8  A    between atoms: C15_25  and  O6_26 
REMARK    9  A    between atoms: C15_25  and  N4_28 
REMARK   10  A    between atoms: N4_28  and  C16_31 
REMARK   11  A    between atoms: C16_31  and  C17_32 
REMARK   12  A    between atoms: C20_42  and  C21_43 
REMARK   13  A    between atoms: C24_50  and  C25_51 
REMARK   14  A    between atoms: C25_51  and  O8_52 
REMARK   15  A    between atoms: N10_54  and  N11_56 
ROOT
HETATM    1  N3  UNL     1      22.681  -9.642 -17.084  1.00  0.00    -0.298 N 
HETATM    2  C12 UNL     1      21.789  -9.293 -16.067  1.00  0.00     0.287 C 
HETATM    3  O3  UNL     1      20.514  -9.532 -16.192  1.00  0.00    -0.630 OA
HETATM    4  O4  UNL     1      22.092  -8.699 -14.864  1.00  0.00    -0.630 OA
ENDROOT
BRANCH   1   5
HETATM    5  C11 UNL     1      22.091 -10.401 -18.219  1.00  0.00     0.190 C 
HETATM    6  S1  UNL     1      23.405 -10.302 -19.493  1.00  0.00    -0.081 SA
HETATM    7  C7  UNL     1      22.600 -10.316 -21.068  1.00  0.00     0.110 A 
HETATM    8  C6  UNL     1      21.317  -9.852 -21.147  1.00  0.00     0.132 A 
HETATM    9  N2  UNL     1      23.234 -10.738 -22.160  1.00  0.00    -0.292 N 
HETATM   10  C5  UNL     1      20.717  -9.840 -22.407  1.00  0.00     0.281 A 
HETATM   11  N12 UNL     1      20.643  -9.418 -19.989  1.00  0.00    -0.368 N 
HETATM   12  N1  UNL     1      21.347 -10.263 -23.517  1.00  0.00    -0.264 N 
HETATM   13  O1  UNL     1      19.522  -9.410 -22.489  1.00  0.00    -0.265 OA
HETATM   14  C10 UNL     1      22.617 -10.711 -23.358  1.00  0.00     0.332 A 
HETATM   15  O2  UNL     1      23.236 -11.115 -24.373  1.00  0.00    -0.246 OA
HETATM   16  C24 UNL     1      20.769  -9.995 -18.665  1.00  0.00     0.192 C 
ATOM     17  H12 UNL     1      20.009  -8.627 -20.091  1.00  0.00     0.161 HD
BRANCH  12  18
HETATM   18  C4  UNL     1      20.725 -10.233 -24.822  1.00  0.00     0.137 C 
BRANCH  18  19
HETATM   19  C3  UNL     1      20.987  -9.004 -25.621  1.00  0.00     0.020 C 
BRANCH  19  20
HETATM   20  C2  UNL     1      21.788  -9.439 -26.854  1.00  0.00    -0.003 C 
HETATM   21  C1  UNL     1      22.986  -8.529 -27.017  1.00  0.00     0.005 C 
ENDBRANCH  19  20
ENDBRANCH  18  19
ENDBRANCH  12  18
BRANCH  16  22
HETATM   22  C25 UNL     1      19.898 -11.234 -18.744  1.00  0.00     0.156 C 
HETATM   23  N10 UNL     1      20.094 -12.280 -18.056  1.00  0.00    -0.288 N 
ATOM     24  H10 UNL     1      20.872 -12.326 -17.398  1.00  0.00     0.188 HD
BRANCH  22  25
HETATM   25  O8  UNL     1      18.846 -11.141 -19.646  1.00  0.00    -0.347 OA
ATOM     26  H8  UNL     1      18.243 -10.427 -19.475  1.00  0.00     0.219 HD
ENDBRANCH  22  25
BRANCH  23  27
HETATM   27  N11 UNL     1      19.236 -13.365 -18.206  1.00  0.00    -0.343 N 
ATOM     28 2H11 UNL     1      18.837 -13.805 -17.377  1.00  0.00     0.176 HD
ATOM     29 1H11 UNL     1      19.020 -13.704 -19.143  1.00  0.00     0.176 HD
ENDBRANCH  23  27
ENDBRANCH  16  22
BRANCH   9  30
HETATM   30  C8  UNL     1      24.611 -11.249 -22.042  1.00  0.00     0.130 C 
HETATM   31  C9  UNL     1      24.546 -12.717 -22.391  1.00  0.00     0.027 C 
ENDBRANCH   9  30
ENDBRANCH   1   5
BRANCH   1  32
HETATM   32  C13 UNL     1      24.023  -9.229 -17.241  1.00  0.00     0.191 A 
HETATM   33  C14 UNL     1      24.191  -7.738 -16.958  1.00  0.00     0.211 A 
HETATM   34  C15 UNL     1      25.102  -8.827 -16.398  1.00  0.00     0.277 A 
BRANCH  33  35
HETATM   35  O5  UNL     1      23.300  -7.055 -16.212  1.00  0.00    -0.388 OA
ATOM     36  H5  UNL     1      23.488  -6.183 -15.884  1.00  0.00     0.210 HD
ENDBRANCH  33  35
BRANCH  34  37
HETATM   37  O6  UNL     1      26.403  -8.877 -17.042  1.00  0.00    -0.361 OA
ATOM     38  H6  UNL     1      26.490  -8.288 -17.782  1.00  0.00     0.212 HD
ENDBRANCH  34  37
BRANCH  34  39
HETATM   39  N4  UNL     1      25.279  -8.790 -14.992  1.00  0.00    -0.020 N 
ATOM     40  H42 UNL     1      25.801  -7.961 -14.710  1.00  0.00     0.282 HD
ATOM     41  H41 UNL     1      24.397  -8.600 -14.517  1.00  0.00     0.282 HD
BRANCH  39  42
HETATM   42  C16 UNL     1      25.911 -10.018 -14.467  1.00  0.00     0.212 C 
HETATM   43  C18 UNL     1      24.757 -11.042 -14.497  1.00  0.00     0.052 C 
HETATM   44  C19 UNL     1      25.192 -12.327 -13.816  1.00  0.00     0.044 C 
HETATM   45  C20 UNL     1      25.668 -12.015 -12.409  1.00  0.00     0.254 C 
HETATM   46  N9  UNL     1      26.819 -11.118 -12.521  1.00  0.00    -0.061 N 
HETATM   47  C23 UNL     1      26.310  -9.834 -13.035  1.00  0.00     0.280 C 
ATOM     48  H92 UNL     1      27.342 -11.024 -11.650  1.00  0.00     0.278 HD
ATOM     49  H91 UNL     1      27.576 -11.505 -13.084  1.00  0.00     0.278 HD
BRANCH  42  50
HETATM   50  C17 UNL     1      26.968 -10.550 -15.303  1.00  0.00     0.148 A 
HETATM   51  N5  UNL     1      28.276 -10.169 -15.406  1.00  0.00    -0.273 N 
HETATM   52  N6  UNL     1      28.917 -10.913 -16.277  1.00  0.00    -0.225 N 
ATOM     53  H5  UNL     1      28.699  -9.408 -14.875  1.00  0.00     0.189 HD
HETATM   54  N7  UNL     1      28.033 -11.790 -16.754  1.00  0.00    -0.005 NA
ATOM     55  H6  UNL     1      29.900 -10.836 -16.539  1.00  0.00     0.205 HD
HETATM   56  N8  UNL     1      26.861 -11.571 -16.169  1.00  0.00    -0.268 N 
ATOM     57  H8  UNL     1      26.007 -12.099 -16.351  1.00  0.00     0.185 HD
ENDBRANCH  42  50
BRANCH  45  58
HETATM   58  C21 UNL     1      26.069 -13.255 -11.737  1.00  0.00     0.153 C 
HETATM   59  C22 UNL     1      27.444 -13.479 -11.191  1.00  0.00     0.093 C 
HETATM   60  O7  UNL     1      25.230 -14.153 -11.617  1.00  0.00    -0.296 OA
ENDBRANCH  45  58
ENDBRANCH  39  42
ENDBRANCH  34  39
ENDBRANCH   1  32
TORSDOF 15
ENDMDL
