MODEL 1
REMARK VINA RESULT: -8.301752445      0.000      0.000
REMARK  7 active torsions:
REMARK  status: ('A' for Active; 'I' for Inactive)
REMARK    1  A    between atoms: C5_5  and  O1_6 
REMARK    2  A    between atoms: O1_6  and  C6_7 
REMARK       I    between atoms: C6_7  and  N1_9 
REMARK    3  A    between atoms: N1_9  and  C7_11 
REMARK    4  A    between atoms: C7_11  and  C9_13 
REMARK    5  A    between atoms: N2_16  and  C12_17 
REMARK    6  A    between atoms: C12_17  and  O3_18 
REMARK    7  A    between atoms: C12_17  and  C13_20 
ROOT
HETATM    1  C7  UNL     1     -15.856   4.837  10.392  1.00  0.00     0.086 C 
HETATM    2  C8  UNL     1     -15.784   6.130   9.630  1.00  0.00     0.032 C 
ENDROOT
BRANCH   1   3
HETATM    3  N1  UNL     1     -15.216   3.820   9.591  1.00  0.00    -0.332 N 
HETATM    4  C6  UNL     1     -14.171   3.027  10.088  1.00  0.00     0.361 C 
HETATM    5  O2  UNL     1     -13.780   3.213  11.271  1.00  0.00    -0.238 OA
ATOM      6  H1  UNL     1     -15.535   3.672   8.633  1.00  0.00     0.165 HD
BRANCH   4   7
HETATM    7  O1  UNL     1     -13.518   2.046   9.390  1.00  0.00    -0.299 OA
BRANCH   7   8
HETATM    8  C5  UNL     1     -12.403   2.225   8.587  1.00  0.00     0.133 C 
HETATM    9  C4  UNL     1     -11.183   1.750   9.366  1.00  0.00     0.033 C 
HETATM   10  C3  UNL     1     -10.031   1.685   8.417  1.00  0.00     0.007 C 
HETATM   11  C2  UNL     1      -9.785   3.031   7.775  1.00  0.00    -0.019 C 
HETATM   12  C1  UNL     1      -9.200   4.033   8.753  1.00  0.00     0.010 C 
HETATM   13  C19 UNL     1     -11.018   3.571   7.096  1.00  0.00     0.007 C 
HETATM   14  C18 UNL     1     -12.212   3.605   8.043  1.00  0.00     0.033 C 
ENDBRANCH   7   8
ENDBRANCH   4   7
ENDBRANCH   1   3
BRANCH   1  15
HETATM   15  C9  UNL     1     -17.275   4.437  10.715  1.00  0.00     0.011 C 
HETATM   16  C10 UNL     1     -17.714   4.866  12.073  1.00  0.00     0.026 C 
HETATM   17  C11 UNL     1     -18.989   4.155  12.433  1.00  0.00     0.125 C 
HETATM   18  N2  UNL     1     -19.794   4.020  11.178  1.00  0.00    -0.365 N 
HETATM   19  C16 UNL     1     -19.618   5.123  10.279  1.00  0.00     0.125 C 
HETATM   20  C17 UNL     1     -18.214   5.054   9.704  1.00  0.00     0.026 C 
BRANCH  18  21
HETATM   21  C12 UNL     1     -20.596   2.875  11.023  1.00  0.00     0.117 C 
BRANCH  21  22
HETATM   22  O3  UNL     1     -21.170   2.503  12.143  1.00  0.00    -0.349 OA
ATOM     23  H3  UNL     1     -20.888   1.643  12.432  1.00  0.00     0.219 HD
ENDBRANCH  21  22
BRANCH  21  24
HETATM   24  C13 UNL     1     -20.906   2.039   9.892  1.00  0.00     0.060 A 
HETATM   25  C14 UNL     1     -21.264   0.587  10.108  1.00  0.00     0.013 A 
HETATM   26  C15 UNL     1     -20.036   0.982   9.321  1.00  0.00     0.013 A 
ENDBRANCH  21  24
ENDBRANCH  18  21
ENDBRANCH   1  15
TORSDOF 7
ENDMDL
MODEL 2
REMARK VINA RESULT: -8.088224850      1.450      2.098
REMARK  7 active torsions:
REMARK  status: ('A' for Active; 'I' for Inactive)
REMARK    1  A    between atoms: C5_5  and  O1_6 
REMARK    2  A    between atoms: O1_6  and  C6_7 
REMARK       I    between atoms: C6_7  and  N1_9 
REMARK    3  A    between atoms: N1_9  and  C7_11 
REMARK    4  A    between atoms: C7_11  and  C9_13 
REMARK    5  A    between atoms: N2_16  and  C12_17 
REMARK    6  A    between atoms: C12_17  and  O3_18 
REMARK    7  A    between atoms: C12_17  and  C13_20 
ROOT
HETATM    1  C7  UNL     1     -17.294   4.799  11.051  1.00  0.00     0.086 C 
HETATM    2  C8  UNL     1     -17.698   6.194  11.437  1.00  0.00     0.032 C 
ENDROOT
BRANCH   1   3
HETATM    3  N1  UNL     1     -16.477   4.890   9.865  1.00  0.00    -0.332 N 
HETATM    4  C6  UNL     1     -15.148   4.443   9.837  1.00  0.00     0.361 C 
HETATM    5  O2  UNL     1     -14.654   3.949  10.886  1.00  0.00    -0.238 OA
ATOM      6  H1  UNL     1     -16.880   5.291   9.017  1.00  0.00     0.165 HD
BRANCH   4   7
HETATM    7  O1  UNL     1     -14.314   4.497   8.752  1.00  0.00    -0.299 OA
BRANCH   7   8
HETATM    8  C5  UNL     1     -13.007   4.042   8.709  1.00  0.00     0.133 C 
HETATM    9  C4  UNL     1     -12.117   5.211   8.307  1.00  0.00     0.033 C 
HETATM   10  C3  UNL     1     -10.697   4.802   8.523  1.00  0.00     0.007 C 
HETATM   11  C2  UNL     1     -10.367   3.559   7.728  1.00  0.00    -0.019 C 
HETATM   12  C1  UNL     1     -10.284   3.839   6.239  1.00  0.00     0.010 C 
HETATM   13  C19 UNL     1     -11.312   2.424   8.030  1.00  0.00     0.007 C 
HETATM   14  C18 UNL     1     -12.767   2.841   7.850  1.00  0.00     0.033 C 
ENDBRANCH   7   8
ENDBRANCH   4   7
ENDBRANCH   1   3
BRANCH   1  15
HETATM   15  C9  UNL     1     -18.484   3.903  10.805  1.00  0.00     0.011 C 
HETATM   16  C10 UNL     1     -19.580   4.092  11.797  1.00  0.00     0.026 C 
HETATM   17  C11 UNL     1     -20.559   2.956  11.681  1.00  0.00     0.125 C 
HETATM   18  N2  UNL     1     -20.648   2.590  10.232  1.00  0.00    -0.365 N 
HETATM   19  C16 UNL     1     -20.490   3.718   9.360  1.00  0.00     0.125 C 
HETATM   20  C17 UNL     1     -19.046   4.182   9.429  1.00  0.00     0.026 C 
BRANCH  18  21
HETATM   21  C12 UNL     1     -20.861   1.241   9.899  1.00  0.00     0.117 C 
BRANCH  21  22
HETATM   22  O3  UNL     1     -21.876   0.714  10.543  1.00  0.00    -0.349 OA
ATOM     23  H3  UNL     1     -22.427   0.178   9.985  1.00  0.00     0.219 HD
ENDBRANCH  21  22
BRANCH  21  24
HETATM   24  C13 UNL     1     -20.194   0.333   9.001  1.00  0.00     0.060 A 
HETATM   25  C14 UNL     1     -19.008  -0.465   9.489  1.00  0.00     0.013 A 
HETATM   26  C15 UNL     1     -18.867   0.543   8.372  1.00  0.00     0.013 A 
ENDBRANCH  21  24
ENDBRANCH  18  21
ENDBRANCH   1  15
TORSDOF 7
ENDMDL
MODEL 3
REMARK VINA RESULT: -8.077404569      1.623      2.258
REMARK  7 active torsions:
REMARK  status: ('A' for Active; 'I' for Inactive)
REMARK    1  A    between atoms: C5_5  and  O1_6 
REMARK    2  A    between atoms: O1_6  and  C6_7 
REMARK       I    between atoms: C6_7  and  N1_9 
REMARK    3  A    between atoms: N1_9  and  C7_11 
REMARK    4  A    between atoms: C7_11  and  C9_13 
REMARK    5  A    between atoms: N2_16  and  C12_17 
REMARK    6  A    between atoms: C12_17  and  O3_18 
REMARK    7  A    between atoms: C12_17  and  C13_20 
ROOT
HETATM    1  C7  UNL     1     -17.237   4.851  10.811  1.00  0.00     0.086 C 
HETATM    2  C8  UNL     1     -17.625   6.196  11.358  1.00  0.00     0.032 C 
ENDROOT
BRANCH   1   3
HETATM    3  N1  UNL     1     -16.570   5.066   9.549  1.00  0.00    -0.332 N 
HETATM    4  C6  UNL     1     -15.187   5.288   9.463  1.00  0.00     0.361 C 
HETATM    5  O2  UNL     1     -14.510   5.300  10.525  1.00  0.00    -0.238 OA
ATOM      6  H1  UNL     1     -17.122   5.057   8.690  1.00  0.00     0.165 HD
BRANCH   4   7
HETATM    7  O1  UNL     1     -14.487   5.498   8.306  1.00  0.00    -0.299 OA
BRANCH   7   8
HETATM    8  C5  UNL     1     -13.428   4.733   7.846  1.00  0.00     0.133 C 
HETATM    9  C4  UNL     1     -13.800   3.266   8.020  1.00  0.00     0.033 C 
HETATM   10  C3  UNL     1     -12.792   2.447   7.283  1.00  0.00     0.007 C 
HETATM   11  C2  UNL     1     -11.396   2.725   7.793  1.00  0.00    -0.019 C 
HETATM   12  C1  UNL     1     -11.168   2.149   9.178  1.00  0.00     0.010 C 
HETATM   13  C19 UNL     1     -11.052   4.192   7.735  1.00  0.00     0.007 C 
HETATM   14  C18 UNL     1     -12.095   5.042   8.450  1.00  0.00     0.033 C 
ENDBRANCH   7   8
ENDBRANCH   4   7
ENDBRANCH   1   3
BRANCH   1  15
HETATM   15  C9  UNL     1     -18.426   3.939  10.629  1.00  0.00     0.011 C 
HETATM   16  C10 UNL     1     -19.464   4.106  11.686  1.00  0.00     0.026 C 
HETATM   17  C11 UNL     1     -20.431   2.956  11.621  1.00  0.00     0.125 C 
HETATM   18  N2  UNL     1     -20.601   2.597  10.177  1.00  0.00    -0.365 N 
HETATM   19  C16 UNL     1     -20.512   3.732   9.305  1.00  0.00     0.125 C 
HETATM   20  C17 UNL     1     -19.073   4.217   9.292  1.00  0.00     0.026 C 
BRANCH  18  21
HETATM   21  C12 UNL     1     -20.814   1.247   9.849  1.00  0.00     0.117 C 
BRANCH  21  22
HETATM   22  O3  UNL     1     -21.842   0.728  10.479  1.00  0.00    -0.349 OA
ATOM     23  H3  UNL     1     -22.384   0.189   9.914  1.00  0.00     0.219 HD
ENDBRANCH  21  22
BRANCH  21  24
HETATM   24  C13 UNL     1     -20.134   0.331   8.969  1.00  0.00     0.060 A 
HETATM   25  C14 UNL     1     -18.944  -0.450   9.475  1.00  0.00     0.013 A 
HETATM   26  C15 UNL     1     -18.806   0.542   8.343  1.00  0.00     0.013 A 
ENDBRANCH  21  24
ENDBRANCH  18  21
ENDBRANCH   1  15
TORSDOF 7
ENDMDL
MODEL 4
REMARK VINA RESULT: -8.060571715      0.714      1.251
REMARK  7 active torsions:
REMARK  status: ('A' for Active; 'I' for Inactive)
REMARK    1  A    between atoms: C5_5  and  O1_6 
REMARK    2  A    between atoms: O1_6  and  C6_7 
REMARK       I    between atoms: C6_7  and  N1_9 
REMARK    3  A    between atoms: N1_9  and  C7_11 
REMARK    4  A    between atoms: C7_11  and  C9_13 
REMARK    5  A    between atoms: N2_16  and  C12_17 
REMARK    6  A    between atoms: C12_17  and  O3_18 
REMARK    7  A    between atoms: C12_17  and  C13_20 
ROOT
HETATM    1  C7  UNL     1     -16.291   5.130  10.565  1.00  0.00     0.086 C 
HETATM    2  C8  UNL     1     -16.372   6.521  10.002  1.00  0.00     0.032 C 
ENDROOT
BRANCH   1   3
HETATM    3  N1  UNL     1     -15.506   4.332   9.653  1.00  0.00    -0.332 N 
HETATM    4  C6  UNL     1     -14.442   3.528  10.089  1.00  0.00     0.361 C 
HETATM    5  O2  UNL     1     -14.166   3.505  11.318  1.00  0.00    -0.238 OA
ATOM      6  H1  UNL     1     -15.732   4.354   8.658  1.00  0.00     0.165 HD
BRANCH   4   7
HETATM    7  O1  UNL     1     -13.656   2.747   9.285  1.00  0.00    -0.299 OA
BRANCH   7   8
HETATM    8  C5  UNL     1     -12.296   2.908   9.075  1.00  0.00     0.133 C 
HETATM    9  C4  UNL     1     -12.067   4.314   8.537  1.00  0.00     0.033 C 
HETATM   10  C3  UNL     1     -10.599   4.584   8.570  1.00  0.00     0.007 C 
HETATM   11  C2  UNL     1      -9.844   3.556   7.759  1.00  0.00    -0.019 C 
HETATM   12  C1  UNL     1     -10.060   3.731   6.268  1.00  0.00     0.010 C 
HETATM   13  C19 UNL     1     -10.148   2.147   8.205  1.00  0.00     0.007 C 
HETATM   14  C18 UNL     1     -11.647   1.872   8.214  1.00  0.00     0.033 C 
ENDBRANCH   7   8
ENDBRANCH   4   7
ENDBRANCH   1   3
BRANCH   1  15
HETATM   15  C9  UNL     1     -17.653   4.511  10.767  1.00  0.00     0.011 C 
HETATM   16  C10 UNL     1     -18.236   4.797  12.109  1.00  0.00     0.026 C 
HETATM   17  C11 UNL     1     -19.412   3.889  12.345  1.00  0.00     0.125 C 
HETATM   18  N2  UNL     1     -20.106   3.708  11.030  1.00  0.00    -0.365 N 
HETATM   19  C16 UNL     1     -20.038   4.872  10.196  1.00  0.00     0.125 C 
HETATM   20  C17 UNL     1     -18.606   5.040   9.720  1.00  0.00     0.026 C 
BRANCH  18  21
HETATM   21  C12 UNL     1     -20.717   2.468  10.767  1.00  0.00     0.117 C 
BRANCH  21  22
HETATM   22  O3  UNL     1     -21.365   1.993  11.804  1.00  0.00    -0.349 OA
ATOM     23  H3  UNL     1     -21.340   1.044  11.849  1.00  0.00     0.219 HD
ENDBRANCH  21  22
BRANCH  21  24
HETATM   24  C13 UNL     1     -20.769   1.628   9.599  1.00  0.00     0.060 A 
HETATM   25  C14 UNL     1     -20.820   0.126   9.757  1.00  0.00     0.013 A 
HETATM   26  C15 UNL     1     -19.659   0.802   9.065  1.00  0.00     0.013 A 
ENDBRANCH  21  24
ENDBRANCH  18  21
ENDBRANCH   1  15
TORSDOF 7
ENDMDL
MODEL 5
REMARK VINA RESULT: -7.987404491      2.442      3.085
REMARK  7 active torsions:
REMARK  status: ('A' for Active; 'I' for Inactive)
REMARK    1  A    between atoms: C5_5  and  O1_6 
REMARK    2  A    between atoms: O1_6  and  C6_7 
REMARK       I    between atoms: C6_7  and  N1_9 
REMARK    3  A    between atoms: N1_9  and  C7_11 
REMARK    4  A    between atoms: C7_11  and  C9_13 
REMARK    5  A    between atoms: N2_16  and  C12_17 
REMARK    6  A    between atoms: C12_17  and  O3_18 
REMARK    7  A    between atoms: C12_17  and  C13_20 
ROOT
HETATM    1  C7  UNL     1     -17.351   4.822  11.186  1.00  0.00     0.086 C 
HETATM    2  C8  UNL     1     -17.792   6.188  11.631  1.00  0.00     0.032 C 
ENDROOT
BRANCH   1   3
HETATM    3  N1  UNL     1     -16.519   4.988  10.018  1.00  0.00    -0.332 N 
HETATM    4  C6  UNL     1     -15.221   4.459   9.944  1.00  0.00     0.361 C 
HETATM    5  O2  UNL     1     -14.771   3.820  10.932  1.00  0.00    -0.238 OA
ATOM      6  H1  UNL     1     -16.886   5.507   9.220  1.00  0.00     0.165 HD
BRANCH   4   7
HETATM    7  O1  UNL     1     -14.376   4.576   8.873  1.00  0.00    -0.299 OA
BRANCH   7   8
HETATM    8  C5  UNL     1     -13.977   5.762   8.279  1.00  0.00     0.133 C 
HETATM    9  C4  UNL     1     -13.098   5.415   7.084  1.00  0.00     0.033 C 
HETATM   10  C3  UNL     1     -12.893   6.662   6.288  1.00  0.00     0.007 C 
HETATM   11  C2  UNL     1     -12.266   7.745   7.136  1.00  0.00    -0.019 C 
HETATM   12  C1  UNL     1     -10.812   7.453   7.454  1.00  0.00     0.010 C 
HETATM   13  C19 UNL     1     -13.064   8.022   8.385  1.00  0.00     0.007 C 
HETATM   14  C18 UNL     1     -13.315   6.749   9.186  1.00  0.00     0.033 C 
ENDBRANCH   7   8
ENDBRANCH   4   7
ENDBRANCH   1   3
BRANCH   1  15
HETATM   15  C9  UNL     1     -18.516   3.913  10.878  1.00  0.00     0.011 C 
HETATM   16  C10 UNL     1     -19.655   4.073  11.826  1.00  0.00     0.026 C 
HETATM   17  C11 UNL     1     -20.611   2.924  11.653  1.00  0.00     0.125 C 
HETATM   18  N2  UNL     1     -20.634   2.577  10.197  1.00  0.00    -0.365 N 
HETATM   19  C16 UNL     1     -20.456   3.718   9.347  1.00  0.00     0.125 C 
HETATM   20  C17 UNL     1     -19.023   4.201   9.483  1.00  0.00     0.026 C 
BRANCH  18  21
HETATM   21  C12 UNL     1     -20.813   1.229   9.839  1.00  0.00     0.117 C 
BRANCH  21  22
HETATM   22  O3  UNL     1     -21.818   0.666  10.469  1.00  0.00    -0.349 OA
ATOM     23  H3  UNL     1     -22.135  -0.115  10.030  1.00  0.00     0.219 HD
ENDBRANCH  21  22
BRANCH  21  24
HETATM   24  C13 UNL     1     -20.120   0.354   8.929  1.00  0.00     0.060 A 
HETATM   25  C14 UNL     1     -18.959  -0.476   9.425  1.00  0.00     0.013 A 
HETATM   26  C15 UNL     1     -18.768   0.578   8.359  1.00  0.00     0.013 A 
ENDBRANCH  21  24
ENDBRANCH  18  21
ENDBRANCH   1  15
TORSDOF 7
ENDMDL
