MODEL 1
REMARK VINA RESULT: -8.064204704      0.000      0.000
REMARK  4 active torsions:
REMARK  status: ('A' for Active; 'I' for Inactive)
REMARK       I    between atoms: C1_2  and  N1_3 
REMARK    1  A    between atoms: C1_2  and  C8_12 
REMARK    2  A    between atoms: N1_3  and  C2_5 
REMARK    3  A    between atoms: C2_5  and  C3_6 
REMARK    4  A    between atoms: N2_15  and  C11_16 
ROOT
HETATM    1  C8  UNL     1     -17.925   6.205  11.124  1.00  0.00     0.081 C 
HETATM    2  C9  UNL     1     -17.545   5.710   9.739  1.00  0.00     0.044 C 
HETATM    3  C10 UNL     1     -16.514   4.605   9.848  1.00  0.00     0.273 C 
HETATM    4  N2  UNL     1     -15.326   4.994  10.582  1.00  0.00     0.093 N 
HETATM    5  C19 UNL     1     -15.422   6.300  11.150  1.00  0.00     0.273 C 
HETATM    6  C20 UNL     1     -16.722   6.301  11.982  1.00  0.00     0.044 C 
ENDROOT
BRANCH   1   7
HETATM    7  C1  UNL     1     -18.988   5.288  11.695  1.00  0.00     0.225 C 
HETATM    8  O1  UNL     1     -19.278   5.530  12.886  1.00  0.00    -0.273 OA
HETATM    9  N1  UNL     1     -19.580   4.271  10.945  1.00  0.00    -0.338 N 
ATOM     10  H1  UNL     1     -19.209   4.231   9.996  1.00  0.00     0.167 HD
BRANCH   9  11
HETATM   11  C2  UNL     1     -20.548   3.303  11.165  1.00  0.00     0.095 C 
BRANCH  11  12
HETATM   12  C3  UNL     1     -20.388   1.916  10.657  1.00  0.00     0.159 C 
HETATM   13  C4  UNL     1     -19.803   1.817   9.298  1.00  0.00     0.037 C 
HETATM   14  C5  UNL     1     -19.626   0.385   8.788  1.00  0.00     0.005 C 
HETATM   15  C6  UNL     1     -20.446  -0.523   9.643  1.00  0.00     0.026 C 
HETATM   16  C7  UNL     1     -21.765   0.179   9.912  1.00  0.00     0.168 C 
HETATM   17  O2  UNL     1     -21.603   1.210  10.811  1.00  0.00    -0.381 OA
ENDBRANCH  11  12
ENDBRANCH   9  11
ENDBRANCH   1   7
BRANCH   4  18
HETATM   18  C11 UNL     1     -14.167   4.734   9.809  1.00  0.00     0.223 C 
HETATM   19  C12 UNL     1     -13.119   5.791   9.775  1.00  0.00     0.036 C 
HETATM   20  C13 UNL     1     -12.457   5.815   8.408  1.00  0.00     0.002 C 
HETATM   21  C14 UNL     1     -11.306   4.868   8.278  1.00  0.00     0.000 C 
HETATM   22  C15 UNL     1     -11.707   3.525   7.681  1.00  0.00     0.000 C 
HETATM   23  C16 UNL     1     -11.860   2.527   8.813  1.00  0.00     0.000 C 
HETATM   24  C17 UNL     1     -13.355   2.486   9.137  1.00  0.00     0.002 C 
HETATM   25  C18 UNL     1     -13.552   3.433  10.316  1.00  0.00     0.036 C 
ENDBRANCH   4  18
TORSDOF 4
ENDMDL
MODEL 2
REMARK VINA RESULT: -8.036639614      1.757      2.476
REMARK  4 active torsions:
REMARK  status: ('A' for Active; 'I' for Inactive)
REMARK       I    between atoms: C1_2  and  N1_3 
REMARK    1  A    between atoms: C1_2  and  C8_12 
REMARK    2  A    between atoms: N1_3  and  C2_5 
REMARK    3  A    between atoms: C2_5  and  C3_6 
REMARK    4  A    between atoms: N2_15  and  C11_16 
ROOT
HETATM    1  C8  UNL     1     -15.834   5.056  10.865  1.00  0.00     0.081 C 
HETATM    2  C9  UNL     1     -15.071   6.116  10.088  1.00  0.00     0.044 C 
HETATM    3  C10 UNL     1     -14.801   5.631   8.678  1.00  0.00     0.273 C 
HETATM    4  N2  UNL     1     -14.091   4.368   8.628  1.00  0.00     0.093 N 
HETATM    5  C19 UNL     1     -13.895   3.785   9.916  1.00  0.00     0.273 C 
HETATM    6  C20 UNL     1     -15.295   3.710  10.560  1.00  0.00     0.044 C 
ENDROOT
BRANCH   1   7
HETATM    7  C1  UNL     1     -17.310   5.188  10.551  1.00  0.00     0.225 C 
HETATM    8  O1  UNL     1     -17.862   6.156  11.114  1.00  0.00    -0.273 OA
HETATM    9  N1  UNL     1     -17.977   4.299   9.705  1.00  0.00    -0.338 N 
ATOM     10  H1  UNL     1     -17.355   3.575   9.346  1.00  0.00     0.167 HD
BRANCH   9  11
HETATM   11  C2  UNL     1     -19.272   4.155   9.230  1.00  0.00     0.095 C 
BRANCH  11  12
HETATM   12  C3  UNL     1     -19.961   2.839   9.241  1.00  0.00     0.159 C 
HETATM   13  C4  UNL     1     -20.492   2.429  10.564  1.00  0.00     0.037 C 
HETATM   14  C5  UNL     1     -21.215   1.079  10.564  1.00  0.00     0.005 C 
HETATM   15  C6  UNL     1     -20.858   0.355   9.308  1.00  0.00     0.026 C 
HETATM   16  C7  UNL     1     -19.377   0.582   9.060  1.00  0.00     0.168 C 
HETATM   17  O2  UNL     1     -19.138   1.867   8.627  1.00  0.00    -0.381 OA
ENDBRANCH  11  12
ENDBRANCH   9  11
ENDBRANCH   1   7
BRANCH   4  18
HETATM   18  C11 UNL     1     -12.936   4.490   7.816  1.00  0.00     0.223 C 
HETATM   19  C12 UNL     1     -12.569   5.856   7.353  1.00  0.00     0.036 C 
HETATM   20  C13 UNL     1     -11.968   5.782   5.960  1.00  0.00     0.002 C 
HETATM   21  C14 UNL     1     -10.492   5.539   5.952  1.00  0.00     0.000 C 
HETATM   22  C15 UNL     1     -10.135   4.064   5.812  1.00  0.00     0.000 C 
HETATM   23  C16 UNL     1      -9.796   3.523   7.188  1.00  0.00     0.000 C 
HETATM   24  C17 UNL     1     -11.072   2.853   7.702  1.00  0.00     0.002 C 
HETATM   25  C18 UNL     1     -11.762   3.889   8.583  1.00  0.00     0.036 C 
ENDBRANCH   4  18
TORSDOF 4
ENDMDL
MODEL 3
REMARK VINA RESULT: -7.982671713      1.178      1.886
REMARK  4 active torsions:
REMARK  status: ('A' for Active; 'I' for Inactive)
REMARK       I    between atoms: C1_2  and  N1_3 
REMARK    1  A    between atoms: C1_2  and  C8_12 
REMARK    2  A    between atoms: N1_3  and  C2_5 
REMARK    3  A    between atoms: C2_5  and  C3_6 
REMARK    4  A    between atoms: N2_15  and  C11_16 
ROOT
HETATM    1  C8  UNL     1     -17.958   6.182  11.214  1.00  0.00     0.081 C 
HETATM    2  C9  UNL     1     -17.535   5.823   9.800  1.00  0.00     0.044 C 
HETATM    3  C10 UNL     1     -16.233   5.048   9.830  1.00  0.00     0.273 C 
HETATM    4  N2  UNL     1     -15.161   5.747  10.509  1.00  0.00     0.093 N 
HETATM    5  C19 UNL     1     -15.583   6.971  11.110  1.00  0.00     0.273 C 
HETATM    6  C20 UNL     1     -16.782   6.604  12.010  1.00  0.00     0.044 C 
ENDROOT
BRANCH   1   7
HETATM    7  C1  UNL     1     -18.690   5.002  11.820  1.00  0.00     0.225 C 
HETATM    8  O1  UNL     1     -18.295   4.695  12.964  1.00  0.00    -0.273 OA
HETATM    9  N1  UNL     1     -19.714   4.332  11.148  1.00  0.00    -0.338 N 
ATOM     10  H1  UNL     1     -19.889   4.730  10.226  1.00  0.00     0.167 HD
BRANCH   9  11
HETATM   11  C2  UNL     1     -20.552   3.261  11.419  1.00  0.00     0.095 C 
BRANCH  11  12
HETATM   12  C3  UNL     1     -20.361   1.941  10.767  1.00  0.00     0.159 C 
HETATM   13  C4  UNL     1     -19.791   2.001   9.399  1.00  0.00     0.037 C 
HETATM   14  C5  UNL     1     -19.582   0.636   8.740  1.00  0.00     0.005 C 
HETATM   15  C6  UNL     1     -20.365  -0.380   9.504  1.00  0.00     0.026 C 
HETATM   16  C7  UNL     1     -21.699   0.252   9.860  1.00  0.00     0.168 C 
HETATM   17  O2  UNL     1     -21.553   1.188  10.860  1.00  0.00    -0.381 OA
ENDBRANCH  11  12
ENDBRANCH   9  11
ENDBRANCH   1   7
BRANCH   4  18
HETATM   18  C11 UNL     1     -14.021   5.825   9.670  1.00  0.00     0.223 C 
HETATM   19  C12 UNL     1     -14.196   5.432   8.244  1.00  0.00     0.036 C 
HETATM   20  C13 UNL     1     -12.930   4.764   7.737  1.00  0.00     0.002 C 
HETATM   21  C14 UNL     1     -11.916   5.724   7.199  1.00  0.00     0.000 C 
HETATM   22  C15 UNL     1     -10.875   6.129   8.237  1.00  0.00     0.000 C 
HETATM   23  C16 UNL     1     -11.258   7.490   8.787  1.00  0.00     0.000 C 
HETATM   24  C17 UNL     1     -12.010   7.219  10.092  1.00  0.00     0.002 C 
HETATM   25  C18 UNL     1     -13.492   7.255   9.735  1.00  0.00     0.036 C 
ENDBRANCH   4  18
TORSDOF 4
ENDMDL
MODEL 4
REMARK VINA RESULT: -7.900114803      1.705      2.842
REMARK  4 active torsions:
REMARK  status: ('A' for Active; 'I' for Inactive)
REMARK       I    between atoms: C1_2  and  N1_3 
REMARK    1  A    between atoms: C1_2  and  C8_12 
REMARK    2  A    between atoms: N1_3  and  C2_5 
REMARK    3  A    between atoms: C2_5  and  C3_6 
REMARK    4  A    between atoms: N2_15  and  C11_16 
ROOT
HETATM    1  C8  UNL     1     -15.955   5.256  10.956  1.00  0.00     0.081 C 
HETATM    2  C9  UNL     1     -15.212   6.278  10.113  1.00  0.00     0.044 C 
HETATM    3  C10 UNL     1     -14.903   5.697   8.747  1.00  0.00     0.273 C 
HETATM    4  N2  UNL     1     -14.154   4.458   8.803  1.00  0.00     0.093 N 
HETATM    5  C19 UNL     1     -13.963   3.979  10.134  1.00  0.00     0.273 C 
HETATM    6  C20 UNL     1     -15.371   3.908  10.761  1.00  0.00     0.044 C 
ENDROOT
BRANCH   1   7
HETATM    7  C1  UNL     1     -17.429   5.317  10.611  1.00  0.00     0.225 C 
HETATM    8  O1  UNL     1     -18.059   6.197  11.235  1.00  0.00    -0.273 OA
HETATM    9  N1  UNL     1     -18.015   4.462   9.675  1.00  0.00    -0.338 N 
ATOM     10  H1  UNL     1     -17.338   3.812   9.276  1.00  0.00     0.167 HD
BRANCH   9  11
HETATM   11  C2  UNL     1     -19.285   4.274   9.152  1.00  0.00     0.095 C 
BRANCH  11  12
HETATM   12  C3  UNL     1     -19.984   2.968   9.260  1.00  0.00     0.159 C 
HETATM   13  C4  UNL     1     -20.423   2.610  10.631  1.00  0.00     0.037 C 
HETATM   14  C5  UNL     1     -21.156   1.270  10.731  1.00  0.00     0.005 C 
HETATM   15  C6  UNL     1     -20.897   0.498   9.479  1.00  0.00     0.026 C 
HETATM   16  C7  UNL     1     -19.436   0.699   9.118  1.00  0.00     0.168 C 
HETATM   17  O2  UNL     1     -19.217   1.966   8.623  1.00  0.00    -0.381 OA
ENDBRANCH  11  12
ENDBRANCH   9  11
ENDBRANCH   1   7
BRANCH   4  18
HETATM   18  C11 UNL     1     -12.990   4.554   8.002  1.00  0.00     0.223 C 
HETATM   19  C12 UNL     1     -12.614   3.357   7.199  1.00  0.00     0.036 C 
HETATM   20  C13 UNL     1     -11.101   3.248   7.117  1.00  0.00     0.002 C 
HETATM   21  C14 UNL     1     -10.501   4.020   5.984  1.00  0.00     0.000 C 
HETATM   22  C15 UNL     1     -10.035   5.411   6.396  1.00  0.00     0.000 C 
HETATM   23  C16 UNL     1     -11.092   6.412   5.969  1.00  0.00     0.000 C 
HETATM   24  C17 UNL     1     -11.954   6.666   7.207  1.00  0.00     0.002 C 
HETATM   25  C18 UNL     1     -13.164   5.748   7.069  1.00  0.00     0.036 C 
ENDBRANCH   4  18
TORSDOF 4
ENDMDL
MODEL 5
REMARK VINA RESULT: -7.798678138      3.592      8.138
REMARK  4 active torsions:
REMARK  status: ('A' for Active; 'I' for Inactive)
REMARK       I    between atoms: C1_2  and  N1_3 
REMARK    1  A    between atoms: C1_2  and  C8_12 
REMARK    2  A    between atoms: N1_3  and  C2_5 
REMARK    3  A    between atoms: C2_5  and  C3_6 
REMARK    4  A    between atoms: N2_15  and  C11_16 
ROOT
HETATM    1  C8  UNL     1     -13.344   5.647   9.647  1.00  0.00     0.081 C 
HETATM    2  C9  UNL     1     -13.855   4.462  10.449  1.00  0.00     0.044 C 
HETATM    3  C10 UNL     1     -15.208   4.025   9.925  1.00  0.00     0.273 C 
HETATM    4  N2  UNL     1     -16.195   5.087   9.920  1.00  0.00     0.093 N 
HETATM    5  C19 UNL     1     -15.657   6.353  10.301  1.00  0.00     0.273 C 
HETATM    6  C20 UNL     1     -14.449   6.593   9.370  1.00  0.00     0.044 C 
ENDROOT
BRANCH   1   7
HETATM    7  C1  UNL     1     -12.675   5.132   8.389  1.00  0.00     0.225 C 
HETATM    8  O1  UNL     1     -13.251   5.474   7.334  1.00  0.00    -0.273 OA
HETATM    9  N1  UNL     1     -11.519   4.351   8.422  1.00  0.00    -0.338 N 
ATOM     10  H1  UNL     1     -11.203   4.178   9.376  1.00  0.00     0.167 HD
BRANCH   9  11
HETATM   11  C2  UNL     1     -10.692   3.752   7.484  1.00  0.00     0.095 C 
BRANCH  11  12
HETATM   12  C3  UNL     1     -10.115   2.401   7.708  1.00  0.00     0.159 C 
HETATM   13  C4  UNL     1     -10.299   1.868   9.080  1.00  0.00     0.037 C 
HETATM   14  C5  UNL     1      -9.716   0.470   9.299  1.00  0.00     0.005 C 
HETATM   15  C6  UNL     1      -8.778   0.171   8.176  1.00  0.00     0.026 C 
HETATM   16  C7  UNL     1      -7.992   1.439   7.894  1.00  0.00     0.168 C 
HETATM   17  O2  UNL     1      -8.775   2.377   7.258  1.00  0.00    -0.381 OA
ENDBRANCH  11  12
ENDBRANCH   9  11
ENDBRANCH   1   7
BRANCH   4  18
HETATM   18  C11 UNL     1     -17.361   4.672  10.609  1.00  0.00     0.223 C 
HETATM   19  C12 UNL     1     -17.672   5.355  11.895  1.00  0.00     0.036 C 
HETATM   20  C13 UNL     1     -18.310   4.369  12.859  1.00  0.00     0.002 C 
HETATM   21  C14 UNL     1     -19.796   4.265  12.720  1.00  0.00     0.000 C 
HETATM   22  C15 UNL     1     -20.227   3.124  11.806  1.00  0.00     0.000 C 
HETATM   23  C16 UNL     1     -20.558   3.704  10.444  1.00  0.00     0.000 C 
HETATM   24  C17 UNL     1     -19.305   3.511   9.589  1.00  0.00     0.002 C 
HETATM   25  C18 UNL     1     -18.544   4.831   9.659  1.00  0.00     0.036 C 
ENDBRANCH   4  18
TORSDOF 4
ENDMDL
