MODEL 1
REMARK VINA RESULT: -6.247548015      0.000      0.000
REMARK  2 active torsions:
REMARK  status: ('A' for Active; 'I' for Inactive)
REMARK    1  A    between atoms: N1_3  and  C3_4 
REMARK    2  A    between atoms: N2_9  and  C7_11 
ROOT
HETATM    1  C1  UNL     1     -12.461  -4.868  12.122  1.00  0.00     0.137 C 
HETATM    2  C2  UNL     1     -11.209  -5.292  11.354  1.00  0.00     0.123 C 
HETATM    3  N1  UNL     1     -10.936  -6.703  11.469  1.00  0.00    -0.246 NA
HETATM    4  S1  UNL     1     -12.265  -7.566  10.688  1.00  0.00    -0.005 SA
HETATM    5  C6  UNL     1     -13.462  -6.269  10.287  1.00  0.00     0.151 C 
HETATM    6  N2  UNL     1     -14.104  -6.310   9.222  1.00  0.00    -0.365 N 
ATOM      7  H2  UNL     1     -13.884  -7.119   8.641  1.00  0.00     0.162 HD
HETATM    8  N3  UNL     1     -13.592  -5.244  11.254  1.00  0.00    -0.369 N 
ATOM      9  H3  UNL     1     -14.483  -4.758  11.353  1.00  0.00     0.161 HD
ENDROOT
BRANCH   6  10
HETATM   10  C7  UNL     1     -15.080  -5.456   8.662  1.00  0.00     0.091 C 
HETATM   11  C8  UNL     1     -16.025  -6.214   7.726  1.00  0.00     0.009 C 
HETATM   12  C9  UNL     1     -17.243  -5.351   7.538  1.00  0.00     0.011 C 
HETATM   13  C13 UNL     1     -15.377  -6.554   6.425  1.00  0.00     0.011 C 
HETATM   14  C10 UNL     1     -16.828  -4.052   6.904  1.00  0.00    -0.013 C 
HETATM   15  C11 UNL     1     -16.245  -4.367   5.545  1.00  0.00     0.009 C 
HETATM   16  C16 UNL     1     -15.770  -3.327   7.692  1.00  0.00     0.011 C 
HETATM   17  C12 UNL     1     -15.047  -5.257   5.719  1.00  0.00    -0.013 C 
HETATM   18  C14 UNL     1     -13.983  -4.581   6.561  1.00  0.00     0.011 C 
HETATM   19  C15 UNL     1     -14.580  -4.271   7.910  1.00  0.00     0.009 C 
ENDBRANCH   6  10
BRANCH   3  20
HETATM   20  C3  UNL     1     -10.630  -7.152  12.780  1.00  0.00     0.070 A 
HETATM   21  C4  UNL     1     -10.502  -8.542  13.202  1.00  0.00     0.022 A 
HETATM   22  C5  UNL     1      -9.231  -7.835  12.859  1.00  0.00     0.022 A 
ENDBRANCH   3  20
TORSDOF 2
ENDMDL
MODEL 2
REMARK VINA RESULT: -5.523982575      4.821      6.573
REMARK  2 active torsions:
REMARK  status: ('A' for Active; 'I' for Inactive)
REMARK    1  A    between atoms: N1_3  and  C3_4 
REMARK    2  A    between atoms: N2_9  and  C7_11 
ROOT
HETATM    1  C1  UNL     1     -14.695  -1.796  13.296  1.00  0.00     0.137 C 
HETATM    2  C2  UNL     1     -16.210  -1.589  13.279  1.00  0.00     0.123 C 
HETATM    3  N1  UNL     1     -16.585  -0.203  13.403  1.00  0.00    -0.246 NA
HETATM    4  S1  UNL     1     -15.993   0.638  11.967  1.00  0.00    -0.005 SA
HETATM    5  C6  UNL     1     -15.003  -0.606  11.100  1.00  0.00     0.151 C 
HETATM    6  N2  UNL     1     -15.018  -0.671   9.858  1.00  0.00    -0.365 N 
ATOM      7  H2  UNL     1     -15.622   0.024   9.418  1.00  0.00     0.162 HD
HETATM    8  N3  UNL     1     -14.245  -1.464  11.932  1.00  0.00    -0.369 N 
ATOM      9  H3  UNL     1     -13.372  -1.859  11.582  1.00  0.00     0.161 HD
ENDROOT
BRANCH   6  10
HETATM   10  C7  UNL     1     -14.362  -1.520   8.938  1.00  0.00     0.091 C 
HETATM   11  C8  UNL     1     -13.827  -0.740   7.733  1.00  0.00     0.009 C 
HETATM   12  C9  UNL     1     -12.804  -1.617   7.063  1.00  0.00     0.011 C 
HETATM   13  C13 UNL     1     -14.915  -0.337   6.795  1.00  0.00     0.011 C 
HETATM   14  C10 UNL     1     -13.472  -2.882   6.600  1.00  0.00    -0.013 C 
HETATM   15  C11 UNL     1     -14.523  -2.501   5.581  1.00  0.00     0.009 C 
HETATM   16  C16 UNL     1     -14.168  -3.619   7.712  1.00  0.00     0.011 C 
HETATM   17  C12 UNL     1     -15.533  -1.598   6.232  1.00  0.00    -0.013 C 
HETATM   18  C14 UNL     1     -16.211  -2.288   7.399  1.00  0.00     0.011 C 
HETATM   19  C15 UNL     1     -15.151  -2.664   8.402  1.00  0.00     0.009 C 
ENDBRANCH   6  10
BRANCH   3  20
HETATM   20  C3  UNL     1     -16.229   0.409  14.634  1.00  0.00     0.070 A 
HETATM   21  C4  UNL     1     -16.326   1.830  14.943  1.00  0.00     0.022 A 
HETATM   22  C5  UNL     1     -17.467   0.976  15.391  1.00  0.00     0.022 A 
ENDBRANCH   3  20
TORSDOF 2
ENDMDL
MODEL 3
REMARK VINA RESULT: -5.508152534      5.548      7.102
REMARK  2 active torsions:
REMARK  status: ('A' for Active; 'I' for Inactive)
REMARK    1  A    between atoms: N1_3  and  C3_4 
REMARK    2  A    between atoms: N2_9  and  C7_11 
ROOT
HETATM    1  C1  UNL     1     -14.008  -2.653   9.652  1.00  0.00     0.137 C 
HETATM    2  C2  UNL     1     -14.484  -3.980  10.241  1.00  0.00     0.123 C 
HETATM    3  N1  UNL     1     -13.660  -4.433  11.334  1.00  0.00    -0.246 NA
HETATM    4  S1  UNL     1     -13.830  -3.264  12.647  1.00  0.00    -0.005 SA
HETATM    5  C6  UNL     1     -14.808  -1.923  11.924  1.00  0.00     0.151 C 
HETATM    6  N2  UNL     1     -15.672  -1.336  12.600  1.00  0.00    -0.365 N 
ATOM      7  H2  UNL     1     -15.753  -1.686  13.554  1.00  0.00     0.162 HD
HETATM    8  N3  UNL     1     -14.513  -1.618  10.574  1.00  0.00    -0.369 N 
ATOM      9  H3  UNL     1     -14.651  -0.667  10.232  1.00  0.00     0.161 HD
ENDROOT
BRANCH   6  10
HETATM   10  C7  UNL     1     -16.562  -0.280  12.302  1.00  0.00     0.091 C 
HETATM   11  C8  UNL     1     -15.911   1.088  12.526  1.00  0.00     0.009 C 
HETATM   12  C9  UNL     1     -16.748   2.098  11.789  1.00  0.00     0.011 C 
HETATM   13  C13 UNL     1     -15.783   1.420  13.975  1.00  0.00     0.011 C 
HETATM   14  C10 UNL     1     -18.138   2.093  12.363  1.00  0.00    -0.013 C 
HETATM   15  C11 UNL     1     -18.040   2.511  13.813  1.00  0.00     0.009 C 
HETATM   16  C16 UNL     1     -18.780   0.733  12.328  1.00  0.00     0.011 C 
HETATM   17  C12 UNL     1     -17.179   1.526  14.551  1.00  0.00    -0.013 C 
HETATM   18  C14 UNL     1     -17.766   0.130  14.484  1.00  0.00     0.011 C 
HETATM   19  C15 UNL     1     -17.859  -0.270  13.034  1.00  0.00     0.009 C 
ENDBRANCH   6  10
BRANCH   3  20
HETATM   20  C3  UNL     1     -12.318  -4.742  10.988  1.00  0.00     0.070 A 
HETATM   21  C4  UNL     1     -11.304  -5.278  11.888  1.00  0.00     0.022 A 
HETATM   22  C5  UNL     1     -12.032  -6.273  11.043  1.00  0.00     0.022 A 
ENDBRANCH   3  20
TORSDOF 2
ENDMDL
MODEL 4
REMARK VINA RESULT: -5.454066902      2.036      2.639
REMARK  2 active torsions:
REMARK  status: ('A' for Active; 'I' for Inactive)
REMARK    1  A    between atoms: N1_3  and  C3_4 
REMARK    2  A    between atoms: N2_9  and  C7_11 
ROOT
HETATM    1  C1  UNL     1     -13.011  -4.780  11.887  1.00  0.00     0.137 C 
HETATM    2  C2  UNL     1     -11.797  -5.262  11.094  1.00  0.00     0.123 C 
HETATM    3  N1  UNL     1     -11.942  -6.614  10.617  1.00  0.00    -0.246 NA
HETATM    4  S1  UNL     1     -13.279  -6.629   9.462  1.00  0.00    -0.005 SA
HETATM    5  C6  UNL     1     -13.980  -4.964   9.572  1.00  0.00     0.151 C 
HETATM    6  N2  UNL     1     -14.391  -4.383   8.552  1.00  0.00    -0.365 N 
ATOM      7  H2  UNL     1     -14.290  -4.933   7.698  1.00  0.00     0.162 HD
HETATM    8  N3  UNL     1     -14.012  -4.405  10.872  1.00  0.00    -0.369 N 
ATOM      9  H3  UNL     1     -14.740  -3.732  11.111  1.00  0.00     0.161 HD
ENDROOT
BRANCH   6  10
HETATM   10  C7  UNL     1     -14.972  -3.112   8.345  1.00  0.00     0.091 C 
HETATM   11  C8  UNL     1     -15.612  -3.002   6.958  1.00  0.00     0.009 C 
HETATM   12  C9  UNL     1     -16.550  -1.826   6.999  1.00  0.00     0.011 C 
HETATM   13  C13 UNL     1     -14.593  -2.865   5.876  1.00  0.00     0.011 C 
HETATM   14  C10 UNL     1     -15.760  -0.582   7.299  1.00  0.00    -0.013 C 
HETATM   15  C11 UNL     1     -14.776  -0.376   6.169  1.00  0.00     0.009 C 
HETATM   16  C16 UNL     1     -14.967  -0.684   8.574  1.00  0.00     0.011 C 
HETATM   17  C12 UNL     1     -13.856  -1.562   6.098  1.00  0.00    -0.013 C 
HETATM   18  C14 UNL     1     -13.084  -1.732   7.391  1.00  0.00     0.011 C 
HETATM   19  C15 UNL     1     -14.077  -1.932   8.507  1.00  0.00     0.009 C 
ENDBRANCH   6  10
BRANCH   3  20
HETATM   20  C3  UNL     1     -12.028  -7.604  11.632  1.00  0.00     0.070 A 
HETATM   21  C4  UNL     1     -11.557  -8.980  11.528  1.00  0.00     0.022 A 
HETATM   22  C5  UNL     1     -10.628  -8.009  12.181  1.00  0.00     0.022 A 
ENDBRANCH   3  20
TORSDOF 2
ENDMDL
MODEL 5
REMARK VINA RESULT: -5.428082580      4.620      7.330
REMARK  2 active torsions:
REMARK  status: ('A' for Active; 'I' for Inactive)
REMARK    1  A    between atoms: N1_3  and  C3_4 
REMARK    2  A    between atoms: N2_9  and  C7_11 
ROOT
HETATM    1  C1  UNL     1     -18.674 -10.289   4.477  1.00  0.00     0.137 C 
HETATM    2  C2  UNL     1     -18.193 -11.344   5.474  1.00  0.00     0.123 C 
HETATM    3  N1  UNL     1     -17.000 -12.023   5.035  1.00  0.00    -0.246 NA
HETATM    4  S1  UNL     1     -15.701 -10.828   4.973  1.00  0.00    -0.005 SA
HETATM    5  C6  UNL     1     -16.532  -9.252   5.294  1.00  0.00     0.151 C 
HETATM    6  N2  UNL     1     -15.980  -8.377   5.985  1.00  0.00    -0.365 N 
ATOM      7  H2  UNL     1     -15.057  -8.644   6.325  1.00  0.00     0.162 HD
HETATM    8  N3  UNL     1     -17.816  -9.115   4.714  1.00  0.00    -0.369 N 
ATOM      9  H3  UNL     1     -18.153  -8.187   4.455  1.00  0.00     0.161 HD
ENDROOT
BRANCH   6  10
HETATM   10  C7  UNL     1     -16.384  -7.085   6.390  1.00  0.00     0.091 C 
HETATM   11  C8  UNL     1     -16.041  -6.029   5.334  1.00  0.00     0.009 C 
HETATM   12  C9  UNL     1     -16.871  -4.813   5.643  1.00  0.00     0.011 C 
HETATM   13  C13 UNL     1     -14.582  -5.715   5.306  1.00  0.00     0.011 C 
HETATM   14  C10 UNL     1     -16.507  -4.307   7.011  1.00  0.00    -0.013 C 
HETATM   15  C11 UNL     1     -15.051  -3.901   6.980  1.00  0.00     0.009 C 
HETATM   16  C16 UNL     1     -16.662  -5.352   8.083  1.00  0.00     0.011 C 
HETATM   17  C12 UNL     1     -14.214  -5.102   6.640  1.00  0.00    -0.013 C 
HETATM   18  C14 UNL     1     -14.393  -6.201   7.669  1.00  0.00     0.011 C 
HETATM   19  C15 UNL     1     -15.848  -6.591   7.689  1.00  0.00     0.009 C 
ENDBRANCH   6  10
BRANCH   3  20
HETATM   20  C3  UNL     1     -17.148 -12.797   3.854  1.00  0.00     0.070 A 
HETATM   21  C4  UNL     1     -16.064 -13.369   3.064  1.00  0.00     0.022 A 
HETATM   22  C5  UNL     1     -16.709 -14.278   4.059  1.00  0.00     0.022 A 
ENDBRANCH   3  20
TORSDOF 2
ENDMDL
