MODEL 1
REMARK VINA RESULT: -6.113386063      0.000      0.000
REMARK  4 active torsions:
REMARK  status: ('A' for Active; 'I' for Inactive)
REMARK    1  A    between atoms: N1_2  and  C2_4 
REMARK    2  A    between atoms: C2_4  and  C5_7 
REMARK    3  A    between atoms: C6_8  and  C7_9 
REMARK    4  A    between atoms: N2_14  and  C12_15 
ROOT
HETATM    1  C7  UNL     1     -15.786  -5.914   6.482  1.00  0.00     0.204 C 
HETATM    2  C8  UNL     1     -14.447  -5.781   7.164  1.00  0.00     0.083 C 
HETATM    3  C9  UNL     1     -15.317  -5.227   8.246  1.00  0.00     0.071 C 
HETATM    4  C10 UNL     1     -15.491  -3.742   8.223  1.00  0.00     0.082 C 
HETATM    5  C11 UNL     1     -14.394  -3.022   9.004  1.00  0.00     0.061 C 
HETATM    6  N2  UNL     1     -14.179  -3.632  10.246  1.00  0.00    -0.389 N 
HETATM    7  C17 UNL     1     -13.817  -5.009  10.176  1.00  0.00     0.125 C 
HETATM    8  C18 UNL     1     -15.031  -5.755   9.637  1.00  0.00     0.058 C 
HETATM    9  O1  UNL     1     -16.413  -5.872   7.700  1.00  0.00    -0.362 OA
ENDROOT
BRANCH   1  10
HETATM   10  C6  UNL     1     -15.999  -7.247   5.871  1.00  0.00    -0.072 C 
HETATM   11  C5  UNL     1     -16.185  -8.320   5.355  1.00  0.00    -0.073 C 
BRANCH  11  12
HETATM   12  C2  UNL     1     -16.437  -9.634   4.710  1.00  0.00     0.082 C 
HETATM   13  C3  UNL     1     -17.550 -10.369   5.394  1.00  0.00     0.052 C 
HETATM   14  C4  UNL     1     -16.830  -9.335   3.285  1.00  0.00     0.052 C 
BRANCH  12  15
HETATM   15  N1  UNL     1     -15.232 -10.392   4.813  1.00  0.00    -0.408 N 
HETATM   16  C1  UNL     1     -15.404 -11.809   4.870  1.00  0.00     0.141 C 
ATOM     17  H1  UNL     1     -14.312  -9.952   4.843  1.00  0.00     0.154 HD
ENDBRANCH  12  15
ENDBRANCH  11  12
ENDBRANCH   1  10
BRANCH   6  18
HETATM   18  C12 UNL     1     -13.805  -2.892  11.369  1.00  0.00     0.083 C 
HETATM   19  C13 UNL     1     -14.421  -1.517  11.471  1.00  0.00     0.025 C 
HETATM   20  C14 UNL     1     -15.444  -1.606  12.591  1.00  0.00     0.002 C 
HETATM   21  C15 UNL     1     -14.713  -2.488  13.579  1.00  0.00     0.002 C 
HETATM   22  C16 UNL     1     -14.104  -3.546  12.682  1.00  0.00     0.025 C 
ENDBRANCH   6  18
TORSDOF 4
ENDMDL
MODEL 2
REMARK VINA RESULT: -6.093703697      4.773     10.448
REMARK  4 active torsions:
REMARK  status: ('A' for Active; 'I' for Inactive)
REMARK    1  A    between atoms: N1_2  and  C2_4 
REMARK    2  A    between atoms: C2_4  and  C5_7 
REMARK    3  A    between atoms: C6_8  and  C7_9 
REMARK    4  A    between atoms: N2_14  and  C12_15 
ROOT
HETATM    1  C7  UNL     1     -16.375   0.440  13.532  1.00  0.00     0.204 C 
HETATM    2  C8  UNL     1     -16.643  -0.998  13.165  1.00  0.00     0.083 C 
HETATM    3  C9  UNL     1     -15.171  -0.962  12.908  1.00  0.00     0.071 C 
HETATM    4  C10 UNL     1     -14.780  -0.639  11.501  1.00  0.00     0.082 C 
HETATM    5  C11 UNL     1     -14.705  -1.888  10.625  1.00  0.00     0.061 C 
HETATM    6  N2  UNL     1     -14.010  -2.916  11.274  1.00  0.00    -0.389 N 
HETATM    7  C17 UNL     1     -14.565  -3.309  12.526  1.00  0.00     0.125 C 
HETATM    8  C18 UNL     1     -14.389  -2.129  13.474  1.00  0.00     0.058 C 
HETATM    9  O1  UNL     1     -15.052   0.145  13.731  1.00  0.00    -0.362 OA
ENDROOT
BRANCH   1  10
HETATM   10  C6  UNL     1     -16.985   0.836  14.824  1.00  0.00    -0.072 C 
HETATM   11  C5  UNL     1     -17.493   1.135  15.875  1.00  0.00    -0.073 C 
BRANCH  11  12
HETATM   12  C2  UNL     1     -18.143   1.494  17.162  1.00  0.00     0.082 C 
HETATM   13  C3  UNL     1     -17.159   2.099  18.116  1.00  0.00     0.052 C 
HETATM   14  C4  UNL     1     -19.210   2.506  16.826  1.00  0.00     0.052 C 
BRANCH  12  15
HETATM   15  N1  UNL     1     -18.668   0.289  17.718  1.00  0.00    -0.408 N 
HETATM   16  C1  UNL     1     -17.692  -0.675  18.117  1.00  0.00     0.141 C 
ATOM     17  H1  UNL     1     -19.669   0.127  17.823  1.00  0.00     0.154 HD
ENDBRANCH  12  15
ENDBRANCH  11  12
ENDBRANCH   1  10
BRANCH   6  18
HETATM   18  C12 UNL     1     -13.227  -3.830  10.565  1.00  0.00     0.083 C 
HETATM   19  C13 UNL     1     -12.657  -4.962  11.385  1.00  0.00     0.025 C 
HETATM   20  C14 UNL     1     -13.437  -6.200  10.976  1.00  0.00     0.002 C 
HETATM   21  C15 UNL     1     -13.582  -5.970   9.488  1.00  0.00     0.002 C 
HETATM   22  C16 UNL     1     -13.920  -4.495   9.418  1.00  0.00     0.025 C 
ENDBRANCH   6  18
TORSDOF 4
ENDMDL
MODEL 3
REMARK VINA RESULT: -6.073106570      3.687      5.186
REMARK  4 active torsions:
REMARK  status: ('A' for Active; 'I' for Inactive)
REMARK    1  A    between atoms: N1_2  and  C2_4 
REMARK    2  A    between atoms: C2_4  and  C5_7 
REMARK    3  A    between atoms: C6_8  and  C7_9 
REMARK    4  A    between atoms: N2_14  and  C12_15 
ROOT
HETATM    1  C7  UNL     1     -14.853  -4.897   9.345  1.00  0.00     0.204 C 
HETATM    2  C8  UNL     1     -13.459  -5.356   8.996  1.00  0.00     0.083 C 
HETATM    3  C9  UNL     1     -13.557  -5.928  10.373  1.00  0.00     0.071 C 
HETATM    4  C10 UNL     1     -13.032  -5.051  11.464  1.00  0.00     0.082 C 
HETATM    5  C11 UNL     1     -11.536  -5.253  11.696  1.00  0.00     0.061 C 
HETATM    6  N2  UNL     1     -11.216  -6.616  11.747  1.00  0.00    -0.389 N 
HETATM    7  C17 UNL     1     -11.568  -7.352  10.579  1.00  0.00     0.125 C 
HETATM    8  C18 UNL     1     -13.090  -7.363  10.509  1.00  0.00     0.058 C 
HETATM    9  O1  UNL     1     -14.938  -5.874  10.302  1.00  0.00    -0.362 OA
ENDROOT
BRANCH   1  10
HETATM   10  C6  UNL     1     -15.843  -5.175   8.276  1.00  0.00    -0.072 C 
HETATM   11  C5  UNL     1     -16.631  -5.393   7.392  1.00  0.00    -0.073 C 
BRANCH  11  12
HETATM   12  C2  UNL     1     -17.594  -5.640   6.288  1.00  0.00     0.082 C 
HETATM   13  C3  UNL     1     -17.257  -4.821   5.080  1.00  0.00     0.052 C 
HETATM   14  C4  UNL     1     -17.482  -7.106   5.952  1.00  0.00     0.052 C 
BRANCH  12  15
HETATM   15  N1  UNL     1     -18.887  -5.271   6.769  1.00  0.00    -0.408 N 
HETATM   16  C1  UNL     1     -19.238  -3.899   6.587  1.00  0.00     0.141 C 
ATOM     17  H1  UNL     1     -19.517  -5.941   7.210  1.00  0.00     0.154 HD
ENDBRANCH  12  15
ENDBRANCH  11  12
ENDBRANCH   1  10
BRANCH   6  18
HETATM   18  C12 UNL     1     -10.191  -7.096  12.564  1.00  0.00     0.083 C 
HETATM   19  C13 UNL     1     -10.084  -6.439  13.920  1.00  0.00     0.025 C 
HETATM   20  C14 UNL     1     -10.575  -7.473  14.919  1.00  0.00     0.002 C 
HETATM   21  C15 UNL     1      -9.989  -8.739  14.333  1.00  0.00     0.002 C 
HETATM   22  C16 UNL     1     -10.250  -8.563  12.851  1.00  0.00     0.025 C 
ENDBRANCH   6  18
TORSDOF 4
ENDMDL
MODEL 4
REMARK VINA RESULT: -5.990841718      4.051      7.985
REMARK  4 active torsions:
REMARK  status: ('A' for Active; 'I' for Inactive)
REMARK    1  A    between atoms: N1_2  and  C2_4 
REMARK    2  A    between atoms: C2_4  and  C5_7 
REMARK    3  A    between atoms: C6_8  and  C7_9 
REMARK    4  A    between atoms: N2_14  and  C12_15 
ROOT
HETATM    1  C7  UNL     1     -12.290  -8.023  11.027  1.00  0.00     0.204 C 
HETATM    2  C8  UNL     1     -12.139  -6.835  10.110  1.00  0.00     0.083 C 
HETATM    3  C9  UNL     1     -13.631  -6.868  10.207  1.00  0.00     0.071 C 
HETATM    4  C10 UNL     1     -14.320  -7.652   9.136  1.00  0.00     0.082 C 
HETATM    5  C11 UNL     1     -14.614  -6.804   7.901  1.00  0.00     0.061 C 
HETATM    6  N2  UNL     1     -15.166  -5.568   8.260  1.00  0.00    -0.389 N 
HETATM    7  C17 UNL     1     -14.353  -4.784   9.130  1.00  0.00     0.125 C 
HETATM    8  C18 UNL     1     -14.290  -5.527  10.459  1.00  0.00     0.058 C 
HETATM    9  O1  UNL     1     -13.541  -7.591  11.384  1.00  0.00    -0.362 OA
ENDROOT
BRANCH   1  10
HETATM   10  C6  UNL     1     -11.399  -7.962  12.211  1.00  0.00    -0.072 C 
HETATM   11  C5  UNL     1     -10.695  -7.905  13.187  1.00  0.00    -0.073 C 
BRANCH  11  12
HETATM   12  C2  UNL     1      -9.840  -7.814  14.398  1.00  0.00     0.082 C 
HETATM   13  C3  UNL     1      -9.744  -9.137  15.096  1.00  0.00     0.052 C 
HETATM   14  C4  UNL     1      -8.472  -7.397  13.916  1.00  0.00     0.052 C 
BRANCH  12  15
HETATM   15  N1  UNL     1     -10.444  -6.857  15.268  1.00  0.00    -0.408 N 
HETATM   16  C1  UNL     1     -10.026  -5.505  15.072  1.00  0.00     0.141 C 
ATOM     17  H1  UNL     1     -11.126  -7.120  15.979  1.00  0.00     0.154 HD
ENDBRANCH  12  15
ENDBRANCH  11  12
ENDBRANCH   1  10
BRANCH   6  18
HETATM   18  C12 UNL     1     -16.105  -4.924   7.452  1.00  0.00     0.083 C 
HETATM   19  C13 UNL     1     -15.991  -5.213   5.975  1.00  0.00     0.025 C 
HETATM   20  C14 UNL     1     -17.175  -6.104   5.637  1.00  0.00     0.002 C 
HETATM   21  C15 UNL     1     -18.257  -5.480   6.489  1.00  0.00     0.002 C 
HETATM   22  C16 UNL     1     -17.533  -5.216   7.793  1.00  0.00     0.025 C 
ENDBRANCH   6  18
TORSDOF 4
ENDMDL
MODEL 5
REMARK VINA RESULT: -5.935780967      3.961      7.936
REMARK  4 active torsions:
REMARK  status: ('A' for Active; 'I' for Inactive)
REMARK    1  A    between atoms: N1_2  and  C2_4 
REMARK    2  A    between atoms: C2_4  and  C5_7 
REMARK    3  A    between atoms: C6_8  and  C7_9 
REMARK    4  A    between atoms: N2_14  and  C12_15 
ROOT
HETATM    1  C7  UNL     1     -12.529  -7.960  10.926  1.00  0.00     0.204 C 
HETATM    2  C8  UNL     1     -12.348  -6.837   9.935  1.00  0.00     0.083 C 
HETATM    3  C9  UNL     1     -13.841  -6.838  10.018  1.00  0.00     0.071 C 
HETATM    4  C10 UNL     1     -14.533  -7.678   8.993  1.00  0.00     0.082 C 
HETATM    5  C11 UNL     1     -14.799  -6.907   7.702  1.00  0.00     0.061 C 
HETATM    6  N2  UNL     1     -15.334  -5.641   7.974  1.00  0.00    -0.389 N 
HETATM    7  C17 UNL     1     -14.515  -4.817   8.801  1.00  0.00     0.125 C 
HETATM    8  C18 UNL     1     -14.478  -5.473  10.175  1.00  0.00     0.058 C 
HETATM    9  O1  UNL     1     -13.775  -7.485  11.240  1.00  0.00    -0.362 OA
ENDROOT
BRANCH   1  10
HETATM   10  C6  UNL     1     -11.649  -7.837  12.113  1.00  0.00    -0.072 C 
HETATM   11  C5  UNL     1     -10.943  -7.715  13.082  1.00  0.00    -0.073 C 
BRANCH  11  12
HETATM   12  C2  UNL     1     -10.070  -7.539  14.270  1.00  0.00     0.082 C 
HETATM   13  C3  UNL     1      -8.639  -7.844  13.944  1.00  0.00     0.052 C 
HETATM   14  C4  UNL     1     -10.197  -6.090  14.674  1.00  0.00     0.052 C 
BRANCH  12  15
HETATM   15  N1  UNL     1     -10.535  -8.443  15.272  1.00  0.00    -0.408 N 
HETATM   16  C1  UNL     1     -11.345  -7.858  16.293  1.00  0.00     0.141 C 
ATOM     17  H1  UNL     1     -10.305  -9.436  15.260  1.00  0.00     0.154 HD
ENDBRANCH  12  15
ENDBRANCH  11  12
ENDBRANCH   1  10
BRANCH   6  18
HETATM   18  C12 UNL     1     -16.253  -5.035   7.116  1.00  0.00     0.083 C 
HETATM   19  C13 UNL     1     -16.289  -5.591   5.713  1.00  0.00     0.025 C 
HETATM   20  C14 UNL     1     -17.590  -6.370   5.612  1.00  0.00     0.002 C 
HETATM   21  C15 UNL     1     -18.524  -5.474   6.395  1.00  0.00     0.002 C 
HETATM   22  C16 UNL     1     -17.674  -5.079   7.585  1.00  0.00     0.025 C 
ENDBRANCH   6  18
TORSDOF 4
ENDMDL
