MODEL 1
REMARK VINA RESULT: -6.104457312      0.000      0.000
REMARK  6 active torsions:
REMARK  status: ('A' for Active; 'I' for Inactive)
REMARK    1  A    between atoms: C2_2  and  C4_4 
REMARK    2  A    between atoms: C5_5  and  O1_6 
REMARK    3  A    between atoms: O1_6  and  C6_7 
REMARK    4  A    between atoms: C16_18  and  O3_19 
REMARK    5  A    between atoms: C18_22  and  O4_23 
REMARK    6  A    between atoms: O4_23  and  C19_24 
ROOT
HETATM    1  C4  UNL     1      31.377  14.909  13.568  1.00  0.00     0.104 C 
HETATM    2  C5  UNL     1      31.904  14.779  12.383  1.00  0.00     0.091 C 
HETATM    3  C8  UNL     1      33.336  14.284  12.247  1.00  0.00     0.076 C 
HETATM    4  C9  UNL     1      33.474  13.224  13.325  1.00  0.00     0.036 C 
HETATM    5  C10 UNL     1      34.738  12.442  13.175  1.00  0.00     0.027 C 
HETATM    6  C11 UNL     1      34.562  11.516  11.991  1.00  0.00     0.008 C 
HETATM    7  C12 UNL     1      35.970  10.965  11.732  1.00  0.00     0.005 C 
HETATM    8  C13 UNL     1      36.254   9.996  12.821  1.00  0.00    -0.016 C 
HETATM    9  C14 UNL     1      37.782   9.926  12.962  1.00  0.00     0.010 C 
HETATM   10  C15 UNL     1      35.603  10.261  14.119  1.00  0.00     0.042 C 
HETATM   11  C16 UNL     1      35.104  11.634  14.371  1.00  0.00     0.065 C 
HETATM   12  C17 UNL     1      33.874  11.597  15.263  1.00  0.00     0.074 C 
HETATM   13  C18 UNL     1      33.655  13.010  15.778  1.00  0.00     0.169 C 
HETATM   14  C21 UNL     1      33.390  13.977  14.636  1.00  0.00     0.095 C 
HETATM   15  C22 UNL     1      34.415  15.123  14.641  1.00  0.00     0.050 C 
HETATM   16  O6  UNL     1      32.141  14.583  14.702  1.00  0.00    -0.334 OA
ENDROOT
BRANCH   2  17
HETATM   17  O1  UNL     1      31.243  15.066  11.177  1.00  0.00    -0.281 OA
BRANCH  17  18
HETATM   18  C6  UNL     1      31.768  16.109  10.380  1.00  0.00     0.259 C 
HETATM   19  C7  UNL     1      31.843  17.488  10.940  1.00  0.00     0.126 C 
HETATM   20  O2  UNL     1      32.147  15.811   9.221  1.00  0.00    -0.265 OA
ENDBRANCH  17  18
ENDBRANCH   2  17
BRANCH   1  21
HETATM   21  C2  UNL     1      30.005  15.387  13.787  1.00  0.00    -0.035 C 
HETATM   22  C1  UNL     1      29.802  16.691  13.996  1.00  0.00     0.021 C 
HETATM   23  C3  UNL     1      28.812  14.542  13.755  1.00  0.00     0.050 C 
ENDBRANCH   1  21
BRANCH  13  24
HETATM   24  O4  UNL     1      32.706  13.085  16.788  1.00  0.00    -0.313 OA
BRANCH  24  25
HETATM   25  C19 UNL     1      31.708  12.147  16.919  1.00  0.00     0.255 C 
HETATM   26  C20 UNL     1      30.511  12.065  16.050  1.00  0.00     0.126 C 
HETATM   27  O5  UNL     1      31.849  11.315  17.850  1.00  0.00    -0.266 OA
ENDBRANCH  24  25
ENDBRANCH  13  24
BRANCH  11  28
HETATM   28  O3  UNL     1      36.073  12.328  15.098  1.00  0.00    -0.389 OA
ATOM     29  H3  UNL     1      36.571  11.704  15.612  1.00  0.00     0.210 HD
ENDBRANCH  11  28
TORSDOF 6
ENDMDL
MODEL 2
REMARK VINA RESULT: -6.059785618      1.937      2.982
REMARK  6 active torsions:
REMARK  status: ('A' for Active; 'I' for Inactive)
REMARK    1  A    between atoms: C2_2  and  C4_4 
REMARK    2  A    between atoms: C5_5  and  O1_6 
REMARK    3  A    between atoms: O1_6  and  C6_7 
REMARK    4  A    between atoms: C16_18  and  O3_19 
REMARK    5  A    between atoms: C18_22  and  O4_23 
REMARK    6  A    between atoms: O4_23  and  C19_24 
ROOT
HETATM    1  C4  UNL     1      30.847  12.372  15.656  1.00  0.00     0.104 C 
HETATM    2  C5  UNL     1      30.857  12.835  14.438  1.00  0.00     0.091 C 
HETATM    3  C8  UNL     1      32.180  13.204  13.785  1.00  0.00     0.076 C 
HETATM    4  C9  UNL     1      33.149  12.136  14.263  1.00  0.00     0.036 C 
HETATM    5  C10 UNL     1      34.442  12.187  13.516  1.00  0.00     0.027 C 
HETATM    6  C11 UNL     1      34.188  11.636  12.130  1.00  0.00     0.008 C 
HETATM    7  C12 UNL     1      35.464  11.977  11.350  1.00  0.00     0.005 C 
HETATM    8  C13 UNL     1      36.521  11.056  11.842  1.00  0.00    -0.016 C 
HETATM    9  C14 UNL     1      37.866  11.752  11.587  1.00  0.00     0.010 C 
HETATM   10  C15 UNL     1      36.400  10.611  13.243  1.00  0.00     0.042 C 
HETATM   11  C16 UNL     1      35.545  11.413  14.150  1.00  0.00     0.065 C 
HETATM   12  C17 UNL     1      34.903  10.524  15.202  1.00  0.00     0.074 C 
HETATM   13  C18 UNL     1      34.369  11.438  16.292  1.00  0.00     0.169 C 
HETATM   14  C21 UNL     1      33.307  12.380  15.748  1.00  0.00     0.095 C 
HETATM   15  C22 UNL     1      33.699  13.846  15.994  1.00  0.00     0.050 C 
HETATM   16  O6  UNL     1      32.062  12.214  16.345  1.00  0.00    -0.334 OA
ENDROOT
BRANCH   2  17
HETATM   17  O1  UNL     1      29.713  13.033  13.647  1.00  0.00    -0.281 OA
BRANCH  17  18
HETATM   18  C6  UNL     1      29.466  14.343  13.175  1.00  0.00     0.259 C 
HETATM   19  C7  UNL     1      29.479  15.479  14.138  1.00  0.00     0.126 C 
HETATM   20  O2  UNL     1      29.243  14.478  11.947  1.00  0.00    -0.265 OA
ENDBRANCH  17  18
ENDBRANCH   2  17
BRANCH   1  21
HETATM   21  C2  UNL     1      29.613  12.000  16.362  1.00  0.00    -0.035 C 
HETATM   22  C1  UNL     1      29.658  11.809  17.684  1.00  0.00     0.021 C 
HETATM   23  C3  UNL     1      28.302  11.856  15.731  1.00  0.00     0.050 C 
ENDBRANCH   1  21
BRANCH  13  24
HETATM   24  O4  UNL     1      33.962  10.755  17.429  1.00  0.00    -0.313 OA
BRANCH  24  25
HETATM   25  C19 UNL     1      34.369  11.131  18.689  1.00  0.00     0.255 C 
HETATM   26  C20 UNL     1      33.649  12.096  19.553  1.00  0.00     0.126 C 
HETATM   27  O5  UNL     1      35.429  10.601  19.109  1.00  0.00    -0.266 OA
ENDBRANCH  24  25
ENDBRANCH  13  24
BRANCH  11  28
HETATM   28  O3  UNL     1      36.360  12.299  14.856  1.00  0.00    -0.389 OA
ATOM     29  H3  UNL     1      36.825  11.813  15.527  1.00  0.00     0.210 HD
ENDBRANCH  11  28
TORSDOF 6
ENDMDL
MODEL 3
REMARK VINA RESULT: -5.972337410      3.130      5.867
REMARK  6 active torsions:
REMARK  status: ('A' for Active; 'I' for Inactive)
REMARK    1  A    between atoms: C2_2  and  C4_4 
REMARK    2  A    between atoms: C5_5  and  O1_6 
REMARK    3  A    between atoms: O1_6  and  C6_7 
REMARK    4  A    between atoms: C16_18  and  O3_19 
REMARK    5  A    between atoms: C18_22  and  O4_23 
REMARK    6  A    between atoms: O4_23  and  C19_24 
ROOT
HETATM    1  C4  UNL     1      30.100  15.289  13.681  1.00  0.00     0.104 C 
HETATM    2  C5  UNL     1      29.248  15.220  12.697  1.00  0.00     0.091 C 
HETATM    3  C8  UNL     1      28.606  13.885  12.351  1.00  0.00     0.076 C 
HETATM    4  C9  UNL     1      28.359  13.224  13.695  1.00  0.00     0.036 C 
HETATM    5  C10 UNL     1      27.496  12.011  13.567  1.00  0.00     0.027 C 
HETATM    6  C11 UNL     1      26.084  12.484  13.302  1.00  0.00     0.008 C 
HETATM    7  C12 UNL     1      25.327  11.209  12.907  1.00  0.00     0.005 C 
HETATM    8  C13 UNL     1      25.143  10.422  14.154  1.00  0.00    -0.016 C 
HETATM    9  C14 UNL     1      24.994   8.954  13.730  1.00  0.00     0.010 C 
HETATM   10  C15 UNL     1      26.183  10.583  15.188  1.00  0.00     0.042 C 
HETATM   11  C16 UNL     1      27.495  11.131  14.768  1.00  0.00     0.065 C 
HETATM   12  C17 UNL     1      28.123  11.933  15.895  1.00  0.00     0.074 C 
HETATM   13  C18 UNL     1      29.587  12.133  15.538  1.00  0.00     0.169 C 
HETATM   14  C21 UNL     1      29.736  12.921  14.248  1.00  0.00     0.095 C 
HETATM   15  C22 UNL     1      30.547  12.126  13.212  1.00  0.00     0.050 C 
HETATM   16  O6  UNL     1      30.407  14.128  14.411  1.00  0.00    -0.334 OA
ENDROOT
BRANCH   2  17
HETATM   17  O1  UNL     1      28.857  16.307  11.898  1.00  0.00    -0.281 OA
BRANCH  17  18
HETATM   18  C6  UNL     1      29.218  16.274  10.531  1.00  0.00     0.259 C 
HETATM   19  C7  UNL     1      30.652  16.108  10.159  1.00  0.00     0.126 C 
HETATM   20  O2  UNL     1      28.293  16.389   9.690  1.00  0.00    -0.265 OA
ENDBRANCH  17  18
ENDBRANCH   2  17
BRANCH   1  21
HETATM   21  C2  UNL     1      30.770  16.536  14.074  1.00  0.00    -0.035 C 
HETATM   22  C1  UNL     1      31.954  16.466  14.691  1.00  0.00     0.021 C 
HETATM   23  C3  UNL     1      30.257  17.879  13.807  1.00  0.00     0.050 C 
ENDBRANCH   1  21
BRANCH  13  24
HETATM   24  O4  UNL     1      30.340  12.648  16.583  1.00  0.00    -0.313 OA
BRANCH  24  25
HETATM   25  C19 UNL     1      31.528  12.074  16.977  1.00  0.00     0.255 C 
HETATM   26  C20 UNL     1      32.780  12.104  16.185  1.00  0.00     0.126 C 
HETATM   27  O5  UNL     1      31.519  11.492  18.091  1.00  0.00    -0.266 OA
ENDBRANCH  24  25
ENDBRANCH  13  24
BRANCH  11  28
HETATM   28  O3  UNL     1      28.365  10.064  14.538  1.00  0.00    -0.389 OA
ATOM     29  H3  UNL     1      29.255  10.398  14.522  1.00  0.00     0.210 HD
ENDBRANCH  11  28
TORSDOF 6
ENDMDL
MODEL 4
REMARK VINA RESULT: -5.928709625      2.355      5.184
REMARK  6 active torsions:
REMARK  status: ('A' for Active; 'I' for Inactive)
REMARK    1  A    between atoms: C2_2  and  C4_4 
REMARK    2  A    between atoms: C5_5  and  O1_6 
REMARK    3  A    between atoms: O1_6  and  C6_7 
REMARK    4  A    between atoms: C16_18  and  O3_19 
REMARK    5  A    between atoms: C18_22  and  O4_23 
REMARK    6  A    between atoms: O4_23  and  C19_24 
ROOT
HETATM    1  C4  UNL     1      32.492  15.602  14.361  1.00  0.00     0.104 C 
HETATM    2  C5  UNL     1      31.639  15.925  13.430  1.00  0.00     0.091 C 
HETATM    3  C8  UNL     1      30.668  14.877  12.904  1.00  0.00     0.076 C 
HETATM    4  C9  UNL     1      30.276  14.075  14.132  1.00  0.00     0.036 C 
HETATM    5  C10 UNL     1      29.126  13.162  13.854  1.00  0.00     0.027 C 
HETATM    6  C11 UNL     1      27.881  14.016  13.753  1.00  0.00     0.008 C 
HETATM    7  C12 UNL     1      26.816  13.063  13.196  1.00  0.00     0.005 C 
HETATM    8  C13 UNL     1      26.450  12.142  14.303  1.00  0.00    -0.016 C 
HETATM    9  C14 UNL     1      25.920  10.857  13.651  1.00  0.00     0.010 C 
HETATM   10  C15 UNL     1      27.509  11.851  15.288  1.00  0.00     0.042 C 
HETATM   11  C16 UNL     1      28.912  12.114  14.890  1.00  0.00     0.065 C 
HETATM   12  C17 UNL     1      29.741  12.522  16.097  1.00  0.00     0.074 C 
HETATM   13  C18 UNL     1      31.202  12.403  15.695  1.00  0.00     0.169 C 
HETATM   14  C21 UNL     1      31.534  13.342  14.547  1.00  0.00     0.095 C 
HETATM   15  C22 UNL     1      32.098  12.562  13.348  1.00  0.00     0.050 C 
HETATM   16  O6  UNL     1      32.497  14.293  14.869  1.00  0.00    -0.334 OA
ENDROOT
BRANCH   2  17
HETATM   17  O1  UNL     1      31.533  17.199  12.846  1.00  0.00    -0.281 OA
BRANCH  17  18
HETATM   18  C6  UNL     1      31.820  17.308  11.466  1.00  0.00     0.259 C 
HETATM   19  C7  UNL     1      33.182  16.954  10.974  1.00  0.00     0.126 C 
HETATM   20  O2  UNL     1      30.895  17.707  10.716  1.00  0.00    -0.265 OA
ENDBRANCH  17  18
ENDBRANCH   2  17
BRANCH   1  21
HETATM   21  C2  UNL     1      33.467  16.551  14.917  1.00  0.00    -0.035 C 
HETATM   22  C1  UNL     1      34.730  16.506  14.483  1.00  0.00     0.021 C 
HETATM   23  C3  UNL     1      33.155  17.590  15.897  1.00  0.00     0.050 C 
ENDBRANCH   1  21
BRANCH  13  24
HETATM   24  O4  UNL     1      32.077  12.520  16.765  1.00  0.00    -0.313 OA
BRANCH  24  25
HETATM   25  C19 UNL     1      33.050  11.580  17.016  1.00  0.00     0.255 C 
HETATM   26  C20 UNL     1      34.102  11.180  16.052  1.00  0.00     0.126 C 
HETATM   27  O5  UNL     1      33.019  11.041  18.152  1.00  0.00    -0.266 OA
ENDBRANCH  24  25
ENDBRANCH  13  24
BRANCH  11  28
HETATM   28  O3  UNL     1      29.474  10.920  14.436  1.00  0.00    -0.389 OA
ATOM     29  H3  UNL     1      29.017  10.195  14.848  1.00  0.00     0.210 HD
ENDBRANCH  11  28
TORSDOF 6
ENDMDL
MODEL 5
REMARK VINA RESULT: -5.902965896      0.814      1.032
REMARK  6 active torsions:
REMARK  status: ('A' for Active; 'I' for Inactive)
REMARK    1  A    between atoms: C2_2  and  C4_4 
REMARK    2  A    between atoms: C5_5  and  O1_6 
REMARK    3  A    between atoms: O1_6  and  C6_7 
REMARK    4  A    between atoms: C16_18  and  O3_19 
REMARK    5  A    between atoms: C18_22  and  O4_23 
REMARK    6  A    between atoms: O4_23  and  C19_24 
ROOT
HETATM    1  C4  UNL     1      31.142  14.584  13.796  1.00  0.00     0.104 C 
HETATM    2  C5  UNL     1      31.742  14.572  12.639  1.00  0.00     0.091 C 
HETATM    3  C8  UNL     1      33.210  14.178  12.558  1.00  0.00     0.076 C 
HETATM    4  C9  UNL     1      33.356  13.054  13.568  1.00  0.00     0.036 C 
HETATM    5  C10 UNL     1      34.676  12.365  13.443  1.00  0.00     0.027 C 
HETATM    6  C11 UNL     1      34.629  11.517  12.191  1.00  0.00     0.008 C 
HETATM    7  C12 UNL     1      36.083  11.075  11.981  1.00  0.00     0.005 C 
HETATM    8  C13 UNL     1      36.368  10.049  13.018  1.00  0.00    -0.016 C 
HETATM    9  C14 UNL     1      37.886  10.064  13.247  1.00  0.00     0.010 C 
HETATM   10  C15 UNL     1      35.628  10.180  14.288  1.00  0.00     0.042 C 
HETATM   11  C16 UNL     1      35.026  11.497  14.602  1.00  0.00     0.065 C 
HETATM   12  C17 UNL     1      33.752  11.321  15.412  1.00  0.00     0.074 C 
HETATM   13  C18 UNL     1      33.412  12.677  16.008  1.00  0.00     0.169 C 
HETATM   14  C21 UNL     1      33.148  13.705  14.919  1.00  0.00     0.095 C 
HETATM   15  C22 UNL     1      34.093  14.909  15.065  1.00  0.00     0.050 C 
HETATM   16  O6  UNL     1      31.860  14.226  14.950  1.00  0.00    -0.334 OA
ENDROOT
BRANCH   2  17
HETATM   17  O1  UNL     1      31.134  14.904  11.417  1.00  0.00    -0.281 OA
BRANCH  17  18
HETATM   18  C6  UNL     1      31.659  16.007  10.706  1.00  0.00     0.259 C 
HETATM   19  C7  UNL     1      31.606  17.363  11.321  1.00  0.00     0.126 C 
HETATM   20  O2  UNL     1      32.151  15.779   9.573  1.00  0.00    -0.265 OA
ENDBRANCH  17  18
ENDBRANCH   2  17
BRANCH   1  21
HETATM   21  C2  UNL     1      29.731  14.959  13.962  1.00  0.00    -0.035 C 
HETATM   22  C1  UNL     1      29.422  16.249  14.129  1.00  0.00     0.021 C 
HETATM   23  C3  UNL     1      28.608  14.024  13.920  1.00  0.00     0.050 C 
ENDBRANCH   1  21
BRANCH  13  24
HETATM   24  O4  UNL     1      32.404  12.620  16.960  1.00  0.00    -0.313 OA
BRANCH  24  25
HETATM   25  C19 UNL     1      32.674  12.424  18.295  1.00  0.00     0.255 C 
HETATM   26  C20 UNL     1      34.000  12.630  18.924  1.00  0.00     0.126 C 
HETATM   27  O5  UNL     1      31.708  12.046  19.005  1.00  0.00    -0.266 OA
ENDBRANCH  24  25
ENDBRANCH  13  24
BRANCH  11  28
HETATM   28  O3  UNL     1      35.903  12.197  15.432  1.00  0.00    -0.389 OA
ATOM     29  H3  UNL     1      36.680  11.666  15.567  1.00  0.00     0.210 HD
ENDBRANCH  11  28
TORSDOF 6
ENDMDL
