MODEL 1
REMARK VINA RESULT: -8.658713355      0.000      0.000
REMARK  9 active torsions:
REMARK  status: ('A' for Active; 'I' for Inactive)
REMARK    1  A    between atoms: N1_2  and  N2_3 
REMARK    2  A    between atoms: N1_2  and  S2_19 
REMARK    3  A    between atoms: N2_3  and  S1_5 
REMARK    4  A    between atoms: S1_5  and  C2_8 
REMARK    5  A    between atoms: C5_11  and  C6_12 
REMARK    6  A    between atoms: S2_19  and  C9_22 
REMARK    7  A    between atoms: C12_25  and  N5_26 
REMARK       I    between atoms: N5_26  and  C13_28 
REMARK    8  A    between atoms: C13_28  and  C14_30 
REMARK    9  A    between atoms: C14_30  and  C15_31 
ROOT
HETATM    1  S2  UNL     1     -84.947 -13.230  13.898  1.00  0.00     0.278 S 
HETATM    2  O3  UNL     1     -84.855 -14.113  15.115  1.00  0.00    -0.199 OA
HETATM    3  O4  UNL     1     -85.178 -11.818  14.409  1.00  0.00    -0.199 OA
ENDROOT
BRANCH   1   4
HETATM    4  N1  UNL     1     -83.501 -13.270  13.016  1.00  0.00    -0.209 N 
HETATM    5  C1  UNL     1     -82.340 -12.897  13.749  1.00  0.00     0.192 C 
BRANCH   4   6
HETATM    6  N2  UNL     1     -83.565 -12.772  11.736  1.00  0.00    -0.211 N 
ATOM      7  H2  UNL     1     -83.668 -11.791  11.479  1.00  0.00     0.201 HD
BRANCH   6   8
HETATM    8  S1  UNL     1     -83.441 -14.100  10.640  1.00  0.00     0.276 S 
HETATM    9  O1  UNL     1     -83.292 -15.403  11.370  1.00  0.00    -0.199 OA
HETATM   10  O2  UNL     1     -82.242 -13.866   9.765  1.00  0.00    -0.199 OA
BRANCH   8  11
HETATM   11  C2  UNL     1     -84.843 -14.230   9.606  1.00  0.00     0.081 A 
HETATM   12  C3  UNL     1     -85.323 -13.127   8.946  1.00  0.00     0.026 A 
HETATM   13  C4  UNL     1     -86.446 -13.180   8.104  1.00  0.00     0.016 A 
HETATM   14  C5  UNL     1     -87.129 -14.353   7.897  1.00  0.00     0.007 A 
HETATM   15  C7  UNL     1     -86.620 -15.464   8.582  1.00  0.00     0.016 A 
HETATM   16  C8  UNL     1     -85.519 -15.407   9.406  1.00  0.00     0.026 A 
BRANCH  14  17
HETATM   17  C6  UNL     1     -88.293 -14.512   7.054  1.00  0.00     0.151 C 
HETATM   18  N3  UNL     1     -89.531 -14.899   7.719  1.00  0.00    -0.080 NA
HETATM   19  N4  UNL     1     -88.404 -14.365   5.811  1.00  0.00    -0.210 N 
HETATM   20  F1  UNL     1     -87.497 -14.025   4.922  1.00  0.00    -0.100 F 
ATOM     21  H4  UNL     1     -89.337 -14.535   5.436  1.00  0.00     0.201 HD
ENDBRANCH  14  17
ENDBRANCH   8  11
ENDBRANCH   6   8
ENDBRANCH   4   6
ENDBRANCH   1   4
BRANCH   1  22
HETATM   22  C9  UNL     1     -86.349 -13.695  13.009  1.00  0.00     0.081 A 
HETATM   23  C10 UNL     1     -86.831 -14.976  12.881  1.00  0.00     0.027 A 
HETATM   24  C11 UNL     1     -87.988 -15.263  12.133  1.00  0.00     0.031 A 
HETATM   25  C12 UNL     1     -88.689 -14.289  11.496  1.00  0.00     0.034 A 
HETATM   26  C21 UNL     1     -88.190 -12.968  11.629  1.00  0.00     0.031 A 
HETATM   27  C22 UNL     1     -87.077 -12.722  12.354  1.00  0.00     0.027 A 
BRANCH  25  28
HETATM   28  N5  UNL     1     -89.845 -14.481  10.706  1.00  0.00    -0.327 N 
HETATM   29  C13 UNL     1     -91.149 -14.384  11.190  1.00  0.00     0.226 C 
HETATM   30  O5  UNL     1     -91.419 -14.124  12.366  1.00  0.00    -0.273 OA
ATOM     31  H5  UNL     1     -89.717 -14.707   9.720  1.00  0.00     0.169 HD
BRANCH  29  32
HETATM   32  C14 UNL     1     -92.267 -14.615  10.180  1.00  0.00     0.141 C 
BRANCH  32  33
HETATM   33  C15 UNL     1     -92.597 -16.058  10.257  1.00  0.00    -0.050 A 
HETATM   34  C16 UNL     1     -93.551 -16.569  11.115  1.00  0.00     0.007 A 
HETATM   35  C17 UNL     1     -93.819 -17.902  11.148  1.00  0.00     0.001 A 
HETATM   36  C18 UNL     1     -93.160 -18.821  10.335  1.00  0.00     0.000 A 
HETATM   37  C19 UNL     1     -92.213 -18.323   9.482  1.00  0.00     0.001 A 
HETATM   38  C20 UNL     1     -91.937 -16.982   9.440  1.00  0.00     0.007 A 
ENDBRANCH  32  33
ENDBRANCH  29  32
ENDBRANCH  25  28
ENDBRANCH   1  22
TORSDOF 9
ENDMDL
MODEL 2
REMARK VINA RESULT: -8.610285755      0.238      1.147
REMARK  9 active torsions:
REMARK  status: ('A' for Active; 'I' for Inactive)
REMARK    1  A    between atoms: N1_2  and  N2_3 
REMARK    2  A    between atoms: N1_2  and  S2_19 
REMARK    3  A    between atoms: N2_3  and  S1_5 
REMARK    4  A    between atoms: S1_5  and  C2_8 
REMARK    5  A    between atoms: C5_11  and  C6_12 
REMARK    6  A    between atoms: S2_19  and  C9_22 
REMARK    7  A    between atoms: C12_25  and  N5_26 
REMARK       I    between atoms: N5_26  and  C13_28 
REMARK    8  A    between atoms: C13_28  and  C14_30 
REMARK    9  A    between atoms: C14_30  and  C15_31 
ROOT
HETATM    1  S2  UNL     1     -85.069 -13.599  13.977  1.00  0.00     0.278 S 
HETATM    2  O3  UNL     1     -85.055 -14.800  14.885  1.00  0.00    -0.199 OA
HETATM    3  O4  UNL     1     -85.219 -12.383  14.876  1.00  0.00    -0.199 OA
ENDROOT
BRANCH   1   4
HETATM    4  N1  UNL     1     -83.611 -13.477  13.121  1.00  0.00    -0.209 N 
HETATM    5  C1  UNL     1     -82.488 -13.088  13.902  1.00  0.00     0.192 C 
BRANCH   4   6
HETATM    6  N2  UNL     1     -83.691 -12.887  11.881  1.00  0.00    -0.211 N 
ATOM      7  H2  UNL     1     -83.839 -11.895  11.698  1.00  0.00     0.201 HD
BRANCH   6   8
HETATM    8  S1  UNL     1     -83.496 -14.120  10.690  1.00  0.00     0.276 S 
HETATM    9  O1  UNL     1     -83.277 -15.465  11.321  1.00  0.00    -0.199 OA
HETATM   10  O2  UNL     1     -82.312 -13.758   9.839  1.00  0.00    -0.199 OA
BRANCH   8  11
HETATM   11  C2  UNL     1     -84.890 -14.248   9.644  1.00  0.00     0.081 A 
HETATM   12  C3  UNL     1     -85.408 -13.131   9.040  1.00  0.00     0.026 A 
HETATM   13  C4  UNL     1     -86.527 -13.182   8.192  1.00  0.00     0.016 A 
HETATM   14  C5  UNL     1     -87.166 -14.367   7.921  1.00  0.00     0.007 A 
HETATM   15  C7  UNL     1     -86.618 -15.492   8.550  1.00  0.00     0.016 A 
HETATM   16  C8  UNL     1     -85.521 -15.437   9.381  1.00  0.00     0.026 A 
BRANCH  14  17
HETATM   17  C6  UNL     1     -88.320 -14.525   7.066  1.00  0.00     0.151 C 
HETATM   18  N3  UNL     1     -89.558 -14.944   7.713  1.00  0.00    -0.080 NA
HETATM   19  N4  UNL     1     -88.425 -14.353   5.826  1.00  0.00    -0.210 N 
HETATM   20  F1  UNL     1     -87.516 -13.981   4.951  1.00  0.00    -0.100 F 
ATOM     21  H4  UNL     1     -89.352 -14.528   5.440  1.00  0.00     0.201 HD
ENDBRANCH  14  17
ENDBRANCH   8  11
ENDBRANCH   6   8
ENDBRANCH   4   6
ENDBRANCH   1   4
BRANCH   1  22
HETATM   22  C9  UNL     1     -86.480 -13.694  12.992  1.00  0.00     0.081 A 
HETATM   23  C10 UNL     1     -87.143 -12.628  12.434  1.00  0.00     0.027 A 
HETATM   24  C11 UNL     1     -88.293 -12.801  11.640  1.00  0.00     0.031 A 
HETATM   25  C12 UNL     1     -88.809 -14.032  11.384  1.00  0.00     0.034 A 
HETATM   26  C21 UNL     1     -88.122 -15.131  11.962  1.00  0.00     0.031 A 
HETATM   27  C22 UNL     1     -87.021 -14.935  12.719  1.00  0.00     0.027 A 
BRANCH  25  28
HETATM   28  N5  UNL     1     -89.966 -14.302  10.621  1.00  0.00    -0.327 N 
HETATM   29  C13 UNL     1     -91.259 -14.327  11.141  1.00  0.00     0.226 C 
HETATM   30  O5  UNL     1     -91.516 -14.120  12.331  1.00  0.00    -0.273 OA
ATOM     31  H5  UNL     1     -89.848 -14.492   9.626  1.00  0.00     0.169 HD
BRANCH  29  32
HETATM   32  C14 UNL     1     -92.382 -14.628  10.156  1.00  0.00     0.141 C 
BRANCH  32  33
HETATM   33  C15 UNL     1     -92.625 -16.087  10.243  1.00  0.00    -0.050 A 
HETATM   34  C16 UNL     1     -91.937 -17.015   9.486  1.00  0.00     0.007 A 
HETATM   35  C17 UNL     1     -92.197 -18.344   9.603  1.00  0.00     0.001 A 
HETATM   36  C18 UNL     1     -93.156 -18.848  10.477  1.00  0.00     0.000 A 
HETATM   37  C19 UNL     1     -93.844 -17.936  11.231  1.00  0.00     0.001 A 
HETATM   38  C20 UNL     1     -93.590 -16.595  11.121  1.00  0.00     0.007 A 
ENDBRANCH  32  33
ENDBRANCH  29  32
ENDBRANCH  25  28
ENDBRANCH   1  22
TORSDOF 9
ENDMDL
MODEL 3
REMARK VINA RESULT: -8.534948125      2.667      4.832
REMARK  9 active torsions:
REMARK  status: ('A' for Active; 'I' for Inactive)
REMARK    1  A    between atoms: N1_2  and  N2_3 
REMARK    2  A    between atoms: N1_2  and  S2_19 
REMARK    3  A    between atoms: N2_3  and  S1_5 
REMARK    4  A    between atoms: S1_5  and  C2_8 
REMARK    5  A    between atoms: C5_11  and  C6_12 
REMARK    6  A    between atoms: S2_19  and  C9_22 
REMARK    7  A    between atoms: C12_25  and  N5_26 
REMARK       I    between atoms: N5_26  and  C13_28 
REMARK    8  A    between atoms: C13_28  and  C14_30 
REMARK    9  A    between atoms: C14_30  and  C15_31 
ROOT
HETATM    1  S2  UNL     1     -84.354 -14.922  12.739  1.00  0.00     0.278 S 
HETATM    2  O3  UNL     1     -83.338 -15.076  11.638  1.00  0.00    -0.199 OA
HETATM    3  O4  UNL     1     -84.341 -16.226  13.519  1.00  0.00    -0.199 OA
ENDROOT
BRANCH   1   4
HETATM    4  N1  UNL     1     -83.928 -13.653  13.777  1.00  0.00    -0.209 N 
HETATM    5  C1  UNL     1     -82.862 -12.831  13.315  1.00  0.00     0.192 C 
BRANCH   4   6
HETATM    6  N2  UNL     1     -83.885 -13.961  15.116  1.00  0.00    -0.211 N 
ATOM      7  H2  UNL     1     -83.182 -14.539  15.576  1.00  0.00     0.201 HD
BRANCH   6   8
HETATM    8  S1  UNL     1     -85.231 -13.199  15.882  1.00  0.00     0.276 S 
HETATM    9  O1  UNL     1     -85.337 -11.753  15.496  1.00  0.00    -0.199 OA
HETATM   10  O2  UNL     1     -85.045 -13.317  17.368  1.00  0.00    -0.199 OA
BRANCH   8  11
HETATM   11  C2  UNL     1     -86.744 -13.970  15.468  1.00  0.00     0.081 A 
HETATM   12  C3  UNL     1     -87.741 -13.255  14.854  1.00  0.00     0.026 A 
HETATM   13  C4  UNL     1     -88.974 -13.828  14.502  1.00  0.00     0.016 A 
HETATM   14  C5  UNL     1     -89.247 -15.150  14.758  1.00  0.00     0.007 A 
HETATM   15  C7  UNL     1     -88.213 -15.857  15.385  1.00  0.00     0.016 A 
HETATM   16  C8  UNL     1     -87.006 -15.291  15.728  1.00  0.00     0.026 A 
BRANCH  14  17
HETATM   17  C6  UNL     1     -90.480 -15.831  14.437  1.00  0.00     0.151 C 
HETATM   18  N3  UNL     1     -90.722 -17.097  15.119  1.00  0.00    -0.080 NA
HETATM   19  N4  UNL     1     -91.395 -15.496  13.643  1.00  0.00    -0.210 N 
HETATM   20  F1  UNL     1     -91.493 -14.430  12.879  1.00  0.00    -0.100 F 
ATOM     21  H4  UNL     1     -92.177 -16.147  13.582  1.00  0.00     0.201 HD
ENDBRANCH  14  17
ENDBRANCH   8  11
ENDBRANCH   6   8
ENDBRANCH   4   6
ENDBRANCH   1   4
BRANCH   1  22
HETATM   22  C9  UNL     1     -85.909 -14.769  12.010  1.00  0.00     0.081 A 
HETATM   23  C10 UNL     1     -86.424 -13.626  11.448  1.00  0.00     0.027 A 
HETATM   24  C11 UNL     1     -87.708 -13.594  10.874  1.00  0.00     0.031 A 
HETATM   25  C12 UNL     1     -88.508 -14.692  10.845  1.00  0.00     0.034 A 
HETATM   26  C21 UNL     1     -87.974 -15.871  11.425  1.00  0.00     0.031 A 
HETATM   27  C22 UNL     1     -86.738 -15.873  11.969  1.00  0.00     0.027 A 
BRANCH  25  28
HETATM   28  N5  UNL     1     -89.816 -14.752  10.312  1.00  0.00    -0.327 N 
HETATM   29  C13 UNL     1     -90.112 -15.147   9.009  1.00  0.00     0.226 C 
HETATM   30  O5  UNL     1     -89.253 -15.479   8.188  1.00  0.00    -0.273 OA
ATOM     31  H5  UNL     1     -90.591 -14.488  10.920  1.00  0.00     0.169 HD
BRANCH  29  32
HETATM   32  C14 UNL     1     -91.586 -15.157   8.621  1.00  0.00     0.141 C 
BRANCH  32  33
HETATM   33  C15 UNL     1     -92.218 -16.221   9.437  1.00  0.00    -0.050 A 
HETATM   34  C16 UNL     1     -91.888 -17.558   9.322  1.00  0.00     0.007 A 
HETATM   35  C17 UNL     1     -92.497 -18.497  10.094  1.00  0.00     0.001 A 
HETATM   36  C18 UNL     1     -93.475 -18.179  11.033  1.00  0.00     0.000 A 
HETATM   37  C19 UNL     1     -93.808 -16.857  11.154  1.00  0.00     0.001 A 
HETATM   38  C20 UNL     1     -93.200 -15.903  10.382  1.00  0.00     0.007 A 
ENDBRANCH  32  33
ENDBRANCH  29  32
ENDBRANCH  25  28
ENDBRANCH   1  22
TORSDOF 9
ENDMDL
MODEL 4
REMARK VINA RESULT: -8.446019063      2.657      4.821
REMARK  9 active torsions:
REMARK  status: ('A' for Active; 'I' for Inactive)
REMARK    1  A    between atoms: N1_2  and  N2_3 
REMARK    2  A    between atoms: N1_2  and  S2_19 
REMARK    3  A    between atoms: N2_3  and  S1_5 
REMARK    4  A    between atoms: S1_5  and  C2_8 
REMARK    5  A    between atoms: C5_11  and  C6_12 
REMARK    6  A    between atoms: S2_19  and  C9_22 
REMARK    7  A    between atoms: C12_25  and  N5_26 
REMARK       I    between atoms: N5_26  and  C13_28 
REMARK    8  A    between atoms: C13_28  and  C14_30 
REMARK    9  A    between atoms: C14_30  and  C15_31 
ROOT
HETATM    1  S2  UNL     1     -84.335 -14.932  12.727  1.00  0.00     0.278 S 
HETATM    2  O3  UNL     1     -83.317 -15.124  11.634  1.00  0.00    -0.199 OA
HETATM    3  O4  UNL     1     -84.348 -16.220  13.534  1.00  0.00    -0.199 OA
ENDROOT
BRANCH   1   4
HETATM    4  N1  UNL     1     -83.892 -13.649  13.742  1.00  0.00    -0.209 N 
HETATM    5  C1  UNL     1     -82.778 -12.887  13.294  1.00  0.00     0.192 C 
BRANCH   4   6
HETATM    6  N2  UNL     1     -83.910 -13.917  15.091  1.00  0.00    -0.211 N 
ATOM      7  H2  UNL     1     -83.242 -14.500  15.595  1.00  0.00     0.201 HD
BRANCH   6   8
HETATM    8  S1  UNL     1     -85.261 -13.094  15.780  1.00  0.00     0.276 S 
HETATM    9  O1  UNL     1     -85.345 -11.675  15.300  1.00  0.00    -0.199 OA
HETATM   10  O2  UNL     1     -85.103 -13.118  17.274  1.00  0.00    -0.199 OA
BRANCH   8  11
HETATM   11  C2  UNL     1     -86.774 -13.875  15.388  1.00  0.00     0.081 A 
HETATM   12  C3  UNL     1     -86.970 -15.199  15.690  1.00  0.00     0.026 A 
HETATM   13  C4  UNL     1     -88.167 -15.872  15.395  1.00  0.00     0.016 A 
HETATM   14  C5  UNL     1     -89.216 -15.230  14.782  1.00  0.00     0.007 A 
HETATM   15  C7  UNL     1     -88.990 -13.880  14.484  1.00  0.00     0.016 A 
HETATM   16  C8  UNL     1     -87.815 -13.225  14.776  1.00  0.00     0.026 A 
BRANCH  14  17
HETATM   17  C6  UNL     1     -90.484 -15.831  14.436  1.00  0.00     0.151 C 
HETATM   18  N3  UNL     1     -90.815 -17.083  15.104  1.00  0.00    -0.080 NA
HETATM   19  N4  UNL     1     -91.364 -15.432  13.632  1.00  0.00    -0.210 N 
HETATM   20  F1  UNL     1     -91.383 -14.357  12.876  1.00  0.00    -0.100 F 
ATOM     21  H4  UNL     1     -92.184 -16.033  13.554  1.00  0.00     0.201 HD
ENDBRANCH  14  17
ENDBRANCH   8  11
ENDBRANCH   6   8
ENDBRANCH   4   6
ENDBRANCH   1   4
BRANCH   1  22
HETATM   22  C9  UNL     1     -85.884 -14.768  11.988  1.00  0.00     0.081 A 
HETATM   23  C10 UNL     1     -86.379 -13.627  11.406  1.00  0.00     0.027 A 
HETATM   24  C11 UNL     1     -87.660 -13.585  10.824  1.00  0.00     0.031 A 
HETATM   25  C12 UNL     1     -88.476 -14.672  10.809  1.00  0.00     0.034 A 
HETATM   26  C21 UNL     1     -87.962 -15.849  11.411  1.00  0.00     0.031 A 
HETATM   27  C22 UNL     1     -86.728 -15.860  11.961  1.00  0.00     0.027 A 
BRANCH  25  28
HETATM   28  N5  UNL     1     -89.781 -14.721  10.270  1.00  0.00    -0.327 N 
HETATM   29  C13 UNL     1     -90.078 -15.136   8.973  1.00  0.00     0.226 C 
HETATM   30  O5  UNL     1     -89.220 -15.498   8.163  1.00  0.00    -0.273 OA
ATOM     31  H5  UNL     1     -90.555 -14.433  10.869  1.00  0.00     0.169 HD
BRANCH  29  32
HETATM   32  C14 UNL     1     -91.550 -15.130   8.578  1.00  0.00     0.141 C 
BRANCH  32  33
HETATM   33  C15 UNL     1     -92.211 -16.138   9.441  1.00  0.00    -0.050 A 
HETATM   34  C16 UNL     1     -93.171 -15.814  10.380  1.00  0.00     0.007 A 
HETATM   35  C17 UNL     1     -93.749 -16.776  11.148  1.00  0.00     0.001 A 
HETATM   36  C18 UNL     1     -93.416 -18.124  11.042  1.00  0.00     0.000 A 
HETATM   37  C19 UNL     1     -92.465 -18.453  10.115  1.00  0.00     0.001 A 
HETATM   38  C20 UNL     1     -91.877 -17.492   9.335  1.00  0.00     0.007 A 
ENDBRANCH  32  33
ENDBRANCH  29  32
ENDBRANCH  25  28
ENDBRANCH   1  22
TORSDOF 9
ENDMDL
MODEL 5
REMARK VINA RESULT: -8.245558557      3.392      7.329
REMARK  9 active torsions:
REMARK  status: ('A' for Active; 'I' for Inactive)
REMARK    1  A    between atoms: N1_2  and  N2_3 
REMARK    2  A    between atoms: N1_2  and  S2_19 
REMARK    3  A    between atoms: N2_3  and  S1_5 
REMARK    4  A    between atoms: S1_5  and  C2_8 
REMARK    5  A    between atoms: C5_11  and  C6_12 
REMARK    6  A    between atoms: S2_19  and  C9_22 
REMARK    7  A    between atoms: C12_25  and  N5_26 
REMARK       I    between atoms: N5_26  and  C13_28 
REMARK    8  A    between atoms: C13_28  and  C14_30 
REMARK    9  A    between atoms: C14_30  and  C15_31 
ROOT
HETATM    1  S2  UNL     1     -90.997 -14.541  12.239  1.00  0.00     0.278 S 
HETATM    2  O3  UNL     1     -92.460 -14.306  11.971  1.00  0.00    -0.199 OA
HETATM    3  O4  UNL     1     -90.477 -13.281  12.912  1.00  0.00    -0.199 OA
ENDROOT
BRANCH   1   4
HETATM    4  N1  UNL     1     -90.781 -15.855  13.286  1.00  0.00    -0.209 N 
HETATM    5  C1  UNL     1     -91.445 -17.051  12.893  1.00  0.00     0.192 C 
BRANCH   4   6
HETATM    6  N2  UNL     1     -90.843 -15.569  14.629  1.00  0.00    -0.211 N 
ATOM      7  H2  UNL     1     -91.625 -15.128  15.112  1.00  0.00     0.201 HD
BRANCH   6   8
HETATM    8  S1  UNL     1     -89.365 -16.088  15.354  1.00  0.00     0.276 S 
HETATM    9  O1  UNL     1     -89.392 -17.556  15.667  1.00  0.00    -0.199 OA
HETATM   10  O2  UNL     1     -89.169 -15.302  16.619  1.00  0.00    -0.199 OA
BRANCH   8  11
HETATM   11  C2  UNL     1     -87.989 -15.794  14.320  1.00  0.00     0.081 A 
HETATM   12  C3  UNL     1     -87.399 -16.828  13.639  1.00  0.00     0.026 A 
HETATM   13  C4  UNL     1     -86.290 -16.643  12.796  1.00  0.00     0.016 A 
HETATM   14  C5  UNL     1     -85.734 -15.400  12.609  1.00  0.00     0.007 A 
HETATM   15  C7  UNL     1     -86.354 -14.362  13.316  1.00  0.00     0.016 A 
HETATM   16  C8  UNL     1     -87.440 -14.549  14.140  1.00  0.00     0.026 A 
BRANCH  14  17
HETATM   17  C6  UNL     1     -84.597 -15.106  11.767  1.00  0.00     0.151 C 
HETATM   18  N3  UNL     1     -83.624 -14.157  12.295  1.00  0.00    -0.080 NA
HETATM   19  N4  UNL     1     -84.311 -15.550  10.627  1.00  0.00    -0.210 N 
HETATM   20  F1  UNL     1     -84.963 -16.409   9.874  1.00  0.00    -0.100 F 
ATOM     21  H4  UNL     1     -83.445 -15.191  10.226  1.00  0.00     0.201 HD
ENDBRANCH  14  17
ENDBRANCH   8  11
ENDBRANCH   6   8
ENDBRANCH   4   6
ENDBRANCH   1   4
BRANCH   1  22
HETATM   22  C9  UNL     1     -90.195 -14.686  10.720  1.00  0.00     0.081 A 
HETATM   23  C10 UNL     1     -90.791 -15.008   9.525  1.00  0.00     0.027 A 
HETATM   24  C11 UNL     1     -90.054 -15.104   8.329  1.00  0.00     0.031 A 
HETATM   25  C12 UNL     1     -88.714 -14.884   8.294  1.00  0.00     0.034 A 
HETATM   26  C21 UNL     1     -88.101 -14.552   9.529  1.00  0.00     0.031 A 
HETATM   27  C22 UNL     1     -88.833 -14.466  10.661  1.00  0.00     0.027 A 
BRANCH  25  28
HETATM   28  N5  UNL     1     -87.889 -14.979   7.151  1.00  0.00    -0.327 N 
HETATM   29  C13 UNL     1     -87.427 -13.881   6.426  1.00  0.00     0.226 C 
HETATM   30  O5  UNL     1     -87.704 -12.713   6.713  1.00  0.00    -0.273 OA
ATOM     31  H5  UNL     1     -87.614 -15.909   6.836  1.00  0.00     0.169 HD
BRANCH  29  32
HETATM   32  C14 UNL     1     -86.536 -14.185   5.227  1.00  0.00     0.141 C 
BRANCH  32  33
HETATM   33  C15 UNL     1     -85.142 -14.113   5.723  1.00  0.00    -0.050 A 
HETATM   34  C16 UNL     1     -84.816 -14.109   7.066  1.00  0.00     0.007 A 
HETATM   35  C17 UNL     1     -83.520 -14.042   7.471  1.00  0.00     0.001 A 
HETATM   36  C18 UNL     1     -82.456 -13.972   6.576  1.00  0.00     0.000 A 
HETATM   37  C19 UNL     1     -82.769 -13.974   5.243  1.00  0.00     0.001 A 
HETATM   38  C20 UNL     1     -84.071 -14.043   4.824  1.00  0.00     0.007 A 
ENDBRANCH  32  33
ENDBRANCH  29  32
ENDBRANCH  25  28
ENDBRANCH   1  22
TORSDOF 9
ENDMDL
