MODEL 1
REMARK VINA RESULT: -8.293415341      0.000      0.000
REMARK  7 active torsions:
REMARK  status: ('A' for Active; 'I' for Inactive)
REMARK    1  A    between atoms: C4_4  and  C5_5 
REMARK    2  A    between atoms: C5_5  and  N1_6 
REMARK    3  A    between atoms: C14_18  and  C15_19 
REMARK    4  A    between atoms: C15_19  and  C16_20 
REMARK    5  A    between atoms: C15_19  and  C23_27 
REMARK    6  A    between atoms: C16_20  and  C17_21 
REMARK    7  A    between atoms: S1_30  and  N4_31 
ROOT
HETATM    1  N1  UNL     1     -96.926 -14.361  45.994  1.00  0.00    -0.272 N 
HETATM    2  C6  UNL     1     -97.066 -15.576  45.333  1.00  0.00     0.162 C 
HETATM    3  C7  UNL     1     -98.215 -16.260  46.136  1.00  0.00     0.042 C 
HETATM    4  C8  UNL     1     -99.529 -16.091  45.425  1.00  0.00    -0.009 C 
HETATM    5  C9  UNL     1     -99.676 -14.769  44.718  1.00  0.00     0.010 C 
HETATM    6  C10 UNL     1    -100.705 -16.278  46.328  1.00  0.00     0.024 C 
HETATM    7  C11 UNL     1    -100.634 -15.579  47.654  1.00  0.00     0.105 C 
HETATM    8  C12 UNL     1     -99.306 -15.551  48.312  1.00  0.00     0.126 C 
HETATM    9  C13 UNL     1     -99.149 -16.711  49.211  1.00  0.00     0.226 C 
HETATM   10  O1  UNL     1     -98.292 -17.629  48.919  1.00  0.00    -0.273 OA
HETATM   11  N2  UNL     1     -99.923 -16.825  50.381  1.00  0.00    -0.343 N 
ATOM     12  H2  UNL     1     -99.475 -17.079  51.262  1.00  0.00     0.163 HD
HETATM   13  C14 UNL     1    -101.381 -16.580  50.344  1.00  0.00     0.198 C 
HETATM   14  S1  UNL     1    -101.905 -16.307  48.675  1.00  0.00     0.046 S 
HETATM   15  O3  UNL     1    -103.151 -15.497  48.544  1.00  0.00    -0.248 OA
HETATM   16  C24 UNL     1     -98.116 -15.506  47.406  1.00  0.00     0.172 C 
HETATM   17  O4  UNL     1     -97.757 -14.238  47.022  1.00  0.00    -0.272 OA
ENDROOT
BRANCH  13  18
HETATM   18  C15 UNL     1    -101.813 -15.605  51.353  1.00  0.00     0.111 C 
BRANCH  18  19
HETATM   19  C16 UNL     1    -101.769 -14.158  51.098  1.00  0.00     0.021 C 
BRANCH  19  20
HETATM   20  C17 UNL     1    -100.619 -13.274  51.399  1.00  0.00    -0.014 C 
HETATM   21  C18 UNL     1    -100.038 -12.857  50.054  1.00  0.00     0.005 C 
HETATM   22  C19 UNL     1     -98.639 -12.449  50.005  1.00  0.00     0.000 C 
HETATM   23  C20 UNL     1     -97.720 -13.326  50.843  1.00  0.00     0.000 C 
HETATM   24  C21 UNL     1     -98.228 -13.160  52.255  1.00  0.00     0.000 C 
HETATM   25  C22 UNL     1     -99.605 -13.828  52.312  1.00  0.00     0.005 C 
ENDBRANCH  19  20
ENDBRANCH  18  19
BRANCH  18  26
HETATM   26  C23 UNL     1    -103.162 -15.875  51.946  1.00  0.00     0.238 C 
HETATM   27  N3  UNL     1    -104.369 -15.796  51.242  1.00  0.00    -0.062 NA
HETATM   28  O2  UNL     1    -103.200 -16.192  53.158  1.00  0.00    -0.276 OA
ENDBRANCH  18  26
ENDBRANCH  13  18
BRANCH  14  29
HETATM   29  N4  UNL     1    -102.337 -17.699  48.032  1.00  0.00    -0.358 N 
ATOM     30  H42 UNL     1    -102.226 -17.948  47.049  1.00  0.00     0.165 HD
ATOM     31  H41 UNL     1    -102.737 -18.285  48.765  1.00  0.00     0.165 HD
ENDBRANCH  14  29
BRANCH   1  32
HETATM   32  C5  UNL     1     -95.667 -13.780  46.126  1.00  0.00     0.095 C 
BRANCH  32  33
HETATM   33  C4  UNL     1     -94.504 -14.532  46.621  1.00  0.00     0.030 A 
HETATM   34  C2  UNL     1     -94.113 -14.934  47.951  1.00  0.00    -0.009 A 
HETATM   35  C1  UNL     1     -94.736 -14.643  49.264  1.00  0.00     0.011 C 
HETATM   36  C3  UNL     1     -93.411 -13.746  47.340  1.00  0.00     0.015 A 
ENDBRANCH  32  33
ENDBRANCH   1  32
TORSDOF 7
ENDMDL
MODEL 2
REMARK VINA RESULT: -8.195669428      2.144      4.682
REMARK  7 active torsions:
REMARK  status: ('A' for Active; 'I' for Inactive)
REMARK    1  A    between atoms: C4_4  and  C5_5 
REMARK    2  A    between atoms: C5_5  and  N1_6 
REMARK    3  A    between atoms: C14_18  and  C15_19 
REMARK    4  A    between atoms: C15_19  and  C16_20 
REMARK    5  A    between atoms: C15_19  and  C23_27 
REMARK    6  A    between atoms: C16_20  and  C17_21 
REMARK    7  A    between atoms: S1_30  and  N4_31 
ROOT
HETATM    1  N1  UNL     1     -95.745 -13.615  49.664  1.00  0.00    -0.272 N 
HETATM    2  C6  UNL     1     -95.935 -13.152  50.961  1.00  0.00     0.162 C 
HETATM    3  C7  UNL     1     -97.412 -13.564  51.247  1.00  0.00     0.042 C 
HETATM    4  C8  UNL     1     -97.460 -14.840  52.042  1.00  0.00    -0.009 C 
HETATM    5  C9  UNL     1     -96.372 -15.820  51.690  1.00  0.00     0.010 C 
HETATM    6  C10 UNL     1     -98.777 -15.538  51.939  1.00  0.00     0.024 C 
HETATM    7  C11 UNL     1     -99.353 -15.657  50.559  1.00  0.00     0.105 C 
HETATM    8  C12 UNL     1     -99.163 -14.491  49.664  1.00  0.00     0.126 C 
HETATM    9  C13 UNL     1    -100.305 -13.562  49.776  1.00  0.00     0.226 C 
HETATM   10  O1  UNL     1    -100.127 -12.398  50.302  1.00  0.00    -0.273 OA
HETATM   11  N2  UNL     1    -101.582 -13.933  49.314  1.00  0.00    -0.343 N 
ATOM     12  H2  UNL     1    -102.122 -13.282  48.743  1.00  0.00     0.163 HD
HETATM   13  C14 UNL     1    -102.147 -15.257  49.651  1.00  0.00     0.198 C 
HETATM   14  S1  UNL     1    -101.068 -16.108  50.766  1.00  0.00     0.046 S 
HETATM   15  O3  UNL     1    -101.184 -17.595  50.723  1.00  0.00    -0.248 OA
HETATM   16  C24 UNL     1     -97.907 -13.702  49.858  1.00  0.00     0.172 C 
HETATM   17  O4  UNL     1     -96.830 -14.190  49.161  1.00  0.00    -0.272 OA
ENDROOT
BRANCH  13  18
HETATM   18  C15 UNL     1    -102.606 -15.991  48.465  1.00  0.00     0.111 C 
BRANCH  18  19
HETATM   19  C16 UNL     1    -101.786 -17.040  47.842  1.00  0.00     0.021 C 
BRANCH  19  20
HETATM   20  C17 UNL     1    -101.055 -16.903  46.561  1.00  0.00    -0.014 C 
HETATM   21  C18 UNL     1     -99.594 -16.668  46.926  1.00  0.00     0.005 C 
HETATM   22  C19 UNL     1     -98.745 -15.984  45.958  1.00  0.00     0.000 C 
HETATM   23  C20 UNL     1     -99.423 -14.801  45.282  1.00  0.00     0.000 C 
HETATM   24  C21 UNL     1    -100.599 -15.408  44.555  1.00  0.00     0.000 C 
HETATM   25  C22 UNL     1    -101.580 -15.892  45.628  1.00  0.00     0.005 C 
ENDBRANCH  19  20
ENDBRANCH  18  19
BRANCH  18  26
HETATM   26  C23 UNL     1    -103.985 -16.562  48.578  1.00  0.00     0.238 C 
HETATM   27  N3  UNL     1    -104.532 -17.500  47.694  1.00  0.00    -0.062 NA
HETATM   28  O2  UNL     1    -104.692 -16.165  49.533  1.00  0.00    -0.276 OA
ENDBRANCH  18  26
ENDBRANCH  13  18
BRANCH  14  29
HETATM   29  N4  UNL     1    -101.502 -15.778  52.263  1.00  0.00    -0.358 N 
ATOM     30  H42 UNL     1    -101.766 -16.473  52.961  1.00  0.00     0.165 HD
ATOM     31  H41 UNL     1    -101.467 -14.767  52.396  1.00  0.00     0.165 HD
ENDBRANCH  14  29
BRANCH   1  32
HETATM   32  C5  UNL     1     -94.938 -12.903  48.781  1.00  0.00     0.095 C 
BRANCH  32  33
HETATM   33  C4  UNL     1     -94.244 -13.551  47.658  1.00  0.00     0.030 A 
HETATM   34  C2  UNL     1     -93.572 -13.009  46.501  1.00  0.00    -0.009 A 
HETATM   35  C1  UNL     1     -93.436 -11.608  46.038  1.00  0.00     0.011 C 
HETATM   36  C3  UNL     1     -94.957 -13.577  46.309  1.00  0.00     0.015 A 
ENDBRANCH  32  33
ENDBRANCH   1  32
TORSDOF 7
ENDMDL
MODEL 3
REMARK VINA RESULT: -8.114223247      2.293      7.488
REMARK  7 active torsions:
REMARK  status: ('A' for Active; 'I' for Inactive)
REMARK    1  A    between atoms: C4_4  and  C5_5 
REMARK    2  A    between atoms: C5_5  and  N1_6 
REMARK    3  A    between atoms: C14_18  and  C15_19 
REMARK    4  A    between atoms: C15_19  and  C16_20 
REMARK    5  A    between atoms: C15_19  and  C23_27 
REMARK    6  A    between atoms: C16_20  and  C17_21 
REMARK    7  A    between atoms: S1_30  and  N4_31 
ROOT
HETATM    1  N1  UNL     1    -102.782 -15.182  50.479  1.00  0.00    -0.272 N 
HETATM    2  C6  UNL     1    -102.113 -15.136  51.697  1.00  0.00     0.162 C 
HETATM    3  C7  UNL     1    -100.619 -15.089  51.253  1.00  0.00     0.042 C 
HETATM    4  C8  UNL     1    -100.103 -13.677  51.286  1.00  0.00    -0.009 C 
HETATM    5  C9  UNL     1    -101.126 -12.643  50.892  1.00  0.00     0.010 C 
HETATM    6  C10 UNL     1     -98.886 -13.484  50.441  1.00  0.00     0.024 C 
HETATM    7  C11 UNL     1     -98.937 -14.082  49.067  1.00  0.00     0.105 C 
HETATM    8  C12 UNL     1     -99.611 -15.397  48.947  1.00  0.00     0.126 C 
HETATM    9  C13 UNL     1     -98.636 -16.494  49.102  1.00  0.00     0.226 C 
HETATM   10  O1  UNL     1     -98.699 -17.257  50.140  1.00  0.00    -0.273 OA
HETATM   11  N2  UNL     1     -97.642 -16.717  48.131  1.00  0.00    -0.343 N 
ATOM     12  H2  UNL     1     -97.467 -17.664  47.793  1.00  0.00     0.163 HD
HETATM   13  C14 UNL     1     -96.848 -15.589  47.597  1.00  0.00     0.198 C 
HETATM   14  S1  UNL     1     -97.258 -14.100  48.462  1.00  0.00     0.046 S 
HETATM   15  O3  UNL     1     -97.011 -12.849  47.687  1.00  0.00    -0.248 OA
HETATM   16  C24 UNL     1    -100.745 -15.651  49.889  1.00  0.00     0.172 C 
HETATM   17  O4  UNL     1    -101.956 -15.187  49.440  1.00  0.00    -0.272 OA
ENDROOT
BRANCH  13  18
HETATM   18  C15 UNL     1     -96.858 -15.541  46.130  1.00  0.00     0.111 C 
BRANCH  18  19
HETATM   19  C16 UNL     1     -97.988 -14.970  45.384  1.00  0.00     0.021 C 
BRANCH  19  20
HETATM   20  C17 UNL     1     -99.212 -15.708  44.993  1.00  0.00    -0.014 C 
HETATM   21  C18 UNL     1     -99.577 -15.220  43.597  1.00  0.00     0.005 C 
HETATM   22  C19 UNL     1    -100.964 -15.339  43.167  1.00  0.00     0.000 C 
HETATM   23  C20 UNL     1    -101.970 -14.965  44.247  1.00  0.00     0.000 C 
HETATM   24  C21 UNL     1    -101.716 -15.958  45.355  1.00  0.00     0.000 C 
HETATM   25  C22 UNL     1    -100.338 -15.628  45.938  1.00  0.00     0.005 C 
ENDBRANCH  19  20
ENDBRANCH  18  19
BRANCH  18  26
HETATM   26  C23 UNL     1     -95.624 -14.953  45.516  1.00  0.00     0.238 C 
HETATM   27  N3  UNL     1     -94.437 -14.693  46.211  1.00  0.00    -0.062 NA
HETATM   28  O2  UNL     1     -95.669 -14.678  44.294  1.00  0.00    -0.276 OA
ENDBRANCH  18  26
ENDBRANCH  13  18
BRANCH  14  29
HETATM   29  N4  UNL     1     -96.271 -13.930  49.701  1.00  0.00    -0.358 N 
ATOM     30  H42 UNL     1     -95.525 -14.581  49.947  1.00  0.00     0.165 HD
ATOM     31  H41 UNL     1     -96.513 -13.070  50.194  1.00  0.00     0.165 HD
ENDBRANCH  14  29
BRANCH   1  32
HETATM   32  C5  UNL     1    -103.958 -15.917  50.356  1.00  0.00     0.095 C 
BRANCH  32  33
HETATM   33  C4  UNL     1    -104.209 -16.809  49.214  1.00  0.00     0.030 A 
HETATM   34  C2  UNL     1    -104.520 -16.536  47.831  1.00  0.00    -0.009 A 
HETATM   35  C1  UNL     1    -104.762 -15.250  47.136  1.00  0.00     0.011 C 
HETATM   36  C3  UNL     1    -105.652 -16.955  48.738  1.00  0.00     0.015 A 
ENDBRANCH  32  33
ENDBRANCH   1  32
TORSDOF 7
ENDMDL
MODEL 4
REMARK VINA RESULT: -7.918307530      2.035      4.496
REMARK  7 active torsions:
REMARK  status: ('A' for Active; 'I' for Inactive)
REMARK    1  A    between atoms: C4_4  and  C5_5 
REMARK    2  A    between atoms: C5_5  and  N1_6 
REMARK    3  A    between atoms: C14_18  and  C15_19 
REMARK    4  A    between atoms: C15_19  and  C16_20 
REMARK    5  A    between atoms: C15_19  and  C23_27 
REMARK    6  A    between atoms: C16_20  and  C17_21 
REMARK    7  A    between atoms: S1_30  and  N4_31 
ROOT
HETATM    1  N1  UNL     1     -95.615 -14.541  47.083  1.00  0.00    -0.272 N 
HETATM    2  C6  UNL     1     -95.005 -13.726  48.029  1.00  0.00     0.162 C 
HETATM    3  C7  UNL     1     -96.065 -13.695  49.173  1.00  0.00     0.042 C 
HETATM    4  C8  UNL     1     -95.700 -14.673  50.256  1.00  0.00    -0.009 C 
HETATM    5  C9  UNL     1     -95.055 -15.936  49.747  1.00  0.00     0.010 C 
HETATM    6  C10 UNL     1     -96.864 -15.049  51.113  1.00  0.00     0.024 C 
HETATM    7  C11 UNL     1     -98.134 -15.387  50.389  1.00  0.00     0.105 C 
HETATM    8  C12 UNL     1     -98.444 -14.570  49.191  1.00  0.00     0.126 C 
HETATM    9  C13 UNL     1     -99.274 -13.406  49.560  1.00  0.00     0.226 C 
HETATM   10  O1  UNL     1     -98.777 -12.219  49.472  1.00  0.00    -0.273 OA
HETATM   11  N2  UNL     1    -100.598 -13.578  50.005  1.00  0.00    -0.343 N 
ATOM     12  H2  UNL     1    -101.341 -12.992  49.622  1.00  0.00     0.163 HD
HETATM   13  C14 UNL     1    -100.922 -14.600  51.022  1.00  0.00     0.198 C 
HETATM   14  S1  UNL     1     -99.435 -15.358  51.611  1.00  0.00     0.046 S 
HETATM   15  O3  UNL     1     -99.617 -16.736  52.153  1.00  0.00    -0.248 OA
HETATM   16  C24 UNL     1     -97.273 -14.071  48.405  1.00  0.00     0.172 C 
HETATM   17  O4  UNL     1     -96.816 -14.959  47.464  1.00  0.00    -0.272 OA
ENDROOT
BRANCH  13  18
HETATM   18  C15 UNL     1    -102.010 -15.491  50.598  1.00  0.00     0.111 C 
BRANCH  18  19
HETATM   19  C16 UNL     1    -101.741 -16.805  49.999  1.00  0.00     0.021 C 
BRANCH  19  20
HETATM   20  C17 UNL     1    -101.804 -17.111  48.551  1.00  0.00    -0.014 C 
HETATM   21  C18 UNL     1    -100.381 -16.977  48.023  1.00  0.00     0.005 C 
HETATM   22  C19 UNL     1    -100.196 -16.692  46.606  1.00  0.00     0.000 C 
HETATM   23  C20 UNL     1    -101.169 -15.656  46.062  1.00  0.00     0.000 C 
HETATM   24  C21 UNL     1    -102.530 -16.278  46.261  1.00  0.00     0.000 C 
HETATM   25  C22 UNL     1    -102.777 -16.328  47.771  1.00  0.00     0.005 C 
ENDBRANCH  19  20
ENDBRANCH  18  19
BRANCH  18  26
HETATM   26  C23 UNL     1    -103.068 -15.721  51.632  1.00  0.00     0.238 C 
HETATM   27  N3  UNL     1    -104.437 -15.829  51.358  1.00  0.00    -0.062 NA
HETATM   28  O2  UNL     1    -102.691 -15.820  52.824  1.00  0.00    -0.276 OA
ENDBRANCH  18  26
ENDBRANCH  13  18
BRANCH  14  29
HETATM   29  N4  UNL     1     -98.914 -14.559  52.887  1.00  0.00    -0.358 N 
ATOM     30  H42 UNL     1     -97.936 -14.344  53.083  1.00  0.00     0.165 HD
ATOM     31  H41 UNL     1     -99.718 -14.305  53.462  1.00  0.00     0.165 HD
ENDBRANCH  14  29
BRANCH   1  32
HETATM   32  C5  UNL     1     -95.434 -14.291  45.725  1.00  0.00     0.095 C 
BRANCH  32  33
HETATM   33  C4  UNL     1     -95.833 -15.256  44.690  1.00  0.00     0.030 A 
HETATM   34  C2  UNL     1     -95.856 -15.167  43.249  1.00  0.00    -0.009 A 
HETATM   35  C1  UNL     1     -95.550 -14.028  42.352  1.00  0.00     0.011 C 
HETATM   36  C3  UNL     1     -97.167 -15.022  43.984  1.00  0.00     0.015 A 
ENDBRANCH  32  33
ENDBRANCH   1  32
TORSDOF 7
ENDMDL
MODEL 5
REMARK VINA RESULT: -7.917767804      2.568      4.958
REMARK  7 active torsions:
REMARK  status: ('A' for Active; 'I' for Inactive)
REMARK    1  A    between atoms: C4_4  and  C5_5 
REMARK    2  A    between atoms: C5_5  and  N1_6 
REMARK    3  A    between atoms: C14_18  and  C15_19 
REMARK    4  A    between atoms: C15_19  and  C16_20 
REMARK    5  A    between atoms: C15_19  and  C23_27 
REMARK    6  A    between atoms: C16_20  and  C17_21 
REMARK    7  A    between atoms: S1_30  and  N4_31 
ROOT
HETATM    1  N1  UNL     1     -96.729 -14.929  46.779  1.00  0.00    -0.272 N 
HETATM    2  C6  UNL     1     -96.041 -13.736  46.971  1.00  0.00     0.162 C 
HETATM    3  C7  UNL     1     -96.473 -13.332  48.414  1.00  0.00     0.042 C 
HETATM    4  C8  UNL     1     -95.417 -13.724  49.410  1.00  0.00    -0.009 C 
HETATM    5  C9  UNL     1     -94.713 -15.014  49.079  1.00  0.00     0.010 C 
HETATM    6  C10 UNL     1     -95.943 -13.817  50.805  1.00  0.00     0.024 C 
HETATM    7  C11 UNL     1     -97.241 -14.550  50.973  1.00  0.00     0.105 C 
HETATM    8  C12 UNL     1     -98.252 -14.347  49.909  1.00  0.00     0.126 C 
HETATM    9  C13 UNL     1     -99.146 -13.223  50.252  1.00  0.00     0.226 C 
HETATM   10  O1  UNL     1     -99.101 -12.140  49.552  1.00  0.00    -0.273 OA
HETATM   11  N2  UNL     1    -100.043 -13.320  51.332  1.00  0.00    -0.343 N 
ATOM     12  H2  UNL     1    -101.012 -13.025  51.213  1.00  0.00     0.163 HD
HETATM   13  C14 UNL     1     -99.592 -13.847  52.638  1.00  0.00     0.198 C 
HETATM   14  S1  UNL     1     -97.846 -14.138  52.601  1.00  0.00     0.046 S 
HETATM   15  O3  UNL     1     -97.373 -15.172  53.567  1.00  0.00    -0.248 OA
HETATM   16  C24 UNL     1     -97.726 -14.112  48.528  1.00  0.00     0.172 C 
HETATM   17  O4  UNL     1     -97.476 -15.263  47.825  1.00  0.00    -0.272 OA
ENDROOT
BRANCH  13  18
HETATM   18  C15 UNL     1    -100.446 -14.935  53.130  1.00  0.00     0.111 C 
BRANCH  18  19
HETATM   19  C16 UNL     1    -100.376 -16.288  52.562  1.00  0.00     0.021 C 
BRANCH  19  20
HETATM   20  C17 UNL     1    -101.192 -16.780  51.427  1.00  0.00    -0.014 C 
HETATM   21  C18 UNL     1    -100.215 -17.080  50.297  1.00  0.00     0.005 C 
HETATM   22  C19 UNL     1    -100.718 -17.062  48.929  1.00  0.00     0.000 C 
HETATM   23  C20 UNL     1    -101.671 -15.910  48.647  1.00  0.00     0.000 C 
HETATM   24  C21 UNL     1    -102.828 -16.141  49.589  1.00  0.00     0.000 C 
HETATM   25  C22 UNL     1    -102.299 -15.904  51.006  1.00  0.00     0.005 C 
ENDBRANCH  19  20
ENDBRANCH  18  19
BRANCH  18  26
HETATM   26  C23 UNL     1    -100.434 -15.115  54.617  1.00  0.00     0.238 C 
HETATM   27  N3  UNL     1    -100.046 -14.130  55.534  1.00  0.00    -0.062 NA
HETATM   28  O2  UNL     1    -100.798 -16.229  55.061  1.00  0.00    -0.276 OA
ENDBRANCH  18  26
ENDBRANCH  13  18
BRANCH  14  29
HETATM   29  N4  UNL     1     -97.090 -12.830  53.107  1.00  0.00    -0.358 N 
ATOM     30  H42 UNL     1     -96.899 -12.008  52.535  1.00  0.00     0.165 HD
ATOM     31  H41 UNL     1     -96.837 -12.960  54.087  1.00  0.00     0.165 HD
ENDBRANCH  14  29
BRANCH   1  32
HETATM   32  C5  UNL     1     -97.223 -15.255  45.519  1.00  0.00     0.095 C 
BRANCH  32  33
HETATM   33  C4  UNL     1     -98.448 -14.649  44.976  1.00  0.00     0.030 A 
HETATM   34  C2  UNL     1     -99.808 -15.125  44.909  1.00  0.00    -0.009 A 
HETATM   35  C1  UNL     1    -100.391 -16.428  45.306  1.00  0.00     0.011 C 
HETATM   36  C3  UNL     1     -98.976 -15.194  43.651  1.00  0.00     0.015 A 
ENDBRANCH  32  33
ENDBRANCH   1  32
TORSDOF 7
ENDMDL
