MODEL 1
REMARK VINA RESULT: -6.583221993      0.000      0.000
REMARK  9 active torsions:
REMARK  status: ('A' for Active; 'I' for Inactive)
REMARK    1  A    between atoms: C12_15  and  C13_16 
REMARK    2  A    between atoms: C13_16  and  C14_18 
REMARK    3  A    between atoms: C14_18  and  N1_19 
REMARK    4  A    between atoms: N1_19  and  N2_20 
REMARK    5  A    between atoms: C15_26  and  C16_27 
REMARK    6  A    between atoms: C16_27  and  C17_28 
REMARK    7  A    between atoms: C17_28  and  C18_29 
REMARK    8  A    between atoms: C18_29  and  C19_30 
REMARK    9  A    between atoms: C19_30  and  N4_31 
ROOT
HETATM    1  C1  UNL     1    -101.581 -14.772  44.511  1.00  0.00     0.032 C 
HETATM    2  C2  UNL     1    -101.074 -15.450  45.795  1.00  0.00     0.080 C 
HETATM    3  C3  UNL     1     -99.971 -16.393  45.338  1.00  0.00     0.024 C 
HETATM    4  C4  UNL     1     -98.952 -15.549  44.572  1.00  0.00     0.002 C 
HETATM    5  C5  UNL     1     -97.918 -14.971  45.521  1.00  0.00     0.001 C 
HETATM    6  C6  UNL     1     -96.686 -15.826  45.591  1.00  0.00     0.008 C 
HETATM    7  C7  UNL     1     -95.485 -14.924  45.762  1.00  0.00     0.091 C 
HETATM    8  C8  UNL     1     -95.774 -14.003  46.897  1.00  0.00     0.185 C 
HETATM    9  O1  UNL     1     -95.685 -12.816  46.724  1.00  0.00    -0.286 OA
HETATM   10  S1  UNL     1     -96.240 -14.680  48.479  1.00  0.00    -0.092 SA
HETATM   11  C9  UNL     1     -95.612 -13.606  49.802  1.00  0.00     0.092 C 
HETATM   12  C10 UNL     1     -96.707 -12.914  50.553  1.00  0.00     0.084 C 
HETATM   13  S2  UNL     1     -98.320 -13.104  49.717  1.00  0.00    -0.166 SA
HETATM   14  C11 UNL     1     -99.080 -14.610  50.365  1.00  0.00     0.115 C 
HETATM   15  C12 UNL     1    -100.607 -14.555  50.241  1.00  0.00     0.271 C 
HETATM   16  N3  UNL     1    -101.041 -14.888  48.921  1.00  0.00    -0.050 N 
ATOM     17  H31 UNL     1    -100.252 -15.022  48.290  1.00  0.00     0.279 HD
ATOM     18  H32 UNL     1    -101.479 -14.090  48.459  1.00  0.00     0.279 HD
HETATM   19  C15 UNL     1    -101.944 -16.077  48.929  1.00  0.00     0.278 C 
HETATM   20  C20 UNL     1    -102.721 -16.000  47.687  1.00  0.00     0.248 C 
HETATM   21  O3  UNL     1    -103.987 -15.813  47.826  1.00  0.00    -0.271 OA
HETATM   22  N5  UNL     1    -102.190 -16.114  46.368  1.00  0.00    -0.355 N 
ATOM     23  H5  UNL     1    -102.681 -16.763  45.752  1.00  0.00     0.162 HD
ENDROOT
BRANCH  19  24
HETATM   24  C16 UNL     1    -101.110 -17.253  49.172  1.00  0.00     0.043 C 
BRANCH  24  25
HETATM   25  C17 UNL     1    -101.050 -17.945  50.453  1.00  0.00     0.004 C 
BRANCH  25  26
HETATM   26  C18 UNL     1     -99.754 -17.903  51.221  1.00  0.00     0.027 C 
BRANCH  26  27
HETATM   27  C19 UNL     1    -100.020 -17.403  52.658  1.00  0.00     0.229 C 
BRANCH  27  28
HETATM   28  N4  UNL     1     -98.823 -16.851  53.231  1.00  0.00    -0.079 N 
ATOM     29  H43 UNL     1     -98.316 -17.540  53.787  1.00  0.00     0.274 HD
ATOM     30  H42 UNL     1     -98.111 -16.674  52.522  1.00  0.00     0.274 HD
ATOM     31  H41 UNL     1     -99.038 -16.012  53.770  1.00  0.00     0.274 HD
ENDBRANCH  27  28
ENDBRANCH  26  27
ENDBRANCH  25  26
ENDBRANCH  24  25
ENDBRANCH  19  24
BRANCH  15  32
HETATM   32  C13 UNL     1    -101.103 -13.209  50.664  1.00  0.00     0.211 C 
HETATM   33  O2  UNL     1    -101.528 -12.389  49.834  1.00  0.00    -0.288 OA
BRANCH  32  34
HETATM   34  C14 UNL     1    -101.079 -12.872  52.081  1.00  0.00     0.260 C 
BRANCH  34  35
HETATM   35  N1  UNL     1    -101.035 -13.706  53.006  1.00  0.00    -0.342 NA
BRANCH  35  36
HETATM   36  N2  UNL     1    -100.986 -14.339  54.074  1.00  0.00    -0.281 N 
ATOM     37  H22 UNL     1    -101.485 -13.584  54.545  1.00  0.00     0.191 HD
ATOM     38  H21 UNL     1    -100.848 -14.997  54.841  1.00  0.00     0.191 HD
ENDBRANCH  35  36
ENDBRANCH  34  35
ENDBRANCH  32  34
ENDBRANCH  15  32
TORSDOF 9
ENDMDL
MODEL 2
REMARK VINA RESULT: -6.519446294      3.723      6.894
REMARK  9 active torsions:
REMARK  status: ('A' for Active; 'I' for Inactive)
REMARK    1  A    between atoms: C12_15  and  C13_16 
REMARK    2  A    between atoms: C13_16  and  C14_18 
REMARK    3  A    between atoms: C14_18  and  N1_19 
REMARK    4  A    between atoms: N1_19  and  N2_20 
REMARK    5  A    between atoms: C15_26  and  C16_27 
REMARK    6  A    between atoms: C16_27  and  C17_28 
REMARK    7  A    between atoms: C17_28  and  C18_29 
REMARK    8  A    between atoms: C18_29  and  C19_30 
REMARK    9  A    between atoms: C19_30  and  N4_31 
ROOT
HETATM    1  C1  UNL     1     -95.588 -11.943  51.830  1.00  0.00     0.032 C 
HETATM    2  C2  UNL     1     -96.235 -13.320  51.610  1.00  0.00     0.080 C 
HETATM    3  C3  UNL     1     -95.257 -14.319  52.211  1.00  0.00     0.024 C 
HETATM    4  C4  UNL     1     -95.032 -13.903  53.665  1.00  0.00     0.002 C 
HETATM    5  C5  UNL     1     -96.073 -14.539  54.569  1.00  0.00     0.001 C 
HETATM    6  C6  UNL     1     -95.571 -15.813  55.186  1.00  0.00     0.008 C 
HETATM    7  C7  UNL     1     -96.141 -15.926  56.581  1.00  0.00     0.091 C 
HETATM    8  C8  UNL     1     -97.613 -15.719  56.484  1.00  0.00     0.185 C 
HETATM    9  O1  UNL     1     -98.131 -14.871  57.164  1.00  0.00    -0.286 OA
HETATM   10  S1  UNL     1     -98.569 -16.727  55.366  1.00  0.00    -0.092 SA
HETATM   11  C9  UNL     1    -100.223 -16.998  56.067  1.00  0.00     0.092 C 
HETATM   12  C10 UNL     1    -101.302 -16.322  55.278  1.00  0.00     0.084 C 
HETATM   13  S2  UNL     1    -100.610 -15.169  54.041  1.00  0.00    -0.166 SA
HETATM   14  C11 UNL     1    -100.349 -16.114  52.523  1.00  0.00     0.115 C 
HETATM   15  C12 UNL     1    -100.376 -15.200  51.293  1.00  0.00     0.271 C 
HETATM   16  N3  UNL     1     -99.128 -14.530  51.106  1.00  0.00    -0.050 N 
ATOM     17  H31 UNL     1     -98.481 -14.724  51.869  1.00  0.00     0.279 HD
ATOM     18  H32 UNL     1     -99.222 -13.522  51.232  1.00  0.00     0.279 HD
HETATM   19  C15 UNL     1     -98.525 -14.861  49.781  1.00  0.00     0.278 C 
HETATM   20  C20 UNL     1     -97.594 -13.769  49.478  1.00  0.00     0.248 C 
HETATM   21  O3  UNL     1     -97.896 -13.037  48.464  1.00  0.00    -0.271 OA
HETATM   22  N5  UNL     1     -96.407 -13.466  50.208  1.00  0.00    -0.355 N 
ATOM     23  H5  UNL     1     -95.566 -13.335  49.645  1.00  0.00     0.162 HD
ENDROOT
BRANCH  19  24
HETATM   24  C16 UNL     1     -98.013 -16.228  49.865  1.00  0.00     0.043 C 
BRANCH  24  25
HETATM   25  C17 UNL     1     -97.374 -16.918  48.753  1.00  0.00     0.004 C 
BRANCH  25  26
HETATM   26  C18 UNL     1     -98.084 -16.933  47.425  1.00  0.00     0.027 C 
BRANCH  26  27
HETATM   27  C19 UNL     1     -97.348 -16.007  46.432  1.00  0.00     0.229 C 
BRANCH  27  28
HETATM   28  N4  UNL     1     -98.202 -14.926  46.021  1.00  0.00    -0.079 N 
ATOM     29  H43 UNL     1     -97.670 -14.157  45.613  1.00  0.00     0.274 HD
ATOM     30  H42 UNL     1     -98.761 -15.175  45.205  1.00  0.00     0.274 HD
ATOM     31  H41 UNL     1     -98.785 -14.614  46.798  1.00  0.00     0.274 HD
ENDBRANCH  27  28
ENDBRANCH  26  27
ENDBRANCH  25  26
ENDBRANCH  24  25
ENDBRANCH  19  24
BRANCH  15  32
HETATM   32  C13 UNL     1    -101.511 -14.234  51.402  1.00  0.00     0.211 C 
HETATM   33  O2  UNL     1    -102.691 -14.621  51.390  1.00  0.00    -0.288 OA
BRANCH  32  34
HETATM   34  C14 UNL     1    -101.207 -12.814  51.523  1.00  0.00     0.260 C 
BRANCH  34  35
HETATM   35  N1  UNL     1    -100.755 -12.106  50.602  1.00  0.00    -0.342 NA
BRANCH  35  36
HETATM   36  N2  UNL     1    -100.144 -11.323  49.856  1.00  0.00    -0.281 N 
ATOM     37  H22 UNL     1    -100.431 -10.539  50.442  1.00  0.00     0.191 HD
ATOM     38  H21 UNL     1     -99.595 -10.848  49.140  1.00  0.00     0.191 HD
ENDBRANCH  35  36
ENDBRANCH  34  35
ENDBRANCH  32  34
ENDBRANCH  15  32
TORSDOF 9
ENDMDL
MODEL 3
REMARK VINA RESULT: -6.320435170      3.104      4.870
REMARK  9 active torsions:
REMARK  status: ('A' for Active; 'I' for Inactive)
REMARK    1  A    between atoms: C12_15  and  C13_16 
REMARK    2  A    between atoms: C13_16  and  C14_18 
REMARK    3  A    between atoms: C14_18  and  N1_19 
REMARK    4  A    between atoms: N1_19  and  N2_20 
REMARK    5  A    between atoms: C15_26  and  C16_27 
REMARK    6  A    between atoms: C16_27  and  C17_28 
REMARK    7  A    between atoms: C17_28  and  C18_29 
REMARK    8  A    between atoms: C18_29  and  C19_30 
REMARK    9  A    between atoms: C19_30  and  N4_31 
ROOT
HETATM    1  C1  UNL     1    -101.091 -12.000  50.239  1.00  0.00     0.032 C 
HETATM    2  C2  UNL     1    -100.634 -13.451  50.461  1.00  0.00     0.080 C 
HETATM    3  C3  UNL     1     -99.586 -13.707  49.389  1.00  0.00     0.024 C 
HETATM    4  C4  UNL     1     -98.513 -12.629  49.548  1.00  0.00     0.002 C 
HETATM    5  C5  UNL     1     -97.453 -13.074  50.540  1.00  0.00     0.001 C 
HETATM    6  C6  UNL     1     -96.275 -13.700  49.852  1.00  0.00     0.008 C 
HETATM    7  C7  UNL     1     -95.024 -13.339  50.620  1.00  0.00     0.091 C 
HETATM    8  C8  UNL     1     -95.266 -13.669  52.053  1.00  0.00     0.185 C 
HETATM    9  O1  UNL     1     -95.106 -12.814  52.885  1.00  0.00    -0.286 OA
HETATM   10  S1  UNL     1     -95.783 -15.316  52.498  1.00  0.00    -0.092 SA
HETATM   11  C9  UNL     1     -95.102 -15.740  54.127  1.00  0.00     0.092 C 
HETATM   12  C10 UNL     1     -96.159 -15.871  55.180  1.00  0.00     0.084 C 
HETATM   13  S2  UNL     1     -97.775 -15.255  54.589  1.00  0.00    -0.166 SA
HETATM   14  C11 UNL     1     -98.627 -16.652  53.822  1.00  0.00     0.115 C 
HETATM   15  C12 UNL     1    -100.147 -16.456  53.856  1.00  0.00     0.271 C 
HETATM   16  N3  UNL     1    -100.591 -15.592  52.807  1.00  0.00    -0.050 N 
ATOM     17  H31 UNL     1     -99.806 -15.206  52.283  1.00  0.00     0.279 HD
ATOM     18  H32 UNL     1    -100.977 -14.723  53.177  1.00  0.00     0.279 HD
HETATM   19  C15 UNL     1    -101.562 -16.283  51.908  1.00  0.00     0.278 C 
HETATM   20  C20 UNL     1    -102.325 -15.218  51.246  1.00  0.00     0.248 C 
HETATM   21  O3  UNL     1    -103.578 -15.163  51.533  1.00  0.00    -0.271 OA
HETATM   22  N5  UNL     1    -101.792 -14.264  50.331  1.00  0.00    -0.355 N 
ATOM     23  H5  UNL     1    -102.315 -14.148  49.463  1.00  0.00     0.162 HD
ENDROOT
BRANCH  19  24
HETATM   24  C16 UNL     1    -100.801 -17.225  51.088  1.00  0.00     0.043 C 
BRANCH  24  25
HETATM   25  C17 UNL     1    -101.124 -17.526  49.700  1.00  0.00     0.004 C 
BRANCH  25  26
HETATM   26  C18 UNL     1    -100.187 -17.028  48.630  1.00  0.00     0.027 C 
BRANCH  26  27
HETATM   27  C19 UNL     1    -101.003 -16.515  47.424  1.00  0.00     0.229 C 
BRANCH  27  28
HETATM   28  N4  UNL     1    -100.143 -16.275  46.297  1.00  0.00    -0.079 N 
ATOM     29  H43 UNL     1     -99.167 -16.178  46.578  1.00  0.00     0.274 HD
ATOM     30  H42 UNL     1    -100.051 -17.103  45.708  1.00  0.00     0.274 HD
ATOM     31  H41 UNL     1    -100.467 -15.466  45.765  1.00  0.00     0.274 HD
ENDBRANCH  27  28
ENDBRANCH  26  27
ENDBRANCH  25  26
ENDBRANCH  24  25
ENDBRANCH  19  24
BRANCH  15  32
HETATM   32  C13 UNL     1    -100.566 -15.954  55.200  1.00  0.00     0.211 C 
HETATM   33  O2  UNL     1    -100.672 -14.739  55.430  1.00  0.00    -0.288 OA
BRANCH  32  34
HETATM   34  C14 UNL     1    -100.851 -16.926  56.248  1.00  0.00     0.260 C 
BRANCH  34  35
HETATM   35  N1  UNL     1    -101.931 -17.006  56.865  1.00  0.00    -0.342 NA
BRANCH  35  36
HETATM   36  N2  UNL     1    -103.089 -16.932  57.305  1.00  0.00    -0.281 N 
ATOM     37  H22 UNL     1    -102.873 -16.028  57.725  1.00  0.00     0.191 HD
ATOM     38  H21 UNL     1    -104.065 -17.051  57.577  1.00  0.00     0.191 HD
ENDBRANCH  35  36
ENDBRANCH  34  35
ENDBRANCH  32  34
ENDBRANCH  15  32
TORSDOF 9
ENDMDL
MODEL 4
REMARK VINA RESULT: -6.069166922      1.711      2.135
REMARK  9 active torsions:
REMARK  status: ('A' for Active; 'I' for Inactive)
REMARK    1  A    between atoms: C12_15  and  C13_16 
REMARK    2  A    between atoms: C13_16  and  C14_18 
REMARK    3  A    between atoms: C14_18  and  N1_19 
REMARK    4  A    between atoms: N1_19  and  N2_20 
REMARK    5  A    between atoms: C15_26  and  C16_27 
REMARK    6  A    between atoms: C16_27  and  C17_28 
REMARK    7  A    between atoms: C17_28  and  C18_29 
REMARK    8  A    between atoms: C18_29  and  C19_30 
REMARK    9  A    between atoms: C19_30  and  N4_31 
ROOT
HETATM    1  C1  UNL     1    -102.693 -15.257  46.558  1.00  0.00     0.032 C 
HETATM    2  C2  UNL     1    -101.792 -15.894  47.629  1.00  0.00     0.080 C 
HETATM    3  C3  UNL     1    -100.918 -16.885  46.875  1.00  0.00     0.024 C 
HETATM    4  C4  UNL     1    -100.205 -16.101  45.773  1.00  0.00     0.002 C 
HETATM    5  C5  UNL     1     -98.905 -15.513  46.292  1.00  0.00     0.001 C 
HETATM    6  C6  UNL     1     -97.731 -16.398  45.986  1.00  0.00     0.008 C 
HETATM    7  C7  UNL     1     -96.533 -15.522  45.702  1.00  0.00     0.091 C 
HETATM    8  C8  UNL     1     -96.412 -14.548  46.823  1.00  0.00     0.185 C 
HETATM    9  O1  UNL     1     -96.373 -13.372  46.574  1.00  0.00    -0.286 OA
HETATM   10  S1  UNL     1     -96.329 -15.147  48.501  1.00  0.00    -0.092 SA
HETATM   11  C9  UNL     1     -95.280 -14.036  49.483  1.00  0.00     0.092 C 
HETATM   12  C10 UNL     1     -96.051 -13.284  50.524  1.00  0.00     0.084 C 
HETATM   13  S2  UNL     1     -97.854 -13.464  50.286  1.00  0.00    -0.166 SA
HETATM   14  C11 UNL     1     -98.370 -14.921  51.223  1.00  0.00     0.115 C 
HETATM   15  C12 UNL     1     -99.849 -14.830  51.614  1.00  0.00     0.271 C 
HETATM   16  N3  UNL     1    -100.705 -15.205  50.533  1.00  0.00    -0.050 N 
ATOM     17  H31 UNL     1    -100.175 -15.386  49.681  1.00  0.00     0.279 HD
ATOM     18  H32 UNL     1    -101.263 -14.415  50.206  1.00  0.00     0.279 HD
HETATM   19  C15 UNL     1    -101.567 -16.368  50.900  1.00  0.00     0.278 C 
HETATM   20  C20 UNL     1    -102.715 -16.321  49.987  1.00  0.00     0.248 C 
HETATM   21  O3  UNL     1    -103.858 -16.094  50.533  1.00  0.00    -0.271 OA
HETATM   22  N5  UNL     1    -102.659 -16.504  48.575  1.00  0.00    -0.355 N 
ATOM     23  H5  UNL     1    -103.335 -17.164  48.190  1.00  0.00     0.162 HD
ENDROOT
BRANCH  19  24
HETATM   24  C16 UNL     1    -100.714 -17.555  50.906  1.00  0.00     0.043 C 
BRANCH  24  25
HETATM   25  C17 UNL     1    -100.287 -18.233  52.123  1.00  0.00     0.004 C 
BRANCH  25  26
HETATM   26  C18 UNL     1    -101.069 -17.981  53.387  1.00  0.00     0.027 C 
BRANCH  26  27
HETATM   27  C19 UNL     1    -100.307 -16.975  54.275  1.00  0.00     0.229 C 
BRANCH  27  28
HETATM   28  N4  UNL     1    -101.203 -15.975  54.790  1.00  0.00    -0.079 N 
ATOM     29  H43 UNL     1    -101.693 -16.299  55.624  1.00  0.00     0.274 HD
ATOM     30  H42 UNL     1    -100.698 -15.191  55.204  1.00  0.00     0.274 HD
ATOM     31  H41 UNL     1    -101.851 -15.668  54.064  1.00  0.00     0.274 HD
ENDBRANCH  27  28
ENDBRANCH  26  27
ENDBRANCH  25  26
ENDBRANCH  24  25
ENDBRANCH  19  24
BRANCH  15  32
HETATM   32  C13 UNL     1    -100.159 -13.455  52.113  1.00  0.00     0.211 C 
HETATM   33  O2  UNL     1     -99.554 -12.969  53.082  1.00  0.00    -0.288 OA
BRANCH  32  34
HETATM   34  C14 UNL     1    -101.196 -12.687  51.437  1.00  0.00     0.260 C 
BRANCH  34  35
HETATM   35  N1  UNL     1    -100.991 -11.896  50.496  1.00  0.00    -0.342 NA
BRANCH  35  36
HETATM   36  N2  UNL     1    -100.559 -11.091  49.654  1.00  0.00    -0.281 N 
ATOM     37  H22 UNL     1    -101.162 -11.508  48.945  1.00  0.00     0.191 HD
ATOM     38  H21 UNL     1    -100.093 -10.360  49.117  1.00  0.00     0.191 HD
ENDBRANCH  35  36
ENDBRANCH  34  35
ENDBRANCH  32  34
ENDBRANCH  15  32
TORSDOF 9
ENDMDL
MODEL 5
REMARK VINA RESULT: -5.970320420      1.766      2.654
REMARK  9 active torsions:
REMARK  status: ('A' for Active; 'I' for Inactive)
REMARK    1  A    between atoms: C12_15  and  C13_16 
REMARK    2  A    between atoms: C13_16  and  C14_18 
REMARK    3  A    between atoms: C14_18  and  N1_19 
REMARK    4  A    between atoms: N1_19  and  N2_20 
REMARK    5  A    between atoms: C15_26  and  C16_27 
REMARK    6  A    between atoms: C16_27  and  C17_28 
REMARK    7  A    between atoms: C17_28  and  C18_29 
REMARK    8  A    between atoms: C18_29  and  C19_30 
REMARK    9  A    between atoms: C19_30  and  N4_31 
ROOT
HETATM    1  C1  UNL     1    -104.417 -15.102  47.277  1.00  0.00     0.032 C 
HETATM    2  C2  UNL     1    -103.211 -15.776  47.953  1.00  0.00     0.080 C 
HETATM    3  C3  UNL     1    -102.779 -16.873  46.992  1.00  0.00     0.024 C 
HETATM    4  C4  UNL     1    -102.510 -16.203  45.643  1.00  0.00     0.002 C 
HETATM    5  C5  UNL     1    -101.074 -15.717  45.566  1.00  0.00     0.001 C 
HETATM    6  C6  UNL     1    -100.182 -16.718  44.891  1.00  0.00     0.008 C 
HETATM    7  C7  UNL     1     -99.137 -15.968  44.096  1.00  0.00     0.091 C 
HETATM    8  C8  UNL     1     -98.515 -14.965  45.005  1.00  0.00     0.185 C 
HETATM    9  O1  UNL     1     -98.497 -13.808  44.675  1.00  0.00    -0.286 OA
HETATM   10  S1  UNL     1     -97.814 -15.501  46.555  1.00  0.00    -0.092 SA
HETATM   11  C9  UNL     1     -96.388 -14.453  46.963  1.00  0.00     0.092 C 
HETATM   12  C10 UNL     1     -96.629 -13.591  48.164  1.00  0.00     0.084 C 
HETATM   13  S2  UNL     1     -98.385 -13.614  48.666  1.00  0.00    -0.166 SA
HETATM   14  C11 UNL     1     -98.586 -14.978  49.835  1.00  0.00     0.115 C 
HETATM   15  C12 UNL     1     -99.778 -14.736  50.767  1.00  0.00     0.271 C 
HETATM   16  N3  UNL     1    -101.017 -15.073  50.139  1.00  0.00    -0.050 N 
ATOM     17  H31 UNL     1    -100.882 -15.337  49.163  1.00  0.00     0.279 HD
ATOM     18  H32 UNL     1    -101.602 -14.250  50.000  1.00  0.00     0.279 HD
HETATM   19  C15 UNL     1    -101.739 -16.137  50.898  1.00  0.00     0.278 C 
HETATM   20  C20 UNL     1    -103.149 -16.021  50.509  1.00  0.00     0.248 C 
HETATM   21  O3  UNL     1    -103.963 -15.668  51.441  1.00  0.00    -0.271 OA
HETATM   22  N5  UNL     1    -103.671 -16.265  49.205  1.00  0.00    -0.355 N 
ATOM     23  H5  UNL     1    -104.488 -16.875  49.165  1.00  0.00     0.162 HD
ENDROOT
BRANCH  19  24
HETATM   24  C16 UNL     1    -101.038 -17.396  50.657  1.00  0.00     0.043 C 
BRANCH  24  25
HETATM   25  C17 UNL     1    -100.289 -18.110  51.683  1.00  0.00     0.004 C 
BRANCH  25  26
HETATM   26  C18 UNL     1    -100.717 -17.943  53.118  1.00  0.00     0.027 C 
BRANCH  26  27
HETATM   27  C19 UNL     1     -99.908 -16.801  53.770  1.00  0.00     0.229 C 
BRANCH  27  28
HETATM   28  N4  UNL     1     -98.570 -16.766  53.247  1.00  0.00    -0.079 N 
ATOM     29  H43 UNL     1     -98.432 -17.461  52.512  1.00  0.00     0.274 HD
ATOM     30  H42 UNL     1     -98.401 -15.925  52.694  1.00  0.00     0.274 HD
ATOM     31  H41 UNL     1     -97.888 -16.868  53.999  1.00  0.00     0.274 HD
ENDBRANCH  27  28
ENDBRANCH  26  27
ENDBRANCH  25  26
ENDBRANCH  24  25
ENDBRANCH  19  24
BRANCH  15  32
HETATM   32  C13 UNL     1     -99.769 -13.319  51.245  1.00  0.00     0.211 C 
HETATM   33  O2  UNL     1    -100.612 -12.499  50.848  1.00  0.00    -0.288 OA
BRANCH  32  34
HETATM   34  C14 UNL     1     -98.743 -12.912  52.196  1.00  0.00     0.260 C 
BRANCH  34  35
HETATM   35  N1  UNL     1     -98.666 -13.319  53.372  1.00  0.00    -0.342 NA
BRANCH  35  36
HETATM   36  N2  UNL     1     -98.642 -13.490  54.602  1.00  0.00    -0.281 N 
ATOM     37  H22 UNL     1     -99.484 -12.922  54.698  1.00  0.00     0.191 HD
ATOM     38  H21 UNL     1     -98.457 -13.740  55.573  1.00  0.00     0.191 HD
ENDBRANCH  35  36
ENDBRANCH  34  35
ENDBRANCH  32  34
ENDBRANCH  15  32
TORSDOF 9
ENDMDL
