MODEL 1
REMARK VINA RESULT: -7.287896684      0.000      0.000
REMARK  9 active torsions:
REMARK  status: ('A' for Active; 'I' for Inactive)
REMARK    1  A    between atoms: C2_2  and  C3_3 
REMARK    2  A    between atoms: C3_3  and  S1_4 
REMARK    3  A    between atoms: S1_4  and  N1_5 
REMARK    4  A    between atoms: N1_5  and  C4_7 
REMARK    5  A    between atoms: C5_8  and  C6_9 
REMARK    6  A    between atoms: C7_12  and  C8_13 
REMARK    7  A    between atoms: C8_13  and  O1_16 
REMARK       I    between atoms: N2_19  and  C12_20 
REMARK       I    between atoms: C12_20  and  N3_22 
REMARK    8  A    between atoms: N3_22  and  C13_24 
REMARK    9  A    between atoms: C18_29  and  N4_30 
ROOT
HETATM    1  C4  UNL     1     -28.957  -0.390 -27.716  1.00  0.00     0.118 A 
HETATM    2  C5  UNL     1     -30.112  -0.438 -26.959  1.00  0.00     0.049 A 
HETATM    3  C7  UNL     1     -30.513  -1.585 -26.308  1.00  0.00     0.005 A 
HETATM    4  C11 UNL     1     -29.689  -2.698 -26.454  1.00  0.00     0.116 A 
HETATM    5  N2  UNL     1     -28.568  -2.709 -27.170  1.00  0.00    -0.238 N 
HETATM    6  C12 UNL     1     -27.728  -3.868 -27.311  1.00  0.00     0.334 C 
HETATM    7  O2  UNL     1     -26.708  -3.719 -28.016  1.00  0.00    -0.246 OA
HETATM    8  N3  UNL     1     -28.031  -5.073 -26.705  1.00  0.00    -0.306 N 
ATOM      9  H3  UNL     1     -28.887  -5.081 -26.150  1.00  0.00     0.171 HD
HETATM   10  C23 UNL     1     -28.218  -1.544 -27.795  1.00  0.00     0.283 A 
HETATM   11  O3  UNL     1     -27.149  -1.591 -28.466  1.00  0.00    -0.265 OA
ENDROOT
BRANCH   3  12
HETATM   12  C8  UNL     1     -31.742  -1.659 -25.490  1.00  0.00     0.080 C 
HETATM   13  C9  UNL     1     -31.723  -0.492 -24.500  1.00  0.00     0.051 C 
HETATM   14  C10 UNL     1     -31.837  -2.893 -24.632  1.00  0.00     0.051 C 
BRANCH  12  15
HETATM   15  O1  UNL     1     -32.913  -1.420 -26.239  1.00  0.00    -0.386 OA
ATOM     16  H1  UNL     1     -33.559  -0.912 -25.762  1.00  0.00     0.211 HD
ENDBRANCH  12  15
ENDBRANCH   3  12
BRANCH   8  17
HETATM   17  C13 UNL     1     -27.318  -6.302 -26.745  1.00  0.00     0.063 A 
HETATM   18  C14 UNL     1     -27.020  -7.005 -27.889  1.00  0.00     0.032 A 
HETATM   19  C15 UNL     1     -26.356  -8.228 -27.915  1.00  0.00     0.002 A 
HETATM   20  C16 UNL     1     -25.964  -8.784 -26.721  1.00  0.00     0.002 A 
HETATM   21  C17 UNL     1     -26.237  -8.123 -25.556  1.00  0.00     0.031 A 
HETATM   22  C18 UNL     1     -26.905  -6.894 -25.541  1.00  0.00     0.057 A 
BRANCH  22  23
HETATM   23  N4  UNL     1     -27.122  -6.254 -24.315  1.00  0.00    -0.379 N 
HETATM   24  C19 UNL     1     -28.218  -6.452 -23.402  1.00  0.00     0.123 C 
HETATM   25  C20 UNL     1     -28.626  -5.017 -23.011  1.00  0.00     0.021 C 
HETATM   26  C21 UNL     1     -27.287  -4.310 -22.994  1.00  0.00     0.021 C 
HETATM   27  C22 UNL     1     -26.299  -5.241 -23.706  1.00  0.00     0.123 C 
ENDBRANCH  22  23
ENDBRANCH   8  17
BRANCH   1  28
HETATM   28  N1  UNL     1     -28.572   0.743 -28.359  1.00  0.00    -0.343 N 
ATOM     29  H1  UNL     1     -29.060   0.887 -29.244  1.00  0.00     0.172 HD
BRANCH  28  30
HETATM   30  S1  UNL     1     -27.337   2.103 -27.968  1.00  0.00    -0.179 SA
HETATM   31  C24 UNL     1     -26.206   2.582 -29.534  1.00  0.00     0.074 C 
HETATM   32  C25 UNL     1     -26.978   3.664 -30.309  1.00  0.00     0.011 C 
HETATM   33  C26 UNL     1     -28.417   3.121 -30.218  1.00  0.00     0.011 C 
HETATM   34  C27 UNL     1     -28.581   3.361 -28.703  1.00  0.00     0.074 C 
BRANCH  30  35
HETATM   35  C3  UNL     1     -27.182   2.984 -26.381  1.00  0.00     0.073 C 
BRANCH  35  36
HETATM   36  C2  UNL     1     -26.417   2.234 -25.323  1.00  0.00     0.006 C 
HETATM   37  C1  UNL     1     -27.024   0.944 -24.872  1.00  0.00     0.006 C 
ENDBRANCH  35  36
ENDBRANCH  30  35
ENDBRANCH  28  30
ENDBRANCH   1  28
BRANCH   2  38
HETATM   38  C6  UNL     1     -30.912   0.802 -26.873  1.00  0.00     0.389 C 
HETATM   39  F1  UNL     1     -31.162   1.231 -28.164  1.00  0.00    -0.209 F 
HETATM   40  F2  UNL     1     -30.164   1.724 -26.154  1.00  0.00    -0.209 F 
ENDBRANCH   2  38
TORSDOF 9
ENDMDL
MODEL 2
REMARK VINA RESULT: -7.283479831      3.172      8.247
REMARK  9 active torsions:
REMARK  status: ('A' for Active; 'I' for Inactive)
REMARK    1  A    between atoms: C2_2  and  C3_3 
REMARK    2  A    between atoms: C3_3  and  S1_4 
REMARK    3  A    between atoms: S1_4  and  N1_5 
REMARK    4  A    between atoms: N1_5  and  C4_7 
REMARK    5  A    between atoms: C5_8  and  C6_9 
REMARK    6  A    between atoms: C7_12  and  C8_13 
REMARK    7  A    between atoms: C8_13  and  O1_16 
REMARK       I    between atoms: N2_19  and  C12_20 
REMARK       I    between atoms: C12_20  and  N3_22 
REMARK    8  A    between atoms: N3_22  and  C13_24 
REMARK    9  A    between atoms: C18_29  and  N4_30 
ROOT
HETATM    1  C4  UNL     1     -28.057  -1.307 -27.980  1.00  0.00     0.118 A 
HETATM    2  C5  UNL     1     -27.485  -0.488 -28.935  1.00  0.00     0.049 A 
HETATM    3  C7  UNL     1     -27.776   0.858 -29.014  1.00  0.00     0.005 A 
HETATM    4  C11 UNL     1     -28.680   1.350 -28.075  1.00  0.00     0.116 A 
HETATM    5  N2  UNL     1     -29.259   0.609 -27.135  1.00  0.00    -0.238 N 
HETATM    6  C12 UNL     1     -30.191   1.133 -26.173  1.00  0.00     0.334 C 
HETATM    7  O2  UNL     1     -30.649   0.311 -25.353  1.00  0.00    -0.246 OA
HETATM    8  N3  UNL     1     -30.557   2.467 -26.157  1.00  0.00    -0.306 N 
ATOM      9  H3  UNL     1     -30.121   3.050 -26.871  1.00  0.00     0.171 HD
HETATM   10  C23 UNL     1     -28.935  -0.720 -27.103  1.00  0.00     0.283 A 
HETATM   11  O3  UNL     1     -29.504  -1.393 -26.198  1.00  0.00    -0.265 OA
ENDROOT
BRANCH   3  12
HETATM   12  C8  UNL     1     -27.176   1.753 -30.024  1.00  0.00     0.080 C 
HETATM   13  C9  UNL     1     -26.684   3.013 -29.307  1.00  0.00     0.051 C 
HETATM   14  C10 UNL     1     -28.147   2.252 -31.060  1.00  0.00     0.051 C 
BRANCH  12  15
HETATM   15  O1  UNL     1     -25.994   1.228 -30.588  1.00  0.00    -0.386 OA
ATOM     16  H1  UNL     1     -26.015   0.282 -30.674  1.00  0.00     0.211 HD
ENDBRANCH  12  15
ENDBRANCH   3  12
BRANCH   8  17
HETATM   17  C13 UNL     1     -31.458   3.139 -25.286  1.00  0.00     0.063 A 
HETATM   18  C14 UNL     1     -32.797   3.334 -25.532  1.00  0.00     0.032 A 
HETATM   19  C15 UNL     1     -33.662   4.028 -24.691  1.00  0.00     0.002 A 
HETATM   20  C16 UNL     1     -33.157   4.562 -23.530  1.00  0.00     0.002 A 
HETATM   21  C17 UNL     1     -31.831   4.394 -23.241  1.00  0.00     0.031 A 
HETATM   22  C18 UNL     1     -30.970   3.694 -24.093  1.00  0.00     0.057 A 
BRANCH  22  23
HETATM   23  N4  UNL     1     -29.631   3.530 -23.719  1.00  0.00    -0.379 N 
HETATM   24  C19 UNL     1     -28.496   4.305 -24.149  1.00  0.00     0.123 C 
HETATM   25  C20 UNL     1     -27.429   3.238 -24.467  1.00  0.00     0.021 C 
HETATM   26  C21 UNL     1     -27.715   2.191 -23.411  1.00  0.00     0.021 C 
HETATM   27  C22 UNL     1     -29.093   2.532 -22.830  1.00  0.00     0.123 C 
ENDBRANCH  22  23
ENDBRANCH   8  17
BRANCH   1  28
HETATM   28  N1  UNL     1     -27.769  -2.632 -27.913  1.00  0.00    -0.343 N 
ATOM     29  H1  UNL     1     -27.855  -3.107 -28.812  1.00  0.00     0.172 HD
BRANCH  28  30
HETATM   30  S1  UNL     1     -27.246  -3.781 -26.521  1.00  0.00    -0.179 SA
HETATM   31  C24 UNL     1     -27.486  -5.701 -26.983  1.00  0.00     0.074 C 
HETATM   32  C25 UNL     1     -26.187  -6.143 -27.680  1.00  0.00     0.011 C 
HETATM   33  C26 UNL     1     -25.892  -4.912 -28.559  1.00  0.00     0.011 C 
HETATM   34  C27 UNL     1     -25.549  -3.963 -27.392  1.00  0.00     0.074 C 
BRANCH  30  35
HETATM   35  C3  UNL     1     -26.522  -3.271 -24.929  1.00  0.00     0.073 C 
BRANCH  35  36
HETATM   36  C2  UNL     1     -26.972  -4.090 -23.748  1.00  0.00     0.006 C 
HETATM   37  C1  UNL     1     -26.177  -5.326 -23.472  1.00  0.00     0.006 C 
ENDBRANCH  35  36
ENDBRANCH  30  35
ENDBRANCH  28  30
ENDBRANCH   1  28
BRANCH   2  38
HETATM   38  C6  UNL     1     -26.542  -1.116 -29.882  1.00  0.00     0.389 C 
HETATM   39  F1  UNL     1     -27.107  -2.302 -30.315  1.00  0.00    -0.209 F 
HETATM   40  F2  UNL     1     -25.352  -1.327 -29.198  1.00  0.00    -0.209 F 
ENDBRANCH   2  38
TORSDOF 9
ENDMDL
MODEL 3
REMARK VINA RESULT: -7.273184831      3.283      8.403
REMARK  9 active torsions:
REMARK  status: ('A' for Active; 'I' for Inactive)
REMARK    1  A    between atoms: C2_2  and  C3_3 
REMARK    2  A    between atoms: C3_3  and  S1_4 
REMARK    3  A    between atoms: S1_4  and  N1_5 
REMARK    4  A    between atoms: N1_5  and  C4_7 
REMARK    5  A    between atoms: C5_8  and  C6_9 
REMARK    6  A    between atoms: C7_12  and  C8_13 
REMARK    7  A    between atoms: C8_13  and  O1_16 
REMARK       I    between atoms: N2_19  and  C12_20 
REMARK       I    between atoms: C12_20  and  N3_22 
REMARK    8  A    between atoms: N3_22  and  C13_24 
REMARK    9  A    between atoms: C18_29  and  N4_30 
ROOT
HETATM    1  C4  UNL     1     -28.354  -1.027 -27.932  1.00  0.00     0.118 A 
HETATM    2  C5  UNL     1     -27.867  -0.219 -28.942  1.00  0.00     0.049 A 
HETATM    3  C7  UNL     1     -28.181   1.121 -29.023  1.00  0.00     0.005 A 
HETATM    4  C11 UNL     1     -29.017   1.621 -28.027  1.00  0.00     0.116 A 
HETATM    5  N2  UNL     1     -29.513   0.890 -27.033  1.00  0.00    -0.238 N 
HETATM    6  C12 UNL     1     -30.377   1.422 -26.012  1.00  0.00     0.334 C 
HETATM    7  O2  UNL     1     -30.760   0.610 -25.145  1.00  0.00    -0.246 OA
HETATM    8  N3  UNL     1     -30.758   2.751 -25.993  1.00  0.00    -0.306 N 
ATOM      9  H3  UNL     1     -30.384   3.326 -26.747  1.00  0.00     0.171 HD
HETATM   10  C23 UNL     1     -29.171  -0.433 -27.001  1.00  0.00     0.283 A 
HETATM   11  O3  UNL     1     -29.661  -1.096 -26.044  1.00  0.00    -0.265 OA
ENDROOT
BRANCH   3  12
HETATM   12  C8  UNL     1     -27.670   2.005 -30.091  1.00  0.00     0.080 C 
HETATM   13  C9  UNL     1     -27.810   3.453 -29.615  1.00  0.00     0.051 C 
HETATM   14  C10 UNL     1     -28.458   1.940 -31.372  1.00  0.00     0.051 C 
BRANCH  12  15
HETATM   15  O1  UNL     1     -26.281   1.871 -30.295  1.00  0.00    -0.386 OA
ATOM     16  H1  UNL     1     -26.025   2.011 -31.200  1.00  0.00     0.211 HD
ENDBRANCH  12  15
ENDBRANCH   3  12
BRANCH   8  17
HETATM   17  C13 UNL     1     -31.599   3.429 -25.068  1.00  0.00     0.063 A 
HETATM   18  C14 UNL     1     -32.926   3.725 -25.277  1.00  0.00     0.032 A 
HETATM   19  C15 UNL     1     -33.730   4.424 -24.381  1.00  0.00     0.002 A 
HETATM   20  C16 UNL     1     -33.173   4.856 -23.202  1.00  0.00     0.002 A 
HETATM   21  C17 UNL     1     -31.857   4.586 -22.949  1.00  0.00     0.031 A 
HETATM   22  C18 UNL     1     -31.057   3.882 -23.855  1.00  0.00     0.057 A 
BRANCH  22  23
HETATM   23  N4  UNL     1     -29.727   3.610 -23.516  1.00  0.00    -0.379 N 
HETATM   24  C19 UNL     1     -28.545   4.297 -23.972  1.00  0.00     0.123 C 
HETATM   25  C20 UNL     1     -27.574   3.151 -24.323  1.00  0.00     0.021 C 
HETATM   26  C21 UNL     1     -27.916   2.122 -23.265  1.00  0.00     0.021 C 
HETATM   27  C22 UNL     1     -29.247   2.566 -22.647  1.00  0.00     0.123 C 
ENDBRANCH  22  23
ENDBRANCH   8  17
BRANCH   1  28
HETATM   28  N1  UNL     1     -28.045  -2.347 -27.863  1.00  0.00    -0.343 N 
ATOM     29  H1  UNL     1     -28.790  -2.951 -28.209  1.00  0.00     0.172 HD
BRANCH  28  30
HETATM   30  S1  UNL     1     -26.539  -3.301 -27.268  1.00  0.00    -0.179 SA
HETATM   31  C24 UNL     1     -26.317  -3.225 -25.292  1.00  0.00     0.074 C 
HETATM   32  C25 UNL     1     -27.140  -4.393 -24.721  1.00  0.00     0.011 C 
HETATM   33  C26 UNL     1     -28.397  -4.329 -25.609  1.00  0.00     0.011 C 
HETATM   34  C27 UNL     1     -27.697  -4.783 -26.906  1.00  0.00     0.074 C 
BRANCH  30  35
HETATM   35  C3  UNL     1     -25.406  -4.271 -28.314  1.00  0.00     0.073 C 
BRANCH  35  36
HETATM   36  C2  UNL     1     -25.705  -5.747 -28.355  1.00  0.00     0.006 C 
HETATM   37  C1  UNL     1     -24.624  -6.644 -27.844  1.00  0.00     0.006 C 
ENDBRANCH  35  36
ENDBRANCH  30  35
ENDBRANCH  28  30
ENDBRANCH   1  28
BRANCH   2  38
HETATM   38  C6  UNL     1     -26.990  -0.854 -29.946  1.00  0.00     0.389 C 
HETATM   39  F1  UNL     1     -27.553  -2.071 -30.288  1.00  0.00    -0.209 F 
HETATM   40  F2  UNL     1     -25.739  -1.006 -29.362  1.00  0.00    -0.209 F 
ENDBRANCH   2  38
TORSDOF 9
ENDMDL
MODEL 4
REMARK VINA RESULT: -7.250176727      3.796      8.775
REMARK  9 active torsions:
REMARK  status: ('A' for Active; 'I' for Inactive)
REMARK    1  A    between atoms: C2_2  and  C3_3 
REMARK    2  A    between atoms: C3_3  and  S1_4 
REMARK    3  A    between atoms: S1_4  and  N1_5 
REMARK    4  A    between atoms: N1_5  and  C4_7 
REMARK    5  A    between atoms: C5_8  and  C6_9 
REMARK    6  A    between atoms: C7_12  and  C8_13 
REMARK    7  A    between atoms: C8_13  and  O1_16 
REMARK       I    between atoms: N2_19  and  C12_20 
REMARK       I    between atoms: C12_20  and  N3_22 
REMARK    8  A    between atoms: N3_22  and  C13_24 
REMARK    9  A    between atoms: C18_29  and  N4_30 
ROOT
HETATM    1  C4  UNL     1     -28.214  -0.759 -27.276  1.00  0.00     0.118 A 
HETATM    2  C5  UNL     1     -27.904   0.209 -28.212  1.00  0.00     0.049 A 
HETATM    3  C7  UNL     1     -28.116   1.551 -27.974  1.00  0.00     0.005 A 
HETATM    4  C11 UNL     1     -28.661   1.880 -26.734  1.00  0.00     0.116 A 
HETATM    5  N2  UNL     1     -28.978   0.990 -25.798  1.00  0.00    -0.238 N 
HETATM    6  C12 UNL     1     -29.541   1.347 -24.523  1.00  0.00     0.334 C 
HETATM    7  O2  UNL     1     -29.784   0.398 -23.750  1.00  0.00    -0.246 OA
HETATM    8  N3  UNL     1     -29.798   2.661 -24.176  1.00  0.00    -0.306 N 
ATOM      9  H3  UNL     1     -29.559   3.356 -24.883  1.00  0.00     0.171 HD
HETATM   10  C23 UNL     1     -28.748  -0.327 -26.087  1.00  0.00     0.283 A 
HETATM   11  O3  UNL     1     -29.061  -1.142 -25.175  1.00  0.00    -0.265 OA
ENDROOT
BRANCH   3  12
HETATM   12  C8  UNL     1     -27.790   2.604 -28.957  1.00  0.00     0.080 C 
HETATM   13  C9  UNL     1     -28.562   3.869 -28.570  1.00  0.00     0.051 C 
HETATM   14  C10 UNL     1     -28.235   2.295 -30.362  1.00  0.00     0.051 C 
BRANCH  12  15
HETATM   15  O1  UNL     1     -26.444   3.021 -28.887  1.00  0.00    -0.386 OA
ATOM     16  H1  UNL     1     -26.250   3.742 -29.475  1.00  0.00     0.211 HD
ENDBRANCH  12  15
ENDBRANCH   3  12
BRANCH   8  17
HETATM   17  C13 UNL     1     -30.348   3.179 -22.972  1.00  0.00     0.063 A 
HETATM   18  C14 UNL     1     -29.918   2.860 -21.706  1.00  0.00     0.032 A 
HETATM   19  C15 UNL     1     -30.490   3.342 -20.532  1.00  0.00     0.002 A 
HETATM   20  C16 UNL     1     -31.560   4.198 -20.629  1.00  0.00     0.002 A 
HETATM   21  C17 UNL     1     -32.025   4.546 -21.868  1.00  0.00     0.031 A 
HETATM   22  C18 UNL     1     -31.443   4.056 -23.041  1.00  0.00     0.057 A 
BRANCH  22  23
HETATM   23  N4  UNL     1     -31.946   4.480 -24.277  1.00  0.00    -0.379 N 
HETATM   24  C19 UNL     1     -31.533   5.624 -25.048  1.00  0.00     0.123 C 
HETATM   25  C20 UNL     1     -32.867   6.262 -25.489  1.00  0.00     0.021 C 
HETATM   26  C21 UNL     1     -33.737   5.042 -25.702  1.00  0.00     0.021 C 
HETATM   27  C22 UNL     1     -33.003   3.869 -25.041  1.00  0.00     0.123 C 
ENDBRANCH  22  23
ENDBRANCH   8  17
BRANCH   1  28
HETATM   28  N1  UNL     1     -28.007  -2.079 -27.520  1.00  0.00    -0.343 N 
ATOM     29  H1  UNL     1     -28.792  -2.526 -27.995  1.00  0.00     0.172 HD
BRANCH  28  30
HETATM   30  S1  UNL     1     -26.587  -3.258 -27.173  1.00  0.00    -0.179 SA
HETATM   31  C24 UNL     1     -26.293  -3.550 -25.227  1.00  0.00     0.074 C 
HETATM   32  C25 UNL     1     -27.211  -4.718 -24.823  1.00  0.00     0.011 C 
HETATM   33  C26 UNL     1     -28.484  -4.383 -25.623  1.00  0.00     0.011 C 
HETATM   34  C27 UNL     1     -27.876  -4.666 -27.012  1.00  0.00     0.074 C 
BRANCH  30  35
HETATM   35  C3  UNL     1     -25.593  -4.133 -28.424  1.00  0.00     0.073 C 
BRANCH  35  36
HETATM   36  C2  UNL     1     -25.824  -5.620 -28.477  1.00  0.00     0.006 C 
HETATM   37  C1  UNL     1     -24.712  -6.470 -27.950  1.00  0.00     0.006 C 
ENDBRANCH  35  36
ENDBRANCH  30  35
ENDBRANCH  28  30
ENDBRANCH   1  28
BRANCH   2  38
HETATM   38  C6  UNL     1     -27.332  -0.252 -29.493  1.00  0.00     0.389 C 
HETATM   39  F1  UNL     1     -28.143  -1.264 -29.975  1.00  0.00    -0.209 F 
HETATM   40  F2  UNL     1     -26.044  -0.699 -29.230  1.00  0.00    -0.209 F 
ENDBRANCH   2  38
TORSDOF 9
ENDMDL
MODEL 5
REMARK VINA RESULT: -7.235211562      3.631      5.327
REMARK  9 active torsions:
REMARK  status: ('A' for Active; 'I' for Inactive)
REMARK    1  A    between atoms: C2_2  and  C3_3 
REMARK    2  A    between atoms: C3_3  and  S1_4 
REMARK    3  A    between atoms: S1_4  and  N1_5 
REMARK    4  A    between atoms: N1_5  and  C4_7 
REMARK    5  A    between atoms: C5_8  and  C6_9 
REMARK    6  A    between atoms: C7_12  and  C8_13 
REMARK    7  A    between atoms: C8_13  and  O1_16 
REMARK       I    between atoms: N2_19  and  C12_20 
REMARK       I    between atoms: C12_20  and  N3_22 
REMARK    8  A    between atoms: N3_22  and  C13_24 
REMARK    9  A    between atoms: C18_29  and  N4_30 
ROOT
HETATM    1  C4  UNL     1     -27.999   1.049 -25.751  1.00  0.00     0.118 A 
HETATM    2  C5  UNL     1     -28.709   2.122 -25.247  1.00  0.00     0.049 A 
HETATM    3  C7  UNL     1     -29.196   2.136 -23.958  1.00  0.00     0.005 A 
HETATM    4  C11 UNL     1     -28.934   1.006 -23.186  1.00  0.00     0.116 A 
HETATM    5  N2  UNL     1     -28.257  -0.053 -23.619  1.00  0.00    -0.238 N 
HETATM    6  C12 UNL     1     -27.996  -1.213 -22.809  1.00  0.00     0.334 C 
HETATM    7  O2  UNL     1     -27.346  -2.126 -23.358  1.00  0.00    -0.246 OA
HETATM    8  N3  UNL     1     -28.437  -1.310 -21.502  1.00  0.00    -0.306 N 
ATOM      9  H3  UNL     1     -28.956  -0.504 -21.153  1.00  0.00     0.171 HD
HETATM   10  C23 UNL     1     -27.797  -0.015 -24.906  1.00  0.00     0.283 A 
HETATM   11  O3  UNL     1     -27.159  -1.038 -25.283  1.00  0.00    -0.265 OA
ENDROOT
BRANCH   3  12
HETATM   12  C8  UNL     1     -29.955   3.272 -23.396  1.00  0.00     0.080 C 
HETATM   13  C9  UNL     1     -30.271   2.954 -21.933  1.00  0.00     0.051 C 
HETATM   14  C10 UNL     1     -31.296   3.497 -24.042  1.00  0.00     0.051 C 
BRANCH  12  15
HETATM   15  O1  UNL     1     -29.186   4.452 -23.304  1.00  0.00    -0.386 OA
ATOM     16  H1  UNL     1     -29.035   4.725 -22.406  1.00  0.00     0.211 HD
ENDBRANCH  12  15
ENDBRANCH   3  12
BRANCH   8  17
HETATM   17  C13 UNL     1     -28.269  -2.375 -20.575  1.00  0.00     0.063 A 
HETATM   18  C14 UNL     1     -27.257  -2.463 -19.649  1.00  0.00     0.032 A 
HETATM   19  C15 UNL     1     -27.078  -3.530 -18.772  1.00  0.00     0.002 A 
HETATM   20  C16 UNL     1     -27.967  -4.575 -18.825  1.00  0.00     0.002 A 
HETATM   21  C17 UNL     1     -28.991  -4.534 -19.730  1.00  0.00     0.031 A 
HETATM   22  C18 UNL     1     -29.163  -3.457 -20.606  1.00  0.00     0.057 A 
BRANCH  22  23
HETATM   23  N4  UNL     1     -30.253  -3.462 -21.483  1.00  0.00    -0.379 N 
HETATM   24  C19 UNL     1     -30.363  -4.146 -22.746  1.00  0.00     0.123 C 
HETATM   25  C20 UNL     1     -30.979  -3.085 -23.680  1.00  0.00     0.021 C 
HETATM   26  C21 UNL     1     -31.908  -2.348 -22.738  1.00  0.00     0.021 C 
HETATM   27  C22 UNL     1     -31.504  -2.767 -21.319  1.00  0.00     0.123 C 
ENDBRANCH  22  23
ENDBRANCH   8  17
BRANCH   1  28
HETATM   28  N1  UNL     1     -27.527   1.041 -27.025  1.00  0.00    -0.343 N 
ATOM     29  H1  UNL     1     -26.803   1.742 -27.188  1.00  0.00     0.172 HD
BRANCH  28  30
HETATM   30  S1  UNL     1     -27.919   0.017 -28.550  1.00  0.00    -0.179 SA
HETATM   31  C24 UNL     1     -29.212   0.918 -29.765  1.00  0.00     0.074 C 
HETATM   32  C25 UNL     1     -28.374   1.796 -30.711  1.00  0.00     0.011 C 
HETATM   33  C26 UNL     1     -27.327   2.364 -29.735  1.00  0.00     0.011 C 
HETATM   34  C27 UNL     1     -26.594   1.028 -29.494  1.00  0.00     0.074 C 
BRANCH  30  35
HETATM   35  C3  UNL     1     -27.182  -1.594 -28.975  1.00  0.00     0.073 C 
BRANCH  35  36
HETATM   36  C2  UNL     1     -25.894  -1.506 -29.750  1.00  0.00     0.006 C 
HETATM   37  C1  UNL     1     -24.802  -2.426 -29.304  1.00  0.00     0.006 C 
ENDBRANCH  35  36
ENDBRANCH  30  35
ENDBRANCH  28  30
ENDBRANCH   1  28
BRANCH   2  38
HETATM   38  C6  UNL     1     -28.930   3.267 -26.154  1.00  0.00     0.389 C 
HETATM   39  F1  UNL     1     -29.748   2.836 -27.184  1.00  0.00    -0.209 F 
HETATM   40  F2  UNL     1     -27.685   3.673 -26.614  1.00  0.00    -0.209 F 
ENDBRANCH   2  38
TORSDOF 9
ENDMDL
