MODEL 1
REMARK VINA RESULT: -8.048861061      0.000      0.000
REMARK  7 active torsions:
REMARK  status: ('A' for Active; 'I' for Inactive)
REMARK    1  A    between atoms: C2_2  and  C3_3 
REMARK    2  A    between atoms: C3_3  and  C4_4 
REMARK    3  A    between atoms: C15_20  and  C16_21 
REMARK    4  A    between atoms: C16_21  and  C18_24 
REMARK    5  A    between atoms: N4_26  and  N5_28 
REMARK    6  A    between atoms: N5_28  and  C19_30 
REMARK    7  A    between atoms: C21_34  and  S1_35 
ROOT
HETATM    1  C16 UNL     1     -28.554   2.603 -25.687  1.00  0.00     0.195 C 
HETATM    2  C17 UNL     1     -28.642   3.954 -26.175  1.00  0.00     0.074 C 
HETATM    3  N3  UNL     1     -28.733   5.037 -26.580  1.00  0.00    -0.196 NA
ENDROOT
BRANCH   1   4
HETATM    4  C15 UNL     1     -28.372   1.580 -26.769  1.00  0.00     0.114 C 
HETATM    5  C13 UNL     1     -29.566   1.338 -27.579  1.00  0.00    -0.050 C 
HETATM    6  C12 UNL     1     -29.197   0.998 -28.810  1.00  0.00    -0.012 C 
HETATM    7  C14 UNL     1     -30.991   1.443 -27.157  1.00  0.00     0.046 C 
HETATM    8  C11 UNL     1     -27.687   0.983 -28.912  1.00  0.00     0.048 C 
HETATM    9  C7  UNL     1     -27.275  -0.347 -28.432  1.00  0.00    -0.011 A 
HETATM   10  C23 UNL     1     -27.377   2.050 -27.840  1.00  0.00     0.058 C 
HETATM   11  C6  UNL     1     -27.371  -0.621 -27.086  1.00  0.00     0.106 A 
HETATM   12  C8  UNL     1     -26.810  -1.288 -29.296  1.00  0.00     0.055 A 
HETATM   13  C5  UNL     1     -26.987  -1.868 -26.617  1.00  0.00     0.098 A 
HETATM   14  O1  UNL     1     -27.855   0.377 -26.239  1.00  0.00    -0.331 OA
HETATM   15  N1  UNL     1     -26.961  -2.427 -25.399  1.00  0.00    -0.342 N 
HETATM   16  C10 UNL     1     -26.506  -2.849 -27.492  1.00  0.00     0.102 A 
HETATM   17  C4  UNL     1     -26.495  -3.689 -25.470  1.00  0.00     0.082 A 
ATOM     18  H1  UNL     1     -27.253  -1.963 -24.538  1.00  0.00     0.167 HD
HETATM   19  N2  UNL     1     -26.217  -3.941 -26.761  1.00  0.00    -0.342 N 
ATOM     20  H2  UNL     1     -25.845  -4.817 -27.127  1.00  0.00     0.167 HD
HETATM   21  C9  UNL     1     -26.416  -2.560 -28.842  1.00  0.00     0.146 A 
HETATM   22  F1  UNL     1     -25.952  -3.497 -29.698  1.00  0.00    -0.204 F 
BRANCH  17  23
HETATM   23  C3  UNL     1     -26.317  -4.641 -24.323  1.00  0.00     0.076 C 
BRANCH  23  24
HETATM   24  C2  UNL     1     -25.950  -6.021 -24.826  1.00  0.00     0.003 C 
HETATM   25  C1  UNL     1     -25.047  -6.676 -23.780  1.00  0.00     0.005 C 
ENDBRANCH  23  24
ENDBRANCH  17  23
ENDBRANCH   1   4
BRANCH   1  26
HETATM   26  C18 UNL     1     -27.596   2.422 -24.568  1.00  0.00     0.116 C 
HETATM   27 CL1  UNL     1     -26.173   3.492 -24.495  1.00  0.00    -0.066 Cl
HETATM   28  N4  UNL     1     -27.666   1.581 -23.628  1.00  0.00    -0.290 N 
ATOM     29  H4  UNL     1     -26.897   1.628 -22.959  1.00  0.00     0.188 HD
BRANCH  28  30
HETATM   30  N5  UNL     1     -28.595   0.620 -23.355  1.00  0.00    -0.279 N 
ATOM     31  H5  UNL     1     -29.436   0.576 -23.930  1.00  0.00     0.189 HD
BRANCH  30  32
HETATM   32  C19 UNL     1     -28.450  -0.254 -22.380  1.00  0.00     0.164 A 
HETATM   33  N6  UNL     1     -27.915  -0.034 -21.181  1.00  0.00    -0.344 N 
HETATM   34  C20 UNL     1     -27.854  -1.025 -20.338  1.00  0.00     0.116 A 
ATOM     35  H6  UNL     1     -27.561   0.888 -20.929  1.00  0.00     0.167 HD
HETATM   36  C21 UNL     1     -28.349  -2.239 -20.736  1.00  0.00     0.059 A 
HETATM   37  S2  UNL     1     -28.883  -1.903 -22.320  1.00  0.00    -0.044 SA
BRANCH  36  38
HETATM   38  S1  UNL     1     -28.396  -3.774 -19.785  1.00  0.00    -0.126 SA
HETATM   39  C22 UNL     1     -27.207  -3.677 -18.409  1.00  0.00     0.096 C 
ENDBRANCH  36  38
ENDBRANCH  30  32
ENDBRANCH  28  30
ENDBRANCH   1  26
TORSDOF 7
ENDMDL
MODEL 2
REMARK VINA RESULT: -8.018354848      1.027      1.368
REMARK  7 active torsions:
REMARK  status: ('A' for Active; 'I' for Inactive)
REMARK    1  A    between atoms: C2_2  and  C3_3 
REMARK    2  A    between atoms: C3_3  and  C4_4 
REMARK    3  A    between atoms: C15_20  and  C16_21 
REMARK    4  A    between atoms: C16_21  and  C18_24 
REMARK    5  A    between atoms: N4_26  and  N5_28 
REMARK    6  A    between atoms: N5_28  and  C19_30 
REMARK    7  A    between atoms: C21_34  and  S1_35 
ROOT
HETATM    1  C16 UNL     1     -28.274   2.553 -25.520  1.00  0.00     0.195 C 
HETATM    2  C17 UNL     1     -28.378   3.862 -26.110  1.00  0.00     0.074 C 
HETATM    3  N3  UNL     1     -28.482   4.911 -26.595  1.00  0.00    -0.196 NA
ENDROOT
BRANCH   1   4
HETATM    4  C15 UNL     1     -28.206   1.442 -26.525  1.00  0.00     0.114 C 
HETATM    5  C13 UNL     1     -29.454   1.209 -27.255  1.00  0.00    -0.050 C 
HETATM    6  C12 UNL     1     -29.170   0.755 -28.471  1.00  0.00    -0.012 C 
HETATM    7  C14 UNL     1     -30.846   1.431 -26.773  1.00  0.00     0.046 C 
HETATM    8  C11 UNL     1     -27.671   0.642 -28.644  1.00  0.00     0.048 C 
HETATM    9  C7  UNL     1     -27.309  -0.670 -28.080  1.00  0.00    -0.011 A 
HETATM   10  C23 UNL     1     -27.246   1.768 -27.677  1.00  0.00     0.058 C 
HETATM   11  C6  UNL     1     -27.348  -0.833 -26.713  1.00  0.00     0.106 A 
HETATM   12  C8  UNL     1     -26.943  -1.701 -28.888  1.00  0.00     0.055 A 
HETATM   13  C5  UNL     1     -27.010  -2.061 -26.165  1.00  0.00     0.098 A 
HETATM   14  O1  UNL     1     -27.730   0.254 -25.927  1.00  0.00    -0.331 OA
HETATM   15  N1  UNL     1     -26.951  -2.526 -24.909  1.00  0.00    -0.342 N 
HETATM   16  C10 UNL     1     -26.632  -3.134 -26.982  1.00  0.00     0.102 A 
HETATM   17  C4  UNL     1     -26.560  -3.815 -24.902  1.00  0.00     0.082 A 
ATOM     18  H1  UNL     1     -27.171  -1.980 -24.076  1.00  0.00     0.167 HD
HETATM   19  N2  UNL     1     -26.365  -4.181 -26.181  1.00  0.00    -0.342 N 
ATOM     20  H2  UNL     1     -26.063  -5.104 -26.493  1.00  0.00     0.167 HD
HETATM   21  C9  UNL     1     -26.597  -2.955 -28.353  1.00  0.00     0.146 A 
HETATM   22  F1  UNL     1     -26.232  -3.981 -29.154  1.00  0.00    -0.204 F 
BRANCH  17  23
HETATM   23  C3  UNL     1     -26.375  -4.685 -23.693  1.00  0.00     0.076 C 
BRANCH  23  24
HETATM   24  C2  UNL     1     -26.463  -6.149 -24.069  1.00  0.00     0.003 C 
HETATM   25  C1  UNL     1     -25.058  -6.744 -23.970  1.00  0.00     0.005 C 
ENDBRANCH  23  24
ENDBRANCH  17  23
ENDBRANCH   1   4
BRANCH   1  26
HETATM   26  C18 UNL     1     -27.227   2.438 -24.476  1.00  0.00     0.116 C 
HETATM   27 CL1  UNL     1     -25.582   3.006 -24.864  1.00  0.00    -0.066 Cl
HETATM   28  N4  UNL     1     -27.357   1.978 -23.307  1.00  0.00    -0.290 N 
ATOM     29  H4  UNL     1     -26.504   1.992 -22.748  1.00  0.00     0.188 HD
BRANCH  28  30
HETATM   30  N5  UNL     1     -28.445   1.465 -22.664  1.00  0.00    -0.279 N 
ATOM     31  H5  UNL     1     -29.183   2.103 -22.364  1.00  0.00     0.189 HD
BRANCH  30  32
HETATM   32  C19 UNL     1     -28.584   0.178 -22.415  1.00  0.00     0.164 A 
HETATM   33  N6  UNL     1     -27.816  -0.572 -21.629  1.00  0.00    -0.344 N 
HETATM   34  C20 UNL     1     -28.107  -1.836 -21.501  1.00  0.00     0.116 A 
ATOM     35  H6  UNL     1     -27.020  -0.167 -21.138  1.00  0.00     0.167 HD
HETATM   36  C21 UNL     1     -29.191  -2.318 -22.185  1.00  0.00     0.059 A 
HETATM   37  S2  UNL     1     -29.751  -0.924 -22.992  1.00  0.00    -0.044 SA
BRANCH  36  38
HETATM   38  S1  UNL     1     -29.822  -4.010 -22.196  1.00  0.00    -0.126 SA
HETATM   39  C22 UNL     1     -30.129  -4.537 -23.912  1.00  0.00     0.096 C 
ENDBRANCH  36  38
ENDBRANCH  30  32
ENDBRANCH  28  30
ENDBRANCH   1  26
TORSDOF 7
ENDMDL
MODEL 3
REMARK VINA RESULT: -7.816079672      1.411      1.900
REMARK  7 active torsions:
REMARK  status: ('A' for Active; 'I' for Inactive)
REMARK    1  A    between atoms: C2_2  and  C3_3 
REMARK    2  A    between atoms: C3_3  and  C4_4 
REMARK    3  A    between atoms: C15_20  and  C16_21 
REMARK    4  A    between atoms: C16_21  and  C18_24 
REMARK    5  A    between atoms: N4_26  and  N5_28 
REMARK    6  A    between atoms: N5_28  and  C19_30 
REMARK    7  A    between atoms: C21_34  and  S1_35 
ROOT
HETATM    1  C16 UNL     1     -28.500   2.616 -25.703  1.00  0.00     0.195 C 
HETATM    2  C17 UNL     1     -28.480   3.951 -26.238  1.00  0.00     0.074 C 
HETATM    3  N3  UNL     1     -28.484   5.023 -26.682  1.00  0.00    -0.196 NA
ENDROOT
BRANCH   1   4
HETATM    4  C15 UNL     1     -28.336   1.546 -26.741  1.00  0.00     0.114 C 
HETATM    5  C13 UNL     1     -29.537   1.287 -27.537  1.00  0.00    -0.050 C 
HETATM    6  C12 UNL     1     -29.178   0.890 -28.753  1.00  0.00    -0.012 C 
HETATM    7  C14 UNL     1     -30.959   1.430 -27.114  1.00  0.00     0.046 C 
HETATM    8  C11 UNL     1     -27.669   0.849 -28.859  1.00  0.00     0.048 C 
HETATM    9  C7  UNL     1     -27.274  -0.465 -28.325  1.00  0.00    -0.011 A 
HETATM   10  C23 UNL     1     -27.340   1.956 -27.835  1.00  0.00     0.058 C 
HETATM   11  C6  UNL     1     -27.368  -0.681 -26.968  1.00  0.00     0.106 A 
HETATM   12  C8  UNL     1     -26.825  -1.448 -29.150  1.00  0.00     0.055 A 
HETATM   13  C5  UNL     1     -27.000  -1.912 -26.448  1.00  0.00     0.098 A 
HETATM   14  O1  UNL     1     -27.834   0.359 -26.163  1.00  0.00    -0.331 OA
HETATM   15  N1  UNL     1     -26.977  -2.420 -25.208  1.00  0.00    -0.342 N 
HETATM   16  C10 UNL     1     -26.537  -2.936 -27.283  1.00  0.00     0.102 A 
HETATM   17  C4  UNL     1     -26.529  -3.690 -25.227  1.00  0.00     0.082 A 
ATOM     18  H1  UNL     1     -27.259  -1.915 -24.367  1.00  0.00     0.167 HD
HETATM   19  N2  UNL     1     -26.259  -4.000 -26.507  1.00  0.00    -0.342 N 
ATOM     20  H2  UNL     1     -25.902  -4.896 -26.837  1.00  0.00     0.167 HD
HETATM   21  C9  UNL     1     -26.447  -2.706 -28.644  1.00  0.00     0.146 A 
HETATM   22  F1  UNL     1     -26.000  -3.685 -29.462  1.00  0.00    -0.204 F 
BRANCH  17  23
HETATM   23  C3  UNL     1     -26.360  -4.596 -24.042  1.00  0.00     0.076 C 
BRANCH  23  24
HETATM   24  C2  UNL     1     -27.654  -4.705 -23.263  1.00  0.00     0.003 C 
HETATM   25  C1  UNL     1     -27.338  -4.438 -21.791  1.00  0.00     0.005 C 
ENDBRANCH  23  24
ENDBRANCH  17  23
ENDBRANCH   1   4
BRANCH   1  26
HETATM   26  C18 UNL     1     -27.605   2.415 -24.536  1.00  0.00     0.116 C 
HETATM   27 CL1  UNL     1     -25.873   2.790 -24.727  1.00  0.00    -0.066 Cl
HETATM   28  N4  UNL     1     -27.926   2.003 -23.385  1.00  0.00    -0.290 N 
ATOM     29  H4  UNL     1     -27.150   1.939 -22.727  1.00  0.00     0.188 HD
BRANCH  28  30
HETATM   30  N5  UNL     1     -29.134   1.630 -22.875  1.00  0.00    -0.279 N 
ATOM     31  H5  UNL     1     -29.731   2.344 -22.457  1.00  0.00     0.189 HD
BRANCH  30  32
HETATM   32  C19 UNL     1     -29.562   0.384 -22.898  1.00  0.00     0.164 A 
HETATM   33  N6  UNL     1     -29.651  -0.412 -23.960  1.00  0.00    -0.344 N 
HETATM   34  C20 UNL     1     -30.100  -1.624 -23.792  1.00  0.00     0.116 A 
ATOM     35  H6  UNL     1     -29.374  -0.082 -24.884  1.00  0.00     0.167 HD
HETATM   36  C21 UNL     1     -30.455  -2.007 -22.525  1.00  0.00     0.059 A 
HETATM   37  S2  UNL     1     -30.126  -0.598 -21.622  1.00  0.00    -0.044 SA
BRANCH  36  38
HETATM   38  S1  UNL     1     -31.102  -3.609 -22.002  1.00  0.00    -0.126 SA
HETATM   39  C22 UNL     1     -31.442  -4.640 -23.465  1.00  0.00     0.096 C 
ENDBRANCH  36  38
ENDBRANCH  30  32
ENDBRANCH  28  30
ENDBRANCH   1  26
TORSDOF 7
ENDMDL
MODEL 4
REMARK VINA RESULT: -7.664264226      2.218      2.913
REMARK  7 active torsions:
REMARK  status: ('A' for Active; 'I' for Inactive)
REMARK    1  A    between atoms: C2_2  and  C3_3 
REMARK    2  A    between atoms: C3_3  and  C4_4 
REMARK    3  A    between atoms: C15_20  and  C16_21 
REMARK    4  A    between atoms: C16_21  and  C18_24 
REMARK    5  A    between atoms: N4_26  and  N5_28 
REMARK    6  A    between atoms: N5_28  and  C19_30 
REMARK    7  A    between atoms: C21_34  and  S1_35 
ROOT
HETATM    1  C16 UNL     1     -28.093   2.159 -25.713  1.00  0.00     0.195 C 
HETATM    2  C17 UNL     1     -28.216   3.406 -26.422  1.00  0.00     0.074 C 
HETATM    3  N3  UNL     1     -28.337   4.403 -27.002  1.00  0.00    -0.196 NA
ENDROOT
BRANCH   1   4
HETATM    4  C15 UNL     1     -28.034   0.958 -26.609  1.00  0.00     0.114 C 
HETATM    5  C13 UNL     1     -29.268   0.696 -27.350  1.00  0.00    -0.050 C 
HETATM    6  C12 UNL     1     -28.967   0.123 -28.511  1.00  0.00    -0.012 C 
HETATM    7  C14 UNL     1     -30.665   1.002 -26.932  1.00  0.00     0.046 C 
HETATM    8  C11 UNL     1     -27.468  -0.049 -28.630  1.00  0.00     0.048 C 
HETATM    9  C7  UNL     1     -27.163  -1.313 -27.938  1.00  0.00    -0.011 A 
HETATM   10  C23 UNL     1     -27.033   1.148 -27.758  1.00  0.00     0.058 C 
HETATM   11  C6  UNL     1     -27.243  -1.349 -26.563  1.00  0.00     0.106 A 
HETATM   12  C8  UNL     1     -26.808  -2.425 -28.637  1.00  0.00     0.055 A 
HETATM   13  C5  UNL     1     -26.959  -2.530 -25.896  1.00  0.00     0.098 A 
HETATM   14  O1  UNL     1     -27.611  -0.182 -25.891  1.00  0.00    -0.331 OA
HETATM   15  N1  UNL     1     -26.947  -2.878 -24.601  1.00  0.00    -0.342 N 
HETATM   16  C10 UNL     1     -26.593  -3.684 -26.599  1.00  0.00     0.102 A 
HETATM   17  C4  UNL     1     -26.598  -4.172 -24.465  1.00  0.00     0.082 A 
ATOM     18  H1  UNL     1     -27.171  -2.251 -23.828  1.00  0.00     0.167 HD
HETATM   19  N2  UNL     1     -26.381  -4.660 -25.698  1.00  0.00    -0.342 N 
ATOM     20  H2  UNL     1     -26.100  -5.616 -25.916  1.00  0.00     0.167 HD
HETATM   21  C9  UNL     1     -26.516  -3.634 -27.979  1.00  0.00     0.146 A 
HETATM   22  F1  UNL     1     -26.163  -4.740 -28.671  1.00  0.00    -0.204 F 
BRANCH  17  23
HETATM   23  C3  UNL     1     -26.472  -4.931 -23.176  1.00  0.00     0.076 C 
BRANCH  23  24
HETATM   24  C2  UNL     1     -27.745  -4.823 -22.365  1.00  0.00     0.003 C 
HETATM   25  C1  UNL     1     -27.393  -4.177 -21.024  1.00  0.00     0.005 C 
ENDBRANCH  23  24
ENDBRANCH  17  23
ENDBRANCH   1   4
BRANCH   1  26
HETATM   26  C18 UNL     1     -27.026   2.150 -24.681  1.00  0.00     0.116 C 
HETATM   27 CL1  UNL     1     -25.505   3.009 -25.032  1.00  0.00    -0.066 Cl
HETATM   28  N4  UNL     1     -27.063   1.596 -23.546  1.00  0.00    -0.290 N 
ATOM     29  H4  UNL     1     -26.216   1.714 -22.990  1.00  0.00     0.188 HD
BRANCH  28  30
HETATM   30  N5  UNL     1     -28.042   0.866 -22.939  1.00  0.00    -0.279 N 
ATOM     31  H5  UNL     1     -28.090  -0.136 -23.122  1.00  0.00     0.189 HD
BRANCH  30  32
HETATM   32  C19 UNL     1     -28.928   1.403 -22.125  1.00  0.00     0.164 A 
HETATM   33  N6  UNL     1     -28.689   1.991 -20.956  1.00  0.00    -0.344 N 
HETATM   34  C20 UNL     1     -29.697   2.469 -20.283  1.00  0.00     0.116 A 
ATOM     35  H6  UNL     1     -27.738   2.067 -20.595  1.00  0.00     0.167 HD
HETATM   36  C21 UNL     1     -30.949   2.337 -20.823  1.00  0.00     0.059 A 
HETATM   37  S2  UNL     1     -30.622   1.524 -22.286  1.00  0.00    -0.044 SA
BRANCH  36  38
HETATM   38  S1  UNL     1     -32.515   2.897 -20.119  1.00  0.00    -0.126 SA
HETATM   39  C22 UNL     1     -33.140   4.318 -21.072  1.00  0.00     0.096 C 
ENDBRANCH  36  38
ENDBRANCH  30  32
ENDBRANCH  28  30
ENDBRANCH   1  26
TORSDOF 7
ENDMDL
MODEL 5
REMARK VINA RESULT: -7.660255338      2.594      3.697
REMARK  7 active torsions:
REMARK  status: ('A' for Active; 'I' for Inactive)
REMARK    1  A    between atoms: C2_2  and  C3_3 
REMARK    2  A    between atoms: C3_3  and  C4_4 
REMARK    3  A    between atoms: C15_20  and  C16_21 
REMARK    4  A    between atoms: C16_21  and  C18_24 
REMARK    5  A    between atoms: N4_26  and  N5_28 
REMARK    6  A    between atoms: N5_28  and  C19_30 
REMARK    7  A    between atoms: C21_34  and  S1_35 
ROOT
HETATM    1  C16 UNL     1     -28.424   2.567 -25.647  1.00  0.00     0.195 C 
HETATM    2  C17 UNL     1     -28.392   3.874 -26.249  1.00  0.00     0.074 C 
HETATM    3  N3  UNL     1     -28.386   4.923 -26.745  1.00  0.00    -0.196 NA
ENDROOT
BRANCH   1   4
HETATM    4  C15 UNL     1     -28.281   1.445 -26.632  1.00  0.00     0.114 C 
HETATM    5  C13 UNL     1     -29.482   1.182 -27.427  1.00  0.00    -0.050 C 
HETATM    6  C12 UNL     1     -29.123   0.718 -28.620  1.00  0.00    -0.012 C 
HETATM    7  C14 UNL     1     -30.902   1.384 -27.025  1.00  0.00     0.046 C 
HETATM    8  C11 UNL     1     -27.615   0.631 -28.708  1.00  0.00     0.048 C 
HETATM    9  C7  UNL     1     -27.261  -0.668 -28.109  1.00  0.00    -0.011 A 
HETATM   10  C23 UNL     1     -27.264   1.775 -27.734  1.00  0.00     0.058 C 
HETATM   11  C6  UNL     1     -27.373  -0.816 -26.744  1.00  0.00     0.106 A 
HETATM   12  C8  UNL     1     -26.833  -1.701 -28.882  1.00  0.00     0.055 A 
HETATM   13  C5  UNL     1     -27.044  -2.031 -26.163  1.00  0.00     0.098 A 
HETATM   14  O1  UNL     1     -27.817   0.274 -25.994  1.00  0.00    -0.331 OA
HETATM   15  N1  UNL     1     -27.047  -2.479 -24.899  1.00  0.00    -0.342 N 
HETATM   16  C10 UNL     1     -26.603  -3.106 -26.943  1.00  0.00     0.102 A 
HETATM   17  C4  UNL     1     -26.634  -3.761 -24.855  1.00  0.00     0.082 A 
ATOM     18  H1  UNL     1     -27.322  -1.928 -24.086  1.00  0.00     0.167 HD
HETATM   19  N2  UNL     1     -26.362  -4.138 -26.116  1.00  0.00    -0.342 N 
ATOM     20  H2  UNL     1     -26.027  -5.059 -26.399  1.00  0.00     0.167 HD
HETATM   21  C9  UNL     1     -26.495  -2.942 -28.313  1.00  0.00     0.146 A 
HETATM   22  F1  UNL     1     -26.069  -3.971 -29.079  1.00  0.00    -0.204 F 
BRANCH  17  23
HETATM   23  C3  UNL     1     -26.500  -4.613 -23.626  1.00  0.00     0.076 C 
BRANCH  23  24
HETATM   24  C2  UNL     1     -26.444  -6.080 -23.996  1.00  0.00     0.003 C 
HETATM   25  C1  UNL     1     -25.019  -6.574 -23.738  1.00  0.00     0.005 C 
ENDBRANCH  23  24
ENDBRANCH  17  23
ENDBRANCH   1   4
BRANCH   1  26
HETATM   26  C18 UNL     1     -27.522   2.414 -24.478  1.00  0.00     0.116 C 
HETATM   27 CL1  UNL     1     -25.776   2.674 -24.720  1.00  0.00    -0.066 Cl
HETATM   28  N4  UNL     1     -27.846   2.117 -23.294  1.00  0.00    -0.290 N 
ATOM     29  H4  UNL     1     -27.064   2.064 -22.641  1.00  0.00     0.188 HD
BRANCH  28  30
HETATM   30  N5  UNL     1     -29.065   1.855 -22.740  1.00  0.00    -0.279 N 
ATOM     31  H5  UNL     1     -29.267   0.904 -22.430  1.00  0.00     0.189 HD
BRANCH  30  32
HETATM   32  C19 UNL     1     -29.991   2.779 -22.588  1.00  0.00     0.164 A 
HETATM   33  N6  UNL     1     -29.942   3.838 -21.785  1.00  0.00    -0.344 N 
HETATM   34  C20 UNL     1     -30.959   4.651 -21.766  1.00  0.00     0.116 A 
ATOM     35  H6  UNL     1     -29.126   4.009 -21.197  1.00  0.00     0.167 HD
HETATM   36  C21 UNL     1     -32.024   4.367 -22.580  1.00  0.00     0.059 A 
HETATM   37  S2  UNL     1     -31.514   2.929 -23.343  1.00  0.00    -0.044 SA
BRANCH  36  38
HETATM   38  S1  UNL     1     -33.555   5.308 -22.759  1.00  0.00    -0.126 SA
HETATM   39  C22 UNL     1     -33.179   7.090 -22.769  1.00  0.00     0.096 C 
ENDBRANCH  36  38
ENDBRANCH  30  32
ENDBRANCH  28  30
ENDBRANCH   1  26
TORSDOF 7
ENDMDL
