MODEL 1
REMARK VINA RESULT: -7.555766755      0.000      0.000
REMARK  8 active torsions:
REMARK  status: ('A' for Active; 'I' for Inactive)
REMARK    1  A    between atoms: C2_2  and  O1_3 
REMARK    2  A    between atoms: O1_3  and  C3_4 
REMARK    3  A    between atoms: C3_4  and  C4_6 
REMARK    4  A    between atoms: C5_7  and  N1_8 
REMARK    5  A    between atoms: C10_13  and  C11_14 
REMARK       I    between atoms: C11_14  and  N2_16 
REMARK    6  A    between atoms: N2_16  and  C12_18 
REMARK    7  A    between atoms: C20_29  and  C21_30 
REMARK    8  A    between atoms: C21_30  and  C22_32 
ROOT
HETATM    1  N1  UNL     1     -28.711   0.881 -24.793  1.00  0.00    -0.374 N 
HETATM    2  C6  UNL     1     -27.853   0.970 -23.620  1.00  0.00     0.123 C 
HETATM    3  C7  UNL     1     -28.104  -0.138 -22.622  1.00  0.00     0.020 C 
HETATM    4  C8  UNL     1     -29.151  -1.114 -23.028  1.00  0.00     0.002 C 
HETATM    5  C9  UNL     1     -28.741  -2.166 -23.990  1.00  0.00     0.014 C 
HETATM    6  C10 UNL     1     -27.595  -1.870 -24.875  1.00  0.00     0.080 C 
HETATM    7  C18 UNL     1     -27.920  -1.048 -26.090  1.00  0.00     0.034 C 
HETATM    8  C19 UNL     1     -28.992  -0.029 -25.856  1.00  0.00     0.124 C 
ENDROOT
BRANCH   1   9
HETATM    9  C5  UNL     1     -29.546   2.060 -24.930  1.00  0.00     0.091 A 
HETATM   10  C4  UNL     1     -29.245   3.285 -25.478  1.00  0.00     0.098 A 
HETATM   11  C26 UNL     1     -30.218   4.208 -25.477  1.00  0.00     0.086 A 
HETATM   12  C20 UNL     1     -31.420   3.857 -24.934  1.00  0.00     0.079 A 
HETATM   13  N3  UNL     1     -30.075   5.559 -26.017  1.00  0.00    -0.100 NA
HETATM   14  S1  UNL     1     -31.177   2.256 -24.437  1.00  0.00    -0.066 SA
BRANCH  10  15
HETATM   15  C3  UNL     1     -27.896   3.533 -26.034  1.00  0.00     0.298 C 
HETATM   16  O2  UNL     1     -27.055   4.180 -25.386  1.00  0.00    -0.259 OA
BRANCH  15  17
HETATM   17  O1  UNL     1     -27.576   3.042 -27.275  1.00  0.00    -0.318 OA
BRANCH  17  18
HETATM   18  C2  UNL     1     -28.430   3.280 -28.372  1.00  0.00     0.174 C 
HETATM   19  C1  UNL     1     -28.701   1.921 -29.011  1.00  0.00     0.034 C 
ENDBRANCH  17  18
ENDBRANCH  15  17
ENDBRANCH  10  15
BRANCH  12  20
HETATM   20  C21 UNL     1     -32.659   4.653 -24.794  1.00  0.00     0.175 C 
HETATM   21  O4  UNL     1     -33.466   4.695 -25.757  1.00  0.00    -0.291 OA
BRANCH  20  22
HETATM   22  C22 UNL     1     -32.973   5.390 -23.572  1.00  0.00     0.015 C 
HETATM   23  C23 UNL     1     -34.313   4.954 -23.045  1.00  0.00     0.023 C 
HETATM   24  C24 UNL     1     -31.939   5.220 -22.486  1.00  0.00     0.023 C 
HETATM   25  C25 UNL     1     -33.066   6.870 -23.933  1.00  0.00     0.023 C 
ENDBRANCH  20  22
ENDBRANCH  12  20
ENDBRANCH   1   9
BRANCH   6  26
HETATM   26  C11 UNL     1     -27.052  -3.191 -25.389  1.00  0.00     0.226 C 
HETATM   27  O3  UNL     1     -25.899  -3.474 -25.033  1.00  0.00    -0.273 OA
HETATM   28  N2  UNL     1     -27.816  -4.017 -26.205  1.00  0.00    -0.324 N 
ATOM     29  H2  UNL     1     -28.750  -3.672 -26.427  1.00  0.00     0.169 HD
BRANCH  28  30
HETATM   30  C12 UNL     1     -27.479  -5.271 -26.771  1.00  0.00     0.073 A 
HETATM   31  C13 UNL     1     -27.838  -6.489 -26.254  1.00  0.00     0.036 A 
HETATM   32  C14 UNL     1     -27.452  -7.666 -26.895  1.00  0.00     0.044 A 
HETATM   33  C15 UNL     1     -26.708  -7.613 -28.049  1.00  0.00     0.119 A 
HETATM   34  F1  UNL     1     -26.336  -8.754 -28.666  1.00  0.00    -0.206 F 
HETATM   35  C16 UNL     1     -26.333  -6.401 -28.590  1.00  0.00     0.086 A 
HETATM   36  C17 UNL     1     -26.717  -5.247 -27.954  1.00  0.00     0.145 A 
HETATM   37  F2  UNL     1     -26.343  -4.047 -28.496  1.00  0.00    -0.204 F 
ENDBRANCH  28  30
ENDBRANCH   6  26
TORSDOF 8
ENDMDL
MODEL 2
REMARK VINA RESULT: -7.518807756      1.929      2.939
REMARK  8 active torsions:
REMARK  status: ('A' for Active; 'I' for Inactive)
REMARK    1  A    between atoms: C2_2  and  O1_3 
REMARK    2  A    between atoms: O1_3  and  C3_4 
REMARK    3  A    between atoms: C3_4  and  C4_6 
REMARK    4  A    between atoms: C5_7  and  N1_8 
REMARK    5  A    between atoms: C10_13  and  C11_14 
REMARK       I    between atoms: C11_14  and  N2_16 
REMARK    6  A    between atoms: N2_16  and  C12_18 
REMARK    7  A    between atoms: C20_29  and  C21_30 
REMARK    8  A    between atoms: C21_30  and  C22_32 
ROOT
HETATM    1  N1  UNL     1     -29.556   0.670 -27.412  1.00  0.00    -0.374 N 
HETATM    2  C6  UNL     1     -29.855   0.648 -28.837  1.00  0.00     0.123 C 
HETATM    3  C7  UNL     1     -28.617   0.764 -29.698  1.00  0.00     0.020 C 
HETATM    4  C8  UNL     1     -27.339   0.853 -28.942  1.00  0.00     0.002 C 
HETATM    5  C9  UNL     1     -26.780  -0.421 -28.428  1.00  0.00     0.014 C 
HETATM    6  C10 UNL     1     -27.725  -1.533 -28.193  1.00  0.00     0.080 C 
HETATM    7  C18 UNL     1     -28.475  -1.473 -26.892  1.00  0.00     0.034 C 
HETATM    8  C19 UNL     1     -28.807  -0.079 -26.456  1.00  0.00     0.124 C 
ENDROOT
BRANCH   1   9
HETATM    9  C5  UNL     1     -30.199   1.792 -26.753  1.00  0.00     0.091 A 
HETATM   10  C4  UNL     1     -29.762   3.089 -26.609  1.00  0.00     0.098 A 
HETATM   11  C26 UNL     1     -30.567   3.932 -25.947  1.00  0.00     0.086 A 
HETATM   12  C20 UNL     1     -31.747   3.438 -25.474  1.00  0.00     0.079 A 
HETATM   13  N3  UNL     1     -30.263   5.341 -25.702  1.00  0.00    -0.100 NA
HETATM   14  S1  UNL     1     -31.717   1.814 -25.956  1.00  0.00    -0.066 SA
BRANCH  10  15
HETATM   15  C3  UNL     1     -28.455   3.493 -27.173  1.00  0.00     0.298 C 
HETATM   16  O2  UNL     1     -28.396   4.136 -28.235  1.00  0.00    -0.259 OA
BRANCH  15  17
HETATM   17  O1  UNL     1     -27.300   3.152 -26.514  1.00  0.00    -0.318 OA
BRANCH  17  18
HETATM   18  C2  UNL     1     -27.137   3.484 -25.153  1.00  0.00     0.174 C 
HETATM   19  C1  UNL     1     -25.883   2.757 -24.678  1.00  0.00     0.034 C 
ENDBRANCH  17  18
ENDBRANCH  15  17
ENDBRANCH  10  15
BRANCH  12  20
HETATM   20  C21 UNL     1     -32.820   4.121 -24.718  1.00  0.00     0.175 C 
HETATM   21  O4  UNL     1     -33.783   4.625 -25.351  1.00  0.00    -0.291 OA
BRANCH  20  22
HETATM   22  C22 UNL     1     -32.795   4.227 -23.261  1.00  0.00     0.015 C 
HETATM   23  C23 UNL     1     -34.104   3.750 -22.693  1.00  0.00     0.023 C 
HETATM   24  C24 UNL     1     -31.670   3.451 -22.622  1.00  0.00     0.023 C 
HETATM   25  C25 UNL     1     -32.636   5.703 -22.906  1.00  0.00     0.023 C 
ENDBRANCH  20  22
ENDBRANCH  12  20
ENDBRANCH   1   9
BRANCH   6  26
HETATM   26  C11 UNL     1     -26.925  -2.823 -28.161  1.00  0.00     0.226 C 
HETATM   27  O3  UNL     1     -25.873  -2.818 -28.817  1.00  0.00    -0.273 OA
HETATM   28  N2  UNL     1     -27.359  -3.926 -27.436  1.00  0.00    -0.324 N 
ATOM     29  H2  UNL     1     -28.241  -3.804 -26.938  1.00  0.00     0.169 HD
BRANCH  28  30
HETATM   30  C12 UNL     1     -26.750  -5.196 -27.292  1.00  0.00     0.073 A 
HETATM   31  C13 UNL     1     -26.632  -6.130 -28.290  1.00  0.00     0.036 A 
HETATM   32  C14 UNL     1     -26.011  -7.352 -28.037  1.00  0.00     0.044 A 
HETATM   33  C15 UNL     1     -25.512  -7.631 -26.787  1.00  0.00     0.119 A 
HETATM   34  F1  UNL     1     -24.911  -8.815 -26.548  1.00  0.00    -0.206 F 
HETATM   35  C16 UNL     1     -25.618  -6.709 -25.767  1.00  0.00     0.086 A 
HETATM   36  C17 UNL     1     -26.230  -5.508 -26.022  1.00  0.00     0.145 A 
HETATM   37  F2  UNL     1     -26.332  -4.597 -25.004  1.00  0.00    -0.204 F 
ENDBRANCH  28  30
ENDBRANCH   6  26
TORSDOF 8
ENDMDL
MODEL 3
REMARK VINA RESULT: -7.493363225      3.858      5.473
REMARK  8 active torsions:
REMARK  status: ('A' for Active; 'I' for Inactive)
REMARK    1  A    between atoms: C2_2  and  O1_3 
REMARK    2  A    between atoms: O1_3  and  C3_4 
REMARK    3  A    between atoms: C3_4  and  C4_6 
REMARK    4  A    between atoms: C5_7  and  N1_8 
REMARK    5  A    between atoms: C10_13  and  C11_14 
REMARK       I    between atoms: C11_14  and  N2_16 
REMARK    6  A    between atoms: N2_16  and  C12_18 
REMARK    7  A    between atoms: C20_29  and  C21_30 
REMARK    8  A    between atoms: C21_30  and  C22_32 
ROOT
HETATM    1  N1  UNL     1     -27.514  -2.662 -25.626  1.00  0.00    -0.374 N 
HETATM    2  C6  UNL     1     -28.742  -3.366 -25.966  1.00  0.00     0.123 C 
HETATM    3  C7  UNL     1     -28.527  -4.467 -26.981  1.00  0.00     0.020 C 
HETATM    4  C8  UNL     1     -27.116  -4.640 -27.420  1.00  0.00     0.002 C 
HETATM    5  C9  UNL     1     -26.224  -5.398 -26.509  1.00  0.00     0.014 C 
HETATM    6  C10 UNL     1     -26.582  -5.427 -25.074  1.00  0.00     0.080 C 
HETATM    7  C18 UNL     1     -26.166  -4.217 -24.286  1.00  0.00     0.034 C 
HETATM    8  C19 UNL     1     -26.230  -2.941 -25.067  1.00  0.00     0.124 C 
ENDROOT
BRANCH   1   9
HETATM    9  C5  UNL     1     -27.602  -1.252 -25.959  1.00  0.00     0.091 A 
HETATM   10  C4  UNL     1     -27.432  -0.628 -27.173  1.00  0.00     0.098 A 
HETATM   11  C26 UNL     1     -27.575   0.705 -27.197  1.00  0.00     0.086 A 
HETATM   12  C20 UNL     1     -27.874   1.329 -26.022  1.00  0.00     0.079 A 
HETATM   13  N3  UNL     1     -27.430   1.529 -28.397  1.00  0.00    -0.100 NA
HETATM   14  S1  UNL     1     -27.953   0.056 -24.907  1.00  0.00    -0.066 SA
BRANCH  10  15
HETATM   15  C3  UNL     1     -27.107  -1.429 -28.374  1.00  0.00     0.298 C 
HETATM   16  O2  UNL     1     -27.991  -1.720 -29.199  1.00  0.00    -0.259 OA
BRANCH  15  17
HETATM   17  O1  UNL     1     -25.817  -1.851 -28.575  1.00  0.00    -0.318 OA
BRANCH  17  18
HETATM   18  C2  UNL     1     -25.375  -2.184 -29.872  1.00  0.00     0.174 C 
HETATM   19  C1  UNL     1     -24.787  -0.909 -30.469  1.00  0.00     0.034 C 
ENDBRANCH  17  18
ENDBRANCH  15  17
ENDBRANCH  10  15
BRANCH  12  20
HETATM   20  C21 UNL     1     -28.086   2.767 -25.746  1.00  0.00     0.175 C 
HETATM   21  O4  UNL     1     -27.090   3.532 -25.705  1.00  0.00    -0.291 OA
BRANCH  20  22
HETATM   22  C22 UNL     1     -29.419   3.325 -25.520  1.00  0.00     0.015 C 
HETATM   23  C23 UNL     1     -29.454   4.758 -25.975  1.00  0.00     0.023 C 
HETATM   24  C24 UNL     1     -30.516   2.560 -26.218  1.00  0.00     0.023 C 
HETATM   25  C25 UNL     1     -29.683   3.299 -24.017  1.00  0.00     0.023 C 
ENDBRANCH  20  22
ENDBRANCH  12  20
ENDBRANCH   1   9
BRANCH   6  26
HETATM   26  C11 UNL     1     -25.870  -6.610 -24.442  1.00  0.00     0.226 C 
HETATM   27  O3  UNL     1     -26.586  -7.378 -23.784  1.00  0.00    -0.273 OA
HETATM   28  N2  UNL     1     -24.503  -6.801 -24.605  1.00  0.00    -0.324 N 
ATOM     29  H2  UNL     1     -24.026  -6.098 -25.170  1.00  0.00     0.169 HD
BRANCH  28  30
HETATM   30  C12 UNL     1     -23.680  -7.835 -24.096  1.00  0.00     0.073 A 
HETATM   31  C13 UNL     1     -23.533  -9.075 -24.665  1.00  0.00     0.036 A 
HETATM   32  C14 UNL     1     -22.693 -10.021 -24.079  1.00  0.00     0.044 A 
HETATM   33  C15 UNL     1     -22.009  -9.719 -22.926  1.00  0.00     0.119 A 
HETATM   34  F1  UNL     1     -21.197 -10.639 -22.361  1.00  0.00    -0.206 F 
HETATM   35  C16 UNL     1     -22.140  -8.481 -22.333  1.00  0.00     0.086 A 
HETATM   36  C17 UNL     1     -22.968  -7.555 -22.916  1.00  0.00     0.145 A 
HETATM   37  F2  UNL     1     -23.094  -6.327 -22.323  1.00  0.00    -0.204 F 
ENDBRANCH  28  30
ENDBRANCH   6  26
TORSDOF 8
ENDMDL
MODEL 4
REMARK VINA RESULT: -7.464344408      0.732      1.479
REMARK  8 active torsions:
REMARK  status: ('A' for Active; 'I' for Inactive)
REMARK    1  A    between atoms: C2_2  and  O1_3 
REMARK    2  A    between atoms: O1_3  and  C3_4 
REMARK    3  A    between atoms: C3_4  and  C4_6 
REMARK    4  A    between atoms: C5_7  and  N1_8 
REMARK    5  A    between atoms: C10_13  and  C11_14 
REMARK       I    between atoms: C11_14  and  N2_16 
REMARK    6  A    between atoms: N2_16  and  C12_18 
REMARK    7  A    between atoms: C20_29  and  C21_30 
REMARK    8  A    between atoms: C21_30  and  C22_32 
ROOT
HETATM    1  N1  UNL     1     -28.938   0.746 -24.625  1.00  0.00    -0.374 N 
HETATM    2  C6  UNL     1     -28.143   0.793 -23.407  1.00  0.00     0.123 C 
HETATM    3  C7  UNL     1     -28.418  -0.372 -22.481  1.00  0.00     0.020 C 
HETATM    4  C8  UNL     1     -29.417  -1.349 -22.991  1.00  0.00     0.002 C 
HETATM    5  C9  UNL     1     -28.934  -2.338 -23.984  1.00  0.00     0.014 C 
HETATM    6  C10 UNL     1     -27.751  -1.970 -24.792  1.00  0.00     0.080 C 
HETATM    7  C18 UNL     1     -28.034  -1.093 -25.978  1.00  0.00     0.034 C 
HETATM    8  C19 UNL     1     -29.142  -0.112 -25.748  1.00  0.00     0.124 C 
ENDROOT
BRANCH   1   9
HETATM    9  C5  UNL     1     -29.793   1.913 -24.744  1.00  0.00     0.091 A 
HETATM   10  C4  UNL     1     -29.565   3.102 -25.397  1.00  0.00     0.098 A 
HETATM   11  C26 UNL     1     -30.541   4.020 -25.348  1.00  0.00     0.086 A 
HETATM   12  C20 UNL     1     -31.673   3.701 -24.658  1.00  0.00     0.079 A 
HETATM   13  N3  UNL     1     -30.469   5.335 -25.984  1.00  0.00    -0.100 NA
HETATM   14  S1  UNL     1     -31.364   2.135 -24.091  1.00  0.00    -0.066 SA
BRANCH  10  15
HETATM   15  C3  UNL     1     -28.286   3.318 -26.109  1.00  0.00     0.298 C 
HETATM   16  O2  UNL     1     -28.047   2.723 -27.175  1.00  0.00    -0.259 OA
BRANCH  15  17
HETATM   17  O1  UNL     1     -27.359   4.183 -25.585  1.00  0.00    -0.318 OA
BRANCH  17  18
HETATM   18  C2  UNL     1     -26.668   3.850 -24.402  1.00  0.00     0.174 C 
HETATM   19  C1  UNL     1     -25.624   2.807 -24.790  1.00  0.00     0.034 C 
ENDBRANCH  17  18
ENDBRANCH  15  17
ENDBRANCH  10  15
BRANCH  12  20
HETATM   20  C21 UNL     1     -32.898   4.502 -24.435  1.00  0.00     0.175 C 
HETATM   21  O4  UNL     1     -33.853   4.390 -25.244  1.00  0.00    -0.291 OA
BRANCH  20  22
HETATM   22  C22 UNL     1     -33.030   5.416 -23.302  1.00  0.00     0.015 C 
HETATM   23  C23 UNL     1     -31.926   5.163 -22.312  1.00  0.00     0.023 C 
HETATM   24  C24 UNL     1     -33.010   6.871 -23.700  1.00  0.00     0.023 C 
HETATM   25  C25 UNL     1     -34.359   5.114 -22.615  1.00  0.00     0.023 C 
ENDBRANCH  20  22
ENDBRANCH  12  20
ENDBRANCH   1   9
BRANCH   6  26
HETATM   26  C11 UNL     1     -27.151  -3.251 -25.345  1.00  0.00     0.226 C 
HETATM   27  O3  UNL     1     -25.958  -3.446 -25.072  1.00  0.00    -0.273 OA
HETATM   28  N2  UNL     1     -27.908  -4.134 -26.105  1.00  0.00    -0.324 N 
ATOM     29  H2  UNL     1     -28.879  -3.860 -26.260  1.00  0.00     0.169 HD
BRANCH  28  30
HETATM   30  C12 UNL     1     -27.521  -5.362 -26.695  1.00  0.00     0.073 A 
HETATM   31  C13 UNL     1     -27.818  -6.603 -26.194  1.00  0.00     0.036 A 
HETATM   32  C14 UNL     1     -27.386  -7.751 -26.858  1.00  0.00     0.044 A 
HETATM   33  C15 UNL     1     -26.658  -7.646 -28.020  1.00  0.00     0.119 A 
HETATM   34  F1  UNL     1     -26.242  -8.759 -28.659  1.00  0.00    -0.206 F 
HETATM   35  C16 UNL     1     -26.345  -6.409 -28.544  1.00  0.00     0.086 A 
HETATM   36  C17 UNL     1     -26.774  -5.284 -27.886  1.00  0.00     0.145 A 
HETATM   37  F2  UNL     1     -26.461  -4.060 -28.412  1.00  0.00    -0.204 F 
ENDBRANCH  28  30
ENDBRANCH   6  26
TORSDOF 8
ENDMDL
MODEL 5
REMARK VINA RESULT: -7.459783199      0.765      1.103
REMARK  8 active torsions:
REMARK  status: ('A' for Active; 'I' for Inactive)
REMARK    1  A    between atoms: C2_2  and  O1_3 
REMARK    2  A    between atoms: O1_3  and  C3_4 
REMARK    3  A    between atoms: C3_4  and  C4_6 
REMARK    4  A    between atoms: C5_7  and  N1_8 
REMARK    5  A    between atoms: C10_13  and  C11_14 
REMARK       I    between atoms: C11_14  and  N2_16 
REMARK    6  A    between atoms: N2_16  and  C12_18 
REMARK    7  A    between atoms: C20_29  and  C21_30 
REMARK    8  A    between atoms: C21_30  and  C22_32 
ROOT
HETATM    1  N1  UNL     1     -28.739   0.907 -24.820  1.00  0.00    -0.374 N 
HETATM    2  C6  UNL     1     -27.881   1.003 -23.648  1.00  0.00     0.123 C 
HETATM    3  C7  UNL     1     -28.108  -0.120 -22.661  1.00  0.00     0.020 C 
HETATM    4  C8  UNL     1     -29.134  -1.115 -23.075  1.00  0.00     0.002 C 
HETATM    5  C9  UNL     1     -28.704  -2.147 -24.049  1.00  0.00     0.014 C 
HETATM    6  C10 UNL     1     -27.565  -1.818 -24.933  1.00  0.00     0.080 C 
HETATM    7  C18 UNL     1     -27.910  -0.991 -26.139  1.00  0.00     0.034 C 
HETATM    8  C19 UNL     1     -29.003   0.003 -25.893  1.00  0.00     0.124 C 
ENDROOT
BRANCH   1   9
HETATM    9  C5  UNL     1     -29.598   2.070 -24.944  1.00  0.00     0.091 A 
HETATM   10  C4  UNL     1     -29.324   3.308 -25.477  1.00  0.00     0.098 A 
HETATM   11  C26 UNL     1     -30.316   4.210 -25.466  1.00  0.00     0.086 A 
HETATM   12  C20 UNL     1     -31.510   3.827 -24.928  1.00  0.00     0.079 A 
HETATM   13  N3  UNL     1     -30.201   5.570 -25.990  1.00  0.00    -0.100 NA
HETATM   14  S1  UNL     1     -31.233   2.226 -24.449  1.00  0.00    -0.066 SA
BRANCH  10  15
HETATM   15  C3  UNL     1     -27.980   3.591 -26.029  1.00  0.00     0.298 C 
HETATM   16  O2  UNL     1     -27.159   4.263 -25.381  1.00  0.00    -0.259 OA
BRANCH  15  17
HETATM   17  O1  UNL     1     -27.643   3.105 -27.267  1.00  0.00    -0.318 OA
BRANCH  17  18
HETATM   18  C2  UNL     1     -28.472   3.361 -28.379  1.00  0.00     0.174 C 
HETATM   19  C1  UNL     1     -28.774   2.006 -29.013  1.00  0.00     0.034 C 
ENDBRANCH  17  18
ENDBRANCH  15  17
ENDBRANCH  10  15
BRANCH  12  20
HETATM   20  C21 UNL     1     -32.766   4.596 -24.779  1.00  0.00     0.175 C 
HETATM   21  O4  UNL     1     -33.631   4.528 -25.689  1.00  0.00    -0.291 OA
BRANCH  20  22
HETATM   22  C22 UNL     1     -33.031   5.428 -23.607  1.00  0.00     0.015 C 
HETATM   23  C23 UNL     1     -34.390   5.102 -23.049  1.00  0.00     0.023 C 
HETATM   24  C24 UNL     1     -32.002   5.274 -22.516  1.00  0.00     0.023 C 
HETATM   25  C25 UNL     1     -33.045   6.884 -24.066  1.00  0.00     0.023 C 
ENDBRANCH  20  22
ENDBRANCH  12  20
ENDBRANCH   1   9
BRANCH   6  26
HETATM   26  C11 UNL     1     -26.997  -3.122 -25.462  1.00  0.00     0.226 C 
HETATM   27  O3  UNL     1     -25.878  -3.435 -25.029  1.00  0.00    -0.273 OA
HETATM   28  N2  UNL     1     -27.701  -3.902 -26.371  1.00  0.00    -0.324 N 
ATOM     29  H2  UNL     1     -28.612  -3.536 -26.651  1.00  0.00     0.169 HD
BRANCH  28  30
HETATM   30  C12 UNL     1     -27.333  -5.134 -26.965  1.00  0.00     0.073 A 
HETATM   31  C13 UNL     1     -26.596  -5.263 -28.115  1.00  0.00     0.036 A 
HETATM   32  C14 UNL     1     -26.289  -6.529 -28.613  1.00  0.00     0.044 A 
HETATM   33  C15 UNL     1     -26.721  -7.656 -27.955  1.00  0.00     0.119 A 
HETATM   34  F1  UNL     1     -26.421  -8.878 -28.441  1.00  0.00    -0.206 F 
HETATM   35  C16 UNL     1     -27.464  -7.553 -26.798  1.00  0.00     0.086 A 
HETATM   36  C17 UNL     1     -27.763  -6.304 -26.313  1.00  0.00     0.145 A 
HETATM   37  F2  UNL     1     -28.500  -6.209 -25.163  1.00  0.00    -0.204 F 
ENDBRANCH  28  30
ENDBRANCH   6  26
TORSDOF 8
ENDMDL
