MODEL 1
REMARK VINA RESULT: -8.558253547      0.000      0.000
REMARK  8 active torsions:
REMARK  status: ('A' for Active; 'I' for Inactive)
REMARK    1  A    between atoms: C2_2  and  C3_3 
REMARK    2  A    between atoms: C2_2  and  C6_11 
REMARK    3  A    between atoms: C3_3  and  O1_4 
REMARK    4  A    between atoms: O1_4  and  C4_5 
REMARK    5  A    between atoms: C4_5  and  C5_7 
REMARK    6  A    between atoms: C15_23  and  O3_24 
REMARK    7  A    between atoms: C19_29  and  C21_31 
REMARK    8  A    between atoms: C21_31  and  O4_32 
ROOT
HETATM    1  C6  UNL     1     -84.577 -16.283   7.232  1.00  0.00     0.053 C 
HETATM    2  C7  UNL     1     -85.710 -15.578   6.604  1.00  0.00     0.008 C 
HETATM    3  N1  UNL     1     -85.781 -14.903   5.504  1.00  0.00    -0.402 N 
ATOM      4  H11 UNL     1     -86.566 -14.415   5.070  1.00  0.00     0.156 HD
ATOM      5  H12 UNL     1     -85.008 -14.755   4.856  1.00  0.00     0.156 HD
HETATM    6  C8  UNL     1     -86.834 -15.794   7.546  1.00  0.00     0.031 C 
HETATM    7  C9  UNL     1     -86.398 -16.111   8.750  1.00  0.00    -0.035 C 
HETATM    8  C10 UNL     1     -84.889 -16.133   8.698  1.00  0.00    -0.008 C 
HETATM    9  C11 UNL     1     -84.281 -14.912   9.272  1.00  0.00     0.021 C 
HETATM   10  C12 UNL     1     -84.384 -17.357   9.422  1.00  0.00     0.015 C 
HETATM   11  C13 UNL     1     -85.473 -18.107  10.173  1.00  0.00     0.010 C 
HETATM   12  C14 UNL     1     -86.262 -17.119  10.953  1.00  0.00     0.033 C 
HETATM   13  C15 UNL     1     -87.165 -16.405   9.975  1.00  0.00     0.086 C 
HETATM   14  C16 UNL     1     -87.626 -15.190  10.714  1.00  0.00     0.043 C 
HETATM   15  C17 UNL     1     -88.578 -15.749  11.789  1.00  0.00     0.009 C 
HETATM   16  C18 UNL     1     -87.838 -16.623  12.781  1.00  0.00     0.004 C 
HETATM   17  C19 UNL     1     -88.806 -17.103  13.796  1.00  0.00    -0.018 C 
HETATM   18  C20 UNL     1     -88.387 -16.652  15.202  1.00  0.00     0.018 C 
HETATM   19  C22 UNL     1     -89.043 -18.573  13.868  1.00  0.00     0.012 C 
HETATM   20  C23 UNL     1     -87.973 -19.452  13.352  1.00  0.00     0.002 C 
HETATM   21  C24 UNL     1     -87.639 -18.979  11.936  1.00  0.00     0.010 C 
HETATM   22  C25 UNL     1     -86.957 -17.649  12.159  1.00  0.00    -0.033 C 
HETATM   23  C26 UNL     1     -85.827 -17.967  13.159  1.00  0.00     0.016 C 
ENDROOT
BRANCH   1  24
HETATM   24  C2  UNL     1     -83.283 -15.776   6.751  1.00  0.00     0.017 C 
HETATM   25  C1  UNL     1     -82.116 -16.667   7.219  1.00  0.00     0.013 C 
BRANCH  24  26
HETATM   26  C3  UNL     1     -83.215 -16.003   5.218  1.00  0.00     0.184 C 
BRANCH  26  27
HETATM   27  O1  UNL     1     -82.907 -14.726   4.606  1.00  0.00    -0.314 OA
BRANCH  27  28
HETATM   28  C4  UNL     1     -81.617 -14.514   4.155  1.00  0.00     0.367 C 
HETATM   29  O2  UNL     1     -81.277 -15.020   3.060  1.00  0.00    -0.255 OA
BRANCH  28  30
HETATM   30  C5  UNL     1     -80.609 -13.717   4.896  1.00  0.00     0.479 C 
HETATM   31  F1  UNL     1     -80.665 -12.428   4.356  1.00  0.00    -0.162 F 
HETATM   32  F2  UNL     1     -79.364 -14.286   4.696  1.00  0.00    -0.162 F 
HETATM   33  F3  UNL     1     -80.935 -13.604   6.212  1.00  0.00    -0.162 F 
ENDBRANCH  28  30
ENDBRANCH  27  28
ENDBRANCH  26  27
ENDBRANCH  24  26
ENDBRANCH   1  24
BRANCH  13  34
HETATM   34  O3  UNL     1     -88.324 -17.154   9.708  1.00  0.00    -0.385 OA
ATOM     35  H3  UNL     1     -88.633 -17.621  10.474  1.00  0.00     0.211 HD
ENDBRANCH  13  34
BRANCH  17  36
HETATM   36  C21 UNL     1     -90.209 -16.491  13.617  1.00  0.00     0.173 C 
BRANCH  36  37
HETATM   37  O4  UNL     1     -91.140 -17.487  13.956  1.00  0.00    -0.400 OA
ATOM     38  H4  UNL     1     -91.957 -17.263  13.527  1.00  0.00     0.209 HD
ENDBRANCH  36  37
ENDBRANCH  17  36
TORSDOF 8
ENDMDL
MODEL 2
REMARK VINA RESULT: -8.555464665      1.504      1.792
REMARK  8 active torsions:
REMARK  status: ('A' for Active; 'I' for Inactive)
REMARK    1  A    between atoms: C2_2  and  C3_3 
REMARK    2  A    between atoms: C2_2  and  C6_11 
REMARK    3  A    between atoms: C3_3  and  O1_4 
REMARK    4  A    between atoms: O1_4  and  C4_5 
REMARK    5  A    between atoms: C4_5  and  C5_7 
REMARK    6  A    between atoms: C15_23  and  O3_24 
REMARK    7  A    between atoms: C19_29  and  C21_31 
REMARK    8  A    between atoms: C21_31  and  O4_32 
ROOT
HETATM    1  C6  UNL     1     -85.440 -16.496   8.207  1.00  0.00     0.053 C 
HETATM    2  C7  UNL     1     -86.640 -15.921   7.574  1.00  0.00     0.008 C 
HETATM    3  N1  UNL     1     -86.778 -15.249   6.478  1.00  0.00    -0.402 N 
ATOM      4  H11 UNL     1     -87.609 -14.850   6.039  1.00  0.00     0.156 HD
ATOM      5  H12 UNL     1     -86.021 -15.009   5.838  1.00  0.00     0.156 HD
HETATM    6  C8  UNL     1     -87.740 -16.270   8.503  1.00  0.00     0.031 C 
HETATM    7  C9  UNL     1     -87.282 -16.546   9.709  1.00  0.00    -0.035 C 
HETATM    8  C10 UNL     1     -85.779 -16.395   9.671  1.00  0.00    -0.008 C 
HETATM    9  C11 UNL     1     -85.319 -15.118  10.260  1.00  0.00     0.021 C 
HETATM   10  C12 UNL     1     -85.145 -17.560  10.392  1.00  0.00     0.015 C 
HETATM   11  C13 UNL     1     -86.148 -18.434  11.127  1.00  0.00     0.010 C 
HETATM   12  C14 UNL     1     -87.051 -17.549  11.906  1.00  0.00     0.033 C 
HETATM   13  C15 UNL     1     -88.021 -16.934  10.925  1.00  0.00     0.086 C 
HETATM   14  C16 UNL     1     -88.624 -15.786  11.668  1.00  0.00     0.043 C 
HETATM   15  C17 UNL     1     -89.515 -16.458  12.730  1.00  0.00     0.009 C 
HETATM   16  C18 UNL     1     -88.689 -17.250  13.722  1.00  0.00     0.004 C 
HETATM   17  C19 UNL     1     -89.605 -17.845  14.725  1.00  0.00    -0.018 C 
HETATM   18  C20 UNL     1     -89.252 -17.361  16.137  1.00  0.00     0.018 C 
HETATM   19  C22 UNL     1     -89.674 -19.333  14.785  1.00  0.00     0.012 C 
HETATM   20  C23 UNL     1     -88.507 -20.080  14.272  1.00  0.00     0.002 C 
HETATM   21  C24 UNL     1     -88.216 -19.561  12.863  1.00  0.00     0.010 C 
HETATM   22  C25 UNL     1     -87.692 -18.164  13.102  1.00  0.00    -0.033 C 
HETATM   23  C26 UNL     1     -86.542 -18.360  14.110  1.00  0.00     0.016 C 
ENDROOT
BRANCH   1  24
HETATM   24  C2  UNL     1     -84.208 -15.842   7.742  1.00  0.00     0.017 C 
HETATM   25  C1  UNL     1     -82.953 -16.636   8.157  1.00  0.00     0.013 C 
BRANCH  24  26
HETATM   26  C3  UNL     1     -84.136 -15.987   6.199  1.00  0.00     0.184 C 
BRANCH  26  27
HETATM   27  O1  UNL     1     -83.186 -15.005   5.718  1.00  0.00    -0.314 OA
BRANCH  27  28
HETATM   28  C4  UNL     1     -82.400 -15.339   4.629  1.00  0.00     0.367 C 
HETATM   29  O2  UNL     1     -82.424 -14.590   3.624  1.00  0.00    -0.255 OA
BRANCH  28  30
HETATM   30  C5  UNL     1     -81.526 -16.536   4.584  1.00  0.00     0.479 C 
HETATM   31  F1  UNL     1     -80.556 -16.268   3.613  1.00  0.00    -0.162 F 
HETATM   32  F2  UNL     1     -82.295 -17.630   4.228  1.00  0.00    -0.162 F 
HETATM   33  F3  UNL     1     -80.865 -16.714   5.760  1.00  0.00    -0.162 F 
ENDBRANCH  28  30
ENDBRANCH  27  28
ENDBRANCH  26  27
ENDBRANCH  24  26
ENDBRANCH   1  24
BRANCH  13  34
HETATM   34  O3  UNL     1     -89.085 -17.808  10.641  1.00  0.00    -0.385 OA
ATOM     35  H3  UNL     1     -89.218 -18.446  11.332  1.00  0.00     0.211 HD
ENDBRANCH  13  34
BRANCH  17  36
HETATM   36  C21 UNL     1     -91.067 -17.395  14.537  1.00  0.00     0.173 C 
BRANCH  36  37
HETATM   37  O4  UNL     1     -91.850 -18.558  14.463  1.00  0.00    -0.400 OA
ATOM     38  H4  UNL     1     -92.719 -18.293  14.183  1.00  0.00     0.209 HD
ENDBRANCH  36  37
ENDBRANCH  17  36
TORSDOF 8
ENDMDL
MODEL 3
REMARK VINA RESULT: -8.229291159      0.876      1.005
REMARK  8 active torsions:
REMARK  status: ('A' for Active; 'I' for Inactive)
REMARK    1  A    between atoms: C2_2  and  C3_3 
REMARK    2  A    between atoms: C2_2  and  C6_11 
REMARK    3  A    between atoms: C3_3  and  O1_4 
REMARK    4  A    between atoms: O1_4  and  C4_5 
REMARK    5  A    between atoms: C4_5  and  C5_7 
REMARK    6  A    between atoms: C15_23  and  O3_24 
REMARK    7  A    between atoms: C19_29  and  C21_31 
REMARK    8  A    between atoms: C21_31  and  O4_32 
ROOT
HETATM    1  C6  UNL     1     -84.283 -16.270   7.068  1.00  0.00     0.053 C 
HETATM    2  C7  UNL     1     -85.413 -15.552   6.452  1.00  0.00     0.008 C 
HETATM    3  N1  UNL     1     -85.495 -14.899   5.339  1.00  0.00    -0.402 N 
ATOM      4  H11 UNL     1     -86.278 -14.402   4.913  1.00  0.00     0.156 HD
ATOM      5  H12 UNL     1     -84.734 -14.784   4.670  1.00  0.00     0.156 HD
HETATM    6  C8  UNL     1     -86.519 -15.720   7.424  1.00  0.00     0.031 C 
HETATM    7  C9  UNL     1     -86.063 -16.023   8.625  1.00  0.00    -0.035 C 
HETATM    8  C10 UNL     1     -84.556 -16.082   8.538  1.00  0.00    -0.008 C 
HETATM    9  C11 UNL     1     -83.906 -14.865   9.070  1.00  0.00     0.021 C 
HETATM   10  C12 UNL     1     -84.063 -17.303   9.277  1.00  0.00     0.015 C 
HETATM   11  C13 UNL     1     -85.152 -18.009  10.069  1.00  0.00     0.010 C 
HETATM   12  C14 UNL     1     -85.899 -16.986  10.845  1.00  0.00     0.033 C 
HETATM   13  C15 UNL     1     -86.808 -16.271   9.873  1.00  0.00     0.086 C 
HETATM   14  C16 UNL     1     -87.222 -15.030  10.596  1.00  0.00     0.043 C 
HETATM   15  C17 UNL     1     -88.160 -15.543  11.705  1.00  0.00     0.009 C 
HETATM   16  C18 UNL     1     -87.418 -16.413  12.698  1.00  0.00     0.004 C 
HETATM   17  C19 UNL     1     -88.372 -16.848  13.746  1.00  0.00    -0.018 C 
HETATM   18  C20 UNL     1     -87.910 -16.377  15.131  1.00  0.00     0.018 C 
HETATM   19  C22 UNL     1     -88.643 -18.310  13.856  1.00  0.00     0.012 C 
HETATM   20  C23 UNL     1     -87.607 -19.225  13.334  1.00  0.00     0.002 C 
HETATM   21  C24 UNL     1     -87.295 -18.791  11.900  1.00  0.00     0.010 C 
HETATM   22  C25 UNL     1     -86.577 -17.474  12.078  1.00  0.00    -0.033 C 
HETATM   23  C26 UNL     1     -85.431 -17.797  13.058  1.00  0.00     0.016 C 
ENDROOT
BRANCH   1  24
HETATM   24  C2  UNL     1     -82.989 -15.805   6.546  1.00  0.00     0.017 C 
HETATM   25  C1  UNL     1     -81.810 -16.468   7.285  1.00  0.00     0.013 C 
BRANCH  24  26
HETATM   26  C3  UNL     1     -82.801 -16.398   5.125  1.00  0.00     0.184 C 
BRANCH  26  27
HETATM   27  O1  UNL     1     -82.759 -15.286   4.197  1.00  0.00    -0.314 OA
BRANCH  27  28
HETATM   28  C4  UNL     1     -81.572 -14.589   4.067  1.00  0.00     0.367 C 
HETATM   29  O2  UNL     1     -81.605 -13.337   4.130  1.00  0.00    -0.255 OA
BRANCH  28  30
HETATM   30  C5  UNL     1     -80.256 -15.240   3.858  1.00  0.00     0.479 C 
HETATM   31  F1  UNL     1     -79.481 -14.321   3.143  1.00  0.00    -0.162 F 
HETATM   32  F2  UNL     1     -80.449 -16.400   3.129  1.00  0.00    -0.162 F 
HETATM   33  F3  UNL     1     -79.616 -15.458   5.039  1.00  0.00    -0.162 F 
ENDBRANCH  28  30
ENDBRANCH  27  28
ENDBRANCH  26  27
ENDBRANCH  24  26
ENDBRANCH   1  24
BRANCH  13  34
HETATM   34  O3  UNL     1     -87.989 -16.997   9.649  1.00  0.00    -0.385 OA
ATOM     35  H3  UNL     1     -88.577 -16.551   9.051  1.00  0.00     0.211 HD
ENDBRANCH  13  34
BRANCH  17  36
HETATM   36  C21 UNL     1     -89.764 -16.206  13.586  1.00  0.00     0.173 C 
BRANCH  36  37
HETATM   37  O4  UNL     1     -90.698 -17.254  13.525  1.00  0.00    -0.400 OA
ATOM     38  H4  UNL     1     -91.130 -17.292  14.371  1.00  0.00     0.209 HD
ENDBRANCH  36  37
ENDBRANCH  17  36
TORSDOF 8
ENDMDL
MODEL 4
REMARK VINA RESULT: -8.057738120      3.668      8.577
REMARK  8 active torsions:
REMARK  status: ('A' for Active; 'I' for Inactive)
REMARK    1  A    between atoms: C2_2  and  C3_3 
REMARK    2  A    between atoms: C2_2  and  C6_11 
REMARK    3  A    between atoms: C3_3  and  O1_4 
REMARK    4  A    between atoms: O1_4  and  C4_5 
REMARK    5  A    between atoms: C4_5  and  C5_7 
REMARK    6  A    between atoms: C15_23  and  O3_24 
REMARK    7  A    between atoms: C19_29  and  C21_31 
REMARK    8  A    between atoms: C21_31  and  O4_32 
ROOT
HETATM    1  C6  UNL     1     -88.334 -16.425   8.291  1.00  0.00     0.053 C 
HETATM    2  C7  UNL     1     -88.821 -16.042   6.953  1.00  0.00     0.008 C 
HETATM    3  N1  UNL     1     -89.994 -16.140   6.420  1.00  0.00    -0.402 N 
ATOM      4  H11 UNL     1     -90.331 -15.875   5.494  1.00  0.00     0.156 HD
ATOM      5  H12 UNL     1     -90.820 -16.516   6.885  1.00  0.00     0.156 HD
HETATM    6  C8  UNL     1     -87.620 -15.495   6.276  1.00  0.00     0.031 C 
HETATM    7  C9  UNL     1     -86.510 -15.912   6.854  1.00  0.00    -0.035 C 
HETATM    8  C10 UNL     1     -86.904 -16.805   8.007  1.00  0.00    -0.008 C 
HETATM    9  C11 UNL     1     -86.766 -18.243   7.687  1.00  0.00     0.021 C 
HETATM   10  C12 UNL     1     -86.067 -16.457   9.214  1.00  0.00     0.015 C 
HETATM   11  C13 UNL     1     -84.940 -15.483   8.906  1.00  0.00     0.010 C 
HETATM   12  C14 UNL     1     -84.233 -15.961   7.690  1.00  0.00     0.033 C 
HETATM   13  C15 UNL     1     -85.108 -15.616   6.507  1.00  0.00     0.086 C 
HETATM   14  C16 UNL     1     -84.565 -16.447   5.389  1.00  0.00     0.043 C 
HETATM   15  C17 UNL     1     -83.204 -15.798   5.073  1.00  0.00     0.009 C 
HETATM   16  C18 UNL     1     -82.244 -15.932   6.236  1.00  0.00     0.004 C 
HETATM   17  C19 UNL     1     -80.953 -15.312   5.854  1.00  0.00    -0.018 C 
HETATM   18  C20 UNL     1     -79.816 -16.339   5.922  1.00  0.00     0.018 C 
HETATM   19  C22 UNL     1     -80.509 -14.125   6.638  1.00  0.00     0.012 C 
HETATM   20  C23 UNL     1     -81.055 -13.981   8.004  1.00  0.00     0.002 C 
HETATM   21  C24 UNL     1     -82.577 -14.081   7.899  1.00  0.00     0.010 C 
HETATM   22  C25 UNL     1     -82.813 -15.532   7.552  1.00  0.00    -0.033 C 
HETATM   23  C26 UNL     1     -82.057 -16.311   8.648  1.00  0.00     0.016 C 
ENDROOT
BRANCH   1  24
HETATM   24  C2  UNL     1     -89.199 -17.433   8.920  1.00  0.00     0.017 C 
HETATM   25  C1  UNL     1     -88.406 -18.336   9.886  1.00  0.00     0.013 C 
BRANCH  24  26
HETATM   26  C3  UNL     1     -90.139 -16.707   9.919  1.00  0.00     0.184 C 
BRANCH  26  27
HETATM   27  O1  UNL     1     -89.821 -17.199  11.244  1.00  0.00    -0.314 OA
BRANCH  27  28
HETATM   28  C4  UNL     1     -89.717 -16.280  12.273  1.00  0.00     0.367 C 
HETATM   29  O2  UNL     1     -90.659 -16.198  13.097  1.00  0.00    -0.255 OA
BRANCH  28  30
HETATM   30  C5  UNL     1     -88.551 -15.383  12.458  1.00  0.00     0.479 C 
HETATM   31  F1  UNL     1     -87.421 -16.204  12.397  1.00  0.00    -0.162 F 
HETATM   32  F2  UNL     1     -88.656 -14.773  13.695  1.00  0.00    -0.162 F 
HETATM   33  F3  UNL     1     -88.443 -14.491  11.435  1.00  0.00    -0.162 F 
ENDBRANCH  28  30
ENDBRANCH  27  28
ENDBRANCH  26  27
ENDBRANCH  24  26
ENDBRANCH   1  24
BRANCH  13  34
HETATM   34  O3  UNL     1     -84.930 -14.279   6.113  1.00  0.00    -0.385 OA
ATOM     35  H3  UNL     1     -85.099 -13.671   6.823  1.00  0.00     0.211 HD
ENDBRANCH  13  34
BRANCH  17  36
HETATM   36  C21 UNL     1     -80.932 -14.839   4.387  1.00  0.00     0.173 C 
BRANCH  36  37
HETATM   37  O4  UNL     1     -80.753 -13.446   4.405  1.00  0.00    -0.400 OA
ATOM     38  H4  UNL     1     -79.817 -13.285   4.439  1.00  0.00     0.209 HD
ENDBRANCH  36  37
ENDBRANCH  17  36
TORSDOF 8
ENDMDL
MODEL 5
REMARK VINA RESULT: -8.001379056      2.996      4.035
REMARK  8 active torsions:
REMARK  status: ('A' for Active; 'I' for Inactive)
REMARK    1  A    between atoms: C2_2  and  C3_3 
REMARK    2  A    between atoms: C2_2  and  C6_11 
REMARK    3  A    between atoms: C3_3  and  O1_4 
REMARK    4  A    between atoms: O1_4  and  C4_5 
REMARK    5  A    between atoms: C4_5  and  C5_7 
REMARK    6  A    between atoms: C15_23  and  O3_24 
REMARK    7  A    between atoms: C19_29  and  C21_31 
REMARK    8  A    between atoms: C21_31  and  O4_32 
ROOT
HETATM    1  C6  UNL     1     -83.986 -15.871  10.543  1.00  0.00     0.053 C 
HETATM    2  C7  UNL     1     -83.970 -17.196   9.899  1.00  0.00     0.008 C 
HETATM    3  N1  UNL     1     -83.357 -17.615   8.841  1.00  0.00    -0.402 N 
ATOM      4  H11 UNL     1     -83.345 -18.533   8.394  1.00  0.00     0.156 HD
ATOM      5  H12 UNL     1     -82.740 -17.049   8.258  1.00  0.00     0.156 HD
HETATM    6  C8  UNL     1     -84.866 -18.019  10.745  1.00  0.00     0.031 C 
HETATM    7  C9  UNL     1     -85.680 -17.266  11.459  1.00  0.00    -0.035 C 
HETATM    8  C10 UNL     1     -85.374 -15.824  11.128  1.00  0.00    -0.008 C 
HETATM    9  C11 UNL     1     -86.352 -15.236  10.187  1.00  0.00     0.021 C 
HETATM   10  C12 UNL     1     -85.329 -15.019  12.404  1.00  0.00     0.015 C 
HETATM   11  C13 UNL     1     -85.799 -15.796  13.624  1.00  0.00     0.010 C 
HETATM   12  C14 UNL     1     -87.075 -16.474  13.279  1.00  0.00     0.033 C 
HETATM   13  C15 UNL     1     -86.723 -17.667  12.421  1.00  0.00     0.086 C 
HETATM   14  C16 UNL     1     -88.018 -18.065  11.790  1.00  0.00     0.043 C 
HETATM   15  C17 UNL     1     -88.835 -18.650  12.957  1.00  0.00     0.009 C 
HETATM   16  C18 UNL     1     -89.150 -17.593  13.995  1.00  0.00     0.004 C 
HETATM   17  C19 UNL     1     -89.957 -18.217  15.071  1.00  0.00    -0.018 C 
HETATM   18  C20 UNL     1     -91.315 -17.517  15.208  1.00  0.00     0.018 C 
HETATM   19  C22 UNL     1     -89.355 -18.261  16.434  1.00  0.00     0.012 C 
HETATM   20  C23 UNL     1     -88.312 -17.260  16.740  1.00  0.00     0.002 C 
HETATM   21  C24 UNL     1     -87.262 -17.343  15.631  1.00  0.00     0.010 C 
HETATM   22  C25 UNL     1     -87.977 -16.783  14.424  1.00  0.00    -0.033 C 
HETATM   23  C26 UNL     1     -88.500 -15.412  14.897  1.00  0.00     0.016 C 
ENDROOT
BRANCH   1  24
HETATM   24  C2  UNL     1     -83.600 -14.803   9.609  1.00  0.00     0.017 C 
HETATM   25  C1  UNL     1     -82.180 -14.280   9.904  1.00  0.00     0.013 C 
BRANCH  24  26
HETATM   26  C3  UNL     1     -83.381 -15.439   8.211  1.00  0.00     0.184 C 
BRANCH  26  27
HETATM   27  O1  UNL     1     -84.363 -14.862   7.317  1.00  0.00    -0.314 OA
BRANCH  27  28
HETATM   28  C4  UNL     1     -84.930 -15.680   6.356  1.00  0.00     0.367 C 
HETATM   29  O2  UNL     1     -84.264 -15.938   5.325  1.00  0.00    -0.255 OA
BRANCH  28  30
HETATM   30  C5  UNL     1     -86.284 -16.271   6.476  1.00  0.00     0.479 C 
HETATM   31  F1  UNL     1     -87.139 -15.214   6.804  1.00  0.00    -0.162 F 
HETATM   32  F2  UNL     1     -86.263 -17.223   7.481  1.00  0.00    -0.162 F 
HETATM   33  F3  UNL     1     -86.717 -16.769   5.285  1.00  0.00    -0.162 F 
ENDBRANCH  28  30
ENDBRANCH  27  28
ENDBRANCH  26  27
ENDBRANCH  24  26
ENDBRANCH   1  24
BRANCH  13  34
HETATM   34  O3  UNL     1     -86.327 -18.762  13.207  1.00  0.00    -0.385 OA
ATOM     35  H3  UNL     1     -86.206 -18.525  14.118  1.00  0.00     0.211 HD
ENDBRANCH  13  34
BRANCH  17  36
HETATM   36  C21 UNL     1     -90.328 -19.681  14.763  1.00  0.00     0.173 C 
BRANCH  36  37
HETATM   37  O4  UNL     1     -91.728 -19.737  14.652  1.00  0.00    -0.400 OA
ATOM     38  H4  UNL     1     -91.980 -20.646  14.768  1.00  0.00     0.209 HD
ENDBRANCH  36  37
ENDBRANCH  17  36
TORSDOF 8
ENDMDL
