MODEL 1
REMARK VINA RESULT: -8.421752458      0.000      0.000
REMARK  6 active torsions:
REMARK  status: ('A' for Active; 'I' for Inactive)
REMARK    1  A    between atoms: C6_6  and  S1_7 
REMARK    2  A    between atoms: S1_7  and  C7_8 
REMARK    3  A    between atoms: C11_14  and  C12_15 
REMARK    4  A    between atoms: C12_15  and  C13_16 
REMARK    5  A    between atoms: C16_20  and  O2_21 
REMARK    6  A    between atoms: C21_29  and  O4_30 
ROOT
HETATM    1  C7  UNL     1     -87.818 -17.307   9.135  1.00  0.00     0.077 A 
HETATM    2  C8  UNL     1     -89.038 -16.830   9.067  1.00  0.00     0.104 A 
HETATM    3 CL1  UNL     1     -89.844 -16.403   7.582  1.00  0.00    -0.078 Cl
HETATM    4  C9  UNL     1     -89.822 -16.618  10.306  1.00  0.00     0.195 A 
HETATM    5  O1  UNL     1     -90.978 -16.163  10.199  1.00  0.00    -0.287 OA
HETATM    6  C10 UNL     1     -89.300 -16.916  11.610  1.00  0.00     0.068 A 
HETATM    7  C11 UNL     1     -88.088 -17.390  11.703  1.00  0.00     0.002 A 
HETATM    8  C19 UNL     1     -87.310 -17.604  10.519  1.00  0.00     0.197 A 
HETATM    9  O3  UNL     1     -86.147 -18.058  10.593  1.00  0.00    -0.286 OA
ENDROOT
BRANCH   1  10
HETATM   10  S1  UNL     1     -86.766 -17.613   7.822  1.00  0.00    -0.119 SA
BRANCH  10  11
HETATM   11  C6  UNL     1     -85.345 -16.839   7.336  1.00  0.00     0.055 C 
HETATM   12  C5  UNL     1     -84.406 -16.218   8.349  1.00  0.00     0.016 C 
HETATM   13  C4  UNL     1     -82.975 -16.514   7.821  1.00  0.00     0.012 C 
HETATM   14  C2  UNL     1     -82.856 -15.729   6.549  1.00  0.00    -0.022 C 
HETATM   15  C1  UNL     1     -81.857 -14.594   6.816  1.00  0.00     0.017 C 
HETATM   16  C3  UNL     1     -82.199 -16.607   5.507  1.00  0.00     0.017 C 
HETATM   17  C21 UNL     1     -84.107 -15.084   6.061  1.00  0.00     0.127 C 
HETATM   18  C20 UNL     1     -85.335 -15.947   6.103  1.00  0.00     0.048 C 
BRANCH  17  19
HETATM   19  O4  UNL     1     -83.905 -14.776   4.692  1.00  0.00    -0.395 OA
ATOM     20  H4  UNL     1     -84.188 -13.877   4.566  1.00  0.00     0.210 HD
ENDBRANCH  17  19
ENDBRANCH  10  11
ENDBRANCH   1  10
BRANCH   7  21
HETATM   21  C12 UNL     1     -87.533 -17.705  13.054  1.00  0.00     0.081 C 
BRANCH  21  22
HETATM   22  C13 UNL     1     -88.539 -18.364  13.902  1.00  0.00    -0.050 A 
HETATM   23  C14 UNL     1     -89.358 -17.648  14.757  1.00  0.00     0.034 A 
HETATM   24  C15 UNL     1     -90.298 -18.268  15.555  1.00  0.00     0.069 A 
HETATM   25 CL2  UNL     1     -91.309 -17.312  16.618  1.00  0.00    -0.081 Cl
HETATM   26  C16 UNL     1     -90.462 -19.643  15.533  1.00  0.00     0.109 A 
HETATM   27  C17 UNL     1     -89.656 -20.369  14.688  1.00  0.00     0.069 A 
HETATM   28 CL3  UNL     1     -89.851 -22.105  14.648  1.00  0.00    -0.081 Cl
HETATM   29  C18 UNL     1     -88.716 -19.748  13.891  1.00  0.00     0.034 A 
BRANCH  26  30
HETATM   30  O2  UNL     1     -91.417 -20.254  16.345  1.00  0.00    -0.357 OA
ATOM     31  H2  UNL     1     -91.788 -21.095  16.104  1.00  0.00     0.217 HD
ENDBRANCH  26  30
ENDBRANCH  21  22
ENDBRANCH   7  21
TORSDOF 6
ENDMDL
MODEL 2
REMARK VINA RESULT: -8.418813923      0.427      1.715
REMARK  6 active torsions:
REMARK  status: ('A' for Active; 'I' for Inactive)
REMARK    1  A    between atoms: C6_6  and  S1_7 
REMARK    2  A    between atoms: S1_7  and  C7_8 
REMARK    3  A    between atoms: C11_14  and  C12_15 
REMARK    4  A    between atoms: C12_15  and  C13_16 
REMARK    5  A    between atoms: C16_20  and  O2_21 
REMARK    6  A    between atoms: C21_29  and  O4_30 
ROOT
HETATM    1  C7  UNL     1     -87.854 -17.128   8.759  1.00  0.00     0.077 A 
HETATM    2  C8  UNL     1     -89.093 -16.698   8.781  1.00  0.00     0.104 A 
HETATM    3 CL1  UNL     1     -89.991 -16.219   7.366  1.00  0.00    -0.078 Cl
HETATM    4  C9  UNL     1     -89.818 -16.590  10.069  1.00  0.00     0.195 A 
HETATM    5  O1  UNL     1     -90.996 -16.177  10.047  1.00  0.00    -0.287 OA
HETATM    6  C10 UNL     1     -89.218 -16.941  11.325  1.00  0.00     0.068 A 
HETATM    7  C11 UNL     1     -87.986 -17.369  11.329  1.00  0.00     0.002 A 
HETATM    8  C19 UNL     1     -87.263 -17.483  10.097  1.00  0.00     0.197 A 
HETATM    9  O3  UNL     1     -86.082 -17.892  10.084  1.00  0.00    -0.286 OA
ENDROOT
BRANCH   1  10
HETATM   10  S1  UNL     1     -86.861 -17.314   7.380  1.00  0.00    -0.119 SA
BRANCH  10  11
HETATM   11  C6  UNL     1     -85.368 -16.628   6.987  1.00  0.00     0.055 C 
HETATM   12  C5  UNL     1     -84.551 -15.886   8.024  1.00  0.00     0.016 C 
HETATM   13  C4  UNL     1     -83.072 -16.265   7.734  1.00  0.00     0.012 C 
HETATM   14  C2  UNL     1     -82.768 -15.662   6.396  1.00  0.00    -0.022 C 
HETATM   15  C1  UNL     1     -81.780 -14.512   6.639  1.00  0.00     0.017 C 
HETATM   16  C3  UNL     1     -82.006 -16.680   5.576  1.00  0.00     0.017 C 
HETATM   17  C21 UNL     1     -83.926 -15.076   5.665  1.00  0.00     0.127 C 
HETATM   18  C20 UNL     1     -85.173 -15.912   5.659  1.00  0.00     0.048 C 
BRANCH  17  19
HETATM   19  O4  UNL     1     -83.539 -14.959   4.306  1.00  0.00    -0.395 OA
ATOM     20  H4  UNL     1     -83.194 -15.804   4.042  1.00  0.00     0.210 HD
ENDBRANCH  17  19
ENDBRANCH  10  11
ENDBRANCH   1  10
BRANCH   7  21
HETATM   21  C12 UNL     1     -87.349 -17.738  12.629  1.00  0.00     0.081 C 
BRANCH  21  22
HETATM   22  C13 UNL     1     -88.300 -18.437  13.508  1.00  0.00    -0.050 A 
HETATM   23  C14 UNL     1     -88.377 -19.818  13.552  1.00  0.00     0.034 A 
HETATM   24  C15 UNL     1     -89.272 -20.472  14.373  1.00  0.00     0.069 A 
HETATM   25 CL2  UNL     1     -89.327 -22.222  14.389  1.00  0.00    -0.081 Cl
HETATM   26  C16 UNL     1     -90.138 -19.769  15.195  1.00  0.00     0.109 A 
HETATM   27  C17 UNL     1     -90.073 -18.396  15.163  1.00  0.00     0.069 A 
HETATM   28 CL3  UNL     1     -91.158 -17.493  16.193  1.00  0.00    -0.081 Cl
HETATM   29  C18 UNL     1     -89.178 -17.743  14.341  1.00  0.00     0.034 A 
BRANCH  26  30
HETATM   30  O2  UNL     1     -91.037 -20.445  16.019  1.00  0.00    -0.357 OA
ATOM     31  H2  UNL     1     -91.572 -19.967  16.641  1.00  0.00     0.217 HD
ENDBRANCH  26  30
ENDBRANCH  21  22
ENDBRANCH   7  21
TORSDOF 6
ENDMDL
MODEL 3
REMARK VINA RESULT: -8.412125749      3.252      8.898
REMARK  6 active torsions:
REMARK  status: ('A' for Active; 'I' for Inactive)
REMARK    1  A    between atoms: C6_6  and  S1_7 
REMARK    2  A    between atoms: S1_7  and  C7_8 
REMARK    3  A    between atoms: C11_14  and  C12_15 
REMARK    4  A    between atoms: C12_15  and  C13_16 
REMARK    5  A    between atoms: C16_20  and  O2_21 
REMARK    6  A    between atoms: C21_29  and  O4_30 
ROOT
HETATM    1  C7  UNL     1     -86.251 -16.870  13.408  1.00  0.00     0.077 A 
HETATM    2  C8  UNL     1     -85.935 -15.601  13.515  1.00  0.00     0.104 A 
HETATM    3 CL1  UNL     1     -86.166 -14.649  14.956  1.00  0.00    -0.078 Cl
HETATM    4  C9  UNL     1     -85.345 -14.884  12.360  1.00  0.00     0.195 A 
HETATM    5  O1  UNL     1     -85.058 -13.678  12.502  1.00  0.00    -0.287 OA
HETATM    6  C10 UNL     1     -85.096 -15.524  11.099  1.00  0.00     0.068 A 
HETATM    7  C11 UNL     1     -85.403 -16.785  10.969  1.00  0.00     0.002 A 
HETATM    8  C19 UNL     1     -85.975 -17.500  12.071  1.00  0.00     0.197 A 
HETATM    9  O3  UNL     1     -86.274 -18.710  11.961  1.00  0.00    -0.286 OA
ENDROOT
BRANCH   1  10
HETATM   10  S1  UNL     1     -86.941 -17.856  14.622  1.00  0.00    -0.119 SA
BRANCH  10  11
HETATM   11  C6  UNL     1     -88.455 -18.599  14.720  1.00  0.00     0.055 C 
HETATM   12  C5  UNL     1     -88.692 -19.972  14.126  1.00  0.00     0.016 C 
HETATM   13  C4  UNL     1     -89.633 -20.699  15.127  1.00  0.00     0.012 C 
HETATM   14  C2  UNL     1     -90.927 -19.946  15.067  1.00  0.00    -0.022 C 
HETATM   15  C1  UNL     1     -91.950 -20.869  14.388  1.00  0.00     0.017 C 
HETATM   16  C3  UNL     1     -91.434 -19.753  16.479  1.00  0.00     0.017 C 
HETATM   17  C21 UNL     1     -90.911 -18.683  14.277  1.00  0.00     0.127 C 
HETATM   18  C20 UNL     1     -89.727 -17.790  14.514  1.00  0.00     0.048 C 
BRANCH  17  19
HETATM   19  O4  UNL     1     -92.043 -17.929  14.682  1.00  0.00    -0.395 OA
ATOM     20  H4  UNL     1     -92.437 -17.576  13.892  1.00  0.00     0.210 HD
ENDBRANCH  17  19
ENDBRANCH  10  11
ENDBRANCH   1  10
BRANCH   7  21
HETATM   21  C12 UNL     1     -85.148 -17.464   9.662  1.00  0.00     0.081 C 
BRANCH  21  22
HETATM   22  C13 UNL     1     -86.081 -16.993   8.627  1.00  0.00    -0.050 A 
HETATM   23  C14 UNL     1     -85.639 -16.488   7.417  1.00  0.00     0.034 A 
HETATM   24  C15 UNL     1     -86.515 -16.042   6.449  1.00  0.00     0.069 A 
HETATM   25 CL2  UNL     1     -85.900 -15.412   4.936  1.00  0.00    -0.081 Cl
HETATM   26  C16 UNL     1     -87.886 -16.083   6.648  1.00  0.00     0.109 A 
HETATM   27  C17 UNL     1     -88.341 -16.583   7.845  1.00  0.00     0.069 A 
HETATM   28 CL3  UNL     1     -90.067 -16.643   8.113  1.00  0.00    -0.081 Cl
HETATM   29  C18 UNL     1     -87.464 -17.028   8.813  1.00  0.00     0.034 A 
BRANCH  26  30
HETATM   30  O2  UNL     1     -88.757 -15.629   5.660  1.00  0.00    -0.357 OA
ATOM     31  H2  UNL     1     -89.698 -15.708   5.774  1.00  0.00     0.217 HD
ENDBRANCH  26  30
ENDBRANCH  21  22
ENDBRANCH   7  21
TORSDOF 6
ENDMDL
MODEL 4
REMARK VINA RESULT: -8.409133880      1.644      2.620
REMARK  6 active torsions:
REMARK  status: ('A' for Active; 'I' for Inactive)
REMARK    1  A    between atoms: C6_6  and  S1_7 
REMARK    2  A    between atoms: S1_7  and  C7_8 
REMARK    3  A    between atoms: C11_14  and  C12_15 
REMARK    4  A    between atoms: C12_15  and  C13_16 
REMARK    5  A    between atoms: C16_20  and  O2_21 
REMARK    6  A    between atoms: C21_29  and  O4_30 
ROOT
HETATM    1  C7  UNL     1     -86.393 -16.572   9.537  1.00  0.00     0.077 A 
HETATM    2  C8  UNL     1     -87.475 -16.974   8.912  1.00  0.00     0.104 A 
HETATM    3 CL1  UNL     1     -87.921 -16.477   7.303  1.00  0.00    -0.078 Cl
HETATM    4  C9  UNL     1     -88.414 -17.906   9.580  1.00  0.00     0.195 A 
HETATM    5  O1  UNL     1     -89.431 -18.264   8.952  1.00  0.00    -0.287 OA
HETATM    6  C10 UNL     1     -88.192 -18.405  10.908  1.00  0.00     0.068 A 
HETATM    7  C11 UNL     1     -87.124 -18.019  11.549  1.00  0.00     0.002 A 
HETATM    8  C19 UNL     1     -86.201 -17.118  10.925  1.00  0.00     0.197 A 
HETATM    9  O3  UNL     1     -85.173 -16.739  11.527  1.00  0.00    -0.286 OA
ENDROOT
BRANCH   1  10
HETATM   10  S1  UNL     1     -85.204 -15.502   8.934  1.00  0.00    -0.119 SA
BRANCH  10  11
HETATM   11  C6  UNL     1     -83.972 -15.736   7.802  1.00  0.00     0.055 C 
HETATM   12  C5  UNL     1     -84.289 -16.031   6.351  1.00  0.00     0.016 C 
HETATM   13  C4  UNL     1     -83.222 -15.254   5.529  1.00  0.00     0.012 C 
HETATM   14  C2  UNL     1     -81.918 -15.917   5.855  1.00  0.00    -0.022 C 
HETATM   15  C1  UNL     1     -81.463 -16.655   4.587  1.00  0.00     0.017 C 
HETATM   16  C3  UNL     1     -80.881 -14.840   6.088  1.00  0.00     0.017 C 
HETATM   17  C21 UNL     1     -81.955 -16.933   6.943  1.00  0.00     0.127 C 
HETATM   18  C20 UNL     1     -82.731 -16.538   8.167  1.00  0.00     0.048 C 
BRANCH  17  19
HETATM   19  O4  UNL     1     -80.619 -17.117   7.383  1.00  0.00    -0.395 OA
ATOM     20  H4  UNL     1     -80.421 -18.041   7.285  1.00  0.00     0.210 HD
ENDBRANCH  17  19
ENDBRANCH  10  11
ENDBRANCH   1  10
BRANCH   7  21
HETATM   21  C12 UNL     1     -86.881 -18.531  12.932  1.00  0.00     0.081 C 
BRANCH  21  22
HETATM   22  C13 UNL     1     -88.135 -18.973  13.562  1.00  0.00    -0.050 A 
HETATM   23  C14 UNL     1     -88.395 -20.308  13.818  1.00  0.00     0.034 A 
HETATM   24  C15 UNL     1     -89.573 -20.722  14.405  1.00  0.00     0.069 A 
HETATM   25 CL2  UNL     1     -89.849 -22.425  14.705  1.00  0.00    -0.081 Cl
HETATM   26  C16 UNL     1     -90.552 -19.811  14.768  1.00  0.00     0.109 A 
HETATM   27  C17 UNL     1     -90.308 -18.481  14.522  1.00  0.00     0.069 A 
HETATM   28 CL3  UNL     1     -91.533 -17.319  14.974  1.00  0.00    -0.081 Cl
HETATM   29  C18 UNL     1     -89.130 -18.068  13.934  1.00  0.00     0.034 A 
BRANCH  26  30
HETATM   30  O2  UNL     1     -91.736 -20.246  15.361  1.00  0.00    -0.357 OA
ATOM     31  H2  UNL     1     -92.537 -19.744  15.261  1.00  0.00     0.217 HD
ENDBRANCH  26  30
ENDBRANCH  21  22
ENDBRANCH   7  21
TORSDOF 6
ENDMDL
MODEL 5
REMARK VINA RESULT: -8.396348183      1.865      2.409
REMARK  6 active torsions:
REMARK  status: ('A' for Active; 'I' for Inactive)
REMARK    1  A    between atoms: C6_6  and  S1_7 
REMARK    2  A    between atoms: S1_7  and  C7_8 
REMARK    3  A    between atoms: C11_14  and  C12_15 
REMARK    4  A    between atoms: C12_15  and  C13_16 
REMARK    5  A    between atoms: C16_20  and  O2_21 
REMARK    6  A    between atoms: C21_29  and  O4_30 
ROOT
HETATM    1  C7  UNL     1     -86.999 -16.424   8.523  1.00  0.00     0.077 A 
HETATM    2  C8  UNL     1     -88.196 -16.716   8.072  1.00  0.00     0.104 A 
HETATM    3 CL1  UNL     1     -88.889 -16.042   6.622  1.00  0.00    -0.078 Cl
HETATM    4  C9  UNL     1     -89.055 -17.671   8.811  1.00  0.00     0.195 A 
HETATM    5  O1  UNL     1     -90.186 -17.921   8.348  1.00  0.00    -0.287 OA
HETATM    6  C10 UNL     1     -88.632 -18.309  10.025  1.00  0.00     0.068 A 
HETATM    7  C11 UNL     1     -87.446 -18.034  10.494  1.00  0.00     0.002 A 
HETATM    8  C19 UNL     1     -86.597 -17.114   9.798  1.00  0.00     0.197 A 
HETATM    9  O3  UNL     1     -85.457 -16.840  10.235  1.00  0.00    -0.286 OA
ENDROOT
BRANCH   1  10
HETATM   10  S1  UNL     1     -85.874 -15.350   7.814  1.00  0.00    -0.119 SA
BRANCH  10  11
HETATM   11  C6  UNL     1     -84.413 -15.640   7.017  1.00  0.00     0.055 C 
HETATM   12  C5  UNL     1     -84.386 -16.100   5.574  1.00  0.00     0.016 C 
HETATM   13  C4  UNL     1     -83.181 -15.362   4.928  1.00  0.00     0.012 C 
HETATM   14  C2  UNL     1     -81.968 -15.921   5.607  1.00  0.00    -0.022 C 
HETATM   15  C1  UNL     1     -81.221 -16.765   4.563  1.00  0.00     0.017 C 
HETATM   16  C3  UNL     1     -81.037 -14.777   5.941  1.00  0.00     0.017 C 
HETATM   17  C21 UNL     1     -82.226 -16.819   6.767  1.00  0.00     0.127 C 
HETATM   18  C20 UNL     1     -83.266 -16.337   7.736  1.00  0.00     0.048 C 
BRANCH  17  19
HETATM   19  O4  UNL     1     -81.019 -16.891   7.509  1.00  0.00    -0.395 OA
ATOM     20  H4  UNL     1     -80.369 -17.290   6.943  1.00  0.00     0.210 HD
ENDBRANCH  17  19
ENDBRANCH  10  11
ENDBRANCH   1  10
BRANCH   7  21
HETATM   21  C12 UNL     1     -86.994 -18.692  11.757  1.00  0.00     0.081 C 
BRANCH  21  22
HETATM   22  C13 UNL     1     -87.793 -18.241  12.908  1.00  0.00    -0.050 A 
HETATM   23  C14 UNL     1     -87.710 -16.948  13.395  1.00  0.00     0.034 A 
HETATM   24  C15 UNL     1     -88.456 -16.528  14.476  1.00  0.00     0.069 A 
HETATM   25 CL2  UNL     1     -88.311 -14.880  15.051  1.00  0.00    -0.081 Cl
HETATM   26  C16 UNL     1     -89.327 -17.388  15.124  1.00  0.00     0.109 A 
HETATM   27  C17 UNL     1     -89.422 -18.676  14.652  1.00  0.00     0.069 A 
HETATM   28 CL3  UNL     1     -90.516 -19.774  15.458  1.00  0.00    -0.081 Cl
HETATM   29  C18 UNL     1     -88.674 -19.095  13.570  1.00  0.00     0.034 A 
BRANCH  26  30
HETATM   30  O2  UNL     1     -90.075 -16.947  16.216  1.00  0.00    -0.357 OA
ATOM     31  H2  UNL     1     -89.703 -16.331  16.837  1.00  0.00     0.217 HD
ENDBRANCH  26  30
ENDBRANCH  21  22
ENDBRANCH   7  21
TORSDOF 6
ENDMDL
