MODEL 1
REMARK VINA RESULT: -9.707719952      0.000      0.000
REMARK  3 active torsions:
REMARK  status: ('A' for Active; 'I' for Inactive)
REMARK    1  A    between atoms: C12_13  and  C13_14 
REMARK    2  A    between atoms: C13_14  and  C15_16 
REMARK    3  A    between atoms: C16_20  and  O4_21 
ROOT
HETATM    1  C1  UNL     1     -86.411 -11.870  18.547  1.00  0.00     0.010 C 
HETATM    2  C2  UNL     1     -87.785 -12.488  18.235  1.00  0.00    -0.012 C 
HETATM    3  C3  UNL     1     -87.611 -13.974  18.337  1.00  0.00     0.005 C 
HETATM    4  C4  UNL     1     -88.592 -14.754  17.443  1.00  0.00     0.009 C 
HETATM    5  C5  UNL     1     -88.260 -14.324  16.082  1.00  0.00     0.035 C 
HETATM    6  C6  UNL     1     -88.776 -15.092  14.919  1.00  0.00     0.044 C 
HETATM    7  C7  UNL     1     -87.805 -16.268  14.699  1.00  0.00     0.015 C 
HETATM    8  C8  UNL     1     -89.017 -14.290  13.685  1.00  0.00     0.269 C 
HETATM    9  O1  UNL     1     -90.244 -14.292  13.170  1.00  0.00    -0.317 OA
HETATM   10  C9  UNL     1     -91.383 -13.947  13.622  1.00  0.00     0.240 C 
HETATM   11  C10 UNL     1     -91.622 -12.514  13.171  1.00  0.00     0.045 C 
HETATM   12  C11 UNL     1     -92.760 -12.425  12.536  1.00  0.00     0.007 C 
HETATM   13  C12 UNL     1     -93.335 -13.790  12.531  1.00  0.00     0.160 C 
HETATM   14  O3  UNL     1     -92.378 -14.669  12.909  1.00  0.00    -0.338 OA
HETATM   15  C16 UNL     1     -91.788 -13.980  15.046  1.00  0.00     0.361 C 
HETATM   16  O5  UNL     1     -90.828 -13.550  15.948  1.00  0.00    -0.201 OA
HETATM   17  O6  UNL     1     -89.988 -12.721  15.492  1.00  0.00    -0.223 OA
HETATM   18  C17 UNL     1     -88.651 -12.899  15.902  1.00  0.00     0.135 C 
HETATM   19  C18 UNL     1     -88.381 -11.964  16.994  1.00  0.00     0.031 C 
HETATM   20  C19 UNL     1     -87.558 -10.871  16.294  1.00  0.00     0.011 C 
HETATM   21  C20 UNL     1     -88.027 -10.972  14.826  1.00  0.00     0.041 C 
HETATM   22  C21 UNL     1     -87.880 -12.485  14.659  1.00  0.00     0.095 C 
HETATM   23  C22 UNL     1     -86.428 -12.768  14.645  1.00  0.00     0.049 C 
HETATM   24  O7  UNL     1     -88.490 -13.029  13.611  1.00  0.00    -0.347 OA
ENDROOT
BRANCH  15  25
HETATM   25  O4  UNL     1     -92.918 -13.192  15.296  1.00  0.00    -0.364 OA
ATOM     26  H4  UNL     1     -93.128 -13.145  16.222  1.00  0.00     0.213 HD
ENDBRANCH  15  25
BRANCH  13  27
HETATM   27  C13 UNL     1     -93.941 -14.043  11.175  1.00  0.00     0.104 C 
HETATM   28  C14 UNL     1     -94.128 -12.781  10.375  1.00  0.00     0.022 C 
BRANCH  27  29
HETATM   29  C15 UNL     1     -93.128 -14.974  10.362  1.00  0.00     0.237 C 
HETATM   30  N1  UNL     1     -91.905 -14.595   9.745  1.00  0.00    -0.062 NA
HETATM   31  O2  UNL     1     -93.508 -16.156  10.191  1.00  0.00    -0.276 OA
ENDBRANCH  27  29
ENDBRANCH  13  27
TORSDOF 3
ENDMDL
MODEL 2
REMARK VINA RESULT: -9.204203224      3.537      7.228
REMARK  3 active torsions:
REMARK  status: ('A' for Active; 'I' for Inactive)
REMARK    1  A    between atoms: C12_13  and  C13_14 
REMARK    2  A    between atoms: C13_14  and  C15_16 
REMARK    3  A    between atoms: C16_20  and  O4_21 
ROOT
HETATM    1  C1  UNL     1     -94.318 -14.293  11.590  1.00  0.00     0.010 C 
HETATM    2  C2  UNL     1     -93.497 -12.993  11.544  1.00  0.00    -0.012 C 
HETATM    3  C3  UNL     1     -93.338 -12.646  10.094  1.00  0.00     0.005 C 
HETATM    4  C4  UNL     1     -92.056 -11.843   9.808  1.00  0.00     0.009 C 
HETATM    5  C5  UNL     1     -90.970 -12.742  10.209  1.00  0.00     0.035 C 
HETATM    6  C6  UNL     1     -89.575 -12.447   9.790  1.00  0.00     0.044 C 
HETATM    7  C7  UNL     1     -89.411 -13.014   8.367  1.00  0.00     0.015 C 
HETATM    8  C8  UNL     1     -88.517 -12.912  10.733  1.00  0.00     0.269 C 
HETATM    9  O1  UNL     1     -87.678 -12.003  11.223  1.00  0.00    -0.317 OA
HETATM   10  C9  UNL     1     -87.838 -10.947  11.916  1.00  0.00     0.240 C 
HETATM   11  C10 UNL     1     -87.641 -11.340  13.373  1.00  0.00     0.045 C 
HETATM   12  C11 UNL     1     -86.734 -10.580  13.926  1.00  0.00     0.007 C 
HETATM   13  C12 UNL     1     -86.281  -9.646  12.869  1.00  0.00     0.160 C 
HETATM   14  O3  UNL     1     -86.732 -10.088  11.673  1.00  0.00    -0.338 OA
HETATM   15  C16 UNL     1     -89.043 -10.086  11.904  1.00  0.00     0.361 C 
HETATM   16  O5  UNL     1     -90.254 -10.759  11.872  1.00  0.00    -0.201 OA
HETATM   17  O6  UNL     1     -90.244 -11.918  12.377  1.00  0.00    -0.223 OA
HETATM   18  C17 UNL     1     -90.981 -12.904  11.689  1.00  0.00     0.135 C 
HETATM   19  C18 UNL     1     -92.273 -13.058  12.359  1.00  0.00     0.031 C 
HETATM   20  C19 UNL     1     -92.084 -14.370  13.137  1.00  0.00     0.011 C 
HETATM   21  C20 UNL     1     -90.555 -14.431  13.346  1.00  0.00     0.041 C 
HETATM   22  C21 UNL     1     -90.130 -14.146  11.906  1.00  0.00     0.095 C 
HETATM   23  C22 UNL     1     -90.483 -15.346  11.117  1.00  0.00     0.049 C 
HETATM   24  O7  UNL     1     -88.861 -13.798  11.718  1.00  0.00    -0.347 OA
ENDROOT
BRANCH  15  25
HETATM   25  O4  UNL     1     -89.108  -9.247  13.022  1.00  0.00    -0.364 OA
ATOM     26  H4  UNL     1     -89.890  -9.397  13.541  1.00  0.00     0.213 HD
ENDBRANCH  15  25
BRANCH  13  27
HETATM   27  C13 UNL     1     -84.785  -9.500  12.978  1.00  0.00     0.104 C 
HETATM   28  C14 UNL     1     -84.269  -9.789  14.364  1.00  0.00     0.022 C 
BRANCH  27  29
HETATM   29  C15 UNL     1     -84.065 -10.384  12.037  1.00  0.00     0.237 C 
HETATM   30  N1  UNL     1     -83.442  -9.908  10.852  1.00  0.00    -0.062 NA
HETATM   31  O2  UNL     1     -83.984 -11.614  12.266  1.00  0.00    -0.276 OA
ENDBRANCH  27  29
ENDBRANCH  13  27
TORSDOF 3
ENDMDL
MODEL 3
REMARK VINA RESULT: -9.049976298      3.665      7.490
REMARK  3 active torsions:
REMARK  status: ('A' for Active; 'I' for Inactive)
REMARK    1  A    between atoms: C12_13  and  C13_14 
REMARK    2  A    between atoms: C13_14  and  C15_16 
REMARK    3  A    between atoms: C16_20  and  O4_21 
ROOT
HETATM    1  C1  UNL     1     -94.241 -14.110  11.470  1.00  0.00     0.010 C 
HETATM    2  C2  UNL     1     -93.360 -12.850  11.522  1.00  0.00    -0.012 C 
HETATM    3  C3  UNL     1     -93.138 -12.432  10.100  1.00  0.00     0.005 C 
HETATM    4  C4  UNL     1     -91.811 -11.676   9.899  1.00  0.00     0.009 C 
HETATM    5  C5  UNL     1     -90.782 -12.647  10.281  1.00  0.00     0.035 C 
HETATM    6  C6  UNL     1     -89.361 -12.396   9.922  1.00  0.00     0.044 C 
HETATM    7  C7  UNL     1     -89.177 -12.891   8.475  1.00  0.00     0.015 C 
HETATM    8  C8  UNL     1     -88.358 -12.963  10.869  1.00  0.00     0.269 C 
HETATM    9  O1  UNL     1     -87.494 -12.124  11.435  1.00  0.00    -0.317 OA
HETATM   10  C9  UNL     1     -87.628 -11.102  12.182  1.00  0.00     0.240 C 
HETATM   11  C10 UNL     1     -87.498 -11.584  13.619  1.00  0.00     0.045 C 
HETATM   12  C11 UNL     1     -86.575 -10.901  14.242  1.00  0.00     0.007 C 
HETATM   13  C12 UNL     1     -86.044  -9.932  13.254  1.00  0.00     0.160 C 
HETATM   14  O3  UNL     1     -86.476 -10.285  12.022  1.00  0.00    -0.338 OA
HETATM   15  C16 UNL     1     -88.791 -10.184  12.182  1.00  0.00     0.361 C 
HETATM   16  O5  UNL     1     -90.030 -10.796  12.075  1.00  0.00    -0.201 OA
HETATM   17  O6  UNL     1     -90.090 -11.981  12.514  1.00  0.00    -0.223 OA
HETATM   18  C17 UNL     1     -90.849 -12.890  11.749  1.00  0.00     0.135 C 
HETATM   19  C18 UNL     1     -92.167 -13.019  12.369  1.00  0.00     0.031 C 
HETATM   20  C19 UNL     1     -92.065 -14.380  13.077  1.00  0.00     0.011 C 
HETATM   21  C20 UNL     1     -90.549 -14.525  13.328  1.00  0.00     0.041 C 
HETATM   22  C21 UNL     1     -90.064 -14.181  11.920  1.00  0.00     0.095 C 
HETATM   23  C22 UNL     1     -90.446 -15.318  11.053  1.00  0.00     0.049 C 
HETATM   24  O7  UNL     1     -88.775 -13.885  11.790  1.00  0.00    -0.347 OA
ENDROOT
BRANCH  15  25
HETATM   25  O4  UNL     1     -88.854  -9.407  13.344  1.00  0.00    -0.364 OA
ATOM     26  H4  UNL     1     -89.712  -9.021  13.474  1.00  0.00     0.213 HD
ENDBRANCH  15  25
BRANCH  13  27
HETATM   27  C13 UNL     1     -84.548  -9.864  13.416  1.00  0.00     0.104 C 
HETATM   28  C14 UNL     1     -83.823  -9.758  12.099  1.00  0.00     0.022 C 
BRANCH  27  29
HETATM   29  C15 UNL     1     -84.126  -8.721  14.255  1.00  0.00     0.237 C 
HETATM   30  N1  UNL     1     -84.159  -8.752  15.675  1.00  0.00    -0.062 NA
HETATM   31  O2  UNL     1     -83.716  -7.665  13.719  1.00  0.00    -0.276 OA
ENDBRANCH  27  29
ENDBRANCH  13  27
TORSDOF 3
ENDMDL
MODEL 4
REMARK VINA RESULT: -8.827389490      1.490      1.880
REMARK  3 active torsions:
REMARK  status: ('A' for Active; 'I' for Inactive)
REMARK    1  A    between atoms: C12_13  and  C13_14 
REMARK    2  A    between atoms: C13_14  and  C15_16 
REMARK    3  A    between atoms: C16_20  and  O4_21 
ROOT
HETATM    1  C1  UNL     1     -85.788 -10.655  18.155  1.00  0.00     0.010 C 
HETATM    2  C2  UNL     1     -87.231 -10.806  17.642  1.00  0.00    -0.012 C 
HETATM    3  C3  UNL     1     -87.929 -11.715  18.608  1.00  0.00     0.005 C 
HETATM    4  C4  UNL     1     -89.078 -12.509  17.960  1.00  0.00     0.009 C 
HETATM    5  C5  UNL     1     -88.421 -13.317  16.929  1.00  0.00     0.035 C 
HETATM    6  C6  UNL     1     -89.152 -14.448  16.300  1.00  0.00     0.044 C 
HETATM    7  C7  UNL     1     -88.987 -15.658  17.240  1.00  0.00     0.015 C 
HETATM    8  C8  UNL     1     -88.771 -14.745  14.889  1.00  0.00     0.269 C 
HETATM    9  O1  UNL     1     -89.727 -14.704  13.965  1.00  0.00    -0.317 OA
HETATM   10  C9  UNL     1     -90.519 -13.791  13.565  1.00  0.00     0.240 C 
HETATM   11  C10 UNL     1     -89.867 -13.141  12.354  1.00  0.00     0.045 C 
HETATM   12  C11 UNL     1     -90.687 -13.158  11.336  1.00  0.00     0.007 C 
HETATM   13  C12 UNL     1     -91.922 -13.820  11.816  1.00  0.00     0.160 C 
HETATM   14  O3  UNL     1     -91.665 -14.416  13.003  1.00  0.00    -0.338 OA
HETATM   15  C16 UNL     1     -91.022 -12.667  14.388  1.00  0.00     0.361 C 
HETATM   16  O5  UNL     1     -90.086 -12.079  15.224  1.00  0.00    -0.201 OA
HETATM   17  O6  UNL     1     -88.884 -12.165  14.840  1.00  0.00    -0.223 OA
HETATM   18  C17 UNL     1     -87.927 -12.428  15.841  1.00  0.00     0.135 C 
HETATM   19  C18 UNL     1     -87.297 -11.162  16.214  1.00  0.00     0.031 C 
HETATM   20  C19 UNL     1     -85.936 -11.251  15.507  1.00  0.00     0.011 C 
HETATM   21  C20 UNL     1     -86.223 -12.200  14.323  1.00  0.00     0.041 C 
HETATM   22  C21 UNL     1     -86.930 -13.308  15.103  1.00  0.00     0.095 C 
HETATM   23  C22 UNL     1     -85.892 -13.976  15.920  1.00  0.00     0.049 C 
HETATM   24  O7  UNL     1     -87.625 -14.188  14.390  1.00  0.00    -0.347 OA
ENDROOT
BRANCH  15  25
HETATM   25  O4  UNL     1     -91.536 -11.625  13.608  1.00  0.00    -0.364 OA
ATOM     26  H4  UNL     1     -91.107 -11.560  12.763  1.00  0.00     0.213 HD
ENDBRANCH  15  25
BRANCH  13  27
HETATM   27  C13 UNL     1     -92.419 -14.739  10.730  1.00  0.00     0.104 C 
HETATM   28  C14 UNL     1     -93.751 -15.362  11.057  1.00  0.00     0.022 C 
BRANCH  27  29
HETATM   29  C15 UNL     1     -92.554 -14.048   9.429  1.00  0.00     0.237 C 
HETATM   30  N1  UNL     1     -93.270 -12.830   9.272  1.00  0.00    -0.062 NA
HETATM   31  O2  UNL     1     -92.024 -14.532   8.402  1.00  0.00    -0.276 OA
ENDBRANCH  27  29
ENDBRANCH  13  27
TORSDOF 3
ENDMDL
MODEL 5
REMARK VINA RESULT: -8.801413618      1.495      1.880
REMARK  3 active torsions:
REMARK  status: ('A' for Active; 'I' for Inactive)
REMARK    1  A    between atoms: C12_13  and  C13_14 
REMARK    2  A    between atoms: C13_14  and  C15_16 
REMARK    3  A    between atoms: C16_20  and  O4_21 
ROOT
HETATM    1  C1  UNL     1     -86.058 -10.506  18.217  1.00  0.00     0.010 C 
HETATM    2  C2  UNL     1     -87.476 -10.694  17.651  1.00  0.00    -0.012 C 
HETATM    3  C3  UNL     1     -88.143 -11.720  18.516  1.00  0.00     0.005 C 
HETATM    4  C4  UNL     1     -89.227 -12.520  17.769  1.00  0.00     0.009 C 
HETATM    5  C5  UNL     1     -88.498 -13.199  16.694  1.00  0.00     0.035 C 
HETATM    6  C6  UNL     1     -89.145 -14.312  15.952  1.00  0.00     0.044 C 
HETATM    7  C7  UNL     1     -88.932 -15.586  16.792  1.00  0.00     0.015 C 
HETATM    8  C8  UNL     1     -88.712 -14.465  14.533  1.00  0.00     0.269 C 
HETATM    9  O1  UNL     1     -89.646 -14.400  13.587  1.00  0.00    -0.317 OA
HETATM   10  C9  UNL     1     -90.480 -13.502  13.241  1.00  0.00     0.240 C 
HETATM   11  C10 UNL     1     -89.838 -12.715  12.109  1.00  0.00     0.045 C 
HETATM   12  C11 UNL     1     -90.629 -12.692  11.069  1.00  0.00     0.007 C 
HETATM   13  C12 UNL     1     -91.835 -13.461  11.455  1.00  0.00     0.160 C 
HETATM   14  O3  UNL     1     -91.573 -14.141  12.595  1.00  0.00    -0.338 OA
HETATM   15  C16 UNL     1     -91.068 -12.483  14.141  1.00  0.00     0.361 C 
HETATM   16  O5  UNL     1     -90.190 -11.916  15.051  1.00  0.00    -0.201 OA
HETATM   17  O6  UNL     1     -88.976 -11.901  14.696  1.00  0.00    -0.223 OA
HETATM   18  C17 UNL     1     -88.030 -12.194  15.700  1.00  0.00     0.135 C 
HETATM   19  C18 UNL     1     -87.486 -10.930  16.197  1.00  0.00     0.031 C 
HETATM   20  C19 UNL     1     -86.104 -10.882  15.525  1.00  0.00     0.011 C 
HETATM   21  C20 UNL     1     -86.305 -11.741  14.258  1.00  0.00     0.041 C 
HETATM   22  C21 UNL     1     -86.965 -12.950  14.921  1.00  0.00     0.095 C 
HETATM   23  C22 UNL     1     -85.910 -13.625  15.710  1.00  0.00     0.049 C 
HETATM   24  O7  UNL     1     -87.589 -13.803  14.116  1.00  0.00    -0.347 OA
ENDROOT
BRANCH  15  25
HETATM   25  O4  UNL     1     -91.624 -11.409  13.436  1.00  0.00    -0.364 OA
ATOM     26  H4  UNL     1     -91.096 -11.156  12.687  1.00  0.00     0.213 HD
ENDBRANCH  15  25
BRANCH  13  27
HETATM   27  C13 UNL     1     -92.249 -14.310  10.281  1.00  0.00     0.104 C 
HETATM   28  C14 UNL     1     -91.130 -15.177   9.764  1.00  0.00     0.022 C 
BRANCH  27  29
HETATM   29  C15 UNL     1     -93.390 -15.195  10.604  1.00  0.00     0.237 C 
HETATM   30  N1  UNL     1     -94.395 -14.847  11.546  1.00  0.00    -0.062 NA
HETATM   31  O2  UNL     1     -93.504 -16.306  10.037  1.00  0.00    -0.276 OA
ENDBRANCH  27  29
ENDBRANCH  13  27
TORSDOF 3
ENDMDL
