MODEL 1
REMARK VINA RESULT: -7.387985148      0.000      0.000
REMARK  5 active torsions:
REMARK  status: ('A' for Active; 'I' for Inactive)
REMARK    1  A    between atoms: O1_1  and  C1_3 
REMARK    2  A    between atoms: N1_8  and  C4_9 
REMARK    3  A    between atoms: C4_9  and  N2_10 
REMARK    4  A    between atoms: N3_13  and  C7_14 
REMARK    5  A    between atoms: C12_21  and  C13_22 
ROOT
HETATM    1  N2  UNL     1    -116.370 -16.998  89.553  1.00  0.00    -0.373 N 
HETATM    2  C5  UNL     1    -115.217 -17.628  89.120  1.00  0.00     0.143 C 
HETATM    3  C6  UNL     1    -115.287 -17.859  87.563  1.00  0.00     0.143 C 
HETATM    4  N3  UNL     1    -115.275 -16.558  86.986  1.00  0.00    -0.377 N 
HETATM    5  C18 UNL     1    -116.149 -15.576  87.606  1.00  0.00     0.143 C 
HETATM    6  C19 UNL     1    -117.110 -16.378  88.476  1.00  0.00     0.143 C 
ENDROOT
BRANCH   4   7
HETATM    7  C7  UNL     1    -114.454 -16.192  85.925  1.00  0.00     0.044 A 
HETATM    8  C8  UNL     1    -115.110 -15.937  84.726  1.00  0.00     0.054 A 
HETATM    9  C9  UNL     1    -114.422 -15.703  83.562  1.00  0.00     0.037 A 
HETATM   10 CL1  UNL     1    -115.252 -15.376  82.075  1.00  0.00    -0.084 Cl
HETATM   11  C10 UNL     1    -113.069 -15.728  83.605  1.00  0.00     0.048 A 
HETATM   12  C11 UNL     1    -112.428 -15.984  84.822  1.00  0.00     0.048 A 
HETATM   13 CL2  UNL     1    -110.656 -15.877  84.706  1.00  0.00    -0.083 Cl
HETATM   14  C12 UNL     1    -113.086 -16.224  86.016  1.00  0.00     0.015 A 
BRANCH  14  15
HETATM   15  C13 UNL     1    -112.330 -16.300  87.231  1.00  0.00    -0.066 C 
HETATM   16  C14 UNL     1    -111.927 -15.075  87.975  1.00  0.00     0.035 C 
HETATM   17  C15 UNL     1    -111.514 -15.606  89.331  1.00  0.00     0.005 C 
HETATM   18  C16 UNL     1    -111.446 -17.113  89.215  1.00  0.00     0.005 C 
HETATM   19  C17 UNL     1    -111.496 -17.403  87.687  1.00  0.00     0.035 C 
ENDBRANCH  14  15
ENDBRANCH   4   7
BRANCH   1  20
HETATM   20  C4  UNL     1    -116.540 -16.250  90.706  1.00  0.00     0.190 C 
BRANCH  20  21
HETATM   21  N1  UNL     1    -115.405 -16.100  91.636  1.00  0.00    -0.273 N 
HETATM   22  C1  UNL     1    -115.074 -16.949  92.586  1.00  0.00     0.155 A 
HETATM   23  C2  UNL     1    -113.992 -16.672  93.361  1.00  0.00     0.109 A 
HETATM   24  S1  UNL     1    -113.455 -15.188  92.721  1.00  0.00    -0.068 SA
HETATM   25  C3  UNL     1    -114.624 -14.998  91.506  1.00  0.00     0.152 A 
HETATM   26  S2  UNL     1    -114.811 -13.775  90.403  1.00  0.00    -0.052 SA
BRANCH  22  27
HETATM   27  O1  UNL     1    -115.813 -18.153  92.834  1.00  0.00    -0.345 OA
ATOM     28  H1  UNL     1    -115.826 -18.828  92.166  1.00  0.00     0.219 HD
ENDBRANCH  22  27
ENDBRANCH  20  21
ENDBRANCH   1  20
TORSDOF 5
ENDMDL
MODEL 2
REMARK VINA RESULT: -7.307073671      2.258      4.356
REMARK  5 active torsions:
REMARK  status: ('A' for Active; 'I' for Inactive)
REMARK    1  A    between atoms: O1_1  and  C1_3 
REMARK    2  A    between atoms: N1_8  and  C4_9 
REMARK    3  A    between atoms: C4_9  and  N2_10 
REMARK    4  A    between atoms: N3_13  and  C7_14 
REMARK    5  A    between atoms: C12_21  and  C13_22 
ROOT
HETATM    1  N2  UNL     1    -114.657 -15.975  91.337  1.00  0.00    -0.373 N 
HETATM    2  C5  UNL     1    -113.887 -16.873  90.620  1.00  0.00     0.143 C 
HETATM    3  C6  UNL     1    -114.699 -17.398  89.376  1.00  0.00     0.143 C 
HETATM    4  N3  UNL     1    -114.883 -16.264  88.536  1.00  0.00    -0.377 N 
HETATM    5  C18 UNL     1    -115.298 -15.038  89.200  1.00  0.00     0.143 C 
HETATM    6  C19 UNL     1    -115.780 -15.467  90.581  1.00  0.00     0.143 C 
ENDROOT
BRANCH   4   7
HETATM    7  C7  UNL     1    -114.641 -16.270  87.167  1.00  0.00     0.044 A 
HETATM    8  C8  UNL     1    -113.300 -16.278  86.799  1.00  0.00     0.054 A 
HETATM    9  C9  UNL     1    -112.909 -16.143  85.491  1.00  0.00     0.037 A 
HETATM   10 CL1  UNL     1    -111.234 -16.166  85.044  1.00  0.00    -0.084 Cl
HETATM   11  C10 UNL     1    -113.872 -15.998  84.550  1.00  0.00     0.048 A 
HETATM   12  C11 UNL     1    -115.215 -15.994  84.940  1.00  0.00     0.048 A 
HETATM   13 CL2  UNL     1    -116.335 -15.895  83.562  1.00  0.00    -0.083 Cl
HETATM   14  C12 UNL     1    -115.649 -16.129  86.248  1.00  0.00     0.015 A 
BRANCH  14  15
HETATM   15  C13 UNL     1    -117.049 -16.286  86.510  1.00  0.00    -0.066 C 
HETATM   16  C14 UNL     1    -117.703 -17.624  86.470  1.00  0.00     0.035 C 
HETATM   17  C15 UNL     1    -119.027 -17.389  87.163  1.00  0.00     0.005 C 
HETATM   18  C16 UNL     1    -119.184 -15.893  87.327  1.00  0.00     0.005 C 
HETATM   19  C17 UNL     1    -118.087 -15.271  86.415  1.00  0.00     0.035 C 
ENDBRANCH  14  15
ENDBRANCH   4   7
BRANCH   1  20
HETATM   20  C4  UNL     1    -114.216 -14.992  92.207  1.00  0.00     0.190 C 
BRANCH  20  21
HETATM   21  N1  UNL     1    -112.799 -14.583  92.165  1.00  0.00    -0.273 N 
HETATM   22  C1  UNL     1    -112.300 -13.621  91.418  1.00  0.00     0.155 A 
HETATM   23  C2  UNL     1    -110.968 -13.358  91.495  1.00  0.00     0.109 A 
HETATM   24  S1  UNL     1    -110.437 -14.498  92.645  1.00  0.00    -0.068 SA
HETATM   25  C3  UNL     1    -111.927 -15.244  92.967  1.00  0.00     0.152 A 
HETATM   26  S2  UNL     1    -112.282 -16.488  94.004  1.00  0.00    -0.052 SA
BRANCH  22  27
HETATM   27  O1  UNL     1    -113.107 -12.843  90.524  1.00  0.00    -0.345 OA
ATOM     28  H1  UNL     1    -113.996 -12.626  90.780  1.00  0.00     0.219 HD
ENDBRANCH  22  27
ENDBRANCH  20  21
ENDBRANCH   1  20
TORSDOF 5
ENDMDL
MODEL 3
REMARK VINA RESULT: -7.256152814      2.623      4.494
REMARK  5 active torsions:
REMARK  status: ('A' for Active; 'I' for Inactive)
REMARK    1  A    between atoms: O1_1  and  C1_3 
REMARK    2  A    between atoms: N1_8  and  C4_9 
REMARK    3  A    between atoms: C4_9  and  N2_10 
REMARK    4  A    between atoms: N3_13  and  C7_14 
REMARK    5  A    between atoms: C12_21  and  C13_22 
ROOT
HETATM    1  N2  UNL     1    -113.258 -15.988  89.971  1.00  0.00    -0.373 N 
HETATM    2  C5  UNL     1    -112.444 -16.727  89.131  1.00  0.00     0.143 C 
HETATM    3  C6  UNL     1    -113.270 -17.213  87.880  1.00  0.00     0.143 C 
HETATM    4  N3  UNL     1    -113.612 -16.029  87.168  1.00  0.00    -0.377 N 
HETATM    5  C18 UNL     1    -114.108 -14.922  87.971  1.00  0.00     0.143 C 
HETATM    6  C19 UNL     1    -114.466 -15.528  89.323  1.00  0.00     0.143 C 
ENDROOT
BRANCH   4   7
HETATM    7  C7  UNL     1    -113.449 -15.878  85.796  1.00  0.00     0.044 A 
HETATM    8  C8  UNL     1    -112.166 -15.536  85.383  1.00  0.00     0.054 A 
HETATM    9  C9  UNL     1    -111.888 -15.218  84.077  1.00  0.00     0.037 A 
HETATM   10 CL1  UNL     1    -110.282 -14.802  83.573  1.00  0.00    -0.084 Cl
HETATM   11  C10 UNL     1    -112.906 -15.243  83.185  1.00  0.00     0.048 A 
HETATM   12  C11 UNL     1    -114.189 -15.592  83.620  1.00  0.00     0.048 A 
HETATM   13 CL2  UNL     1    -115.372 -15.669  82.294  1.00  0.00    -0.083 Cl
HETATM   14  C12 UNL     1    -114.509 -15.920  84.927  1.00  0.00     0.015 A 
BRANCH  14  15
HETATM   15  C13 UNL     1    -115.815 -16.430  85.223  1.00  0.00    -0.066 C 
HETATM   16  C14 UNL     1    -116.067 -17.892  85.357  1.00  0.00     0.035 C 
HETATM   17  C15 UNL     1    -117.421 -17.954  86.031  1.00  0.00     0.005 C 
HETATM   18  C16 UNL     1    -117.993 -16.554  86.010  1.00  0.00     0.005 C 
HETATM   19  C17 UNL     1    -117.093 -15.766  85.014  1.00  0.00     0.035 C 
ENDBRANCH  14  15
ENDBRANCH   4   7
BRANCH   1  20
HETATM   20  C4  UNL     1    -112.867 -15.051  90.914  1.00  0.00     0.190 C 
BRANCH  20  21
HETATM   21  N1  UNL     1    -111.488 -14.530  90.876  1.00  0.00    -0.273 N 
HETATM   22  C1  UNL     1    -111.073 -13.508  90.157  1.00  0.00     0.155 A 
HETATM   23  C2  UNL     1    -109.765 -13.143  90.235  1.00  0.00     0.109 A 
HETATM   24  S1  UNL     1    -109.136 -14.274  91.343  1.00  0.00    -0.068 SA
HETATM   25  C3  UNL     1    -110.559 -15.145  91.651  1.00  0.00     0.152 A 
HETATM   26  S2  UNL     1    -110.805 -16.446  92.648  1.00  0.00    -0.052 SA
BRANCH  22  27
HETATM   27  O1  UNL     1    -111.947 -12.768  89.294  1.00  0.00    -0.345 OA
ATOM     28  H1  UNL     1    -111.571 -12.134  88.695  1.00  0.00     0.219 HD
ENDBRANCH  22  27
ENDBRANCH  20  21
ENDBRANCH   1  20
TORSDOF 5
ENDMDL
MODEL 4
REMARK VINA RESULT: -7.171114084      1.264      1.823
REMARK  5 active torsions:
REMARK  status: ('A' for Active; 'I' for Inactive)
REMARK    1  A    between atoms: O1_1  and  C1_3 
REMARK    2  A    between atoms: N1_8  and  C4_9 
REMARK    3  A    between atoms: C4_9  and  N2_10 
REMARK    4  A    between atoms: N3_13  and  C7_14 
REMARK    5  A    between atoms: C12_21  and  C13_22 
ROOT
HETATM    1  N2  UNL     1    -116.369 -16.989  89.554  1.00  0.00    -0.373 N 
HETATM    2  C5  UNL     1    -115.237 -17.643  89.099  1.00  0.00     0.143 C 
HETATM    3  C6  UNL     1    -115.324 -17.835  87.537  1.00  0.00     0.143 C 
HETATM    4  N3  UNL     1    -115.277 -16.521  86.991  1.00  0.00    -0.377 N 
HETATM    5  C18 UNL     1    -116.118 -15.529  87.641  1.00  0.00     0.143 C 
HETATM    6  C19 UNL     1    -117.097 -16.322  88.498  1.00  0.00     0.143 C 
ENDROOT
BRANCH   4   7
HETATM    7  C7  UNL     1    -114.453 -16.154  85.933  1.00  0.00     0.044 A 
HETATM    8  C8  UNL     1    -115.098 -15.954  84.718  1.00  0.00     0.054 A 
HETATM    9  C9  UNL     1    -114.400 -15.727  83.559  1.00  0.00     0.037 A 
HETATM   10 CL1  UNL     1    -115.217 -15.469  82.051  1.00  0.00    -0.084 Cl
HETATM   11  C10 UNL     1    -113.048 -15.703  83.623  1.00  0.00     0.048 A 
HETATM   12  C11 UNL     1    -112.418 -15.903  84.856  1.00  0.00     0.048 A 
HETATM   13 CL2  UNL     1    -110.649 -15.737  84.764  1.00  0.00    -0.083 Cl
HETATM   14  C12 UNL     1    -113.086 -16.135  86.046  1.00  0.00     0.015 A 
BRANCH  14  15
HETATM   15  C13 UNL     1    -112.347 -16.152  87.274  1.00  0.00    -0.066 C 
HETATM   16  C14 UNL     1    -111.741 -17.406  87.799  1.00  0.00     0.035 C 
HETATM   17  C15 UNL     1    -110.770 -16.914  88.851  1.00  0.00     0.005 C 
HETATM   18  C16 UNL     1    -111.055 -15.444  89.064  1.00  0.00     0.005 C 
HETATM   19  C17 UNL     1    -112.422 -15.192  88.365  1.00  0.00     0.035 C 
ENDBRANCH  14  15
ENDBRANCH   4   7
BRANCH   1  20
HETATM   20  C4  UNL     1    -116.509 -16.265  90.726  1.00  0.00     0.190 C 
BRANCH  20  21
HETATM   21  N1  UNL     1    -115.313 -15.659  91.342  1.00  0.00    -0.273 N 
HETATM   22  C1  UNL     1    -114.805 -14.483  91.038  1.00  0.00     0.155 A 
HETATM   23  C2  UNL     1    -113.696 -14.060  91.701  1.00  0.00     0.109 A 
HETATM   24  S1  UNL     1    -113.386 -15.358  92.761  1.00  0.00    -0.068 SA
HETATM   25  C3  UNL     1    -114.676 -16.364  92.310  1.00  0.00     0.152 A 
HETATM   26  S2  UNL     1    -115.097 -17.861  92.886  1.00  0.00    -0.052 SA
BRANCH  22  27
HETATM   27  O1  UNL     1    -115.376 -13.634  90.033  1.00  0.00    -0.345 OA
ATOM     28  H1  UNL     1    -115.984 -14.010  89.407  1.00  0.00     0.219 HD
ENDBRANCH  22  27
ENDBRANCH  20  21
ENDBRANCH   1  20
TORSDOF 5
ENDMDL
MODEL 5
REMARK VINA RESULT: -7.112361639      1.718      3.658
REMARK  5 active torsions:
REMARK  status: ('A' for Active; 'I' for Inactive)
REMARK    1  A    between atoms: O1_1  and  C1_3 
REMARK    2  A    between atoms: N1_8  and  C4_9 
REMARK    3  A    between atoms: C4_9  and  N2_10 
REMARK    4  A    between atoms: N3_13  and  C7_14 
REMARK    5  A    between atoms: C12_21  and  C13_22 
ROOT
HETATM    1  N2  UNL     1    -113.588 -15.911  90.064  1.00  0.00    -0.373 N 
HETATM    2  C5  UNL     1    -112.451 -16.183  89.324  1.00  0.00     0.143 C 
HETATM    3  C6  UNL     1    -112.833 -17.030  88.050  1.00  0.00     0.143 C 
HETATM    4  N3  UNL     1    -113.636 -16.169  87.251  1.00  0.00    -0.377 N 
HETATM    5  C18 UNL     1    -114.668 -15.423  87.954  1.00  0.00     0.143 C 
HETATM    6  C19 UNL     1    -114.808 -16.102  89.311  1.00  0.00     0.143 C 
ENDROOT
BRANCH   4   7
HETATM    7  C7  UNL     1    -113.448 -15.984  85.886  1.00  0.00     0.044 A 
HETATM    8  C8  UNL     1    -112.152 -15.655  85.504  1.00  0.00     0.054 A 
HETATM    9  C9  UNL     1    -111.846 -15.307  84.212  1.00  0.00     0.037 A 
HETATM   10 CL1  UNL     1    -110.224 -14.909  83.746  1.00  0.00    -0.084 Cl
HETATM   11  C10 UNL     1    -112.849 -15.287  83.303  1.00  0.00     0.048 A 
HETATM   12  C11 UNL     1    -114.146 -15.624  83.707  1.00  0.00     0.048 A 
HETATM   13 CL2  UNL     1    -115.307 -15.641  82.360  1.00  0.00    -0.083 Cl
HETATM   14  C12 UNL     1    -114.493 -15.981  84.999  1.00  0.00     0.015 A 
BRANCH  14  15
HETATM   15  C13 UNL     1    -115.814 -16.474  85.260  1.00  0.00    -0.066 C 
HETATM   16  C14 UNL     1    -116.090 -17.932  85.383  1.00  0.00     0.035 C 
HETATM   17  C15 UNL     1    -117.462 -17.977  86.021  1.00  0.00     0.005 C 
HETATM   18  C16 UNL     1    -118.013 -16.568  85.988  1.00  0.00     0.005 C 
HETATM   19  C17 UNL     1    -117.076 -15.791  85.019  1.00  0.00     0.035 C 
ENDBRANCH  14  15
ENDBRANCH   4   7
BRANCH   1  20
HETATM   20  C4  UNL     1    -113.775 -14.885  90.975  1.00  0.00     0.190 C 
BRANCH  20  21
HETATM   21  N1  UNL     1    -113.497 -15.135  92.402  1.00  0.00    -0.273 N 
HETATM   22  C1  UNL     1    -114.216 -15.894  93.202  1.00  0.00     0.155 A 
HETATM   23  C2  UNL     1    -113.825 -16.031  94.497  1.00  0.00     0.109 A 
HETATM   24  S1  UNL     1    -112.423 -15.064  94.560  1.00  0.00    -0.068 SA
HETATM   25  C3  UNL     1    -112.405 -14.542  92.945  1.00  0.00     0.152 A 
HETATM   26  S2  UNL     1    -111.331 -13.543  92.172  1.00  0.00    -0.052 SA
BRANCH  22  27
HETATM   27  O1  UNL     1    -115.395 -16.579  92.760  1.00  0.00    -0.345 OA
ATOM     28  H1  UNL     1    -116.215 -16.101  92.719  1.00  0.00     0.219 HD
ENDBRANCH  22  27
ENDBRANCH  20  21
ENDBRANCH   1  20
TORSDOF 5
ENDMDL
