MODEL 1
REMARK VINA RESULT: -3.661399654      0.000      0.000
REMARK  0 active torsions:
REMARK  status: ('A' for Active; 'I' for Inactive)
ROOT
HETATM    1  C1  UNL     1     -23.779  -4.885  95.993  1.00  0.00     0.251 C 
HETATM    2  C2  UNL     1     -23.980  -4.562  97.456  1.00  0.00     0.158 C 
HETATM    3  N1  UNL     1     -23.417  -3.265  97.756  1.00  0.00    -0.145 NA
HETATM    4  N2  UNL     1     -22.017  -3.272  97.556  1.00  0.00    -0.121 NA
HETATM    5  C3  UNL     1     -21.866  -3.465  96.105  1.00  0.00     0.361 C 
HETATM    6  N3  UNL     1     -22.346  -4.794  95.734  1.00  0.00    -0.060 N 
ATOM      7  H31 UNL     1     -22.113  -5.032  94.770  1.00  0.00     0.278 HD
ATOM      8  H32 UNL     1     -21.823  -5.537  96.198  1.00  0.00     0.278 HD
ENDROOT
TORSDOF 0
ENDMDL
MODEL 2
REMARK VINA RESULT: -3.519734417      6.426      7.071
REMARK  0 active torsions:
REMARK  status: ('A' for Active; 'I' for Inactive)
ROOT
HETATM    1  C1  UNL     1     -17.320  -3.964  91.054  1.00  0.00     0.251 C 
HETATM    2  C2  UNL     1     -18.384  -4.780  91.752  1.00  0.00     0.158 C 
HETATM    3  N1  UNL     1     -19.684  -4.189  91.527  1.00  0.00    -0.145 NA
HETATM    4  N2  UNL     1     -19.752  -2.901  92.105  1.00  0.00    -0.121 NA
HETATM    5  C3  UNL     1     -18.794  -2.107  91.318  1.00  0.00     0.361 C 
HETATM    6  N3  UNL     1     -17.439  -2.599  91.555  1.00  0.00    -0.060 N 
ATOM      7  H31 UNL     1     -16.731  -1.980  91.159  1.00  0.00     0.278 HD
ATOM      8  H32 UNL     1     -17.167  -2.523  92.535  1.00  0.00     0.278 HD
ENDROOT
TORSDOF 0
ENDMDL
MODEL 3
REMARK VINA RESULT: -3.481348131      6.747      7.296
REMARK  0 active torsions:
REMARK  status: ('A' for Active; 'I' for Inactive)
ROOT
HETATM    1  C1  UNL     1     -16.939  -3.394  91.778  1.00  0.00     0.251 C 
HETATM    2  C2  UNL     1     -17.613  -4.586  92.416  1.00  0.00     0.158 C 
HETATM    3  N1  UNL     1     -18.690  -5.053  91.572  1.00  0.00    -0.145 NA
HETATM    4  N2  UNL     1     -19.694  -4.065  91.455  1.00  0.00    -0.121 NA
HETATM    5  C3  UNL     1     -19.035  -2.973  90.720  1.00  0.00     0.361 C 
HETATM    6  N3  UNL     1     -17.977  -2.395  91.546  1.00  0.00    -0.060 N 
ATOM      7  H31 UNL     1     -17.602  -1.536  91.145  1.00  0.00     0.278 HD
ATOM      8  H32 UNL     1     -18.337  -2.005  92.417  1.00  0.00     0.278 HD
ENDROOT
TORSDOF 0
ENDMDL
MODEL 4
REMARK VINA RESULT: -3.467989514      0.847      1.997
REMARK  0 active torsions:
REMARK  status: ('A' for Active; 'I' for Inactive)
ROOT
HETATM    1  C1  UNL     1     -22.438  -4.345  95.387  1.00  0.00     0.251 C 
HETATM    2  C2  UNL     1     -21.808  -3.177  96.110  1.00  0.00     0.158 C 
HETATM    3  N1  UNL     1     -22.011  -3.313  97.535  1.00  0.00    -0.145 NA
HETATM    4  N2  UNL     1     -23.389  -3.256  97.849  1.00  0.00    -0.121 NA
HETATM    5  C3  UNL     1     -23.944  -4.473  97.233  1.00  0.00     0.361 C 
HETATM    6  N3  UNL     1     -23.843  -4.375  95.778  1.00  0.00    -0.060 N 
ATOM      7  H31 UNL     1     -24.359  -5.118  95.307  1.00  0.00     0.278 HD
ATOM      8  H32 UNL     1     -24.363  -3.580  95.408  1.00  0.00     0.278 HD
ENDROOT
TORSDOF 0
ENDMDL
MODEL 5
REMARK VINA RESULT: -3.451835782      1.753      2.563
REMARK  0 active torsions:
REMARK  status: ('A' for Active; 'I' for Inactive)
ROOT
HETATM    1  C1  UNL     1     -24.923  -4.644  95.493  1.00  0.00     0.251 C 
HETATM    2  C2  UNL     1     -23.977  -4.762  96.666  1.00  0.00     0.158 C 
HETATM    3  N1  UNL     1     -22.617  -4.882  96.192  1.00  0.00    -0.145 NA
HETATM    4  N2  UNL     1     -22.453  -6.074  95.450  1.00  0.00    -0.121 NA
HETATM    5  C3  UNL     1     -23.291  -5.868  94.257  1.00  0.00     0.361 C 
HETATM    6  N3  UNL     1     -24.698  -5.813  94.650  1.00  0.00    -0.060 N 
ATOM      7  H31 UNL     1     -25.323  -5.834  93.845  1.00  0.00     0.278 HD
ATOM      8  H32 UNL     1     -25.007  -6.676  95.098  1.00  0.00     0.278 HD
ENDROOT
TORSDOF 0
ENDMDL
