MODEL 1
REMARK VINA RESULT: -3.574851427      0.000      0.000
REMARK  0 active torsions:
REMARK  status: ('A' for Active; 'I' for Inactive)
ROOT
HETATM    1  C1  UNL     1     -11.837  -3.571  91.367  1.00  0.00     0.055 C 
HETATM    2  C2  UNL     1     -13.240  -3.123  91.019  1.00  0.00     0.182 C 
HETATM    3  N1  UNL     1     -14.235  -4.168  91.021  1.00  0.00    -0.342 N 
ATOM      4  H1  UNL     1     -14.279  -5.135  90.701  1.00  0.00     0.164 HD
HETATM    5  C3  UNL     1     -15.124  -3.269  91.658  1.00  0.00     0.172 C 
HETATM    6  N2  UNL     1     -16.421  -3.187  91.753  1.00  0.00    -0.371 N 
ATOM      7  H21 UNL     1     -17.061  -2.539  92.212  1.00  0.00     0.159 HD
ATOM      8  H22 UNL     1     -17.237  -3.705  91.426  1.00  0.00     0.159 HD
HETATM    9  N3  UNL     1     -13.990  -2.549  92.112  1.00  0.00    -0.342 N 
ATOM     10  H3  UNL     1     -13.790  -1.906  92.878  1.00  0.00     0.164 HD
ENDROOT
TORSDOF 0
ENDMDL
MODEL 2
REMARK VINA RESULT: -3.532509904      9.808     10.379
REMARK  0 active torsions:
REMARK  status: ('A' for Active; 'I' for Inactive)
ROOT
HETATM    1  C1  UNL     1     -21.893   3.341  95.086  1.00  0.00     0.055 C 
HETATM    2  C2  UNL     1     -20.511   3.647  94.551  1.00  0.00     0.182 C 
HETATM    3  N1  UNL     1     -20.403   3.683  93.113  1.00  0.00    -0.342 N 
ATOM      4  H1  UNL     1     -20.768   3.127  92.340  1.00  0.00     0.164 HD
HETATM    5  C3  UNL     1     -19.574   4.823  93.240  1.00  0.00     0.172 C 
HETATM    6  N2  UNL     1     -18.671   5.379  92.484  1.00  0.00    -0.371 N 
ATOM      7  H21 UNL     1     -18.073   6.201  92.576  1.00  0.00     0.159 HD
ATOM      8  H22 UNL     1     -18.245   5.216  91.571  1.00  0.00     0.159 HD
HETATM    9  N3  UNL     1     -20.166   5.049  94.509  1.00  0.00    -0.342 N 
ATOM     10  H3  UNL     1     -20.294   5.853  95.124  1.00  0.00     0.164 HD
ENDROOT
TORSDOF 0
ENDMDL
MODEL 3
REMARK VINA RESULT: -3.490259330     10.012     11.356
REMARK  0 active torsions:
REMARK  status: ('A' for Active; 'I' for Inactive)
ROOT
HETATM    1  C1  UNL     1     -25.378  -5.214  97.280  1.00  0.00     0.055 C 
HETATM    2  C2  UNL     1     -24.774  -6.029  96.158  1.00  0.00     0.182 C 
HETATM    3  N1  UNL     1     -24.941  -5.473  94.837  1.00  0.00    -0.342 N 
ATOM      4  H1  UNL     1     -25.696  -5.013  94.328  1.00  0.00     0.164 HD
HETATM    5  C3  UNL     1     -23.605  -5.842  94.553  1.00  0.00     0.172 C 
HETATM    6  N2  UNL     1     -22.939  -6.077  93.457  1.00  0.00    -0.371 N 
ATOM      7  H21 UNL     1     -21.976  -6.343  93.253  1.00  0.00     0.159 HD
ATOM      8  H22 UNL     1     -23.116  -6.085  92.453  1.00  0.00     0.159 HD
HETATM    9  N3  UNL     1     -23.359  -5.832  95.950  1.00  0.00    -0.342 N 
ATOM     10  H3  UNL     1     -22.539  -5.729  96.548  1.00  0.00     0.164 HD
ENDROOT
TORSDOF 0
ENDMDL
MODEL 4
REMARK VINA RESULT: -3.452800081      3.846      4.456
REMARK  0 active torsions:
REMARK  status: ('A' for Active; 'I' for Inactive)
ROOT
HETATM    1  C1  UNL     1     -17.473  -5.396  91.482  1.00  0.00     0.055 C 
HETATM    2  C2  UNL     1     -17.900  -3.980  91.800  1.00  0.00     0.182 C 
HETATM    3  N1  UNL     1     -17.164  -2.948  91.111  1.00  0.00    -0.342 N 
ATOM      4  H1  UNL     1     -16.185  -2.784  90.873  1.00  0.00     0.164 HD
HETATM    5  C3  UNL     1     -18.385  -2.263  90.908  1.00  0.00     0.172 C 
HETATM    6  N2  UNL     1     -18.704  -1.020  90.678  1.00  0.00    -0.371 N 
ATOM      7  H21 UNL     1     -19.585  -0.527  90.531  1.00  0.00     0.159 HD
ATOM      8  H22 UNL     1     -18.226  -0.127  90.565  1.00  0.00     0.159 HD
HETATM    9  N3  UNL     1     -19.050  -3.506  91.065  1.00  0.00    -0.342 N 
ATOM     10  H3  UNL     1     -19.949  -3.896  90.782  1.00  0.00     0.164 HD
ENDROOT
TORSDOF 0
ENDMDL
MODEL 5
REMARK VINA RESULT: -3.439412982      9.793     11.132
REMARK  0 active torsions:
REMARK  status: ('A' for Active; 'I' for Inactive)
ROOT
HETATM    1  C1  UNL     1     -24.998  -6.279  97.294  1.00  0.00     0.055 C 
HETATM    2  C2  UNL     1     -24.364  -5.488  96.170  1.00  0.00     0.182 C 
HETATM    3  N1  UNL     1     -23.077  -5.968  95.731  1.00  0.00    -0.342 N 
ATOM      4  H1  UNL     1     -22.236  -6.324  96.186  1.00  0.00     0.164 HD
HETATM    5  C3  UNL     1     -23.485  -5.734  94.396  1.00  0.00     0.172 C 
HETATM    6  N2  UNL     1     -22.854  -5.527  93.275  1.00  0.00    -0.371 N 
ATOM      7  H21 UNL     1     -23.149  -5.359  92.313  1.00  0.00     0.159 HD
ATOM      8  H22 UNL     1     -21.889  -5.460  92.953  1.00  0.00     0.159 HD
HETATM    9  N3  UNL     1     -24.828  -5.827  94.845  1.00  0.00    -0.342 N 
ATOM     10  H3  UNL     1     -25.729  -6.042  94.417  1.00  0.00     0.164 HD
ENDROOT
TORSDOF 0
ENDMDL
