MODEL 1
REMARK VINA RESULT: -7.627387912      0.000      0.000
REMARK  6 active torsions:
REMARK  status: ('A' for Active; 'I' for Inactive)
REMARK       I    between atoms: C2_2  and  N1_4 
REMARK    1  A    between atoms: C5_7  and  C6_8 
REMARK    2  A    between atoms: C6_8  and  O2_9 
REMARK    3  A    between atoms: N2_13  and  C9_14 
REMARK    4  A    between atoms: C11_20  and  N5_21 
REMARK    5  A    between atoms: C12_24  and  O3_25 
REMARK    6  A    between atoms: O3_25  and  C13_26 
ROOT
HETATM    1  C9  UNL     1      64.764  -3.202  25.972  1.00  0.00     0.142 A 
HETATM    2  N3  UNL     1      65.436  -3.737  27.042  1.00  0.00    -0.336 N 
ATOM      3  H3  UNL     1      65.184  -4.668  27.372  1.00  0.00     0.168 HD
HETATM    4  C10 UNL     1      66.415  -3.068  27.665  1.00  0.00     0.183 A 
HETATM    5  N4  UNL     1      66.761  -1.847  27.248  1.00  0.00    -0.337 N 
ATOM      6  H4  UNL     1      67.509  -1.355  27.737  1.00  0.00     0.168 HD
HETATM    7  C11 UNL     1      66.149  -1.229  26.185  1.00  0.00     0.137 A 
HETATM    8  C12 UNL     1      65.135  -1.946  25.558  1.00  0.00     0.157 A 
ENDROOT
BRANCH   1   9
HETATM    9  N2  UNL     1      63.711  -3.955  25.397  1.00  0.00    -0.365 N 
HETATM   10  C8  UNL     1      63.473  -4.093  23.979  1.00  0.00     0.127 C 
HETATM   11  C7  UNL     1      62.003  -4.401  23.783  1.00  0.00     0.058 C 
HETATM   12  C6  UNL     1      61.129  -3.605  24.728  1.00  0.00     0.066 C 
HETATM   13  C20 UNL     1      61.391  -4.092  26.125  1.00  0.00     0.058 C 
HETATM   14  C19 UNL     1      62.805  -4.633  26.298  1.00  0.00     0.127 C 
BRANCH  12  15
HETATM   15  C5  UNL     1      59.690  -3.849  24.324  1.00  0.00     0.040 C 
HETATM   16  C4  UNL     1      59.190  -5.136  24.898  1.00  0.00     0.029 C 
HETATM   17  C3  UNL     1      57.751  -4.870  25.278  1.00  0.00     0.126 C 
HETATM   18  N1  UNL     1      57.482  -3.518  24.841  1.00  0.00    -0.352 N 
HETATM   19  C2  UNL     1      56.240  -3.005  24.444  1.00  0.00     0.215 C 
HETATM   20  C21 UNL     1      58.757  -2.831  24.905  1.00  0.00     0.133 C 
HETATM   21  C1  UNL     1      56.109  -1.591  24.018  1.00  0.00     0.117 C 
HETATM   22  O1  UNL     1      55.211  -3.726  24.439  1.00  0.00    -0.274 OA
ENDBRANCH  12  15
BRANCH  12  23
HETATM   23  O2  UNL     1      61.391  -2.264  24.562  1.00  0.00    -0.389 OA
ATOM     24  H2  UNL     1      62.249  -2.183  24.161  1.00  0.00     0.210 HD
ENDBRANCH  12  23
ENDBRANCH   1   9
BRANCH   8  25
HETATM   25  O3  UNL     1      64.484  -1.399  24.491  1.00  0.00    -0.339 OA
BRANCH  25  26
HETATM   26  C13 UNL     1      64.956  -0.958  23.257  1.00  0.00     0.129 C 
HETATM   27  C14 UNL     1      65.921  -1.944  22.633  1.00  0.00     0.032 C 
HETATM   28  C15 UNL     1      66.279  -1.589  21.211  1.00  0.00     0.002 C 
HETATM   29  C16 UNL     1      65.059  -1.523  20.324  1.00  0.00     0.000 C 
HETATM   30  C17 UNL     1      63.784  -1.662  21.128  1.00  0.00     0.002 C 
HETATM   31  C18 UNL     1      63.764  -0.794  22.342  1.00  0.00     0.032 C 
ENDBRANCH  25  26
ENDBRANCH   8  25
BRANCH   7  32
HETATM   32  N5  UNL     1      66.561  -0.079  25.828  1.00  0.00    -0.383 N 
ATOM     33  H52 UNL     1      66.773   0.691  26.462  1.00  0.00     0.157 HD
ATOM     34  H51 UNL     1      66.668   0.114  24.832  1.00  0.00     0.157 HD
ENDBRANCH   7  32
TORSDOF 6
ENDMDL
MODEL 2
REMARK VINA RESULT: -7.157429068      6.959      9.481
REMARK  6 active torsions:
REMARK  status: ('A' for Active; 'I' for Inactive)
REMARK       I    between atoms: C2_2  and  N1_4 
REMARK    1  A    between atoms: C5_7  and  C6_8 
REMARK    2  A    between atoms: C6_8  and  O2_9 
REMARK    3  A    between atoms: N2_13  and  C9_14 
REMARK    4  A    between atoms: C11_20  and  N5_21 
REMARK    5  A    between atoms: C12_24  and  O3_25 
REMARK    6  A    between atoms: O3_25  and  C13_26 
ROOT
HETATM    1  C9  UNL     1      59.890 -10.161  26.685  1.00  0.00     0.142 A 
HETATM    2  N3  UNL     1      60.594 -11.335  26.776  1.00  0.00    -0.336 N 
ATOM      3  H3  UNL     1      60.084 -12.216  26.834  1.00  0.00     0.168 HD
HETATM    4  C10 UNL     1      61.933 -11.354  26.790  1.00  0.00     0.183 A 
HETATM    5  N4  UNL     1      62.619 -10.211  26.714  1.00  0.00    -0.337 N 
ATOM      6  H4  UNL     1      63.638 -10.248  26.727  1.00  0.00     0.168 HD
HETATM    7  C11 UNL     1      62.004  -8.986  26.619  1.00  0.00     0.137 A 
HETATM    8  C12 UNL     1      60.613  -8.996  26.608  1.00  0.00     0.157 A 
ENDROOT
BRANCH   1   9
HETATM    9  N2  UNL     1      58.474 -10.222  26.722  1.00  0.00    -0.365 N 
HETATM   10  C8  UNL     1      57.660  -9.829  27.848  1.00  0.00     0.127 C 
HETATM   11  C7  UNL     1      56.353 -10.590  27.764  1.00  0.00     0.058 C 
HETATM   12  C6  UNL     1      56.561 -12.020  27.312  1.00  0.00     0.066 C 
HETATM   13  C20 UNL     1      57.027 -11.992  25.883  1.00  0.00     0.058 C 
HETATM   14  C19 UNL     1      57.797 -10.721  25.546  1.00  0.00     0.127 C 
BRANCH  12  15
HETATM   15  C5  UNL     1      55.230 -12.731  27.440  1.00  0.00     0.040 C 
HETATM   16  C4  UNL     1      54.627 -12.486  28.787  1.00  0.00     0.029 C 
HETATM   17  C3  UNL     1      53.141 -12.354  28.539  1.00  0.00     0.126 C 
HETATM   18  N1  UNL     1      52.963 -12.605  27.127  1.00  0.00    -0.352 N 
HETATM   19  C2  UNL     1      51.824 -13.145  26.516  1.00  0.00     0.215 C 
HETATM   20  C21 UNL     1      54.201 -12.181  26.501  1.00  0.00     0.133 C 
HETATM   21  C1  UNL     1      51.779 -13.348  25.047  1.00  0.00     0.117 C 
HETATM   22  O1  UNL     1      50.816 -13.470  27.192  1.00  0.00    -0.274 OA
ENDBRANCH  12  15
BRANCH  12  23
HETATM   23  O2  UNL     1      57.452 -12.635  28.162  1.00  0.00    -0.389 OA
ATOM     24  H2  UNL     1      58.156 -12.023  28.338  1.00  0.00     0.210 HD
ENDBRANCH  12  23
ENDBRANCH   1   9
BRANCH   8  25
HETATM   25  O3  UNL     1      59.932  -7.818  26.510  1.00  0.00    -0.339 OA
BRANCH  25  26
HETATM   26  C13 UNL     1      59.393  -7.160  25.407  1.00  0.00     0.129 C 
HETATM   27  C14 UNL     1      57.896  -6.967  25.536  1.00  0.00     0.032 C 
HETATM   28  C15 UNL     1      57.328  -6.076  24.459  1.00  0.00     0.002 C 
HETATM   29  C16 UNL     1      57.966  -4.708  24.468  1.00  0.00     0.000 C 
HETATM   30  C17 UNL     1      59.123  -4.644  25.440  1.00  0.00     0.002 C 
HETATM   31  C18 UNL     1      60.055  -5.804  25.313  1.00  0.00     0.032 C 
ENDBRANCH  25  26
ENDBRANCH   8  25
BRANCH   7  32
HETATM   32  N5  UNL     1      62.730  -7.946  26.515  1.00  0.00    -0.383 N 
ATOM     33  H52 UNL     1      62.857  -7.402  25.662  1.00  0.00     0.157 HD
ATOM     34  H51 UNL     1      63.252  -7.631  27.333  1.00  0.00     0.157 HD
ENDBRANCH   7  32
TORSDOF 6
ENDMDL
MODEL 3
REMARK VINA RESULT: -7.134682036      2.369      7.866
REMARK  6 active torsions:
REMARK  status: ('A' for Active; 'I' for Inactive)
REMARK       I    between atoms: C2_2  and  N1_4 
REMARK    1  A    between atoms: C5_7  and  C6_8 
REMARK    2  A    between atoms: C6_8  and  O2_9 
REMARK    3  A    between atoms: N2_13  and  C9_14 
REMARK    4  A    between atoms: C11_20  and  N5_21 
REMARK    5  A    between atoms: C12_24  and  O3_25 
REMARK    6  A    between atoms: O3_25  and  C13_26 
ROOT
HETATM    1  C9  UNL     1      60.585  -5.608  25.223  1.00  0.00     0.142 A 
HETATM    2  N3  UNL     1      61.525  -6.435  25.784  1.00  0.00    -0.336 N 
ATOM      3  H3  UNL     1      62.489  -6.111  25.861  1.00  0.00     0.168 HD
HETATM    4  C10 UNL     1      61.211  -7.658  26.232  1.00  0.00     0.183 A 
HETATM    5  N4  UNL     1      59.954  -8.100  26.140  1.00  0.00    -0.337 N 
ATOM      6  H4  UNL     1      59.736  -9.034  26.487  1.00  0.00     0.168 HD
HETATM    7  C11 UNL     1      58.943  -7.345  25.597  1.00  0.00     0.137 A 
HETATM    8  C12 UNL     1      59.299  -6.081  25.138  1.00  0.00     0.157 A 
ENDROOT
BRANCH   1   9
HETATM    9  N2  UNL     1      61.008  -4.347  24.733  1.00  0.00    -0.365 N 
HETATM   10  C8  UNL     1      61.185  -4.022  23.336  1.00  0.00     0.127 C 
HETATM   11  C7  UNL     1      62.189  -2.892  23.247  1.00  0.00     0.058 C 
HETATM   12  C6  UNL     1      63.319  -3.061  24.240  1.00  0.00     0.066 C 
HETATM   13  C20 UNL     1      62.751  -2.898  25.622  1.00  0.00     0.058 C 
HETATM   14  C19 UNL     1      61.287  -3.313  25.704  1.00  0.00     0.127 C 
BRANCH  12  15
HETATM   15  C5  UNL     1      64.346  -1.989  23.940  1.00  0.00     0.040 C 
HETATM   16  C4  UNL     1      65.226  -1.752  25.126  1.00  0.00     0.029 C 
HETATM   17  C3  UNL     1      66.604  -1.505  24.556  1.00  0.00     0.126 C 
HETATM   18  N1  UNL     1      66.436  -1.527  23.120  1.00  0.00    -0.352 N 
HETATM   19  C2  UNL     1      67.208  -0.830  22.182  1.00  0.00     0.215 C 
HETATM   20  C21 UNL     1      65.313  -2.412  22.877  1.00  0.00     0.133 C 
HETATM   21  C1  UNL     1      66.922  -0.948  20.731  1.00  0.00     0.117 C 
HETATM   22  O1  UNL     1      68.159  -0.092  22.543  1.00  0.00    -0.274 OA
ENDBRANCH  12  15
BRANCH  12  23
HETATM   23  O2  UNL     1      63.915  -4.285  24.039  1.00  0.00    -0.389 OA
ATOM     24  H2  UNL     1      63.833  -4.500  23.117  1.00  0.00     0.210 HD
ENDBRANCH  12  23
ENDBRANCH   1   9
BRANCH   8  25
HETATM   25  O3  UNL     1      58.347  -5.271  24.591  1.00  0.00    -0.339 OA
BRANCH  25  26
HETATM   26  C13 UNL     1      57.435  -4.399  25.181  1.00  0.00     0.129 C 
HETATM   27  C14 UNL     1      58.021  -3.018  25.386  1.00  0.00     0.032 C 
HETATM   28  C15 UNL     1      56.990  -2.007  25.826  1.00  0.00     0.002 C 
HETATM   29  C16 UNL     1      55.865  -1.881  24.829  1.00  0.00     0.000 C 
HETATM   30  C17 UNL     1      55.977  -2.921  23.735  1.00  0.00     0.002 C 
HETATM   31  C18 UNL     1      56.240  -4.293  24.261  1.00  0.00     0.032 C 
ENDBRANCH  25  26
ENDBRANCH   8  25
BRANCH   7  32
HETATM   32  N5  UNL     1      57.765  -7.826  25.578  1.00  0.00    -0.383 N 
ATOM     33  H52 UNL     1      56.908  -7.276  25.528  1.00  0.00     0.157 HD
ATOM     34  H51 UNL     1      57.649  -8.837  25.644  1.00  0.00     0.157 HD
ENDBRANCH   7  32
TORSDOF 6
ENDMDL
MODEL 4
REMARK VINA RESULT: -6.952775058      7.050      9.531
REMARK  6 active torsions:
REMARK  status: ('A' for Active; 'I' for Inactive)
REMARK       I    between atoms: C2_2  and  N1_4 
REMARK    1  A    between atoms: C5_7  and  C6_8 
REMARK    2  A    between atoms: C6_8  and  O2_9 
REMARK    3  A    between atoms: N2_13  and  C9_14 
REMARK    4  A    between atoms: C11_20  and  N5_21 
REMARK    5  A    between atoms: C12_24  and  O3_25 
REMARK    6  A    between atoms: O3_25  and  C13_26 
ROOT
HETATM    1  C9  UNL     1      59.656  -9.921  26.952  1.00  0.00     0.142 A 
HETATM    2  N3  UNL     1      60.332 -10.773  27.789  1.00  0.00    -0.336 N 
ATOM      3  H3  UNL     1      59.841 -11.577  28.179  1.00  0.00     0.168 HD
HETATM    4  C10 UNL     1      61.618 -10.577  28.106  1.00  0.00     0.183 A 
HETATM    5  N4  UNL     1      62.278  -9.530  27.604  1.00  0.00    -0.337 N 
ATOM      6  H4  UNL     1      63.257  -9.399  27.859  1.00  0.00     0.168 HD
HETATM    7  C11 UNL     1      61.689  -8.623  26.757  1.00  0.00     0.137 A 
HETATM    8  C12 UNL     1      60.352  -8.851  26.447  1.00  0.00     0.157 A 
ENDROOT
BRANCH   1   9
HETATM    9  N2  UNL     1      58.284 -10.173  26.702  1.00  0.00    -0.365 N 
HETATM   10  C8  UNL     1      57.197  -9.734  27.546  1.00  0.00     0.127 C 
HETATM   11  C7  UNL     1      56.030 -10.674  27.326  1.00  0.00     0.058 C 
HETATM   12  C6  UNL     1      56.483 -12.112  27.186  1.00  0.00     0.066 C 
HETATM   13  C20 UNL     1      57.258 -12.232  25.904  1.00  0.00     0.058 C 
HETATM   14  C19 UNL     1      57.950 -10.931  25.517  1.00  0.00     0.127 C 
BRANCH  12  15
HETATM   15  C5  UNL     1      55.238 -12.974  27.156  1.00  0.00     0.040 C 
HETATM   16  C4  UNL     1      54.959 -13.549  28.509  1.00  0.00     0.029 C 
HETATM   17  C3  UNL     1      53.454 -13.529  28.647  1.00  0.00     0.126 C 
HETATM   18  N1  UNL     1      52.958 -13.040  27.380  1.00  0.00    -0.352 N 
HETATM   19  C2  UNL     1      51.723 -13.350  26.797  1.00  0.00     0.215 C 
HETATM   20  C21 UNL     1      54.003 -12.178  26.863  1.00  0.00     0.133 C 
HETATM   21  C1  UNL     1      51.341 -12.772  25.484  1.00  0.00     0.117 C 
HETATM   22  O1  UNL     1      50.910 -14.120  27.366  1.00  0.00    -0.274 OA
ENDBRANCH  12  15
BRANCH  12  23
HETATM   23  O2  UNL     1      57.213 -12.464  28.298  1.00  0.00    -0.389 OA
ATOM     24  H2  UNL     1      58.079 -12.083  28.210  1.00  0.00     0.210 HD
ENDBRANCH  12  23
ENDBRANCH   1   9
BRANCH   8  25
HETATM   25  O3  UNL     1      59.701  -7.995  25.607  1.00  0.00    -0.339 OA
BRANCH  25  26
HETATM   26  C13 UNL     1      59.083  -6.770  25.845  1.00  0.00     0.129 C 
HETATM   27  C14 UNL     1      59.750  -5.640  25.089  1.00  0.00     0.032 C 
HETATM   28  C15 UNL     1      58.973  -4.349  25.165  1.00  0.00     0.002 C 
HETATM   29  C16 UNL     1      57.575  -4.501  24.617  1.00  0.00     0.000 C 
HETATM   30  C17 UNL     1      57.264  -5.945  24.292  1.00  0.00     0.002 C 
HETATM   31  C18 UNL     1      57.646  -6.884  25.388  1.00  0.00     0.032 C 
ENDBRANCH  25  26
ENDBRANCH   8  25
BRANCH   7  32
HETATM   32  N5  UNL     1      62.396  -7.672  26.295  1.00  0.00    -0.383 N 
ATOM     33  H52 UNL     1      62.581  -7.505  25.306  1.00  0.00     0.157 HD
ATOM     34  H51 UNL     1      62.843  -7.031  26.951  1.00  0.00     0.157 HD
ENDBRANCH   7  32
TORSDOF 6
ENDMDL
MODEL 5
REMARK VINA RESULT: -6.734495741      2.264      7.738
REMARK  6 active torsions:
REMARK  status: ('A' for Active; 'I' for Inactive)
REMARK       I    between atoms: C2_2  and  N1_4 
REMARK    1  A    between atoms: C5_7  and  C6_8 
REMARK    2  A    between atoms: C6_8  and  O2_9 
REMARK    3  A    between atoms: N2_13  and  C9_14 
REMARK    4  A    between atoms: C11_20  and  N5_21 
REMARK    5  A    between atoms: C12_24  and  O3_25 
REMARK    6  A    between atoms: O3_25  and  C13_26 
ROOT
HETATM    1  C9  UNL     1      60.651  -5.544  25.229  1.00  0.00     0.142 A 
HETATM    2  N3  UNL     1      61.457  -6.503  25.789  1.00  0.00    -0.336 N 
ATOM      3  H3  UNL     1      62.453  -6.316  25.893  1.00  0.00     0.168 HD
HETATM    4  C10 UNL     1      60.968  -7.680  26.201  1.00  0.00     0.183 A 
HETATM    5  N4  UNL     1      59.666  -7.945  26.073  1.00  0.00    -0.337 N 
ATOM      6  H4  UNL     1      59.314  -8.848  26.394  1.00  0.00     0.168 HD
HETATM    7  C11 UNL     1      58.780  -7.047  25.528  1.00  0.00     0.137 A 
HETATM    8  C12 UNL     1      59.315  -5.835  25.107  1.00  0.00     0.157 A 
ENDROOT
BRANCH   1   9
HETATM    9  N2  UNL     1      61.253  -4.343  24.777  1.00  0.00    -0.365 N 
HETATM   10  C8  UNL     1      61.369  -3.948  23.392  1.00  0.00     0.127 C 
HETATM   11  C7  UNL     1      62.551  -3.007  23.276  1.00  0.00     0.058 C 
HETATM   12  C6  UNL     1      63.710  -3.447  24.145  1.00  0.00     0.066 C 
HETATM   13  C20 UNL     1      63.298  -3.293  25.582  1.00  0.00     0.058 C 
HETATM   14  C19 UNL     1      61.795  -3.450  25.778  1.00  0.00     0.127 C 
BRANCH  12  15
HETATM   15  C5  UNL     1      64.885  -2.551  23.813  1.00  0.00     0.040 C 
HETATM   16  C4  UNL     1      64.574  -1.680  22.638  1.00  0.00     0.029 C 
HETATM   17  C3  UNL     1      65.222  -0.350  22.945  1.00  0.00     0.126 C 
HETATM   18  N1  UNL     1      65.920  -0.542  24.197  1.00  0.00    -0.352 N 
HETATM   19  C2  UNL     1      67.075   0.130  24.615  1.00  0.00     0.215 C 
HETATM   20  C21 UNL     1      65.171  -1.564  24.903  1.00  0.00     0.133 C 
HETATM   21  C1  UNL     1      67.687  -0.169  25.933  1.00  0.00     0.117 C 
HETATM   22  O1  UNL     1      67.620   0.999  23.890  1.00  0.00    -0.274 OA
ENDBRANCH  12  15
BRANCH  12  23
HETATM   23  O2  UNL     1      64.056  -4.737  23.814  1.00  0.00    -0.389 OA
ATOM     24  H2  UNL     1      64.194  -5.218  24.621  1.00  0.00     0.210 HD
ENDBRANCH  12  23
ENDBRANCH   1   9
BRANCH   8  25
HETATM   25  O3  UNL     1      58.496  -4.890  24.560  1.00  0.00    -0.339 OA
BRANCH  25  26
HETATM   26  C13 UNL     1      57.706  -3.908  25.152  1.00  0.00     0.129 C 
HETATM   27  C14 UNL     1      58.335  -2.535  25.050  1.00  0.00     0.032 C 
HETATM   28  C15 UNL     1      57.406  -1.433  25.494  1.00  0.00     0.002 C 
HETATM   29  C16 UNL     1      56.132  -1.411  24.683  1.00  0.00     0.000 C 
HETATM   30  C17 UNL     1      56.049  -2.602  23.754  1.00  0.00     0.002 C 
HETATM   31  C18 UNL     1      56.377  -3.892  24.431  1.00  0.00     0.032 C 
ENDBRANCH  25  26
ENDBRANCH   8  25
BRANCH   7  32
HETATM   32  N5  UNL     1      57.548  -7.362  25.474  1.00  0.00    -0.383 N 
ATOM     33  H52 UNL     1      56.961  -7.296  24.642  1.00  0.00     0.157 HD
ATOM     34  H51 UNL     1      57.088  -7.684  26.326  1.00  0.00     0.157 HD
ENDBRANCH   7  32
TORSDOF 6
ENDMDL
