MODEL 1
REMARK VINA RESULT: -7.261215751      0.000      0.000
REMARK  6 active torsions:
REMARK  status: ('A' for Active; 'I' for Inactive)
REMARK    1  A    between atoms: C2_2  and  N1_3 
REMARK    2  A    between atoms: N1_3  and  C3_4 
REMARK    3  A    between atoms: C8_9  and  C9_10 
REMARK    4  A    between atoms: C9_10  and  C10_11 
REMARK       I    between atoms: C10_11  and  N2_13 
REMARK    5  A    between atoms: N2_13  and  C11_15 
REMARK    6  A    between atoms: C13_19  and  C14_20 
ROOT
HETATM    1  C11 UNL     1      -1.556 -10.291   1.195  1.00  0.00     0.214 C 
HETATM    2  C12 UNL     1      -1.726 -10.466  -0.274  1.00  0.00     0.247 C 
HETATM    3  O2  UNL     1      -2.222  -9.810  -1.205  1.00  0.00    -0.271 OA
HETATM    4  N3  UNL     1      -1.076 -11.703  -0.139  1.00  0.00    -0.313 N 
HETATM    5  C13 UNL     1      -0.732 -13.051  -0.376  1.00  0.00     0.212 C 
HETATM    6  C15 UNL     1       0.446 -13.442   0.427  1.00  0.00     0.089 C 
HETATM    7  C16 UNL     1       1.695 -12.915  -0.237  1.00  0.00     0.034 C 
HETATM    8  C17 UNL     1       0.543 -14.888   0.767  1.00  0.00     0.034 C 
HETATM    9  S1  UNL     1       0.123 -12.446   1.900  1.00  0.00     0.178 S 
HETATM   10  O5  UNL     1      -0.963 -13.017   2.718  1.00  0.00    -0.225 OA
HETATM   11  O6  UNL     1       1.384 -12.245   2.678  1.00  0.00    -0.225 OA
HETATM   12  C18 UNL     1      -0.342 -11.054   0.943  1.00  0.00     0.243 C 
ENDROOT
BRANCH   1  13
HETATM   13  N2  UNL     1      -2.651 -10.850   1.888  1.00  0.00    -0.345 N 
HETATM   14  C10 UNL     1      -3.849 -10.105   2.015  1.00  0.00     0.218 C 
HETATM   15  O1  UNL     1      -3.942  -8.941   1.509  1.00  0.00    -0.274 OA
ATOM     16  H2  UNL     1      -2.580 -11.783   2.295  1.00  0.00     0.163 HD
BRANCH  14  17
HETATM   17  C9  UNL     1      -5.046 -10.615   2.727  1.00  0.00     0.109 C 
BRANCH  17  18
HETATM   18  C8  UNL     1      -4.973 -10.342   4.218  1.00  0.00     0.020 C 
HETATM   19  C7  UNL     1      -5.367 -11.560   4.945  1.00  0.00     0.008 C 
HETATM   20  C6  UNL     1      -6.445 -11.421   5.967  1.00  0.00     0.028 C 
HETATM   21  C5  UNL     1      -6.654 -10.012   6.449  1.00  0.00     0.237 C 
HETATM   22  N1  UNL     1      -6.907  -9.201   5.273  1.00  0.00    -0.067 N 
HETATM   23  C19 UNL     1      -5.726  -9.098   4.490  1.00  0.00     0.242 C 
BRANCH  22  24
HETATM   24  C2  UNL     1      -7.264  -7.842   5.711  1.00  0.00     0.233 C 
HETATM   25  C1  UNL     1      -8.002  -7.844   7.011  1.00  0.00     0.035 C 
ENDBRANCH  22  24
BRANCH  22  26
HETATM   26  C3  UNL     1      -8.053  -9.725   4.591  1.00  0.00     0.233 C 
HETATM   27  C4  UNL     1      -8.232  -9.108   3.206  1.00  0.00     0.035 C 
ENDBRANCH  22  26
ENDBRANCH  17  18
ENDBRANCH  14  17
ENDBRANCH   1  13
BRANCH   5  28
HETATM   28  C14 UNL     1      -0.541 -13.299  -1.842  1.00  0.00     0.198 C 
HETATM   29  O3  UNL     1      -0.589 -14.463  -2.300  1.00  0.00    -0.646 OA
HETATM   30  O4  UNL     1      -0.306 -12.260  -2.722  1.00  0.00    -0.646 OA
ENDBRANCH   5  28
TORSDOF 6
ENDMDL
MODEL 2
REMARK VINA RESULT: -7.001826686      5.470      8.779
REMARK  6 active torsions:
REMARK  status: ('A' for Active; 'I' for Inactive)
REMARK    1  A    between atoms: C2_2  and  N1_3 
REMARK    2  A    between atoms: N1_3  and  C3_4 
REMARK    3  A    between atoms: C8_9  and  C9_10 
REMARK    4  A    between atoms: C9_10  and  C10_11 
REMARK       I    between atoms: C10_11  and  N2_13 
REMARK    5  A    between atoms: N2_13  and  C11_15 
REMARK    6  A    between atoms: C13_19  and  C14_20 
ROOT
HETATM    1  C11 UNL     1      -4.963 -14.881   7.210  1.00  0.00     0.214 C 
HETATM    2  C12 UNL     1      -6.293 -15.274   7.753  1.00  0.00     0.247 C 
HETATM    3  O2  UNL     1      -7.349 -15.738   7.295  1.00  0.00    -0.271 OA
HETATM    4  N3  UNL     1      -5.820 -14.885   9.017  1.00  0.00    -0.313 N 
HETATM    5  C13 UNL     1      -5.825 -14.379  10.335  1.00  0.00     0.212 C 
HETATM    6  C15 UNL     1      -4.512 -14.586  10.983  1.00  0.00     0.089 C 
HETATM    7  C16 UNL     1      -4.406 -16.021  11.440  1.00  0.00     0.034 C 
HETATM    8  C17 UNL     1      -4.162 -13.615  12.055  1.00  0.00     0.034 C 
HETATM    9  S1  UNL     1      -3.450 -14.371   9.536  1.00  0.00     0.178 S 
HETATM   10  O5  UNL     1      -3.339 -12.953   9.147  1.00  0.00    -0.225 OA
HETATM   11  O6  UNL     1      -2.119 -15.009   9.770  1.00  0.00    -0.225 OA
HETATM   12  C18 UNL     1      -4.518 -15.323   8.523  1.00  0.00     0.243 C 
ENDROOT
BRANCH   1  13
HETATM   13  N2  UNL     1      -4.962 -13.517   6.848  1.00  0.00    -0.345 N 
HETATM   14  C10 UNL     1      -4.207 -13.094   5.727  1.00  0.00     0.218 C 
HETATM   15  O1  UNL     1      -3.534 -13.934   5.047  1.00  0.00    -0.274 OA
ATOM     16  H2  UNL     1      -5.500 -12.840   7.389  1.00  0.00     0.163 HD
BRANCH  14  17
HETATM   17  C9  UNL     1      -4.149 -11.682   5.276  1.00  0.00     0.109 C 
BRANCH  17  18
HETATM   18  C8  UNL     1      -4.952 -11.463   4.007  1.00  0.00     0.020 C 
HETATM   19  C7  UNL     1      -4.120 -10.732   3.038  1.00  0.00     0.008 C 
HETATM   20  C6  UNL     1      -4.697  -9.489   2.449  1.00  0.00     0.028 C 
HETATM   21  C5  UNL     1      -6.196  -9.401   2.553  1.00  0.00     0.237 C 
HETATM   22  N1  UNL     1      -6.525  -9.546   3.959  1.00  0.00    -0.067 N 
HETATM   23  C19 UNL     1      -6.254 -10.872   4.388  1.00  0.00     0.242 C 
BRANCH  22  24
HETATM   24  C2  UNL     1      -7.970  -9.317   4.125  1.00  0.00     0.233 C 
HETATM   25  C1  UNL     1      -8.692  -9.297   2.816  1.00  0.00     0.035 C 
ENDBRANCH  22  24
BRANCH  22  26
HETATM   26  C3  UNL     1      -5.860  -8.512   4.696  1.00  0.00     0.233 C 
HETATM   27  C4  UNL     1      -6.844  -7.604   5.430  1.00  0.00     0.035 C 
ENDBRANCH  22  26
ENDBRANCH  17  18
ENDBRANCH  14  17
ENDBRANCH   1  13
BRANCH   5  28
HETATM   28  C14 UNL     1      -6.957 -14.967  11.123  1.00  0.00     0.198 C 
HETATM   29  O3  UNL     1      -7.772 -15.746  10.578  1.00  0.00    -0.646 OA
HETATM   30  O4  UNL     1      -7.133 -14.668  12.461  1.00  0.00    -0.646 OA
ENDBRANCH   5  28
TORSDOF 6
ENDMDL
MODEL 3
REMARK VINA RESULT: -6.788614160      1.856      2.369
REMARK  6 active torsions:
REMARK  status: ('A' for Active; 'I' for Inactive)
REMARK    1  A    between atoms: C2_2  and  N1_3 
REMARK    2  A    between atoms: N1_3  and  C3_4 
REMARK    3  A    between atoms: C8_9  and  C9_10 
REMARK    4  A    between atoms: C9_10  and  C10_11 
REMARK       I    between atoms: C10_11  and  N2_13 
REMARK    5  A    between atoms: N2_13  and  C11_15 
REMARK    6  A    between atoms: C13_19  and  C14_20 
ROOT
HETATM    1  C11 UNL     1      -1.111 -11.506   3.329  1.00  0.00     0.214 C 
HETATM    2  C12 UNL     1      -0.531 -10.770   2.172  1.00  0.00     0.247 C 
HETATM    3  O2  UNL     1      -0.192  -9.600   1.931  1.00  0.00    -0.271 OA
HETATM    4  N3  UNL     1      -0.538 -11.988   1.475  1.00  0.00    -0.313 N 
HETATM    5  C13 UNL     1      -0.624 -12.899   0.400  1.00  0.00     0.212 C 
HETATM    6  C15 UNL     1      -0.275 -14.266   0.839  1.00  0.00     0.089 C 
HETATM    7  C16 UNL     1       1.226 -14.387   0.935  1.00  0.00     0.034 C 
HETATM    8  C17 UNL     1      -0.891 -15.372   0.055  1.00  0.00     0.034 C 
HETATM    9  S1  UNL     1      -0.948 -14.202   2.515  1.00  0.00     0.178 S 
HETATM   10  O5  UNL     1      -2.420 -14.286   2.516  1.00  0.00    -0.225 OA
HETATM   11  O6  UNL     1      -0.312 -15.250   3.370  1.00  0.00    -0.225 OA
HETATM   12  C18 UNL     1      -0.310 -12.592   2.785  1.00  0.00     0.243 C 
ENDROOT
BRANCH   1  13
HETATM   13  N2  UNL     1      -2.520 -11.514   3.253  1.00  0.00    -0.345 N 
HETATM   14  C10 UNL     1      -3.283 -11.576   4.444  1.00  0.00     0.218 C 
HETATM   15  O1  UNL     1      -2.707 -11.622   5.578  1.00  0.00    -0.274 OA
ATOM     16  H2  UNL     1      -2.986 -11.476   2.346  1.00  0.00     0.163 HD
BRANCH  14  17
HETATM   17  C9  UNL     1      -4.766 -11.589   4.455  1.00  0.00     0.109 C 
BRANCH  17  18
HETATM   18  C8  UNL     1      -5.332 -10.460   5.299  1.00  0.00     0.020 C 
HETATM   19  C7  UNL     1      -6.504 -10.960   6.037  1.00  0.00     0.008 C 
HETATM   20  C6  UNL     1      -7.770 -10.183   5.906  1.00  0.00     0.028 C 
HETATM   21  C5  UNL     1      -7.574  -8.767   5.436  1.00  0.00     0.237 C 
HETATM   22  N1  UNL     1      -6.845  -8.840   4.184  1.00  0.00    -0.067 N 
HETATM   23  C19 UNL     1      -5.516  -9.284   4.421  1.00  0.00     0.242 C 
BRANCH  22  24
HETATM   24  C2  UNL     1      -6.761  -7.486   3.613  1.00  0.00     0.233 C 
HETATM   25  C1  UNL     1      -5.524  -7.294   2.797  1.00  0.00     0.035 C 
ENDBRANCH  22  24
BRANCH  22  26
HETATM   26  C3  UNL     1      -7.601  -9.629   3.257  1.00  0.00     0.233 C 
HETATM   27  C4  UNL     1      -8.829  -8.885   2.735  1.00  0.00     0.035 C 
ENDBRANCH  22  26
ENDBRANCH  17  18
ENDBRANCH  14  17
ENDBRANCH   1  13
BRANCH   5  28
HETATM   28  C14 UNL     1       0.208 -12.433  -0.756  1.00  0.00     0.198 C 
HETATM   29  O3  UNL     1      -0.034 -12.838  -1.916  1.00  0.00    -0.646 OA
HETATM   30  O4  UNL     1       1.258 -11.552  -0.578  1.00  0.00    -0.646 OA
ENDBRANCH   5  28
TORSDOF 6
ENDMDL
MODEL 4
REMARK VINA RESULT: -6.748357227      5.686      9.145
REMARK  6 active torsions:
REMARK  status: ('A' for Active; 'I' for Inactive)
REMARK    1  A    between atoms: C2_2  and  N1_3 
REMARK    2  A    between atoms: N1_3  and  C3_4 
REMARK    3  A    between atoms: C8_9  and  C9_10 
REMARK    4  A    between atoms: C9_10  and  C10_11 
REMARK       I    between atoms: C10_11  and  N2_13 
REMARK    5  A    between atoms: N2_13  and  C11_15 
REMARK    6  A    between atoms: C13_19  and  C14_20 
ROOT
HETATM    1  C11 UNL     1      -7.235 -14.800   8.798  1.00  0.00     0.214 C 
HETATM    2  C12 UNL     1      -7.331 -14.812  10.284  1.00  0.00     0.247 C 
HETATM    3  O2  UNL     1      -8.214 -15.043  11.125  1.00  0.00    -0.271 OA
HETATM    4  N3  UNL     1      -5.976 -14.445  10.310  1.00  0.00    -0.313 N 
HETATM    5  C13 UNL     1      -4.774 -13.844  10.745  1.00  0.00     0.212 C 
HETATM    6  C15 UNL     1      -3.631 -14.308   9.931  1.00  0.00     0.089 C 
HETATM    7  C16 UNL     1      -3.216 -15.683  10.399  1.00  0.00     0.034 C 
HETATM    8  C17 UNL     1      -2.484 -13.365   9.835  1.00  0.00     0.034 C 
HETATM    9  S1  UNL     1      -4.470 -14.480   8.340  1.00  0.00     0.178 S 
HETATM   10  O5  UNL     1      -4.731 -13.169   7.717  1.00  0.00    -0.225 OA
HETATM   11  O6  UNL     1      -3.704 -15.400   7.445  1.00  0.00    -0.225 OA
HETATM   12  C18 UNL     1      -5.872 -15.226   9.081  1.00  0.00     0.243 C 
ENDROOT
BRANCH   1  13
HETATM   13  N2  UNL     1      -7.520 -13.513   8.295  1.00  0.00    -0.345 N 
HETATM   14  C10 UNL     1      -7.793 -13.348   6.915  1.00  0.00     0.218 C 
HETATM   15  O1  UNL     1      -7.784 -14.350   6.130  1.00  0.00    -0.274 OA
ATOM     16  H2  UNL     1      -7.530 -12.707   8.920  1.00  0.00     0.163 HD
BRANCH  14  17
HETATM   17  C9  UNL     1      -8.102 -12.032   6.303  1.00  0.00     0.109 C 
BRANCH  17  18
HETATM   18  C8  UNL     1      -6.917 -11.086   6.378  1.00  0.00     0.020 C 
HETATM   19  C7  UNL     1      -7.345  -9.841   7.037  1.00  0.00     0.008 C 
HETATM   20  C6  UNL     1      -7.068  -8.563   6.318  1.00  0.00     0.028 C 
HETATM   21  C5  UNL     1      -5.996  -8.671   5.268  1.00  0.00     0.237 C 
HETATM   22  N1  UNL     1      -6.401  -9.731   4.365  1.00  0.00    -0.067 N 
HETATM   23  C19 UNL     1      -6.328 -10.986   5.025  1.00  0.00     0.242 C 
BRANCH  22  24
HETATM   24  C2  UNL     1      -5.455  -9.770   3.238  1.00  0.00     0.233 C 
HETATM   25  C1  UNL     1      -4.510 -10.924   3.335  1.00  0.00     0.035 C 
ENDBRANCH  22  24
BRANCH  22  26
HETATM   26  C3  UNL     1      -7.681  -9.400   3.813  1.00  0.00     0.233 C 
HETATM   27  C4  UNL     1      -7.601  -8.229   2.835  1.00  0.00     0.035 C 
ENDBRANCH  22  26
ENDBRANCH  17  18
ENDBRANCH  14  17
ENDBRANCH   1  13
BRANCH   5  28
HETATM   28  C14 UNL     1      -4.570 -14.071  12.212  1.00  0.00     0.198 C 
HETATM   29  O3  UNL     1      -3.971 -13.220  12.908  1.00  0.00    -0.646 OA
HETATM   30  O4  UNL     1      -5.032 -15.216  12.834  1.00  0.00    -0.646 OA
ENDBRANCH   5  28
TORSDOF 6
ENDMDL
MODEL 5
REMARK VINA RESULT: -6.744004972      1.752      2.032
REMARK  6 active torsions:
REMARK  status: ('A' for Active; 'I' for Inactive)
REMARK    1  A    between atoms: C2_2  and  N1_3 
REMARK    2  A    between atoms: N1_3  and  C3_4 
REMARK    3  A    between atoms: C8_9  and  C9_10 
REMARK    4  A    between atoms: C9_10  and  C10_11 
REMARK       I    between atoms: C10_11  and  N2_13 
REMARK    5  A    between atoms: N2_13  and  C11_15 
REMARK    6  A    between atoms: C13_19  and  C14_20 
ROOT
HETATM    1  C11 UNL     1      -1.053 -11.493   3.163  1.00  0.00     0.214 C 
HETATM    2  C12 UNL     1      -0.506 -10.754   1.991  1.00  0.00     0.247 C 
HETATM    3  O2  UNL     1      -0.188  -9.581   1.739  1.00  0.00    -0.271 OA
HETATM    4  N3  UNL     1      -0.512 -11.975   1.298  1.00  0.00    -0.313 N 
HETATM    5  C13 UNL     1      -0.609 -12.891   0.228  1.00  0.00     0.212 C 
HETATM    6  C15 UNL     1      -0.234 -14.252   0.665  1.00  0.00     0.089 C 
HETATM    7  C16 UNL     1       1.271 -14.353   0.730  1.00  0.00     0.034 C 
HETATM    8  C17 UNL     1      -0.851 -15.368  -0.102  1.00  0.00     0.034 C 
HETATM    9  S1  UNL     1      -0.872 -14.190   2.355  1.00  0.00     0.178 S 
HETATM   10  O5  UNL     1      -2.343 -14.293   2.386  1.00  0.00    -0.225 OA
HETATM   11  O6  UNL     1      -0.205 -15.227   3.200  1.00  0.00    -0.225 OA
HETATM   12  C18 UNL     1      -0.249 -12.571   2.606  1.00  0.00     0.243 C 
ENDROOT
BRANCH   1  13
HETATM   13  N2  UNL     1      -2.463 -11.520   3.115  1.00  0.00    -0.345 N 
HETATM   14  C10 UNL     1      -3.200 -11.597   4.323  1.00  0.00     0.218 C 
HETATM   15  O1  UNL     1      -2.599 -11.641   5.444  1.00  0.00    -0.274 OA
ATOM     16  H2  UNL     1      -2.948 -11.483   2.219  1.00  0.00     0.163 HD
BRANCH  14  17
HETATM   17  C9  UNL     1      -4.682 -11.629   4.364  1.00  0.00     0.109 C 
BRANCH  17  18
HETATM   18  C8  UNL     1      -5.222 -11.010   5.641  1.00  0.00     0.020 C 
HETATM   19  C7  UNL     1      -6.236 -11.910   6.214  1.00  0.00     0.008 C 
HETATM   20  C6  UNL     1      -7.570 -11.320   6.525  1.00  0.00     0.028 C 
HETATM   21  C5  UNL     1      -7.561  -9.821   6.656  1.00  0.00     0.237 C 
HETATM   22  N1  UNL     1      -7.004  -9.298   5.422  1.00  0.00    -0.067 N 
HETATM   23  C19 UNL     1      -5.623  -9.619   5.338  1.00  0.00     0.242 C 
BRANCH  22  24
HETATM   24  C2  UNL     1      -7.114  -7.830   5.447  1.00  0.00     0.233 C 
HETATM   25  C1  UNL     1      -7.842  -7.339   6.656  1.00  0.00     0.035 C 
ENDBRANCH  22  24
BRANCH  22  26
HETATM   26  C3  UNL     1      -7.809  -9.750   4.327  1.00  0.00     0.233 C 
HETATM   27  C4  UNL     1      -7.631  -8.880   3.084  1.00  0.00     0.035 C 
ENDBRANCH  22  26
ENDBRANCH  17  18
ENDBRANCH  14  17
ENDBRANCH   1  13
BRANCH   5  28
HETATM   28  C14 UNL     1       0.193 -12.418  -0.946  1.00  0.00     0.198 C 
HETATM   29  O3  UNL     1      -0.082 -12.813  -2.102  1.00  0.00    -0.646 OA
HETATM   30  O4  UNL     1       1.250 -11.542  -0.790  1.00  0.00    -0.646 OA
ENDBRANCH   5  28
TORSDOF 6
ENDMDL
