MODEL 1
REMARK VINA RESULT: -8.605328870      0.000      0.000
REMARK  8 active torsions:
REMARK  status: ('A' for Active; 'I' for Inactive)
REMARK       I    between atoms: C2_2  and  N1_4 
REMARK    1  A    between atoms: N1_4  and  C3_5 
REMARK    2  A    between atoms: C3_5  and  C4_6 
REMARK    3  A    between atoms: C3_5  and  C19_31 
REMARK       I    between atoms: C4_6  and  N2_8 
REMARK    4  A    between atoms: C10_16  and  C11_17 
REMARK    5  A    between atoms: C11_17  and  O4_18 
REMARK    6  A    between atoms: C11_17  and  N4_20 
REMARK    7  A    between atoms: C13_22  and  C14_23 
REMARK    8  A    between atoms: C14_23  and  C15_24 
ROOT
HETATM    1  C4  UNL     1      -6.267 -10.464   5.702  1.00  0.00     0.257 C 
HETATM    2  O2  UNL     1      -7.024 -10.958   6.593  1.00  0.00    -0.270 OA
HETATM    3  N2  UNL     1      -5.327 -11.358   5.104  1.00  0.00    -0.327 N 
HETATM    4  C5  UNL     1      -4.471 -10.878   4.050  1.00  0.00     0.152 C 
HETATM    5  C6  UNL     1      -3.075 -11.376   3.992  1.00  0.00     0.100 C 
HETATM    6  C7  UNL     1      -2.575 -11.133   2.561  1.00  0.00     0.034 C 
HETATM    7  N3  UNL     1      -3.048 -12.807   4.240  1.00  0.00    -0.348 N 
HETATM    8  C8  UNL     1      -2.175 -13.690   3.485  1.00  0.00     0.153 C 
HETATM    9  C9  UNL     1      -3.901 -13.316   5.244  1.00  0.00     0.251 C 
HETATM   10  O3  UNL     1      -3.540 -14.311   5.926  1.00  0.00    -0.271 OA
HETATM   11  C10 UNL     1      -5.235 -12.728   5.549  1.00  0.00     0.254 C 
ENDROOT
BRANCH  11  12
HETATM   12  C11 UNL     1      -5.597 -12.983   6.947  1.00  0.00     0.154 C 
BRANCH  12  13
HETATM   13  O4  UNL     1      -4.925 -12.285   7.814  1.00  0.00    -0.347 OA
ATOM     14  H4  UNL     1      -4.369 -12.798   8.388  1.00  0.00     0.219 HD
ENDBRANCH  12  13
BRANCH  12  15
HETATM   15  N4  UNL     1      -6.561 -13.868   7.464  1.00  0.00    -0.280 N 
HETATM   16  C12 UNL     1      -7.938 -13.425   7.820  1.00  0.00     0.161 C 
HETATM   17  C13 UNL     1      -8.134 -14.234   9.061  1.00  0.00     0.105 C 
HETATM   18  N5  UNL     1      -7.686 -15.555   8.609  1.00  0.00    -0.336 N 
HETATM   19  C18 UNL     1      -6.591 -15.252   7.739  1.00  0.00     0.324 C 
ATOM     20  H5  UNL     1      -8.064 -16.469   8.856  1.00  0.00     0.164 HD
HETATM   21  O5  UNL     1      -5.750 -16.055   7.255  1.00  0.00    -0.247 OA
BRANCH  17  22
HETATM   22  C14 UNL     1      -9.423 -14.218   9.731  1.00  0.00     0.031 C 
BRANCH  22  23
HETATM   23  C15 UNL     1      -9.549 -13.807  11.139  1.00  0.00    -0.021 C 
HETATM   24  C16 UNL     1      -9.487 -14.939  12.107  1.00  0.00     0.009 C 
HETATM   25  C17 UNL     1     -10.907 -13.105  11.320  1.00  0.00     0.009 C 
ENDBRANCH  22  23
ENDBRANCH  17  22
ENDBRANCH  12  15
ENDBRANCH  11  12
BRANCH   1  26
HETATM   26  C3  UNL     1      -6.415  -9.027   5.360  1.00  0.00     0.262 C 
BRANCH  26  27
HETATM   27  N1  UNL     1      -7.256  -8.206   6.111  1.00  0.00    -0.400 NA
HETATM   28  C2  UNL     1      -8.072  -7.410   6.839  1.00  0.00     0.283 C 
HETATM   29  C1  UNL     1      -7.800  -5.936   7.027  1.00  0.00     0.134 C 
HETATM   30  O1  UNL     1      -9.143  -7.785   7.453  1.00  0.00    -0.258 OA
ENDBRANCH  26  27
BRANCH  26  31
HETATM   31  C19 UNL     1      -6.842  -8.886   3.909  1.00  0.00     0.023 C 
HETATM   32  C20 UNL     1      -6.847  -7.467   3.440  1.00  0.00     0.013 C 
HETATM   33  C21 UNL     1      -8.285  -9.437   3.772  1.00  0.00     0.013 C 
ENDBRANCH  26  31
ENDBRANCH   1  26
TORSDOF 8
ENDMDL
MODEL 2
REMARK VINA RESULT: -8.330378523      2.145      3.202
REMARK  8 active torsions:
REMARK  status: ('A' for Active; 'I' for Inactive)
REMARK       I    between atoms: C2_2  and  N1_4 
REMARK    1  A    between atoms: N1_4  and  C3_5 
REMARK    2  A    between atoms: C3_5  and  C4_6 
REMARK    3  A    between atoms: C3_5  and  C19_31 
REMARK       I    between atoms: C4_6  and  N2_8 
REMARK    4  A    between atoms: C10_16  and  C11_17 
REMARK    5  A    between atoms: C11_17  and  O4_18 
REMARK    6  A    between atoms: C11_17  and  N4_20 
REMARK    7  A    between atoms: C13_22  and  C14_23 
REMARK    8  A    between atoms: C14_23  and  C15_24 
ROOT
HETATM    1  C4  UNL     1      -6.179 -10.704   5.301  1.00  0.00     0.257 C 
HETATM    2  O2  UNL     1      -7.112 -11.263   5.954  1.00  0.00    -0.270 OA
HETATM    3  N2  UNL     1      -5.161 -11.565   4.788  1.00  0.00    -0.327 N 
HETATM    4  C5  UNL     1      -4.099 -11.004   3.994  1.00  0.00     0.152 C 
HETATM    5  C6  UNL     1      -2.733 -11.562   4.147  1.00  0.00     0.100 C 
HETATM    6  C7  UNL     1      -1.950 -11.173   2.886  1.00  0.00     0.034 C 
HETATM    7  N3  UNL     1      -2.794 -13.013   4.207  1.00  0.00    -0.348 N 
HETATM    8  C8  UNL     1      -1.810 -13.841   3.530  1.00  0.00     0.153 C 
HETATM    9  C9  UNL     1      -3.844 -13.595   4.950  1.00  0.00     0.251 C 
HETATM   10  O3  UNL     1      -3.654 -14.684   5.554  1.00  0.00    -0.271 OA
HETATM   11  C10 UNL     1      -5.197 -12.982   5.061  1.00  0.00     0.254 C 
ENDROOT
BRANCH  11  12
HETATM   12  C11 UNL     1      -5.838 -13.387   6.315  1.00  0.00     0.154 C 
BRANCH  12  13
HETATM   13  O4  UNL     1      -6.894 -14.131   6.165  1.00  0.00    -0.347 OA
ATOM     14  H4  UNL     1      -7.489 -13.838   5.485  1.00  0.00     0.219 HD
ENDBRANCH  12  13
BRANCH  12  15
HETATM   15  N4  UNL     1      -5.466 -13.084   7.638  1.00  0.00    -0.280 N 
HETATM   16  C12 UNL     1      -4.045 -12.899   8.042  1.00  0.00     0.161 C 
HETATM   17  C13 UNL     1      -4.089 -13.568   9.377  1.00  0.00     0.105 C 
HETATM   18  N5  UNL     1      -5.291 -12.960   9.956  1.00  0.00    -0.336 N 
HETATM   19  C18 UNL     1      -6.172 -12.838   8.835  1.00  0.00     0.324 C 
ATOM     20  H5  UNL     1      -5.458 -12.689  10.925  1.00  0.00     0.164 HD
HETATM   21  O5  UNL     1      -7.399 -12.553   8.850  1.00  0.00    -0.247 OA
BRANCH  17  22
HETATM   22  C14 UNL     1      -2.914 -13.542  10.232  1.00  0.00     0.031 C 
BRANCH  22  23
HETATM   23  C15 UNL     1      -2.254 -14.784  10.664  1.00  0.00    -0.021 C 
HETATM   24  C16 UNL     1      -1.693 -15.593   9.545  1.00  0.00     0.009 C 
HETATM   25  C17 UNL     1      -3.289 -15.653  11.402  1.00  0.00     0.009 C 
ENDBRANCH  22  23
ENDBRANCH  17  22
ENDBRANCH  12  15
ENDBRANCH  11  12
BRANCH   1  26
HETATM   26  C3  UNL     1      -6.218  -9.230   5.126  1.00  0.00     0.262 C 
BRANCH  26  27
HETATM   27  N1  UNL     1      -7.002  -8.440   5.967  1.00  0.00    -0.400 NA
HETATM   28  C2  UNL     1      -7.762  -7.673   6.782  1.00  0.00     0.283 C 
HETATM   29  C1  UNL     1      -7.764  -6.166   6.698  1.00  0.00     0.134 C 
HETATM   30  O1  UNL     1      -8.549  -8.106   7.708  1.00  0.00    -0.258 OA
ENDBRANCH  26  27
BRANCH  26  31
HETATM   31  C19 UNL     1      -6.622  -8.893   3.702  1.00  0.00     0.023 C 
HETATM   32  C20 UNL     1      -6.438  -7.447   3.372  1.00  0.00     0.013 C 
HETATM   33  C21 UNL     1      -8.126  -9.231   3.531  1.00  0.00     0.013 C 
ENDBRANCH  26  31
ENDBRANCH   1  26
TORSDOF 8
ENDMDL
MODEL 3
REMARK VINA RESULT: -8.329952661      2.228      3.089
REMARK  8 active torsions:
REMARK  status: ('A' for Active; 'I' for Inactive)
REMARK       I    between atoms: C2_2  and  N1_4 
REMARK    1  A    between atoms: N1_4  and  C3_5 
REMARK    2  A    between atoms: C3_5  and  C4_6 
REMARK    3  A    between atoms: C3_5  and  C19_31 
REMARK       I    between atoms: C4_6  and  N2_8 
REMARK    4  A    between atoms: C10_16  and  C11_17 
REMARK    5  A    between atoms: C11_17  and  O4_18 
REMARK    6  A    between atoms: C11_17  and  N4_20 
REMARK    7  A    between atoms: C13_22  and  C14_23 
REMARK    8  A    between atoms: C14_23  and  C15_24 
ROOT
HETATM    1  C4  UNL     1      -6.699 -10.793   5.910  1.00  0.00     0.257 C 
HETATM    2  O2  UNL     1      -7.819 -11.172   6.369  1.00  0.00    -0.270 OA
HETATM    3  N2  UNL     1      -5.761 -11.823   5.597  1.00  0.00    -0.327 N 
HETATM    4  C5  UNL     1      -4.488 -11.467   5.024  1.00  0.00     0.152 C 
HETATM    5  C6  UNL     1      -3.289 -12.239   5.434  1.00  0.00     0.100 C 
HETATM    6  C7  UNL     1      -2.227 -12.018   4.348  1.00  0.00     0.034 C 
HETATM    7  N3  UNL     1      -3.602 -13.657   5.473  1.00  0.00    -0.348 N 
HETATM    8  C8  UNL     1      -2.659 -14.654   4.992  1.00  0.00     0.153 C 
HETATM    9  C9  UNL     1      -4.856 -14.039   5.998  1.00  0.00     0.251 C 
HETATM   10  O3  UNL     1      -4.969 -15.127   6.621  1.00  0.00    -0.271 OA
HETATM   11  C10 UNL     1      -6.084 -13.208   5.851  1.00  0.00     0.254 C 
ENDROOT
BRANCH  11  12
HETATM   12  C11 UNL     1      -7.010 -13.467   6.957  1.00  0.00     0.154 C 
BRANCH  12  13
HETATM   13  O4  UNL     1      -8.226 -13.743   6.588  1.00  0.00    -0.347 OA
ATOM     14  H4  UNL     1      -8.714 -13.000   6.252  1.00  0.00     0.219 HD
ENDBRANCH  12  13
BRANCH  12  15
HETATM   15  N4  UNL     1      -6.759 -13.461   8.341  1.00  0.00    -0.280 N 
HETATM   16  C12 UNL     1      -5.604 -12.735   8.937  1.00  0.00     0.161 C 
HETATM   17  C13 UNL     1      -5.220 -13.724   9.990  1.00  0.00     0.105 C 
HETATM   18  N5  UNL     1      -6.525 -14.015  10.590  1.00  0.00    -0.336 N 
HETATM   19  C18 UNL     1      -7.416 -13.996   9.470  1.00  0.00     0.324 C 
ATOM     20  H5  UNL     1      -6.745 -14.190  11.571  1.00  0.00     0.164 HD
HETATM   21  O5  UNL     1      -8.614 -14.382   9.436  1.00  0.00    -0.247 OA
BRANCH  17  22
HETATM   22  C14 UNL     1      -4.168 -13.392  10.935  1.00  0.00     0.031 C 
BRANCH  22  23
HETATM   23  C15 UNL     1      -2.783 -13.850  10.733  1.00  0.00    -0.021 C 
HETATM   24  C16 UNL     1      -2.351 -13.859   9.306  1.00  0.00     0.009 C 
HETATM   25  C17 UNL     1      -2.664 -15.288  11.271  1.00  0.00     0.009 C 
ENDBRANCH  22  23
ENDBRANCH  17  22
ENDBRANCH  12  15
ENDBRANCH  11  12
BRANCH   1  26
HETATM   26  C3  UNL     1      -6.458  -9.338   5.739  1.00  0.00     0.262 C 
BRANCH  26  27
HETATM   27  N1  UNL     1      -7.303  -8.406   6.340  1.00  0.00    -0.400 NA
HETATM   28  C2  UNL     1      -8.123  -7.503   6.924  1.00  0.00     0.283 C 
HETATM   29  C1  UNL     1      -7.793  -6.030   6.973  1.00  0.00     0.134 C 
HETATM   30  O1  UNL     1      -9.247  -7.765   7.501  1.00  0.00    -0.258 OA
ENDBRANCH  26  27
BRANCH  26  31
HETATM   31  C19 UNL     1      -6.407  -8.997   4.260  1.00  0.00     0.023 C 
HETATM   32  C20 UNL     1      -6.002  -7.581   4.003  1.00  0.00     0.013 C 
HETATM   33  C21 UNL     1      -7.825  -9.201   3.666  1.00  0.00     0.013 C 
ENDBRANCH  26  31
ENDBRANCH   1  26
TORSDOF 8
ENDMDL
MODEL 4
REMARK VINA RESULT: -8.219010283      2.307      2.908
REMARK  8 active torsions:
REMARK  status: ('A' for Active; 'I' for Inactive)
REMARK       I    between atoms: C2_2  and  N1_4 
REMARK    1  A    between atoms: N1_4  and  C3_5 
REMARK    2  A    between atoms: C3_5  and  C4_6 
REMARK    3  A    between atoms: C3_5  and  C19_31 
REMARK       I    between atoms: C4_6  and  N2_8 
REMARK    4  A    between atoms: C10_16  and  C11_17 
REMARK    5  A    between atoms: C11_17  and  O4_18 
REMARK    6  A    between atoms: C11_17  and  N4_20 
REMARK    7  A    between atoms: C13_22  and  C14_23 
REMARK    8  A    between atoms: C14_23  and  C15_24 
ROOT
HETATM    1  C4  UNL     1      -5.769 -10.990   5.386  1.00  0.00     0.257 C 
HETATM    2  O2  UNL     1      -6.474 -11.652   6.207  1.00  0.00    -0.270 OA
HETATM    3  N2  UNL     1      -4.808 -11.733   4.634  1.00  0.00    -0.327 N 
HETATM    4  C5  UNL     1      -4.008 -11.054   3.647  1.00  0.00     0.152 C 
HETATM    5  C6  UNL     1      -2.593 -11.466   3.480  1.00  0.00     0.100 C 
HETATM    6  C7  UNL     1      -2.150 -10.982   2.092  1.00  0.00     0.034 C 
HETATM    7  N3  UNL     1      -2.493 -12.916   3.502  1.00  0.00    -0.348 N 
HETATM    8  C8  UNL     1      -1.604 -13.627   2.599  1.00  0.00     0.153 C 
HETATM    9  C9  UNL     1      -3.289 -13.614   4.435  1.00  0.00     0.251 C 
HETATM   10  O3  UNL     1      -2.862 -14.683   4.947  1.00  0.00    -0.271 OA
HETATM   11  C10 UNL     1      -4.639 -13.149   4.860  1.00  0.00     0.254 C 
ENDROOT
BRANCH  11  12
HETATM   12  C11 UNL     1      -4.944 -13.633   6.209  1.00  0.00     0.154 C 
BRANCH  12  13
HETATM   13  O4  UNL     1      -6.051 -14.309   6.302  1.00  0.00    -0.347 OA
ATOM     14  H4  UNL     1      -5.990 -15.209   6.003  1.00  0.00     0.219 HD
ENDBRANCH  12  13
BRANCH  12  15
HETATM   15  N4  UNL     1      -4.207 -13.468   7.396  1.00  0.00    -0.280 N 
HETATM   16  C12 UNL     1      -4.430 -14.321   8.597  1.00  0.00     0.161 C 
HETATM   17  C13 UNL     1      -4.275 -13.281   9.658  1.00  0.00     0.105 C 
HETATM   18  N5  UNL     1      -3.041 -12.618   9.224  1.00  0.00    -0.336 N 
HETATM   19  C18 UNL     1      -3.148 -12.626   7.797  1.00  0.00     0.324 C 
ATOM     20  H5  UNL     1      -2.289 -12.243   9.801  1.00  0.00     0.164 HD
HETATM   21  O5  UNL     1      -2.432 -12.000   6.970  1.00  0.00    -0.247 OA
BRANCH  17  22
HETATM   22  C14 UNL     1      -4.302 -13.674  11.057  1.00  0.00     0.031 C 
BRANCH  22  23
HETATM   23  C15 UNL     1      -4.883 -14.959  11.480  1.00  0.00    -0.021 C 
HETATM   24  C16 UNL     1      -5.806 -14.852  12.645  1.00  0.00     0.009 C 
HETATM   25  C17 UNL     1      -3.734 -15.906  11.874  1.00  0.00     0.009 C 
ENDBRANCH  22  23
ENDBRANCH  17  22
ENDBRANCH  12  15
ENDBRANCH  11  12
BRANCH   1  26
HETATM   26  C3  UNL     1      -5.994  -9.527   5.274  1.00  0.00     0.262 C 
BRANCH  26  27
HETATM   27  N1  UNL     1      -6.761  -8.856   6.226  1.00  0.00    -0.400 NA
HETATM   28  C2  UNL     1      -7.504  -8.204   7.149  1.00  0.00     0.283 C 
HETATM   29  C1  UNL     1      -8.017  -6.802   6.926  1.00  0.00     0.134 C 
HETATM   30  O1  UNL     1      -7.854  -8.669   8.301  1.00  0.00    -0.258 OA
ENDBRANCH  26  27
BRANCH  26  31
HETATM   31  C19 UNL     1      -6.594  -9.202   3.917  1.00  0.00     0.023 C 
HETATM   32  C20 UNL     1      -6.427  -7.766   3.536  1.00  0.00     0.013 C 
HETATM   33  C21 UNL     1      -8.114  -9.506   3.973  1.00  0.00     0.013 C 
ENDBRANCH  26  31
ENDBRANCH   1  26
TORSDOF 8
ENDMDL
MODEL 5
REMARK VINA RESULT: -8.069825904      1.573      2.011
REMARK  8 active torsions:
REMARK  status: ('A' for Active; 'I' for Inactive)
REMARK       I    between atoms: C2_2  and  N1_4 
REMARK    1  A    between atoms: N1_4  and  C3_5 
REMARK    2  A    between atoms: C3_5  and  C4_6 
REMARK    3  A    between atoms: C3_5  and  C19_31 
REMARK       I    between atoms: C4_6  and  N2_8 
REMARK    4  A    between atoms: C10_16  and  C11_17 
REMARK    5  A    between atoms: C11_17  and  O4_18 
REMARK    6  A    between atoms: C11_17  and  N4_20 
REMARK    7  A    between atoms: C13_22  and  C14_23 
REMARK    8  A    between atoms: C14_23  and  C15_24 
ROOT
HETATM    1  C4  UNL     1      -6.689 -10.624   7.012  1.00  0.00     0.257 C 
HETATM    2  O2  UNL     1      -7.449 -10.817   8.009  1.00  0.00    -0.270 OA
HETATM    3  N2  UNL     1      -5.922 -11.746   6.574  1.00  0.00    -0.327 N 
HETATM    4  C5  UNL     1      -5.076 -11.613   5.416  1.00  0.00     0.152 C 
HETATM    5  C6  UNL     1      -3.769 -12.315   5.412  1.00  0.00     0.100 C 
HETATM    6  C7  UNL     1      -3.332 -12.432   3.945  1.00  0.00     0.034 C 
HETATM    7  N3  UNL     1      -3.926 -13.659   5.941  1.00  0.00    -0.348 N 
HETATM    8  C8  UNL     1      -3.234 -14.792   5.349  1.00  0.00     0.153 C 
HETATM    9  C9  UNL     1      -4.776 -13.830   7.055  1.00  0.00     0.251 C 
HETATM   10  O3  UNL     1      -4.515 -14.717   7.911  1.00  0.00    -0.271 OA
HETATM   11  C10 UNL     1      -5.994 -13.003   7.282  1.00  0.00     0.254 C 
ENDROOT
BRANCH  11  12
HETATM   12  C11 UNL     1      -6.298 -12.925   8.714  1.00  0.00     0.154 C 
BRANCH  12  13
HETATM   13  O4  UNL     1      -5.533 -12.115   9.385  1.00  0.00    -0.347 OA
ATOM     14  H4  UNL     1      -4.842 -11.711   8.873  1.00  0.00     0.219 HD
ENDBRANCH  12  13
BRANCH  12  15
HETATM   15  N4  UNL     1      -7.293 -13.599   9.445  1.00  0.00    -0.280 N 
HETATM   16  C12 UNL     1      -8.711 -13.659   8.992  1.00  0.00     0.161 C 
HETATM   17  C13 UNL     1      -9.389 -13.516  10.316  1.00  0.00     0.105 C 
HETATM   18  N5  UNL     1      -8.644 -14.490  11.120  1.00  0.00    -0.336 N 
HETATM   19  C18 UNL     1      -7.305 -14.367  10.629  1.00  0.00     0.324 C 
ATOM     20  H5  UNL     1      -8.996 -15.106  11.852  1.00  0.00     0.164 HD
HETATM   21  O5  UNL     1      -6.257 -14.851  11.132  1.00  0.00    -0.247 OA
BRANCH  17  22
HETATM   22  C14 UNL     1     -10.835 -13.630  10.396  1.00  0.00     0.031 C 
BRANCH  22  23
HETATM   23  C15 UNL     1     -11.587 -13.055  11.524  1.00  0.00    -0.021 C 
HETATM   24  C16 UNL     1     -13.028 -12.810  11.229  1.00  0.00     0.009 C 
HETATM   25  C17 UNL     1     -10.946 -11.705  11.897  1.00  0.00     0.009 C 
ENDBRANCH  22  23
ENDBRANCH  17  22
ENDBRANCH  12  15
ENDBRANCH  11  12
BRANCH   1  26
HETATM   26  C3  UNL     1      -6.657  -9.275   6.394  1.00  0.00     0.262 C 
BRANCH  26  27
HETATM   27  N1  UNL     1      -7.554  -8.289   6.803  1.00  0.00    -0.400 NA
HETATM   28  C2  UNL     1      -8.424  -7.333   7.201  1.00  0.00     0.283 C 
HETATM   29  C1  UNL     1      -7.988  -5.916   7.487  1.00  0.00     0.134 C 
HETATM   30  O1  UNL     1      -9.690  -7.495   7.391  1.00  0.00    -0.258 OA
ENDBRANCH  26  27
BRANCH  26  31
HETATM   31  C19 UNL     1      -6.796  -9.398   4.886  1.00  0.00     0.023 C 
HETATM   32  C20 UNL     1      -6.401  -8.152   4.162  1.00  0.00     0.013 C 
HETATM   33  C21 UNL     1      -8.285  -9.686   4.558  1.00  0.00     0.013 C 
ENDBRANCH  26  31
ENDBRANCH   1  26
TORSDOF 8
ENDMDL
