MODEL 1
REMARK VINA RESULT: -7.318595604      0.000      0.000
REMARK  5 active torsions:
REMARK  status: ('A' for Active; 'I' for Inactive)
REMARK    1  A    between atoms: C4_6  and  C5_7 
REMARK    2  A    between atoms: C5_7  and  O1_8 
REMARK    3  A    between atoms: C5_7  and  N2_10 
REMARK    4  A    between atoms: N2_10  and  O2_12 
REMARK    5  A    between atoms: C7_15  and  N3_16 
ROOT
HETATM    1  N1  UNL     1      21.750 -10.542  -0.175  1.00  0.00    -0.093 NA
HETATM    2  C1  UNL     1      21.436  -9.162   0.055  1.00  0.00     0.102 A 
HETATM    3  S1  UNL     1      21.130  -8.436   1.557  1.00  0.00    -0.078 SA
HETATM    4  C2  UNL     1      20.846  -6.840   1.030  1.00  0.00    -0.008 A 
HETATM    5  C3  UNL     1      20.998  -6.916  -0.308  1.00  0.00    -0.026 A 
HETATM    6  C4  UNL     1      21.309  -8.127  -0.841  1.00  0.00     0.055 A 
HETATM    7  C6  UNL     1      20.800  -5.640  -1.114  1.00  0.00     0.065 C 
HETATM    8  C7  UNL     1      20.254  -4.555  -0.282  1.00  0.00     0.088 C 
HETATM    9  C11 UNL     1      20.941  -4.406   1.076  1.00  0.00     0.030 C 
HETATM   10  C12 UNL     1      20.512  -5.637   1.841  1.00  0.00     0.049 C 
ENDROOT
BRANCH   8  11
HETATM   11  N3  UNL     1      20.487  -3.302  -0.975  1.00  0.00    -0.366 N 
HETATM   12  C8  UNL     1      19.567  -2.483  -1.281  1.00  0.00     0.140 C 
HETATM   13  N4  UNL     1      18.194  -2.584  -1.038  1.00  0.00    -0.350 N 
HETATM   14  S2  UNL     1      19.739  -0.917  -2.131  1.00  0.00    -0.089 SA
HETATM   15  C9  UNL     1      17.417  -1.735  -1.490  1.00  0.00     0.073 C 
ATOM     16  H4  UNL     1      17.832  -3.361  -0.485  1.00  0.00     0.167 HD
HETATM   17  C10 UNL     1      17.953  -0.618  -2.286  1.00  0.00     0.127 C 
ATOM     18  H3  UNL     1      21.445  -3.066  -1.232  1.00  0.00     0.162 HD
ENDBRANCH   8  11
BRANCH   6  19
HETATM   19  C5  UNL     1      21.527  -8.432  -2.275  1.00  0.00     0.173 C 
BRANCH  19  20
HETATM   20  O1  UNL     1      22.672  -7.976  -2.874  1.00  0.00    -0.344 OA
ATOM     21  H1  UNL     1      22.687  -7.085  -3.205  1.00  0.00     0.219 HD
ENDBRANCH  19  20
BRANCH  19  22
HETATM   22  N2  UNL     1      20.706  -9.097  -2.978  1.00  0.00    -0.247 N 
ATOM     23  H2  UNL     1      20.043  -8.568  -3.546  1.00  0.00     0.196 HD
BRANCH  22  24
HETATM   24  O2  UNL     1      20.635 -10.442  -3.038  1.00  0.00    -0.288 OA
ATOM     25  H2  UNL     1      20.096 -10.940  -3.641  1.00  0.00     0.244 HD
ENDBRANCH  22  24
ENDBRANCH  19  22
ENDBRANCH   6  19
TORSDOF 5
ENDMDL
MODEL 2
REMARK VINA RESULT: -7.259587410      3.541      4.690
REMARK  5 active torsions:
REMARK  status: ('A' for Active; 'I' for Inactive)
REMARK    1  A    between atoms: C4_6  and  C5_7 
REMARK    2  A    between atoms: C5_7  and  O1_8 
REMARK    3  A    between atoms: C5_7  and  N2_10 
REMARK    4  A    between atoms: N2_10  and  O2_12 
REMARK    5  A    between atoms: C7_15  and  N3_16 
ROOT
HETATM    1  N1  UNL     1      21.130 -10.449   0.049  1.00  0.00    -0.093 NA
HETATM    2  C1  UNL     1      21.448  -9.067  -0.164  1.00  0.00     0.102 A 
HETATM    3  S1  UNL     1      21.756  -8.323  -1.657  1.00  0.00    -0.078 SA
HETATM    4  C2  UNL     1      22.044  -6.735  -1.111  1.00  0.00    -0.008 A 
HETATM    5  C3  UNL     1      21.893  -6.827   0.226  1.00  0.00    -0.026 A 
HETATM    6  C4  UNL     1      21.579  -8.044   0.745  1.00  0.00     0.055 A 
HETATM    7  C6  UNL     1      22.096  -5.562   1.048  1.00  0.00     0.065 C 
HETATM    8  C7  UNL     1      22.644  -4.468   0.229  1.00  0.00     0.088 C 
HETATM    9  C11 UNL     1      21.957  -4.300  -1.126  1.00  0.00     0.030 C 
HETATM   10  C12 UNL     1      22.382  -5.523  -1.906  1.00  0.00     0.049 C 
ENDROOT
BRANCH   8  11
HETATM   11  N3  UNL     1      22.417  -3.224   0.938  1.00  0.00    -0.366 N 
HETATM   12  C8  UNL     1      23.343  -2.425   1.279  1.00  0.00     0.140 C 
HETATM   13  N4  UNL     1      24.718  -2.544   1.065  1.00  0.00    -0.350 N 
HETATM   14  S2  UNL     1      23.176  -0.870   2.151  1.00  0.00    -0.089 SA
HETATM   15  C9  UNL     1      25.499  -1.716   1.549  1.00  0.00     0.073 C 
ATOM     16  H4  UNL     1      25.080  -3.318   0.507  1.00  0.00     0.167 HD
HETATM   17  C10 UNL     1      24.963  -0.604   2.352  1.00  0.00     0.127 C 
ATOM     18  H3  UNL     1      21.457  -2.976   1.177  1.00  0.00     0.162 HD
ENDBRANCH   8  11
BRANCH   6  19
HETATM   19  C5  UNL     1      21.361  -8.366   2.175  1.00  0.00     0.173 C 
BRANCH  19  20
HETATM   20  O1  UNL     1      20.216  -7.919   2.779  1.00  0.00    -0.344 OA
ATOM     21  H1  UNL     1      20.279  -7.538   3.648  1.00  0.00     0.219 HD
ENDBRANCH  19  20
BRANCH  19  22
HETATM   22  N2  UNL     1      22.183  -9.038   2.870  1.00  0.00    -0.247 N 
ATOM     23  H2  UNL     1      22.865  -8.515   3.420  1.00  0.00     0.196 HD
BRANCH  22  24
HETATM   24  O2  UNL     1      22.231 -10.384   2.944  1.00  0.00    -0.288 OA
ATOM     25  H2  UNL     1      23.016 -10.913   2.864  1.00  0.00     0.244 HD
ENDBRANCH  22  24
ENDBRANCH  19  22
ENDBRANCH   6  19
TORSDOF 5
ENDMDL
MODEL 3
REMARK VINA RESULT: -6.768894949      3.774      4.821
REMARK  5 active torsions:
REMARK  status: ('A' for Active; 'I' for Inactive)
REMARK    1  A    between atoms: C4_6  and  C5_7 
REMARK    2  A    between atoms: C5_7  and  O1_8 
REMARK    3  A    between atoms: C5_7  and  N2_10 
REMARK    4  A    between atoms: N2_10  and  O2_12 
REMARK    5  A    between atoms: C7_15  and  N3_16 
ROOT
HETATM    1  N1  UNL     1      20.388  -9.782   0.085  1.00  0.00    -0.093 NA
HETATM    2  C1  UNL     1      20.888  -8.451  -0.102  1.00  0.00     0.102 A 
HETATM    3  S1  UNL     1      21.564  -7.821  -1.524  1.00  0.00    -0.078 SA
HETATM    4  C2  UNL     1      21.907  -6.241  -0.980  1.00  0.00    -0.008 A 
HETATM    5  C3  UNL     1      21.483  -6.248   0.300  1.00  0.00    -0.026 A 
HETATM    6  C4  UNL     1      20.944  -7.399   0.782  1.00  0.00     0.055 A 
HETATM    7  C6  UNL     1      21.652  -4.968   1.105  1.00  0.00     0.065 C 
HETATM    8  C7  UNL     1      22.466  -3.977   0.381  1.00  0.00     0.088 C 
HETATM    9  C11 UNL     1      22.085  -3.814  -1.090  1.00  0.00     0.030 C 
HETATM   10  C12 UNL     1      22.524  -5.113  -1.729  1.00  0.00     0.049 C 
ENDROOT
BRANCH   8  11
HETATM   11  N3  UNL     1      22.236  -2.681   0.989  1.00  0.00    -0.366 N 
HETATM   12  C8  UNL     1      23.165  -1.905   1.372  1.00  0.00     0.140 C 
HETATM   13  N4  UNL     1      24.547  -2.101   1.303  1.00  0.00    -0.350 N 
HETATM   14  S2  UNL     1      22.996  -0.292   2.130  1.00  0.00    -0.089 SA
HETATM   15  C9  UNL     1      25.319  -1.280   1.812  1.00  0.00     0.073 C 
ATOM     16  H4  UNL     1      24.920  -2.925   0.831  1.00  0.00     0.167 HD
HETATM   17  C10 UNL     1      24.766  -0.095   2.491  1.00  0.00     0.127 C 
ATOM     18  H3  UNL     1      21.272  -2.375   1.117  1.00  0.00     0.162 HD
ENDBRANCH   8  11
BRANCH   6  19
HETATM   19  C5  UNL     1      20.412  -7.623   2.147  1.00  0.00     0.173 C 
BRANCH  19  20
HETATM   20  O1  UNL     1      21.020  -8.560   2.941  1.00  0.00    -0.344 OA
ATOM     21  H1  UNL     1      20.702  -8.678   3.829  1.00  0.00     0.219 HD
ENDBRANCH  19  20
BRANCH  19  22
HETATM   22  N2  UNL     1      19.420  -6.988   2.620  1.00  0.00    -0.247 N 
ATOM     23  H2  UNL     1      18.507  -7.175   2.207  1.00  0.00     0.196 HD
BRANCH  22  24
HETATM   24  O2  UNL     1      19.473  -6.087   3.623  1.00  0.00    -0.288 OA
ATOM     25  H2  UNL     1      19.786  -5.193   3.546  1.00  0.00     0.244 HD
ENDBRANCH  22  24
ENDBRANCH  19  22
ENDBRANCH   6  19
TORSDOF 5
ENDMDL
MODEL 4
REMARK VINA RESULT: -6.749752028      1.169      1.573
REMARK  5 active torsions:
REMARK  status: ('A' for Active; 'I' for Inactive)
REMARK    1  A    between atoms: C4_6  and  C5_7 
REMARK    2  A    between atoms: C5_7  and  O1_8 
REMARK    3  A    between atoms: C5_7  and  N2_10 
REMARK    4  A    between atoms: N2_10  and  O2_12 
REMARK    5  A    between atoms: C7_15  and  N3_16 
ROOT
HETATM    1  N1  UNL     1      22.483  -9.746  -0.033  1.00  0.00    -0.093 NA
HETATM    2  C1  UNL     1      21.987  -8.410   0.131  1.00  0.00     0.102 A 
HETATM    3  S1  UNL     1      21.360  -7.738   1.556  1.00  0.00    -0.078 SA
HETATM    4  C2  UNL     1      20.995  -6.176   0.978  1.00  0.00    -0.008 A 
HETATM    5  C3  UNL     1      21.372  -6.221  -0.316  1.00  0.00    -0.026 A 
HETATM    6  C4  UNL     1      21.897  -7.386  -0.782  1.00  0.00     0.055 A 
HETATM    7  C6  UNL     1      21.171  -4.966  -1.153  1.00  0.00     0.065 C 
HETATM    8  C7  UNL     1      20.381  -3.956  -0.431  1.00  0.00     0.088 C 
HETATM    9  C11 UNL     1      20.814  -3.747   1.020  1.00  0.00     0.030 C 
HETATM   10  C12 UNL     1      20.402  -5.026   1.714  1.00  0.00     0.049 C 
ENDROOT
BRANCH   8  11
HETATM   11  N3  UNL     1      20.586  -2.678  -1.086  1.00  0.00    -0.366 N 
HETATM   12  C8  UNL     1      19.643  -1.903  -1.433  1.00  0.00     0.140 C 
HETATM   13  N4  UNL     1      18.266  -2.082  -1.278  1.00  0.00    -0.350 N 
HETATM   14  S2  UNL     1      19.781  -0.312  -2.242  1.00  0.00    -0.089 SA
HETATM   15  C9  UNL     1      17.472  -1.267  -1.762  1.00  0.00     0.073 C 
ATOM     16  H4  UNL     1      17.914  -2.890  -0.763  1.00  0.00     0.167 HD
HETATM   17  C10 UNL     1      17.994  -0.106  -2.503  1.00  0.00     0.127 C 
ATOM     18  H3  UNL     1      21.544  -2.385  -1.278  1.00  0.00     0.162 HD
ENDBRANCH   8  11
BRANCH   6  19
HETATM   19  C5  UNL     1      22.380  -7.650  -2.158  1.00  0.00     0.173 C 
BRANCH  19  20
HETATM   20  O1  UNL     1      21.675  -8.526  -2.941  1.00  0.00    -0.344 OA
ATOM     21  H1  UNL     1      21.897  -8.589  -3.864  1.00  0.00     0.219 HD
ENDBRANCH  19  20
BRANCH  19  22
HETATM   22  N2  UNL     1      23.414  -7.104  -2.649  1.00  0.00    -0.247 N 
ATOM     23  H2  UNL     1      24.320  -7.461  -2.344  1.00  0.00     0.196 HD
BRANCH  22  24
HETATM   24  O2  UNL     1      23.418  -6.092  -3.540  1.00  0.00    -0.288 OA
ATOM     25  H2  UNL     1      23.127  -5.204  -3.368  1.00  0.00     0.244 HD
ENDBRANCH  22  24
ENDBRANCH  19  22
ENDBRANCH   6  19
TORSDOF 5
ENDMDL
MODEL 5
REMARK VINA RESULT: -6.585464235      3.392      4.538
REMARK  5 active torsions:
REMARK  status: ('A' for Active; 'I' for Inactive)
REMARK    1  A    between atoms: C4_6  and  C5_7 
REMARK    2  A    between atoms: C5_7  and  O1_8 
REMARK    3  A    between atoms: C5_7  and  N2_10 
REMARK    4  A    between atoms: N2_10  and  O2_12 
REMARK    5  A    between atoms: C7_15  and  N3_16 
ROOT
HETATM    1  N1  UNL     1      20.988 -10.016  -0.118  1.00  0.00    -0.093 NA
HETATM    2  C1  UNL     1      21.006  -8.584  -0.180  1.00  0.00     0.102 A 
HETATM    3  S1  UNL     1      20.207  -7.616  -1.321  1.00  0.00    -0.078 SA
HETATM    4  C2  UNL     1      20.694  -6.082  -0.759  1.00  0.00    -0.008 A 
HETATM    5  C3  UNL     1      21.469  -6.366   0.307  1.00  0.00    -0.026 A 
HETATM    6  C4  UNL     1      21.647  -7.675   0.629  1.00  0.00     0.055 A 
HETATM    7  C6  UNL     1      22.092  -5.198   1.058  1.00  0.00     0.065 C 
HETATM    8  C7  UNL     1      21.899  -3.928   0.338  1.00  0.00     0.088 C 
HETATM    9  C11 UNL     1      20.480  -3.722  -0.191  1.00  0.00     0.030 C 
HETATM   10  C12 UNL     1      20.351  -4.739  -1.303  1.00  0.00     0.049 C 
ENDROOT
BRANCH   8  11
HETATM   11  N3  UNL     1      22.126  -2.845   1.276  1.00  0.00    -0.366 N 
HETATM   12  C8  UNL     1      23.254  -2.293   1.458  1.00  0.00     0.140 C 
HETATM   13  N4  UNL     1      24.474  -2.578   0.837  1.00  0.00    -0.350 N 
HETATM   14  S2  UNL     1      23.646  -0.956   2.582  1.00  0.00    -0.089 SA
HETATM   15  C9  UNL     1      25.508  -2.006   1.202  1.00  0.00     0.073 C 
ATOM     16  H4  UNL     1      24.511  -3.261   0.080  1.00  0.00     0.167 HD
HETATM   17  C10 UNL     1      25.439  -1.022   2.296  1.00  0.00     0.127 C 
ATOM     18  H3  UNL     1      21.332  -2.508   1.820  1.00  0.00     0.162 HD
ENDBRANCH   8  11
BRANCH   6  19
HETATM   19  C5  UNL     1      22.447  -8.207   1.757  1.00  0.00     0.173 C 
BRANCH  19  20
HETATM   20  O1  UNL     1      23.781  -7.899   1.816  1.00  0.00    -0.344 OA
ATOM     21  H1  UNL     1      24.270  -7.843   1.003  1.00  0.00     0.219 HD
ENDBRANCH  19  20
BRANCH  19  22
HETATM   22  N2  UNL     1      21.958  -8.936   2.675  1.00  0.00    -0.247 N 
ATOM     23  H2  UNL     1      21.339  -8.484   3.348  1.00  0.00     0.196 HD
BRANCH  22  24
HETATM   24  O2  UNL     1      22.188 -10.255   2.834  1.00  0.00    -0.288 OA
ATOM     25  H2  UNL     1      22.233 -10.711   3.666  1.00  0.00     0.244 HD
ENDBRANCH  22  24
ENDBRANCH  19  22
ENDBRANCH   6  19
TORSDOF 5
ENDMDL
