MODEL 1
REMARK VINA RESULT: -6.741835049      0.000      0.000
REMARK  4 active torsions:
REMARK  status: ('A' for Active; 'I' for Inactive)
REMARK    1  A    between atoms: C6_8  and  N2_9 
REMARK    2  A    between atoms: N2_9  and  C7_11 
REMARK    3  A    between atoms: N3_13  and  O1_15 
REMARK    4  A    between atoms: C8_17  and  N4_18 
ROOT
HETATM    1  C1  UNL     1      10.836  -9.477 -27.375  1.00  0.00     0.068 C 
HETATM    2  C2  UNL     1      10.860 -10.087 -28.734  1.00  0.00     0.012 A 
HETATM    3  N1  UNL     1      11.410 -11.287 -28.989  1.00  0.00    -0.357 N 
ATOM      4  H1  UNL     1      11.831 -11.807 -28.220  1.00  0.00     0.166 HD
HETATM    5  C3  UNL     1      11.425 -11.826 -30.215  1.00  0.00     0.075 A 
HETATM    6  C4  UNL     1      12.007 -13.079 -30.451  1.00  0.00    -0.001 A 
HETATM    7  C5  UNL     1      12.606 -13.809 -29.332  1.00  0.00     0.053 C 
HETATM    8  C6  UNL     1      11.991 -13.576 -31.727  1.00  0.00     0.094 A 
HETATM    9  C8  UNL     1      11.408 -12.825 -32.715  1.00  0.00     0.169 A 
HETATM   10  O2  UNL     1      10.866 -11.637 -32.449  1.00  0.00    -0.289 OA
HETATM   11  C9  UNL     1      10.858 -11.123 -31.246  1.00  0.00     0.111 A 
HETATM   12  C10 UNL     1      10.274  -9.876 -31.039  1.00  0.00    -0.018 A 
HETATM   13  C11 UNL     1       9.656  -9.105 -32.145  1.00  0.00     0.052 C 
HETATM   14  C12 UNL     1      10.278  -9.359 -29.767  1.00  0.00    -0.031 A 
HETATM   15  C13 UNL     1       9.670  -8.036 -29.496  1.00  0.00     0.051 C 
ENDROOT
BRANCH   8  16
HETATM   16  N2  UNL     1      12.565 -14.829 -31.998  1.00  0.00    -0.331 N 
ATOM     17  H2  UNL     1      13.526 -14.853 -32.340  1.00  0.00     0.168 HD
BRANCH  16  18
HETATM   18  C7  UNL     1      11.892 -16.061 -31.825  1.00  0.00     0.175 C 
HETATM   19  S1  UNL     1      10.269 -16.334 -32.494  1.00  0.00    -0.011 SA
HETATM   20  N3  UNL     1      12.456 -16.999 -31.177  1.00  0.00    -0.246 N 
ATOM     21  H3  UNL     1      11.979 -17.892 -31.046  1.00  0.00     0.196 HD
BRANCH  20  22
HETATM   22  O1  UNL     1      13.706 -16.802 -30.655  1.00  0.00    -0.288 OA
ATOM     23  H1  UNL     1      14.184 -17.540 -30.294  1.00  0.00     0.244 HD
ENDBRANCH  20  22
ENDBRANCH  16  18
ENDBRANCH   8  16
BRANCH   9  24
HETATM   24  N4  UNL     1      11.365 -13.236 -33.918  1.00  0.00    -0.378 N 
ATOM     25  H42 UNL     1      11.910 -12.725 -34.612  1.00  0.00     0.158 HD
ATOM     26  H41 UNL     1      10.805 -14.048 -34.181  1.00  0.00     0.158 HD
ENDBRANCH   9  24
TORSDOF 4
ENDMDL
MODEL 2
REMARK VINA RESULT: -6.284339231      1.701      1.737
REMARK  4 active torsions:
REMARK  status: ('A' for Active; 'I' for Inactive)
REMARK    1  A    between atoms: C6_8  and  N2_9 
REMARK    2  A    between atoms: N2_9  and  C7_11 
REMARK    3  A    between atoms: N3_13  and  O1_15 
REMARK    4  A    between atoms: C8_17  and  N4_18 
ROOT
HETATM    1  C1  UNL     1      11.125  -9.768 -27.449  1.00  0.00     0.068 C 
HETATM    2  C2  UNL     1      11.125 -10.456 -28.771  1.00  0.00     0.012 A 
HETATM    3  N1  UNL     1      11.633 -11.687 -28.956  1.00  0.00    -0.357 N 
ATOM      4  H1  UNL     1      12.039 -12.175 -28.158  1.00  0.00     0.166 HD
HETATM    5  C3  UNL     1      11.628 -12.296 -30.149  1.00  0.00     0.075 A 
HETATM    6  C4  UNL     1      12.166 -13.579 -30.312  1.00  0.00    -0.001 A 
HETATM    7  C5  UNL     1      12.743 -14.264 -29.153  1.00  0.00     0.053 C 
HETATM    8  C6  UNL     1      12.130 -14.148 -31.557  1.00  0.00     0.094 A 
HETATM    9  C8  UNL     1      11.570 -13.437 -32.587  1.00  0.00     0.169 A 
HETATM   10  O2  UNL     1      11.069 -12.217 -32.390  1.00  0.00    -0.289 OA
HETATM   11  C9  UNL     1      11.082 -11.634 -31.219  1.00  0.00     0.111 A 
HETATM   12  C10 UNL     1      10.540 -10.358 -31.083  1.00  0.00    -0.018 A 
HETATM   13  C11 UNL     1       9.946  -9.632 -32.232  1.00  0.00     0.052 C 
HETATM   14  C12 UNL     1      10.565  -9.769 -29.844  1.00  0.00    -0.031 A 
HETATM   15  C13 UNL     1      10.003  -8.413 -29.650  1.00  0.00     0.051 C 
ENDROOT
BRANCH   8  16
HETATM   16  N2  UNL     1      12.661 -15.434 -31.755  1.00  0.00    -0.331 N 
ATOM     17  H2  UNL     1      12.070 -16.236 -31.532  1.00  0.00     0.168 HD
BRANCH  16  18
HETATM   18  C7  UNL     1      13.963 -15.685 -32.244  1.00  0.00     0.175 C 
HETATM   19  S1  UNL     1      15.403 -15.393 -31.243  1.00  0.00    -0.011 SA
HETATM   20  N3  UNL     1      14.116 -16.129 -33.426  1.00  0.00    -0.246 N 
ATOM     21  H3  UNL     1      15.052 -16.313 -33.789  1.00  0.00     0.196 HD
BRANCH  20  22
HETATM   22  O1  UNL     1      13.016 -16.358 -34.208  1.00  0.00    -0.288 OA
ATOM     23  H1  UNL     1      13.008 -16.047 -35.106  1.00  0.00     0.244 HD
ENDBRANCH  20  22
ENDBRANCH  16  18
ENDBRANCH   8  16
BRANCH   9  24
HETATM   24  N4  UNL     1      11.510 -13.915 -33.764  1.00  0.00    -0.378 N 
ATOM     25  H42 UNL     1      11.993 -14.795 -33.941  1.00  0.00     0.158 HD
ATOM     26  H41 UNL     1      10.996 -13.437 -34.505  1.00  0.00     0.158 HD
ENDBRANCH   9  24
TORSDOF 4
ENDMDL
MODEL 3
REMARK VINA RESULT: -5.943536589      2.177      2.537
REMARK  4 active torsions:
REMARK  status: ('A' for Active; 'I' for Inactive)
REMARK    1  A    between atoms: C6_8  and  N2_9 
REMARK    2  A    between atoms: N2_9  and  C7_11 
REMARK    3  A    between atoms: N3_13  and  O1_15 
REMARK    4  A    between atoms: C8_17  and  N4_18 
ROOT
HETATM    1  C1  UNL     1      10.887  -9.702 -27.765  1.00  0.00     0.068 C 
HETATM    2  C2  UNL     1      11.215 -10.703 -28.819  1.00  0.00     0.012 A 
HETATM    3  N1  UNL     1      11.806 -11.881 -28.552  1.00  0.00    -0.357 N 
ATOM      4  H1  UNL     1      12.043 -12.102 -27.585  1.00  0.00     0.166 HD
HETATM    5  C3  UNL     1      12.095 -12.774 -29.507  1.00  0.00     0.075 A 
HETATM    6  C4  UNL     1      12.713 -13.993 -29.198  1.00  0.00    -0.001 A 
HETATM    7  C5  UNL     1      13.044 -14.293 -27.803  1.00  0.00     0.053 C 
HETATM    8  C6  UNL     1      12.983 -14.864 -30.220  1.00  0.00     0.094 A 
HETATM    9  C8  UNL     1      12.638 -14.504 -31.497  1.00  0.00     0.169 A 
HETATM   10  O2  UNL     1      12.052 -13.333 -31.748  1.00  0.00    -0.289 OA
HETATM   11  C9  UNL     1      11.775 -12.470 -30.805  1.00  0.00     0.111 A 
HETATM   12  C10 UNL     1      11.161 -11.265 -31.138  1.00  0.00    -0.018 A 
HETATM   13  C11 UNL     1      10.809 -10.925 -32.538  1.00  0.00     0.052 C 
HETATM   14  C12 UNL     1      10.881 -10.378 -30.130  1.00  0.00    -0.031 A 
HETATM   15  C13 UNL     1      10.230  -9.083 -30.433  1.00  0.00     0.051 C 
ENDROOT
BRANCH   8  16
HETATM   16  N2  UNL     1      13.601 -16.096 -29.945  1.00  0.00    -0.331 N 
ATOM     17  H2  UNL     1      13.007 -16.920 -29.851  1.00  0.00     0.168 HD
BRANCH  16  18
HETATM   18  C7  UNL     1      14.997 -16.263 -29.791  1.00  0.00     0.175 C 
HETATM   19  S1  UNL     1      16.149 -15.578 -30.958  1.00  0.00    -0.011 SA
HETATM   20  N3  UNL     1      15.446 -16.917 -28.797  1.00  0.00    -0.246 N 
ATOM     21  H3  UNL     1      16.450 -17.044 -28.676  1.00  0.00     0.196 HD
BRANCH  20  22
HETATM   22  O1  UNL     1      14.569 -17.451 -27.890  1.00  0.00    -0.288 OA
ATOM     23  H1  UNL     1      14.639 -17.209 -26.974  1.00  0.00     0.244 HD
ENDBRANCH  20  22
ENDBRANCH  16  18
ENDBRANCH   8  16
BRANCH   9  24
HETATM   24  N4  UNL     1      12.865 -15.273 -32.485  1.00  0.00    -0.378 N 
ATOM     25  H42 UNL     1      13.317 -14.867 -33.304  1.00  0.00     0.158 HD
ATOM     26  H41 UNL     1      12.606 -16.259 -32.460  1.00  0.00     0.158 HD
ENDBRANCH   9  24
TORSDOF 4
ENDMDL
MODEL 4
REMARK VINA RESULT: -5.901392078      2.621      6.268
REMARK  4 active torsions:
REMARK  status: ('A' for Active; 'I' for Inactive)
REMARK    1  A    between atoms: C6_8  and  N2_9 
REMARK    2  A    between atoms: N2_9  and  C7_11 
REMARK    3  A    between atoms: N3_13  and  O1_15 
REMARK    4  A    between atoms: C8_17  and  N4_18 
ROOT
HETATM    1  C1  UNL     1      11.404 -14.782 -35.575  1.00  0.00     0.068 C 
HETATM    2  C2  UNL     1      11.586 -14.538 -34.116  1.00  0.00     0.012 A 
HETATM    3  N1  UNL     1      11.488 -13.318 -33.559  1.00  0.00    -0.357 N 
ATOM      4  H1  UNL     1      11.280 -12.520 -34.160  1.00  0.00     0.166 HD
HETATM    5  C3  UNL     1      11.652 -13.110 -32.247  1.00  0.00     0.075 A 
HETATM    6  C4  UNL     1      11.545 -11.826 -31.695  1.00  0.00    -0.001 A 
HETATM    7  C5  UNL     1      11.245 -10.695 -32.575  1.00  0.00     0.053 C 
HETATM    8  C6  UNL     1      11.724 -11.680 -30.345  1.00  0.00     0.094 A 
HETATM    9  C8  UNL     1      12.001 -12.793 -29.596  1.00  0.00     0.169 A 
HETATM   10  O2  UNL     1      12.096 -13.998 -30.160  1.00  0.00    -0.289 OA
HETATM   11  C9  UNL     1      11.932 -14.186 -31.444  1.00  0.00     0.111 A 
HETATM   12  C10 UNL     1      12.045 -15.472 -31.967  1.00  0.00    -0.018 A 
HETATM   13  C11 UNL     1      12.347 -16.644 -31.110  1.00  0.00     0.052 C 
HETATM   14  C12 UNL     1      11.868 -15.642 -33.318  1.00  0.00    -0.031 A 
HETATM   15  C13 UNL     1      11.978 -16.989 -33.921  1.00  0.00     0.051 C 
ENDROOT
BRANCH   8  16
HETATM   16  N2  UNL     1      11.623 -10.406 -29.760  1.00  0.00    -0.331 N 
ATOM     17  H2  UNL     1      12.422  -9.776 -29.841  1.00  0.00     0.168 HD
BRANCH  16  18
HETATM   18  C7  UNL     1      10.481  -9.944 -29.066  1.00  0.00     0.175 C 
HETATM   19  S1  UNL     1       9.005  -9.457 -29.926  1.00  0.00    -0.011 SA
HETATM   20  N3  UNL     1      10.505  -9.873 -27.795  1.00  0.00    -0.246 N 
ATOM     21  H3  UNL     1       9.687  -9.541 -27.284  1.00  0.00     0.196 HD
BRANCH  20  22
HETATM   22  O1  UNL     1      11.636 -10.245 -27.120  1.00  0.00    -0.288 OA
ATOM     23  H1  UNL     1      11.558 -10.749 -26.319  1.00  0.00     0.244 HD
ENDBRANCH  20  22
ENDBRANCH  16  18
ENDBRANCH   8  16
BRANCH   9  24
HETATM   24  N4  UNL     1      12.178 -12.717 -28.339  1.00  0.00    -0.378 N 
ATOM     25  H42 UNL     1      12.975 -13.215 -27.943  1.00  0.00     0.158 HD
ATOM     26  H41 UNL     1      11.546 -12.176 -27.746  1.00  0.00     0.158 HD
ENDBRANCH   9  24
TORSDOF 4
ENDMDL
MODEL 5
REMARK VINA RESULT: -5.889466062      7.723      9.329
REMARK  4 active torsions:
REMARK  status: ('A' for Active; 'I' for Inactive)
REMARK    1  A    between atoms: C6_8  and  N2_9 
REMARK    2  A    between atoms: N2_9  and  C7_11 
REMARK    3  A    between atoms: N3_13  and  O1_15 
REMARK    4  A    between atoms: C8_17  and  N4_18 
ROOT
HETATM    1  C1  UNL     1       9.860 -21.617 -32.708  1.00  0.00     0.068 C 
HETATM    2  C2  UNL     1       9.020 -20.584 -32.039  1.00  0.00     0.012 A 
HETATM    3  N1  UNL     1       8.673 -20.649 -30.742  1.00  0.00    -0.357 N 
ATOM      4  H1  UNL     1       8.997 -21.442 -30.187  1.00  0.00     0.166 HD
HETATM    5  C3  UNL     1       7.919 -19.715 -30.150  1.00  0.00     0.075 A 
HETATM    6  C4  UNL     1       7.572 -19.810 -28.796  1.00  0.00    -0.001 A 
HETATM    7  C5  UNL     1       8.048 -20.956 -28.017  1.00  0.00     0.053 C 
HETATM    8  C6  UNL     1       6.797 -18.821 -28.250  1.00  0.00     0.094 A 
HETATM    9  C8  UNL     1       6.397 -17.785 -29.052  1.00  0.00     0.169 A 
HETATM   10  O2  UNL     1       6.748 -17.731 -30.337  1.00  0.00    -0.289 OA
HETATM   11  C9  UNL     1       7.486 -18.652 -30.901  1.00  0.00     0.111 A 
HETATM   12  C10 UNL     1       7.816 -18.533 -32.249  1.00  0.00    -0.018 A 
HETATM   13  C11 UNL     1       7.355 -17.389 -33.072  1.00  0.00     0.052 C 
HETATM   14  C12 UNL     1       8.592 -19.513 -32.817  1.00  0.00    -0.031 A 
HETATM   15  C13 UNL     1       8.969 -19.432 -34.246  1.00  0.00     0.051 C 
ENDROOT
BRANCH   8  16
HETATM   16  N2  UNL     1       6.432 -18.887 -26.894  1.00  0.00    -0.331 N 
ATOM     17  H2  UNL     1       5.657 -19.497 -26.636  1.00  0.00     0.168 HD
BRANCH  16  18
HETATM   18  C7  UNL     1       7.074 -18.157 -25.867  1.00  0.00     0.175 C 
HETATM   19  S1  UNL     1       8.732 -18.538 -25.353  1.00  0.00    -0.011 SA
HETATM   20  N3  UNL     1       6.456 -17.205 -25.292  1.00  0.00    -0.246 N 
ATOM     21  H3  UNL     1       6.909 -16.672 -24.550  1.00  0.00     0.196 HD
BRANCH  20  22
HETATM   22  O1  UNL     1       5.177 -16.901 -25.678  1.00  0.00    -0.288 OA
ATOM     23  H1  UNL     1       4.671 -17.541 -26.165  1.00  0.00     0.244 HD
ENDBRANCH  20  22
ENDBRANCH  16  18
ENDBRANCH   8  16
BRANCH   9  24
HETATM   24  N4  UNL     1       5.676 -16.839 -28.598  1.00  0.00    -0.378 N 
ATOM     25  H42 UNL     1       5.697 -15.949 -29.097  1.00  0.00     0.158 HD
ATOM     26  H41 UNL     1       5.098 -16.965 -27.767  1.00  0.00     0.158 HD
ENDBRANCH   9  24
TORSDOF 4
ENDMDL
