MODEL 1
REMARK VINA RESULT: -6.861026703      0.000      0.000
REMARK  2 active torsions:
REMARK  status: ('A' for Active; 'I' for Inactive)
REMARK       I    between atoms: N1_1  and  C1_5 
REMARK       I    between atoms: C1_5  and  N2_6 
REMARK       I    between atoms: C1_5  and  N3_10 
REMARK    1  A    between atoms: C5_14  and  C6_15 
REMARK    2  A    between atoms: C6_15  and  N4_16 
ROOT
HETATM    1  N1  UNL     1      19.426  28.021  64.593  1.00  0.00    -0.032 N 
ATOM      2  H11 UNL     1      19.040  28.516  65.397  1.00  0.00     0.279 HD
ATOM      3  H12 UNL     1      18.812  28.043  63.779  1.00  0.00     0.279 HD
ATOM      4  H13 UNL     1      20.220  28.504  64.173  1.00  0.00     0.279 HD
HETATM    5  C1  UNL     1      19.749  26.667  65.028  1.00  0.00     0.486 C 
HETATM    6  N2  UNL     1      20.295  25.970  63.893  1.00  0.00    -0.032 N 
ATOM      7  H21 UNL     1      20.521  25.023  64.198  1.00  0.00     0.279 HD
ATOM      8  H22 UNL     1      21.088  26.453  63.473  1.00  0.00     0.279 HD
ATOM      9  H23 UNL     1      19.681  25.991  63.080  1.00  0.00     0.279 HD
HETATM   10  N3  UNL     1      18.604  25.982  65.546  1.00  0.00    -0.316 N 
HETATM   11  C2  UNL     1      17.639  26.652  66.219  1.00  0.00     0.094 A 
HETATM   12  C3  UNL     1      16.536  26.000  66.719  1.00  0.00     0.018 A 
HETATM   13  C4  UNL     1      16.358  24.643  66.564  1.00  0.00     0.011 A 
HETATM   14  C5  UNL     1      17.349  23.967  65.875  1.00  0.00    -0.024 A 
HETATM   15  C10 UNL     1      18.441  24.658  65.387  1.00  0.00     0.103 A 
ENDROOT
BRANCH  14  16
HETATM   16  C6  UNL     1      17.197  22.515  65.686  1.00  0.00     0.169 C 
BRANCH  16  17
HETATM   17  N4  UNL     1      16.298  22.163  64.633  1.00  0.00    -0.347 N 
HETATM   18  C7  UNL     1      14.973  21.961  64.727  1.00  0.00     0.109 A 
HETATM   19  C8  UNL     1      14.482  21.638  63.471  1.00  0.00     0.106 A 
HETATM   20  N5  UNL     1      15.550  21.655  62.633  1.00  0.00    -0.361 N 
HETATM   21  C9  UNL     1      16.638  21.973  63.346  1.00  0.00     0.182 A 
ATOM     22  H5  UNL     1      15.528  21.458  61.633  1.00  0.00     0.166 HD
ENDBRANCH  16  17
ENDBRANCH  14  16
TORSDOF 2
ENDMDL
MODEL 2
REMARK VINA RESULT: -6.802235943      0.610      1.175
REMARK  2 active torsions:
REMARK  status: ('A' for Active; 'I' for Inactive)
REMARK       I    between atoms: N1_1  and  C1_5 
REMARK       I    between atoms: C1_5  and  N2_6 
REMARK       I    between atoms: C1_5  and  N3_10 
REMARK    1  A    between atoms: C5_14  and  C6_15 
REMARK    2  A    between atoms: C6_15  and  N4_16 
ROOT
HETATM    1  N1  UNL     1      19.391  28.237  64.571  1.00  0.00    -0.032 N 
ATOM      2  H11 UNL     1      18.974  28.715  65.370  1.00  0.00     0.279 HD
ATOM      3  H12 UNL     1      18.781  28.222  63.753  1.00  0.00     0.279 HD
ATOM      4  H13 UNL     1      20.161  28.759  64.153  1.00  0.00     0.279 HD
HETATM    5  C1  UNL     1      19.780  26.905  65.016  1.00  0.00     0.486 C 
HETATM    6  N2  UNL     1      20.369  26.230  63.889  1.00  0.00    -0.032 N 
ATOM      7  H21 UNL     1      20.642  25.298  64.200  1.00  0.00     0.279 HD
ATOM      8  H22 UNL     1      21.139  26.752  63.471  1.00  0.00     0.279 HD
ATOM      9  H23 UNL     1      19.760  26.215  63.071  1.00  0.00     0.279 HD
HETATM   10  N3  UNL     1      18.670  26.164  65.531  1.00  0.00    -0.316 N 
HETATM   11  C2  UNL     1      17.666  26.786  66.194  1.00  0.00     0.094 A 
HETATM   12  C3  UNL     1      16.596  26.080  66.691  1.00  0.00     0.018 A 
HETATM   13  C4  UNL     1      16.490  24.715  66.542  1.00  0.00     0.011 A 
HETATM   14  C5  UNL     1      17.519  24.088  65.864  1.00  0.00    -0.024 A 
HETATM   15  C10 UNL     1      18.577  24.832  65.378  1.00  0.00     0.103 A 
ENDROOT
BRANCH  14  16
HETATM   16  C6  UNL     1      17.444  22.629  65.682  1.00  0.00     0.169 C 
BRANCH  16  17
HETATM   17  N4  UNL     1      17.049  22.232  64.367  1.00  0.00    -0.347 N 
HETATM   18  C7  UNL     1      17.849  22.000  63.312  1.00  0.00     0.109 A 
HETATM   19  C8  UNL     1      17.061  21.637  62.229  1.00  0.00     0.106 A 
HETATM   20  N5  UNL     1      15.778  21.661  62.672  1.00  0.00    -0.361 N 
HETATM   21  C9  UNL     1      15.785  22.021  63.961  1.00  0.00     0.182 A 
ATOM     22  H5  UNL     1      14.951  21.443  62.117  1.00  0.00     0.166 HD
ENDBRANCH  16  17
ENDBRANCH  14  16
TORSDOF 2
ENDMDL
MODEL 3
REMARK VINA RESULT: -6.645991984      1.763      2.681
REMARK  2 active torsions:
REMARK  status: ('A' for Active; 'I' for Inactive)
REMARK       I    between atoms: N1_1  and  C1_5 
REMARK       I    between atoms: C1_5  and  N2_6 
REMARK       I    between atoms: C1_5  and  N3_10 
REMARK    1  A    between atoms: C5_14  and  C6_15 
REMARK    2  A    between atoms: C6_15  and  N4_16 
ROOT
HETATM    1  N1  UNL     1      17.077  27.434  68.092  1.00  0.00    -0.032 N 
ATOM      2  H11 UNL     1      17.565  27.945  67.357  1.00  0.00     0.279 HD
ATOM      3  H12 UNL     1      17.709  27.028  68.782  1.00  0.00     0.279 HD
ATOM      4  H13 UNL     1      16.562  28.044  68.726  1.00  0.00     0.279 HD
HETATM    5  C1  UNL     1      16.229  26.441  67.443  1.00  0.00     0.486 C 
HETATM    6  N2  UNL     1      15.539  25.720  68.481  1.00  0.00    -0.032 N 
ATOM      7  H21 UNL     1      14.946  25.025  68.027  1.00  0.00     0.279 HD
ATOM      8  H22 UNL     1      15.025  26.330  69.115  1.00  0.00     0.279 HD
ATOM      9  H23 UNL     1      16.171  25.314  69.171  1.00  0.00     0.279 HD
HETATM   10  N3  UNL     1      16.982  25.549  66.615  1.00  0.00    -0.316 N 
HETATM   11  C2  UNL     1      18.080  25.978  65.949  1.00  0.00     0.094 A 
HETATM   12  C3  UNL     1      18.808  25.126  65.153  1.00  0.00     0.018 A 
HETATM   13  C4  UNL     1      18.462  23.803  64.992  1.00  0.00     0.011 A 
HETATM   14  C5  UNL     1      17.340  23.373  65.676  1.00  0.00    -0.024 A 
HETATM   15  C10 UNL     1      16.634  24.259  66.467  1.00  0.00     0.103 A 
ENDROOT
BRANCH  14  16
HETATM   16  C6  UNL     1      16.935  21.965  65.532  1.00  0.00     0.169 C 
BRANCH  16  17
HETATM   17  N4  UNL     1      15.958  21.748  64.513  1.00  0.00    -0.347 N 
HETATM   18  C7  UNL     1      14.632  21.948  64.600  1.00  0.00     0.109 A 
HETATM   19  C8  UNL     1      14.051  21.615  63.385  1.00  0.00     0.106 A 
HETATM   20  N5  UNL     1      15.067  21.214  62.579  1.00  0.00    -0.361 N 
HETATM   21  C9  UNL     1      16.211  21.300  63.271  1.00  0.00     0.182 A 
ATOM     22  H5  UNL     1      14.976  20.901  61.613  1.00  0.00     0.166 HD
ENDBRANCH  16  17
ENDBRANCH  14  16
TORSDOF 2
ENDMDL
MODEL 4
REMARK VINA RESULT: -6.568253131      0.939      1.097
REMARK  2 active torsions:
REMARK  status: ('A' for Active; 'I' for Inactive)
REMARK       I    between atoms: N1_1  and  C1_5 
REMARK       I    between atoms: C1_5  and  N2_6 
REMARK       I    between atoms: C1_5  and  N3_10 
REMARK    1  A    between atoms: C5_14  and  C6_15 
REMARK    2  A    between atoms: C6_15  and  N4_16 
ROOT
HETATM    1  N1  UNL     1      19.023  27.901  64.827  1.00  0.00    -0.032 N 
ATOM      2  H11 UNL     1      18.564  28.205  65.686  1.00  0.00     0.279 HD
ATOM      3  H12 UNL     1      18.405  27.923  64.016  1.00  0.00     0.279 HD
ATOM      4  H13 UNL     1      19.713  28.570  64.487  1.00  0.00     0.279 HD
HETATM    5  C1  UNL     1      19.587  26.580  65.078  1.00  0.00     0.486 C 
HETATM    6  N2  UNL     1      20.235  26.152  63.866  1.00  0.00    -0.032 N 
ATOM      7  H21 UNL     1      20.629  25.228  64.042  1.00  0.00     0.279 HD
ATOM      8  H22 UNL     1      20.925  26.821  63.526  1.00  0.00     0.279 HD
ATOM      9  H23 UNL     1      19.617  26.174  63.055  1.00  0.00     0.279 HD
HETATM   10  N3  UNL     1      18.589  25.638  65.483  1.00  0.00    -0.316 N 
HETATM   11  C2  UNL     1      17.527  26.026  66.229  1.00  0.00     0.094 A 
HETATM   12  C3  UNL     1      16.564  25.126  66.621  1.00  0.00     0.018 A 
HETATM   13  C4  UNL     1      16.629  23.794  66.281  1.00  0.00     0.011 A 
HETATM   14  C5  UNL     1      17.717  23.405  65.519  1.00  0.00    -0.024 A 
HETATM   15  C10 UNL     1      18.663  24.340  65.143  1.00  0.00     0.103 A 
ENDROOT
BRANCH  14  16
HETATM   16  C6  UNL     1      17.824  21.989  65.132  1.00  0.00     0.169 C 
BRANCH  16  17
HETATM   17  N4  UNL     1      16.652  21.476  64.495  1.00  0.00    -0.347 N 
HETATM   18  C7  UNL     1      16.018  21.985  63.425  1.00  0.00     0.109 A 
HETATM   19  C8  UNL     1      14.926  21.181  63.132  1.00  0.00     0.106 A 
HETATM   20  N5  UNL     1      14.933  20.186  64.055  1.00  0.00    -0.361 N 
HETATM   21  C9  UNL     1      15.978  20.376  64.870  1.00  0.00     0.182 A 
ATOM     22  H5  UNL     1      14.257  19.425  64.118  1.00  0.00     0.166 HD
ENDBRANCH  16  17
ENDBRANCH  14  16
TORSDOF 2
ENDMDL
MODEL 5
REMARK VINA RESULT: -6.552493321      2.659      5.644
REMARK  2 active torsions:
REMARK  status: ('A' for Active; 'I' for Inactive)
REMARK       I    between atoms: N1_1  and  C1_5 
REMARK       I    between atoms: C1_5  and  N2_6 
REMARK       I    between atoms: C1_5  and  N3_10 
REMARK    1  A    between atoms: C5_14  and  C6_15 
REMARK    2  A    between atoms: C6_15  and  N4_16 
ROOT
HETATM    1  N1  UNL     1      19.568  18.309  66.745  1.00  0.00    -0.032 N 
ATOM      2  H11 UNL     1      20.204  18.342  65.949  1.00  0.00     0.279 HD
ATOM      3  H12 UNL     1      18.768  17.695  66.591  1.00  0.00     0.279 HD
ATOM      4  H13 UNL     1      19.959  17.818  67.548  1.00  0.00     0.279 HD
HETATM    5  C1  UNL     1      19.181  19.681  67.050  1.00  0.00     0.486 C 
HETATM    6  N2  UNL     1      18.283  19.635  68.174  1.00  0.00    -0.032 N 
ATOM      7  H21 UNL     1      18.012  20.595  68.388  1.00  0.00     0.279 HD
ATOM      8  H22 UNL     1      18.675  19.143  68.977  1.00  0.00     0.279 HD
ATOM      9  H23 UNL     1      17.484  19.020  68.020  1.00  0.00     0.279 HD
HETATM   10  N3  UNL     1      18.566  20.328  65.932  1.00  0.00    -0.316 N 
HETATM   11  C2  UNL     1      18.953  20.045  64.665  1.00  0.00     0.094 A 
HETATM   12  C3  UNL     1      18.366  20.662  63.586  1.00  0.00     0.018 A 
HETATM   13  C4  UNL     1      17.363  21.594  63.735  1.00  0.00     0.011 A 
HETATM   14  C5  UNL     1      16.973  21.877  65.032  1.00  0.00    -0.024 A 
HETATM   15  C10 UNL     1      17.587  21.235  66.090  1.00  0.00     0.103 A 
ENDROOT
BRANCH  14  16
HETATM   16  C6  UNL     1      15.903  22.866  65.236  1.00  0.00     0.169 C 
BRANCH  16  17
HETATM   17  N4  UNL     1      16.336  24.053  65.903  1.00  0.00    -0.347 N 
HETATM   18  C7  UNL     1      15.651  24.775  66.807  1.00  0.00     0.109 A 
HETATM   19  C8  UNL     1      16.435  25.848  67.204  1.00  0.00     0.106 A 
HETATM   20  N5  UNL     1      17.598  25.741  66.512  1.00  0.00    -0.361 N 
HETATM   21  C9  UNL     1      17.525  24.656  65.733  1.00  0.00     0.182 A 
ATOM     22  H5  UNL     1      18.392  26.379  66.576  1.00  0.00     0.166 HD
ENDBRANCH  16  17
ENDBRANCH  14  16
TORSDOF 2
ENDMDL
