MODEL 1
REMARK VINA RESULT: -10.202010500      0.000      0.000
REMARK  3 active torsions:
REMARK  status: ('A' for Active; 'I' for Inactive)
REMARK    1  A    between atoms: C4_4  and  N1_5 
REMARK    2  A    between atoms: N1_5  and  C5_7 
REMARK    3  A    between atoms: C7_9  and  C8_10 
ROOT
HETATM    1  C5  UNL     1     -12.804   3.894 -18.712  1.00  0.00     0.047 A 
HETATM    2  C6  UNL     1     -12.664   2.764 -19.524  1.00  0.00     0.060 A 
HETATM    3  C7  UNL     1     -13.148   1.522 -19.165  1.00  0.00     0.045 A 
HETATM    4  N2  UNL     1     -13.775   1.434 -17.979  1.00  0.00    -0.355 N 
ATOM      5  H2  UNL     1     -14.147   0.533 -17.680  1.00  0.00     0.166 HD
HETATM    6  C14 UNL     1     -13.927   2.519 -17.165  1.00  0.00     0.045 A 
HETATM    7  C15 UNL     1     -14.576   2.379 -15.959  1.00  0.00     0.030 A 
HETATM    8  C16 UNL     1     -14.752   3.467 -15.094  1.00  0.00     0.002 A 
HETATM    9  C17 UNL     1     -14.276   4.710 -15.437  1.00  0.00     0.001 A 
HETATM   10  C18 UNL     1     -13.627   4.835 -16.649  1.00  0.00     0.016 A 
HETATM   11  C19 UNL     1     -13.449   3.770 -17.507  1.00  0.00     0.017 A 
ENDROOT
BRANCH   1  12
HETATM   12  N1  UNL     1     -12.343   5.000 -19.089  1.00  0.00    -0.355 N 
ATOM     13  H1  UNL     1     -11.452   5.280 -18.678  1.00  0.00     0.166 HD
BRANCH  12  14
HETATM   14  C4  UNL     1     -12.906   5.894 -20.007  1.00  0.00     0.032 A 
HETATM   15  C3  UNL     1     -14.257   6.173 -20.007  1.00  0.00     0.029 A 
HETATM   16  C2  UNL     1     -14.775   7.060 -20.928  1.00  0.00     0.002 A 
HETATM   17  C1  UNL     1     -13.942   7.672 -21.855  1.00  0.00     0.000 A 
HETATM   18  C21 UNL     1     -12.587   7.402 -21.868  1.00  0.00     0.002 A 
HETATM   19  C20 UNL     1     -12.071   6.514 -20.944  1.00  0.00     0.029 A 
ENDBRANCH  12  14
ENDBRANCH   1  12
BRANCH   3  20
HETATM   20  C8  UNL     1     -13.000   0.328 -20.024  1.00  0.00    -0.009 A 
HETATM   21  C9  UNL     1     -11.966   0.283 -20.927  1.00  0.00     0.013 A 
HETATM   22  C10 UNL     1     -11.807  -0.824 -21.741  1.00  0.00     0.001 A 
HETATM   23  C11 UNL     1     -12.669  -1.868 -21.654  1.00  0.00     0.000 A 
HETATM   24  C12 UNL     1     -13.710  -1.838 -20.754  1.00  0.00     0.001 A 
HETATM   25  C13 UNL     1     -13.867  -0.729 -19.939  1.00  0.00     0.013 A 
ENDBRANCH   3  20
TORSDOF 3
ENDMDL
MODEL 2
REMARK VINA RESULT: -10.194087954      0.046      1.408
REMARK  3 active torsions:
REMARK  status: ('A' for Active; 'I' for Inactive)
REMARK    1  A    between atoms: C4_4  and  N1_5 
REMARK    2  A    between atoms: N1_5  and  C5_7 
REMARK    3  A    between atoms: C7_9  and  C8_10 
ROOT
HETATM    1  C5  UNL     1     -12.782   3.932 -18.696  1.00  0.00     0.047 A 
HETATM    2  C6  UNL     1     -12.630   2.811 -19.518  1.00  0.00     0.060 A 
HETATM    3  C7  UNL     1     -13.112   1.563 -19.176  1.00  0.00     0.045 A 
HETATM    4  N2  UNL     1     -13.749   1.461 -17.997  1.00  0.00    -0.355 N 
ATOM      5  H2  UNL     1     -14.120   0.555 -17.710  1.00  0.00     0.166 HD
HETATM    6  C14 UNL     1     -13.913   2.537 -17.173  1.00  0.00     0.045 A 
HETATM    7  C15 UNL     1     -14.572   2.382 -15.974  1.00  0.00     0.030 A 
HETATM    8  C16 UNL     1     -14.761   3.460 -15.100  1.00  0.00     0.002 A 
HETATM    9  C17 UNL     1     -14.287   4.708 -15.426  1.00  0.00     0.001 A 
HETATM   10  C18 UNL     1     -13.628   4.848 -16.631  1.00  0.00     0.016 A 
HETATM   11  C19 UNL     1     -13.437   3.794 -17.498  1.00  0.00     0.017 A 
ENDROOT
BRANCH   1  12
HETATM   12  N1  UNL     1     -12.323   5.044 -19.058  1.00  0.00    -0.355 N 
ATOM     13  H1  UNL     1     -11.456   5.340 -18.609  1.00  0.00     0.166 HD
BRANCH  12  14
HETATM   14  C4  UNL     1     -12.859   5.925 -20.004  1.00  0.00     0.032 A 
HETATM   15  C3  UNL     1     -12.066   6.540 -20.950  1.00  0.00     0.029 A 
HETATM   16  C2  UNL     1     -12.631   7.402 -21.866  1.00  0.00     0.002 A 
HETATM   17  C1  UNL     1     -13.997   7.653 -21.839  1.00  0.00     0.000 A 
HETATM   18  C21 UNL     1     -14.805   7.045 -20.898  1.00  0.00     0.002 A 
HETATM   19  C20 UNL     1     -14.235   6.182 -19.982  1.00  0.00     0.029 A 
ENDBRANCH  12  14
ENDBRANCH   1  12
BRANCH   3  20
HETATM   20  C8  UNL     1     -12.952   0.379 -20.046  1.00  0.00    -0.009 A 
HETATM   21  C9  UNL     1     -13.843  -0.659 -19.926  1.00  0.00     0.013 A 
HETATM   22  C10 UNL     1     -13.712  -1.777 -20.730  1.00  0.00     0.001 A 
HETATM   23  C11 UNL     1     -12.707  -1.855 -21.639  1.00  0.00     0.000 A 
HETATM   24  C12 UNL     1     -11.807  -0.823 -21.771  1.00  0.00     0.001 A 
HETATM   25  C13 UNL     1     -11.939   0.296 -20.965  1.00  0.00     0.013 A 
ENDBRANCH   3  20
TORSDOF 3
ENDMDL
MODEL 3
REMARK VINA RESULT: -9.830618434      1.920      2.233
REMARK  3 active torsions:
REMARK  status: ('A' for Active; 'I' for Inactive)
REMARK    1  A    between atoms: C4_4  and  N1_5 
REMARK    2  A    between atoms: N1_5  and  C5_7 
REMARK    3  A    between atoms: C7_9  and  C8_10 
ROOT
HETATM    1  C5  UNL     1     -12.039   4.085 -18.003  1.00  0.00     0.047 A 
HETATM    2  C6  UNL     1     -11.252   3.078 -18.571  1.00  0.00     0.060 A 
HETATM    3  C7  UNL     1     -11.389   1.746 -18.234  1.00  0.00     0.045 A 
HETATM    4  N2  UNL     1     -12.326   1.443 -17.320  1.00  0.00    -0.355 N 
ATOM      5  H2  UNL     1     -12.457   0.470 -17.046  1.00  0.00     0.166 HD
HETATM    6  C14 UNL     1     -13.109   2.405 -16.748  1.00  0.00     0.045 A 
HETATM    7  C15 UNL     1     -14.056   2.046 -15.816  1.00  0.00     0.030 A 
HETATM    8  C16 UNL     1     -14.879   3.001 -15.205  1.00  0.00     0.002 A 
HETATM    9  C17 UNL     1     -14.755   4.331 -15.530  1.00  0.00     0.001 A 
HETATM   10  C18 UNL     1     -13.802   4.676 -16.466  1.00  0.00     0.016 A 
HETATM   11  C19 UNL     1     -12.987   3.744 -17.072  1.00  0.00     0.017 A 
ENDROOT
BRANCH   1  12
HETATM   12  N1  UNL     1     -11.871   5.283 -18.347  1.00  0.00    -0.355 N 
ATOM     13  H1  UNL     1     -11.257   5.839 -17.753  1.00  0.00     0.166 HD
BRANCH  12  14
HETATM   14  C4  UNL     1     -12.427   5.942 -19.449  1.00  0.00     0.032 A 
HETATM   15  C3  UNL     1     -11.645   6.395 -20.490  1.00  0.00     0.029 A 
HETATM   16  C2  UNL     1     -12.229   7.041 -21.560  1.00  0.00     0.002 A 
HETATM   17  C1  UNL     1     -13.604   7.237 -21.591  1.00  0.00     0.000 A 
HETATM   18  C21 UNL     1     -14.401   6.789 -20.556  1.00  0.00     0.002 A 
HETATM   19  C20 UNL     1     -13.812   6.142 -19.486  1.00  0.00     0.029 A 
ENDBRANCH  12  14
ENDBRANCH   1  12
BRANCH   3  20
HETATM   20  C8  UNL     1     -10.558   0.681 -18.835  1.00  0.00    -0.009 A 
HETATM   21  C9  UNL     1     -10.123   0.829 -20.129  1.00  0.00     0.013 A 
HETATM   22  C10 UNL     1      -9.344  -0.154 -20.713  1.00  0.00     0.001 A 
HETATM   23  C11 UNL     1      -9.005  -1.266 -20.012  1.00  0.00     0.000 A 
HETATM   24  C12 UNL     1      -9.432  -1.428 -18.715  1.00  0.00     0.001 A 
HETATM   25  C13 UNL     1     -10.212  -0.442 -18.132  1.00  0.00     0.013 A 
ENDBRANCH   3  20
TORSDOF 3
ENDMDL
MODEL 4
REMARK VINA RESULT: -9.825907067      1.914      2.139
REMARK  3 active torsions:
REMARK  status: ('A' for Active; 'I' for Inactive)
REMARK    1  A    between atoms: C4_4  and  N1_5 
REMARK    2  A    between atoms: N1_5  and  C5_7 
REMARK    3  A    between atoms: C7_9  and  C8_10 
ROOT
HETATM    1  C5  UNL     1     -11.994   4.086 -18.077  1.00  0.00     0.047 A 
HETATM    2  C6  UNL     1     -11.217   3.072 -18.644  1.00  0.00     0.060 A 
HETATM    3  C7  UNL     1     -11.352   1.743 -18.292  1.00  0.00     0.045 A 
HETATM    4  N2  UNL     1     -12.278   1.452 -17.363  1.00  0.00    -0.355 N 
ATOM      5  H2  UNL     1     -12.407   0.481 -17.078  1.00  0.00     0.166 HD
HETATM    6  C14 UNL     1     -13.052   2.421 -16.791  1.00  0.00     0.045 A 
HETATM    7  C15 UNL     1     -13.987   2.073 -15.844  1.00  0.00     0.030 A 
HETATM    8  C16 UNL     1     -14.801   3.036 -15.232  1.00  0.00     0.002 A 
HETATM    9  C17 UNL     1     -14.679   4.362 -15.572  1.00  0.00     0.001 A 
HETATM   10  C18 UNL     1     -13.737   4.696 -16.524  1.00  0.00     0.016 A 
HETATM   11  C19 UNL     1     -12.932   3.756 -17.131  1.00  0.00     0.017 A 
ENDROOT
BRANCH   1  12
HETATM   12  N1  UNL     1     -11.829   5.280 -18.435  1.00  0.00    -0.355 N 
ATOM     13  H1  UNL     1     -11.169   5.827 -17.883  1.00  0.00     0.166 HD
BRANCH  12  14
HETATM   14  C4  UNL     1     -12.443   5.945 -19.501  1.00  0.00     0.032 A 
HETATM   15  C3  UNL     1     -13.809   6.131 -19.547  1.00  0.00     0.029 A 
HETATM   16  C2  UNL     1     -14.378   6.794 -20.615  1.00  0.00     0.002 A 
HETATM   17  C1  UNL     1     -13.579   7.273 -21.645  1.00  0.00     0.000 A 
HETATM   18  C21 UNL     1     -12.210   7.094 -21.615  1.00  0.00     0.002 A 
HETATM   19  C20 UNL     1     -11.644   6.431 -20.543  1.00  0.00     0.029 A 
ENDBRANCH  12  14
ENDBRANCH   1  12
BRANCH   3  20
HETATM   20  C8  UNL     1     -10.530   0.671 -18.892  1.00  0.00    -0.009 A 
HETATM   21  C9  UNL     1     -10.217  -0.430 -18.134  1.00  0.00     0.013 A 
HETATM   22  C10 UNL     1      -9.450  -1.446 -18.675  1.00  0.00     0.001 A 
HETATM   23  C11 UNL     1      -9.003  -1.362 -19.954  1.00  0.00     0.000 A 
HETATM   24  C12 UNL     1      -9.309  -0.265 -20.726  1.00  0.00     0.001 A 
HETATM   25  C13 UNL     1     -10.077   0.751 -20.183  1.00  0.00     0.013 A 
ENDBRANCH   3  20
TORSDOF 3
ENDMDL
MODEL 5
REMARK VINA RESULT: -9.692010175      2.477      4.268
REMARK  3 active torsions:
REMARK  status: ('A' for Active; 'I' for Inactive)
REMARK    1  A    between atoms: C4_4  and  N1_5 
REMARK    2  A    between atoms: N1_5  and  C5_7 
REMARK    3  A    between atoms: C7_9  and  C8_10 
ROOT
HETATM    1  C5  UNL     1     -12.637   3.292 -16.861  1.00  0.00     0.047 A 
HETATM    2  C6  UNL     1     -12.411   1.936 -17.120  1.00  0.00     0.060 A 
HETATM    3  C7  UNL     1     -11.575   1.499 -18.128  1.00  0.00     0.045 A 
HETATM    4  N2  UNL     1     -10.971   2.442 -18.869  1.00  0.00    -0.355 N 
ATOM      5  H2  UNL     1     -10.346   2.158 -19.622  1.00  0.00     0.166 HD
HETATM    6  C14 UNL     1     -11.172   3.774 -18.640  1.00  0.00     0.045 A 
HETATM    7  C15 UNL     1     -10.532   4.704 -19.427  1.00  0.00     0.030 A 
HETATM    8  C16 UNL     1     -10.711   6.078 -19.227  1.00  0.00     0.002 A 
HETATM    9  C17 UNL     1     -11.540   6.530 -18.227  1.00  0.00     0.001 A 
HETATM   10  C18 UNL     1     -12.176   5.586 -17.447  1.00  0.00     0.016 A 
HETATM   11  C19 UNL     1     -12.006   4.231 -17.636  1.00  0.00     0.017 A 
ENDROOT
BRANCH   1  12
HETATM   12  N1  UNL     1     -13.409   3.634 -15.930  1.00  0.00    -0.355 N 
ATOM     13  H1  UNL     1     -13.136   3.345 -14.990  1.00  0.00     0.166 HD
BRANCH  12  14
HETATM   14  C4  UNL     1     -14.598   4.364 -16.029  1.00  0.00     0.032 A 
HETATM   15  C3  UNL     1     -15.502   4.139 -17.046  1.00  0.00     0.029 A 
HETATM   16  C2  UNL     1     -16.664   4.879 -17.111  1.00  0.00     0.002 A 
HETATM   17  C1  UNL     1     -16.926   5.852 -16.154  1.00  0.00     0.000 A 
HETATM   18  C21 UNL     1     -16.031   6.090 -15.130  1.00  0.00     0.002 A 
HETATM   19  C20 UNL     1     -14.868   5.346 -15.069  1.00  0.00     0.029 A 
ENDBRANCH  12  14
ENDBRANCH   1  12
BRANCH   3  20
HETATM   20  C8  UNL     1     -11.335   0.066 -18.400  1.00  0.00    -0.009 A 
HETATM   21  C9  UNL     1     -12.366  -0.700 -18.888  1.00  0.00     0.013 A 
HETATM   22  C10 UNL     1     -12.166  -2.043 -19.151  1.00  0.00     0.001 A 
HETATM   23  C11 UNL     1     -10.953  -2.611 -18.929  1.00  0.00     0.000 A 
HETATM   24  C12 UNL     1      -9.911  -1.858 -18.441  1.00  0.00     0.001 A 
HETATM   25  C13 UNL     1     -10.114  -0.513 -18.178  1.00  0.00     0.013 A 
ENDBRANCH   3  20
TORSDOF 3
ENDMDL
