MODEL 1
REMARK VINA RESULT: -6.357998173      0.000      0.000
REMARK  9 active torsions:
REMARK  status: ('A' for Active; 'I' for Inactive)
REMARK    1  A    between atoms: C2_2  and  O1_4 
REMARK    2  A    between atoms: O1_4  and  C4_5 
REMARK    3  A    between atoms: C6_9  and  N1_10 
REMARK       I    between atoms: N1_10  and  C7_12 
REMARK    4  A    between atoms: C7_12  and  C8_14 
REMARK    5  A    between atoms: C8_14  and  O3_15 
REMARK    6  A    between atoms: C8_14  and  N2_17 
REMARK    7  A    between atoms: N2_17  and  C9_18 
REMARK    8  A    between atoms: C16_26  and  O4_27 
REMARK    9  A    between atoms: O4_27  and  S2_28 
ROOT
HETATM    1  N1  UNL     1      12.904 -16.775  16.960  1.00  0.00    -0.311 N 
ATOM      2  H1  UNL     1      13.582 -16.731  17.721  1.00  0.00     0.170 HD
HETATM    3  C7  UNL     1      13.184 -17.526  15.794  1.00  0.00     0.311 C 
HETATM    4  O2  UNL     1      12.347 -17.593  14.886  1.00  0.00    -0.262 OA
ENDROOT
BRANCH   1   5
HETATM    5  C6  UNL     1      11.655 -16.075  17.058  1.00  0.00     0.116 A 
HETATM    6  S1  UNL     1      10.109 -16.685  17.431  1.00  0.00    -0.054 SA
HETATM    7  C5  UNL     1       9.202 -15.250  17.254  1.00  0.00     0.113 A 
HETATM    8  C4  UNL     1      10.141 -14.318  16.905  1.00  0.00     0.135 A 
HETATM    9 CL1  UNL     1       7.447 -15.059  17.463  1.00  0.00    -0.073 Cl
HETATM   10  C16 UNL     1      11.427 -14.750  16.802  1.00  0.00     0.158 A 
BRANCH   8  11
HETATM   11  O1  UNL     1       9.718 -12.968  16.671  1.00  0.00    -0.342 OA
BRANCH  11  12
HETATM   12  C2  UNL     1       9.343 -12.497  15.410  1.00  0.00     0.121 C 
HETATM   13  C1  UNL     1       7.846 -12.236  15.315  1.00  0.00     0.040 C 
HETATM   14  C3  UNL     1      10.116 -11.263  14.976  1.00  0.00     0.040 C 
ENDBRANCH  11  12
ENDBRANCH   8  11
BRANCH  10  15
HETATM   15  O4  UNL     1      12.503 -13.874  16.441  1.00  0.00    -0.227 OA
BRANCH  15  16
HETATM   16  S2  UNL     1      13.055 -13.786  14.844  1.00  0.00     0.266 S 
HETATM   17  C17 UNL     1      13.670 -12.168  14.419  1.00  0.00     0.194 C 
HETATM   18  O5  UNL     1      11.994 -14.159  13.858  1.00  0.00    -0.199 OA
HETATM   19  O6  UNL     1      14.204 -14.735  14.621  1.00  0.00    -0.199 OA
ENDBRANCH  15  16
ENDBRANCH  10  15
ENDBRANCH   1   5
BRANCH   3  20
HETATM   20  C8  UNL     1      14.514 -18.219  15.686  1.00  0.00     0.279 C 
BRANCH  20  21
HETATM   21  O3  UNL     1      14.828 -18.843  16.783  1.00  0.00    -0.332 OA
ATOM     22  H3  UNL     1      14.890 -19.782  16.653  1.00  0.00     0.220 HD
ENDBRANCH  20  21
BRANCH  20  23
HETATM   23  N2  UNL     1      15.323 -18.207  14.599  1.00  0.00    -0.413 NA
BRANCH  23  24
HETATM   24  C9  UNL     1      16.129 -18.195  13.511  1.00  0.00     0.198 C 
HETATM   25  C10 UNL     1      15.424 -17.725  12.209  1.00  0.00     0.312 C 
HETATM   26  N3  UNL     1      16.468 -17.485  11.204  1.00  0.00     0.091 N 
HETATM   27  C11 UNL     1      16.940 -16.116  11.462  1.00  0.00     0.273 C 
HETATM   28  C15 UNL     1      17.587 -18.409  11.383  1.00  0.00     0.273 C 
HETATM   29  C12 UNL     1      17.224 -15.989  12.939  1.00  0.00     0.038 C 
HETATM   30  C13 UNL     1      17.408 -17.377  13.553  1.00  0.00     0.026 C 
HETATM   31  C14 UNL     1      18.381 -18.110  12.621  1.00  0.00     0.038 C 
ENDBRANCH  23  24
ENDBRANCH  20  23
ENDBRANCH   3  20
TORSDOF 9
ENDMDL
MODEL 2
REMARK VINA RESULT: -6.242037385      1.632      2.222
REMARK  9 active torsions:
REMARK  status: ('A' for Active; 'I' for Inactive)
REMARK    1  A    between atoms: C2_2  and  O1_4 
REMARK    2  A    between atoms: O1_4  and  C4_5 
REMARK    3  A    between atoms: C6_9  and  N1_10 
REMARK       I    between atoms: N1_10  and  C7_12 
REMARK    4  A    between atoms: C7_12  and  C8_14 
REMARK    5  A    between atoms: C8_14  and  O3_15 
REMARK    6  A    between atoms: C8_14  and  N2_17 
REMARK    7  A    between atoms: N2_17  and  C9_18 
REMARK    8  A    between atoms: C16_26  and  O4_27 
REMARK    9  A    between atoms: O4_27  and  S2_28 
ROOT
HETATM    1  N1  UNL     1      13.626 -16.809  14.652  1.00  0.00    -0.311 N 
ATOM      2  H1  UNL     1      13.647 -16.849  13.634  1.00  0.00     0.170 HD
HETATM    3  C7  UNL     1      14.537 -17.574  15.419  1.00  0.00     0.311 C 
HETATM    4  O2  UNL     1      14.521 -17.501  16.653  1.00  0.00    -0.262 OA
ENDROOT
BRANCH   1   5
HETATM    5  C6  UNL     1      12.673 -15.975  15.328  1.00  0.00     0.116 A 
HETATM    6  S1  UNL     1      11.216 -16.413  16.093  1.00  0.00    -0.054 SA
HETATM    7  C5  UNL     1      10.670 -14.860  16.545  1.00  0.00     0.113 A 
HETATM    8  C4  UNL     1      11.653 -14.028  16.084  1.00  0.00     0.135 A 
HETATM    9 CL1  UNL     1       9.163 -14.460  17.398  1.00  0.00    -0.073 Cl
HETATM   10  C16 UNL     1      12.703 -14.612  15.445  1.00  0.00     0.158 A 
BRANCH   8  11
HETATM   11  O1  UNL     1      11.516 -12.616  16.296  1.00  0.00    -0.342 OA
BRANCH  11  12
HETATM   12  C2  UNL     1      11.016 -11.747  15.324  1.00  0.00     0.121 C 
HETATM   13  C1  UNL     1       9.745 -11.043  15.781  1.00  0.00     0.040 C 
HETATM   14  C3  UNL     1      12.036 -10.726  14.848  1.00  0.00     0.040 C 
ENDBRANCH  11  12
ENDBRANCH   8  11
BRANCH  10  15
HETATM   15  O4  UNL     1      13.795 -13.850  14.912  1.00  0.00    -0.227 OA
BRANCH  15  16
HETATM   16  S2  UNL     1      13.971 -13.632  13.244  1.00  0.00     0.266 S 
HETATM   17  C17 UNL     1      14.939 -12.191  12.840  1.00  0.00     0.194 C 
HETATM   18  O5  UNL     1      12.652 -13.521  12.547  1.00  0.00    -0.199 OA
HETATM   19  O6  UNL     1      14.691 -14.800  12.622  1.00  0.00    -0.199 OA
ENDBRANCH  15  16
ENDBRANCH  10  15
ENDBRANCH   1   5
BRANCH   3  20
HETATM   20  C8  UNL     1      15.501 -18.477  14.700  1.00  0.00     0.279 C 
BRANCH  20  21
HETATM   21  O3  UNL     1      15.553 -19.660  15.237  1.00  0.00    -0.332 OA
ATOM     22  H3  UNL     1      15.658 -20.343  14.585  1.00  0.00     0.220 HD
ENDBRANCH  20  21
BRANCH  20  23
HETATM   23  N2  UNL     1      16.252 -18.131  13.626  1.00  0.00    -0.413 NA
BRANCH  23  24
HETATM   24  C9  UNL     1      17.003 -17.785  12.553  1.00  0.00     0.198 C 
HETATM   25  C10 UNL     1      18.301 -18.623  12.397  1.00  0.00     0.312 C 
HETATM   26  N3  UNL     1      18.848 -18.344  11.062  1.00  0.00     0.091 N 
HETATM   27  C11 UNL     1      18.130 -19.255  10.157  1.00  0.00     0.273 C 
HETATM   28  C15 UNL     1      18.567 -16.966  10.660  1.00  0.00     0.273 C 
HETATM   29  C12 UNL     1      16.654 -19.135  10.445  1.00  0.00     0.038 C 
HETATM   30  C13 UNL     1      16.372 -17.820  11.172  1.00  0.00     0.026 C 
HETATM   31  C14 UNL     1      17.112 -16.742  10.369  1.00  0.00     0.038 C 
ENDBRANCH  23  24
ENDBRANCH  20  23
ENDBRANCH   3  20
TORSDOF 9
ENDMDL
MODEL 3
REMARK VINA RESULT: -6.222233304      1.341      1.868
REMARK  9 active torsions:
REMARK  status: ('A' for Active; 'I' for Inactive)
REMARK    1  A    between atoms: C2_2  and  O1_4 
REMARK    2  A    between atoms: O1_4  and  C4_5 
REMARK    3  A    between atoms: C6_9  and  N1_10 
REMARK       I    between atoms: N1_10  and  C7_12 
REMARK    4  A    between atoms: C7_12  and  C8_14 
REMARK    5  A    between atoms: C8_14  and  O3_15 
REMARK    6  A    between atoms: C8_14  and  N2_17 
REMARK    7  A    between atoms: N2_17  and  C9_18 
REMARK    8  A    between atoms: C16_26  and  O4_27 
REMARK    9  A    between atoms: O4_27  and  S2_28 
ROOT
HETATM    1  N1  UNL     1      13.800 -16.950  16.258  1.00  0.00    -0.311 N 
ATOM      2  H1  UNL     1      14.625 -16.734  16.817  1.00  0.00     0.170 HD
HETATM    3  C7  UNL     1      13.873 -17.898  15.209  1.00  0.00     0.311 C 
HETATM    4  O2  UNL     1      12.863 -18.173  14.552  1.00  0.00    -0.262 OA
ENDROOT
BRANCH   1   5
HETATM    5  C6  UNL     1      12.549 -16.299  16.524  1.00  0.00     0.116 A 
HETATM    6  S1  UNL     1      11.132 -16.940  17.219  1.00  0.00    -0.054 SA
HETATM    7  C5  UNL     1      10.126 -15.566  17.096  1.00  0.00     0.113 A 
HETATM    8  C4  UNL     1      10.933 -14.629  16.510  1.00  0.00     0.135 A 
HETATM    9 CL1  UNL     1       8.428 -15.433  17.604  1.00  0.00    -0.073 Cl
HETATM   10  C16 UNL     1      12.203 -15.013  16.210  1.00  0.00     0.158 A 
BRANCH   8  11
HETATM   11  O1  UNL     1      10.397 -13.324  16.251  1.00  0.00    -0.342 OA
BRANCH  11  12
HETATM   12  C2  UNL     1       9.744 -12.993  15.061  1.00  0.00     0.121 C 
HETATM   13  C1  UNL     1       8.274 -12.665  15.284  1.00  0.00     0.040 C 
HETATM   14  C3  UNL     1      10.421 -11.868  14.297  1.00  0.00     0.040 C 
ENDBRANCH  11  12
ENDBRANCH   8  11
BRANCH  10  15
HETATM   15  O4  UNL     1      13.145 -14.126  15.592  1.00  0.00    -0.227 OA
BRANCH  15  16
HETATM   16  S2  UNL     1      13.505 -14.251  13.944  1.00  0.00     0.266 S 
HETATM   17  C17 UNL     1      12.200 -15.030  13.014  1.00  0.00     0.194 C 
HETATM   18  O5  UNL     1      14.772 -15.008  13.699  1.00  0.00    -0.199 OA
HETATM   19  O6  UNL     1      13.692 -12.888  13.330  1.00  0.00    -0.199 OA
ENDBRANCH  15  16
ENDBRANCH  10  15
ENDBRANCH   1   5
BRANCH   3  20
HETATM   20  C8  UNL     1      15.200 -18.541  14.912  1.00  0.00     0.279 C 
BRANCH  20  21
HETATM   21  O3  UNL     1      15.456 -19.525  15.722  1.00  0.00    -0.332 OA
ATOM     22  H3  UNL     1      14.959 -19.460  16.529  1.00  0.00     0.220 HD
ENDBRANCH  20  21
BRANCH  20  23
HETATM   23  N2  UNL     1      16.058 -18.161  13.934  1.00  0.00    -0.413 NA
BRANCH  23  24
HETATM   24  C9  UNL     1      16.916 -17.781  12.957  1.00  0.00     0.198 C 
HETATM   25  C10 UNL     1      18.160 -18.701  12.819  1.00  0.00     0.312 C 
HETATM   26  N3  UNL     1      18.832 -18.349  11.561  1.00  0.00     0.091 N 
HETATM   27  C11 UNL     1      18.127 -19.117  10.524  1.00  0.00     0.273 C 
HETATM   28  C15 UNL     1      18.683 -16.923  11.272  1.00  0.00     0.273 C 
HETATM   29  C12 UNL     1      16.644 -18.908  10.711  1.00  0.00     0.038 C 
HETATM   30  C13 UNL     1      16.399 -17.644  11.536  1.00  0.00     0.026 C 
HETATM   31  C14 UNL     1      17.276 -16.560  10.896  1.00  0.00     0.038 C 
ENDBRANCH  23  24
ENDBRANCH  20  23
ENDBRANCH   3  20
TORSDOF 9
ENDMDL
MODEL 4
REMARK VINA RESULT: -6.152814459      3.005      4.962
REMARK  9 active torsions:
REMARK  status: ('A' for Active; 'I' for Inactive)
REMARK    1  A    between atoms: C2_2  and  O1_4 
REMARK    2  A    between atoms: O1_4  and  C4_5 
REMARK    3  A    between atoms: C6_9  and  N1_10 
REMARK       I    between atoms: N1_10  and  C7_12 
REMARK    4  A    between atoms: C7_12  and  C8_14 
REMARK    5  A    between atoms: C8_14  and  O3_15 
REMARK    6  A    between atoms: C8_14  and  N2_17 
REMARK    7  A    between atoms: N2_17  and  C9_18 
REMARK    8  A    between atoms: C16_26  and  O4_27 
REMARK    9  A    between atoms: O4_27  and  S2_28 
ROOT
HETATM    1  N1  UNL     1      15.908 -13.242  12.153  1.00  0.00    -0.311 N 
ATOM      2  H1  UNL     1      16.855 -13.435  12.479  1.00  0.00     0.170 HD
HETATM    3  C7  UNL     1      15.495 -13.659  10.865  1.00  0.00     0.311 C 
HETATM    4  O2  UNL     1      14.338 -13.443  10.486  1.00  0.00    -0.262 OA
ENDROOT
BRANCH   1   5
HETATM    5  C6  UNL     1      14.977 -12.544  12.994  1.00  0.00     0.116 A 
HETATM    6  S1  UNL     1      14.618 -10.881  13.047  1.00  0.00    -0.054 SA
HETATM    7  C5  UNL     1      13.505 -10.886  14.341  1.00  0.00     0.113 A 
HETATM    8  C4  UNL     1      13.439 -12.204  14.703  1.00  0.00     0.135 A 
HETATM    9 CL1  UNL     1      12.665  -9.483  15.039  1.00  0.00    -0.073 Cl
HETATM   10  C16 UNL     1      14.211 -13.073  13.996  1.00  0.00     0.158 A 
BRANCH   8  11
HETATM   11  O1  UNL     1      12.578 -12.579  15.786  1.00  0.00    -0.342 OA
BRANCH  11  12
HETATM   12  C2  UNL     1      11.248 -12.964  15.601  1.00  0.00     0.121 C 
HETATM   13  C1  UNL     1      10.878 -14.177  16.444  1.00  0.00     0.040 C 
HETATM   14  C3  UNL     1      10.257 -11.838  15.842  1.00  0.00     0.040 C 
ENDBRANCH  11  12
ENDBRANCH   8  11
BRANCH  10  15
HETATM   15  O4  UNL     1      14.234 -14.479  14.278  1.00  0.00    -0.227 OA
BRANCH  15  16
HETATM   16  S2  UNL     1      13.195 -15.545  13.475  1.00  0.00     0.266 S 
HETATM   17  C17 UNL     1      12.522 -16.792  14.557  1.00  0.00     0.194 C 
HETATM   18  O5  UNL     1      13.867 -16.232  12.329  1.00  0.00    -0.199 OA
HETATM   19  O6  UNL     1      12.010 -14.811  12.904  1.00  0.00    -0.199 OA
ENDBRANCH  15  16
ENDBRANCH  10  15
ENDBRANCH   1   5
BRANCH   3  20
HETATM   20  C8  UNL     1      16.494 -14.350   9.978  1.00  0.00     0.279 C 
BRANCH  20  21
HETATM   21  O3  UNL     1      16.923 -13.572   9.029  1.00  0.00    -0.332 OA
ATOM     22  H3  UNL     1      16.830 -13.971   8.172  1.00  0.00     0.220 HD
ENDBRANCH  20  21
BRANCH  20  23
HETATM   23  N2  UNL     1      16.912 -15.632  10.114  1.00  0.00    -0.413 NA
BRANCH  23  24
HETATM   24  C9  UNL     1      17.331 -16.913  10.247  1.00  0.00     0.198 C 
HETATM   25  C10 UNL     1      18.666 -17.061  11.027  1.00  0.00     0.312 C 
HETATM   26  N3  UNL     1      18.837 -18.486  11.342  1.00  0.00     0.091 N 
HETATM   27  C11 UNL     1      18.071 -18.698  12.580  1.00  0.00     0.273 C 
HETATM   28  C15 UNL     1      18.268 -19.326  10.289  1.00  0.00     0.273 C 
HETATM   29  C12 UNL     1      16.702 -18.091  12.394  1.00  0.00     0.038 C 
HETATM   30  C13 UNL     1      16.406 -17.924  10.903  1.00  0.00     0.026 C 
HETATM   31  C14 UNL     1      16.769 -19.270  10.261  1.00  0.00     0.038 C 
ENDBRANCH  23  24
ENDBRANCH  20  23
ENDBRANCH   3  20
TORSDOF 9
ENDMDL
MODEL 5
REMARK VINA RESULT: -6.139295660      4.426      8.315
REMARK  9 active torsions:
REMARK  status: ('A' for Active; 'I' for Inactive)
REMARK    1  A    between atoms: C2_2  and  O1_4 
REMARK    2  A    between atoms: O1_4  and  C4_5 
REMARK    3  A    between atoms: C6_9  and  N1_10 
REMARK       I    between atoms: N1_10  and  C7_12 
REMARK    4  A    between atoms: C7_12  and  C8_14 
REMARK    5  A    between atoms: C8_14  and  O3_15 
REMARK    6  A    between atoms: C8_14  and  N2_17 
REMARK    7  A    between atoms: N2_17  and  C9_18 
REMARK    8  A    between atoms: C16_26  and  O4_27 
REMARK    9  A    between atoms: O4_27  and  S2_28 
ROOT
HETATM    1  N1  UNL     1      15.919 -18.224  12.892  1.00  0.00    -0.311 N 
ATOM      2  H1  UNL     1      14.942 -17.940  12.817  1.00  0.00     0.170 HD
HETATM    3  C7  UNL     1      16.458 -18.616  14.141  1.00  0.00     0.311 C 
HETATM    4  O2  UNL     1      17.637 -18.981  14.218  1.00  0.00    -0.262 OA
ENDROOT
BRANCH   1   5
HETATM    5  C6  UNL     1      16.766 -18.229  11.733  1.00  0.00     0.116 A 
HETATM    6  S1  UNL     1      17.114 -19.509  10.665  1.00  0.00    -0.054 SA
HETATM    7  C5  UNL     1      18.236 -18.718   9.651  1.00  0.00     0.113 A 
HETATM    8  C4  UNL     1      18.310 -17.457  10.177  1.00  0.00     0.135 A 
HETATM    9 CL1  UNL     1      19.099 -19.411   8.260  1.00  0.00    -0.073 Cl
HETATM   10  C16 UNL     1      17.539 -17.201  11.268  1.00  0.00     0.158 A 
BRANCH   8  11
HETATM   11  O1  UNL     1      19.182 -16.502   9.557  1.00  0.00    -0.342 OA
BRANCH  11  12
HETATM   12  C2  UNL     1      20.563 -16.483   9.770  1.00  0.00     0.121 C 
HETATM   13  C1  UNL     1      20.922 -16.721  11.231  1.00  0.00     0.040 C 
HETATM   14  C3  UNL     1      21.321 -17.453   8.881  1.00  0.00     0.040 C 
ENDBRANCH  11  12
ENDBRANCH   8  11
BRANCH  10  15
HETATM   15  O4  UNL     1      17.529 -15.921  11.915  1.00  0.00    -0.227 OA
BRANCH  15  16
HETATM   16  S2  UNL     1      16.277 -14.816  11.638  1.00  0.00     0.266 S 
HETATM   17  C17 UNL     1      16.300 -14.155   9.984  1.00  0.00     0.194 C 
HETATM   18  O5  UNL     1      16.311 -13.673  12.602  1.00  0.00    -0.199 OA
HETATM   19  O6  UNL     1      14.933 -15.477  11.800  1.00  0.00    -0.199 OA
ENDBRANCH  15  16
ENDBRANCH  10  15
ENDBRANCH   1   5
BRANCH   3  20
HETATM   20  C8  UNL     1      15.572 -18.563  15.354  1.00  0.00     0.279 C 
BRANCH  20  21
HETATM   21  O3  UNL     1      16.046 -19.275  16.334  1.00  0.00    -0.332 OA
ATOM     22  H3  UNL     1      16.940 -19.553  16.172  1.00  0.00     0.220 HD
ENDBRANCH  20  21
BRANCH  20  23
HETATM   23  N2  UNL     1      14.407 -17.878  15.450  1.00  0.00    -0.413 NA
BRANCH  23  24
HETATM   24  C9  UNL     1      13.242 -17.193  15.547  1.00  0.00     0.198 C 
HETATM   25  C10 UNL     1      13.060 -16.448  16.898  1.00  0.00     0.312 C 
HETATM   26  N3  UNL     1      11.921 -15.534  16.747  1.00  0.00     0.091 N 
HETATM   27  C11 UNL     1      12.483 -14.321  16.134  1.00  0.00     0.273 C 
HETATM   28  C15 UNL     1      10.917 -16.094  15.843  1.00  0.00     0.273 C 
HETATM   29  C12 UNL     1      13.320 -14.738  14.950  1.00  0.00     0.038 C 
HETATM   30  C13 UNL     1      12.917 -16.143  14.499  1.00  0.00     0.026 C 
HETATM   31  C14 UNL     1      11.385 -16.123  14.417  1.00  0.00     0.038 C 
ENDBRANCH  23  24
ENDBRANCH  20  23
ENDBRANCH   3  20
TORSDOF 9
ENDMDL
