MODEL 1
REMARK VINA RESULT: -8.749257624      0.000      0.000
REMARK  2 active torsions:
REMARK  status: ('A' for Active; 'I' for Inactive)
REMARK       I    between atoms: C1_4  and  N2_5 
REMARK       I    between atoms: C1_4  and  N5_24 
REMARK       I    between atoms: N2_5  and  C2_7 
REMARK       I    between atoms: C2_7  and  N3_9 
REMARK    1  A    between atoms: N3_9  and  C3_11 
REMARK    2  A    between atoms: N5_24  and  C14_26 
ROOT
HETATM    1  N1  UNL     1     -21.365 -33.720   0.533  1.00  0.00    -0.235 N 
ATOM      2  H11 UNL     1     -21.560 -34.190   1.417  1.00  0.00     0.174 HD
ATOM      3  H12 UNL     1     -20.657 -32.994   0.414  1.00  0.00     0.174 HD
HETATM    4  C1  UNL     1     -22.040 -34.045  -0.513  1.00  0.00     0.676 C 
HETATM    5  N2  UNL     1     -21.771 -33.394  -1.736  1.00  0.00    -0.142 N 
ATOM      6  H2  UNL     1     -21.042 -32.681  -1.752  1.00  0.00     0.189 HD
HETATM    7  C2  UNL     1     -22.456 -33.679  -2.939  1.00  0.00     0.335 C 
HETATM    8  O1  UNL     1     -23.347 -34.550  -2.929  1.00  0.00    -0.246 OA
HETATM    9  N3  UNL     1     -22.144 -33.001  -4.114  1.00  0.00    -0.329 N 
ATOM     10  H3  UNL     1     -21.408 -32.295  -4.078  1.00  0.00     0.165 HD
HETATM   11  N5  UNL     1     -23.020 -35.050  -0.347  1.00  0.00    -0.222 N 
ATOM     12  H5  UNL     1     -23.994 -34.853  -0.579  1.00  0.00     0.178 HD
ENDROOT
BRANCH   9  13
HETATM   13  C3  UNL     1     -22.803 -33.237  -5.395  1.00  0.00     0.179 C 
HETATM   14  C4  UNL     1     -23.922 -32.295  -5.550  1.00  0.00     0.039 C 
HETATM   15  C5  UNL     1     -23.940 -31.402  -6.747  1.00  0.00    -0.010 C 
HETATM   16  C6  UNL     1     -24.131 -32.077  -8.029  1.00  0.00     0.009 C 
HETATM   17  C13 UNL     1     -22.758 -30.477  -6.635  1.00  0.00     0.030 C 
HETATM   18  C7  UNL     1     -23.273 -31.749  -9.187  1.00  0.00    -0.011 C 
HETATM   19  C8  UNL     1     -22.449 -32.961  -9.653  1.00  0.00     0.024 C 
HETATM   20  C12 UNL     1     -22.262 -30.643  -8.962  1.00  0.00     0.030 C 
HETATM   21  C9  UNL     1     -21.182 -33.061  -8.772  1.00  0.00     0.127 C 
HETATM   22  N4  UNL     1     -21.558 -32.392  -7.557  1.00  0.00    -0.346 N 
HETATM   23  C10 UNL     1     -21.807 -33.255  -6.484  1.00  0.00     0.243 C 
HETATM   24  C11 UNL     1     -21.675 -30.962  -7.572  1.00  0.00     0.088 C 
HETATM   25  O2  UNL     1     -21.035 -34.241  -6.430  1.00  0.00    -0.271 OA
ENDBRANCH   9  13
BRANCH  11  26
HETATM   26  C14 UNL     1     -22.645 -36.377   0.156  1.00  0.00     0.099 C 
HETATM   27  C15 UNL     1     -22.882 -37.363  -0.930  1.00  0.00     0.026 C 
HETATM   28  C16 UNL     1     -22.876 -38.797  -0.444  1.00  0.00     0.002 C 
HETATM   29  C17 UNL     1     -24.023 -38.901   0.560  1.00  0.00     0.000 C 
HETATM   30  C18 UNL     1     -23.667 -38.047   1.730  1.00  0.00     0.002 C 
HETATM   31  C19 UNL     1     -23.399 -36.616   1.411  1.00  0.00     0.026 C 
ENDBRANCH  11  26
TORSDOF 2
ENDMDL
MODEL 2
REMARK VINA RESULT: -8.717386532      0.984      1.046
REMARK  2 active torsions:
REMARK  status: ('A' for Active; 'I' for Inactive)
REMARK       I    between atoms: C1_4  and  N2_5 
REMARK       I    between atoms: C1_4  and  N5_24 
REMARK       I    between atoms: N2_5  and  C2_7 
REMARK       I    between atoms: C2_7  and  N3_9 
REMARK    1  A    between atoms: N3_9  and  C3_11 
REMARK    2  A    between atoms: N5_24  and  C14_26 
ROOT
HETATM    1  N1  UNL     1     -21.521 -34.331  -0.129  1.00  0.00    -0.235 N 
ATOM      2  H11 UNL     1     -21.636 -34.904   0.708  1.00  0.00     0.174 HD
ATOM      3  H12 UNL     1     -20.808 -33.609  -0.234  1.00  0.00     0.174 HD
HETATM    4  C1  UNL     1     -22.311 -34.513  -1.127  1.00  0.00     0.676 C 
HETATM    5  N2  UNL     1     -22.151 -33.721  -2.284  1.00  0.00    -0.142 N 
ATOM      6  H2  UNL     1     -21.407 -33.023  -2.292  1.00  0.00     0.189 HD
HETATM    7  C2  UNL     1     -22.967 -33.842  -3.433  1.00  0.00     0.335 C 
HETATM    8  O1  UNL     1     -23.878 -34.693  -3.432  1.00  0.00    -0.246 OA
HETATM    9  N3  UNL     1     -22.759 -33.029  -4.543  1.00  0.00    -0.329 N 
ATOM     10  H3  UNL     1     -22.002 -32.346  -4.501  1.00  0.00     0.165 HD
HETATM   11  N5  UNL     1     -23.298 -35.514  -0.981  1.00  0.00    -0.222 N 
ATOM     12  H5  UNL     1     -24.284 -35.274  -1.081  1.00  0.00     0.178 HD
ENDROOT
BRANCH   9  13
HETATM   13  C3  UNL     1     -23.555 -33.094  -5.765  1.00  0.00     0.179 C 
HETATM   14  C4  UNL     1     -24.076 -31.755  -6.081  1.00  0.00     0.039 C 
HETATM   15  C5  UNL     1     -23.755 -31.162  -7.414  1.00  0.00    -0.010 C 
HETATM   16  C6  UNL     1     -24.361 -31.835  -8.560  1.00  0.00     0.009 C 
HETATM   17  C13 UNL     1     -22.266 -30.945  -7.460  1.00  0.00     0.030 C 
HETATM   18  C7  UNL     1     -23.553 -32.156  -9.757  1.00  0.00    -0.011 C 
HETATM   19  C8  UNL     1     -23.474 -33.671 -10.007  1.00  0.00     0.024 C 
HETATM   20  C12 UNL     1     -22.115 -31.681  -9.724  1.00  0.00     0.030 C 
HETATM   21  C9  UNL     1     -22.350 -34.256  -9.121  1.00  0.00     0.127 C 
HETATM   22  N4  UNL     1     -22.244 -33.316  -8.038  1.00  0.00    -0.346 N 
HETATM   23  C10 UNL     1     -22.792 -33.768  -6.833  1.00  0.00     0.243 C 
HETATM   24  C11 UNL     1     -21.645 -32.039  -8.300  1.00  0.00     0.088 C 
HETATM   25  O2  UNL     1     -22.603 -34.987  -6.610  1.00  0.00    -0.271 OA
ENDBRANCH   9  13
BRANCH  11  26
HETATM   26  C14 UNL     1     -22.912 -36.899  -0.686  1.00  0.00     0.099 C 
HETATM   27  C15 UNL     1     -23.503 -37.773  -1.732  1.00  0.00     0.026 C 
HETATM   28  C16 UNL     1     -23.486 -39.241  -1.362  1.00  0.00     0.002 C 
HETATM   29  C17 UNL     1     -24.335 -39.362  -0.098  1.00  0.00     0.000 C 
HETATM   30  C18 UNL     1     -23.618 -38.634   0.989  1.00  0.00     0.002 C 
HETATM   31  C19 UNL     1     -23.329 -37.199   0.707  1.00  0.00     0.026 C 
ENDBRANCH  11  26
TORSDOF 2
ENDMDL
MODEL 3
REMARK VINA RESULT: -8.480776524      4.736      6.748
REMARK  2 active torsions:
REMARK  status: ('A' for Active; 'I' for Inactive)
REMARK       I    between atoms: C1_4  and  N2_5 
REMARK       I    between atoms: C1_4  and  N5_24 
REMARK       I    between atoms: N2_5  and  C2_7 
REMARK       I    between atoms: C2_7  and  N3_9 
REMARK    1  A    between atoms: N3_9  and  C3_11 
REMARK    2  A    between atoms: N5_24  and  C14_26 
ROOT
HETATM    1  N1  UNL     1     -22.733 -36.148   0.846  1.00  0.00    -0.235 N 
ATOM      2  H11 UNL     1     -22.287 -35.464   1.458  1.00  0.00     0.174 HD
ATOM      3  H12 UNL     1     -23.295 -36.932   1.177  1.00  0.00     0.174 HD
HETATM    4  C1  UNL     1     -22.593 -36.034  -0.428  1.00  0.00     0.676 C 
HETATM    5  N2  UNL     1     -23.209 -36.980  -1.275  1.00  0.00    -0.142 N 
ATOM      6  H2  UNL     1     -23.752 -37.729  -0.846  1.00  0.00     0.189 HD
HETATM    7  C2  UNL     1     -23.115 -36.943  -2.685  1.00  0.00     0.335 C 
HETATM    8  O1  UNL     1     -22.456 -36.030  -3.218  1.00  0.00    -0.246 OA
HETATM    9  N3  UNL     1     -23.747 -37.907  -3.466  1.00  0.00    -0.329 N 
ATOM     10  H3  UNL     1     -24.276 -38.637  -2.990  1.00  0.00     0.165 HD
HETATM   11  N5  UNL     1     -21.814 -34.947  -0.886  1.00  0.00    -0.222 N 
ATOM     12  H5  UNL     1     -20.994 -35.119  -1.467  1.00  0.00     0.178 HD
ENDROOT
BRANCH   9  13
HETATM   13  C3  UNL     1     -23.699 -37.938  -4.925  1.00  0.00     0.179 C 
HETATM   14  C4  UNL     1     -22.434 -38.550  -5.360  1.00  0.00     0.039 C 
HETATM   15  C5  UNL     1     -22.491 -39.746  -6.252  1.00  0.00    -0.010 C 
HETATM   16  C6  UNL     1     -23.011 -39.503  -7.595  1.00  0.00     0.009 C 
HETATM   17  C13 UNL     1     -23.131 -40.860  -5.466  1.00  0.00     0.030 C 
HETATM   18  C7  UNL     1     -24.023 -40.405  -8.185  1.00  0.00    -0.011 C 
HETATM   19  C8  UNL     1     -25.344 -39.673  -8.477  1.00  0.00     0.024 C 
HETATM   20  C12 UNL     1     -24.409 -41.601  -7.338  1.00  0.00     0.030 C 
HETATM   21  C9  UNL     1     -26.178 -39.628  -7.175  1.00  0.00     0.127 C 
HETATM   22  N4  UNL     1     -25.192 -39.739  -6.135  1.00  0.00    -0.346 N 
HETATM   23  C10 UNL     1     -24.935 -38.539  -5.462  1.00  0.00     0.243 C 
HETATM   24  C11 UNL     1     -24.565 -41.011  -5.922  1.00  0.00     0.088 C 
HETATM   25  O2  UNL     1     -25.951 -37.829  -5.274  1.00  0.00    -0.271 OA
ENDBRANCH   9  13
BRANCH  11  26
HETATM   26  C14 UNL     1     -22.180 -33.571  -0.530  1.00  0.00     0.099 C 
HETATM   27  C15 UNL     1     -21.740 -32.679  -1.635  1.00  0.00     0.026 C 
HETATM   28  C16 UNL     1     -21.732 -31.214  -1.251  1.00  0.00     0.002 C 
HETATM   29  C17 UNL     1     -20.730 -31.090  -0.105  1.00  0.00     0.000 C 
HETATM   30  C18 UNL     1     -21.291 -31.838   1.058  1.00  0.00     0.002 C 
HETATM   31  C19 UNL     1     -21.593 -33.275   0.800  1.00  0.00     0.026 C 
ENDBRANCH  11  26
TORSDOF 2
ENDMDL
MODEL 4
REMARK VINA RESULT: -8.363900958      1.320      1.793
REMARK  2 active torsions:
REMARK  status: ('A' for Active; 'I' for Inactive)
REMARK       I    between atoms: C1_4  and  N2_5 
REMARK       I    between atoms: C1_4  and  N5_24 
REMARK       I    between atoms: N2_5  and  C2_7 
REMARK       I    between atoms: C2_7  and  N3_9 
REMARK    1  A    between atoms: N3_9  and  C3_11 
REMARK    2  A    between atoms: N5_24  and  C14_26 
ROOT
HETATM    1  N1  UNL     1     -20.923 -31.800  -0.741  1.00  0.00    -0.235 N 
ATOM      2  H11 UNL     1     -20.945 -32.042   0.250  1.00  0.00     0.174 HD
ATOM      3  H12 UNL     1     -20.289 -31.113  -1.148  1.00  0.00     0.174 HD
HETATM    4  C1  UNL     1     -21.736 -32.385  -1.547  1.00  0.00     0.676 C 
HETATM    5  N2  UNL     1     -21.706 -32.050  -2.918  1.00  0.00    -0.142 N 
ATOM      6  H2  UNL     1     -21.034 -31.349  -3.228  1.00  0.00     0.189 HD
HETATM    7  C2  UNL     1     -22.557 -32.635  -3.884  1.00  0.00     0.335 C 
HETATM    8  O1  UNL     1     -23.381 -33.494  -3.514  1.00  0.00    -0.246 OA
HETATM    9  N3  UNL     1     -22.478 -32.261  -5.222  1.00  0.00    -0.329 N 
ATOM     10  H3  UNL     1     -21.790 -31.554  -5.482  1.00  0.00     0.165 HD
HETATM   11  N5  UNL     1     -22.615 -33.338  -0.982  1.00  0.00    -0.222 N 
ATOM     12  H5  UNL     1     -23.623 -33.222  -1.086  1.00  0.00     0.178 HD
ENDROOT
BRANCH   9  13
HETATM   13  C3  UNL     1     -23.319 -32.818  -6.278  1.00  0.00     0.179 C 
HETATM   14  C4  UNL     1     -24.168 -31.755  -6.839  1.00  0.00     0.039 C 
HETATM   15  C5  UNL     1     -24.094 -31.484  -8.306  1.00  0.00    -0.010 C 
HETATM   16  C6  UNL     1     -24.598 -32.551  -9.166  1.00  0.00     0.009 C 
HETATM   17  C13 UNL     1     -22.708 -30.972  -8.596  1.00  0.00     0.030 C 
HETATM   18  C7  UNL     1     -23.823 -32.997 -10.344  1.00  0.00    -0.011 C 
HETATM   19  C8  UNL     1     -23.398 -34.470 -10.228  1.00  0.00     0.024 C 
HETATM   20  C12 UNL     1     -22.542 -32.233 -10.614  1.00  0.00     0.030 C 
HETATM   21  C9  UNL     1     -22.107 -34.542  -9.380  1.00  0.00     0.127 C 
HETATM   22  N4  UNL     1     -22.155 -33.349  -8.581  1.00  0.00    -0.346 N 
HETATM   23  C10 UNL     1     -22.493 -33.571  -7.241  1.00  0.00     0.243 C 
HETATM   24  C11 UNL     1     -21.902 -32.090  -9.219  1.00  0.00     0.088 C 
HETATM   25  O2  UNL     1     -22.000 -34.617  -6.756  1.00  0.00    -0.271 OA
ENDBRANCH   9  13
BRANCH  11  26
HETATM   26  C14 UNL     1     -22.085 -34.492  -0.248  1.00  0.00     0.099 C 
HETATM   27  C15 UNL     1     -22.366 -35.713  -1.048  1.00  0.00     0.026 C 
HETATM   28  C16 UNL     1     -22.195 -36.994  -0.258  1.00  0.00     0.002 C 
HETATM   29  C17 UNL     1     -23.210 -36.920   0.880  1.00  0.00     0.000 C 
HETATM   30  C18 UNL     1     -22.792 -35.803   1.776  1.00  0.00     0.002 C 
HETATM   31  C19 UNL     1     -22.672 -34.472   1.115  1.00  0.00     0.026 C 
ENDBRANCH  11  26
TORSDOF 2
ENDMDL
MODEL 5
REMARK VINA RESULT: -8.244299385      4.067      6.131
REMARK  2 active torsions:
REMARK  status: ('A' for Active; 'I' for Inactive)
REMARK       I    between atoms: C1_4  and  N2_5 
REMARK       I    between atoms: C1_4  and  N5_24 
REMARK       I    between atoms: N2_5  and  C2_7 
REMARK       I    between atoms: C2_7  and  N3_9 
REMARK    1  A    between atoms: N3_9  and  C3_11 
REMARK    2  A    between atoms: N5_24  and  C14_26 
ROOT
HETATM    1  N1  UNL     1     -23.743 -35.569   1.493  1.00  0.00    -0.235 N 
ATOM      2  H11 UNL     1     -23.443 -34.833   2.133  1.00  0.00     0.174 HD
ATOM      3  H12 UNL     1     -24.509 -36.216   1.684  1.00  0.00     0.174 HD
HETATM    4  C1  UNL     1     -23.133 -35.710   0.370  1.00  0.00     0.676 C 
HETATM    5  N2  UNL     1     -23.547 -36.729  -0.515  1.00  0.00    -0.142 N 
ATOM      6  H2  UNL     1     -24.325 -37.325  -0.233  1.00  0.00     0.189 HD
HETATM    7  C2  UNL     1     -22.943 -36.966  -1.771  1.00  0.00     0.335 C 
HETATM    8  O1  UNL     1     -21.993 -36.241  -2.124  1.00  0.00    -0.246 OA
HETATM    9  N3  UNL     1     -23.398 -37.988  -2.598  1.00  0.00    -0.329 N 
ATOM     10  H3  UNL     1     -24.178 -38.558  -2.270  1.00  0.00     0.165 HD
HETATM   11  N5  UNL     1     -22.072 -34.814   0.107  1.00  0.00    -0.222 N 
ATOM     12  H5  UNL     1     -21.138 -35.175  -0.084  1.00  0.00     0.178 HD
ENDROOT
BRANCH   9  13
HETATM   13  C3  UNL     1     -22.829 -38.295  -3.908  1.00  0.00     0.179 C 
HETATM   14  C4  UNL     1     -22.912 -39.744  -4.149  1.00  0.00     0.039 C 
HETATM   15  C5  UNL     1     -23.630 -40.223  -5.369  1.00  0.00    -0.010 C 
HETATM   16  C6  UNL     1     -22.992 -39.893  -6.641  1.00  0.00     0.009 C 
HETATM   17  C13 UNL     1     -25.078 -39.842  -5.214  1.00  0.00     0.030 C 
HETATM   18  C7  UNL     1     -23.785 -39.336  -7.757  1.00  0.00    -0.011 C 
HETATM   19  C8  UNL     1     -23.318 -37.923  -8.146  1.00  0.00     0.024 C 
HETATM   20  C12 UNL     1     -25.274 -39.207  -7.505  1.00  0.00     0.030 C 
HETATM   21  C9  UNL     1     -23.988 -36.906  -7.193  1.00  0.00     0.127 C 
HETATM   22  N4  UNL     1     -24.281 -37.680  -6.018  1.00  0.00    -0.346 N 
HETATM   23  C10 UNL     1     -23.428 -37.425  -4.938  1.00  0.00     0.243 C 
HETATM   24  C11 UNL     1     -25.353 -38.631  -6.077  1.00  0.00     0.088 C 
HETATM   25  O2  UNL     1     -23.103 -36.221  -4.816  1.00  0.00    -0.271 OA
ENDBRANCH   9  13
BRANCH  11  26
HETATM   26  C14 UNL     1     -22.308 -33.365   0.106  1.00  0.00     0.099 C 
HETATM   27  C15 UNL     1     -21.699 -32.802  -1.127  1.00  0.00     0.026 C 
HETATM   28  C16 UNL     1     -21.556 -31.294  -1.085  1.00  0.00     0.002 C 
HETATM   29  C17 UNL     1     -20.628 -30.997   0.090  1.00  0.00     0.000 C 
HETATM   30  C18 UNL     1     -21.345 -31.396   1.335  1.00  0.00     0.002 C 
HETATM   31  C19 UNL     1     -21.785 -32.820   1.384  1.00  0.00     0.026 C 
ENDBRANCH  11  26
TORSDOF 2
ENDMDL
