MODEL 1
REMARK VINA RESULT: -8.549315611      0.000      0.000
REMARK  4 active torsions:
REMARK  status: ('A' for Active; 'I' for Inactive)
REMARK    1  A    between atoms: C2_2  and  C4_4 
REMARK    2  A    between atoms: C14_14  and  C15_15 
REMARK    3  A    between atoms: C16_18  and  O3_19 
REMARK    4  A    between atoms: C17_21  and  O4_22 
ROOT
HETATM    1  C4  UNL     1     -21.165 -32.402  -1.257  1.00  0.00     0.017 C 
HETATM    2  C5  UNL     1     -21.771 -31.468  -2.223  1.00  0.00     0.036 C 
HETATM    3  C6  UNL     1     -22.344 -32.054  -3.445  1.00  0.00    -0.022 C 
HETATM    4  C7  UNL     1     -22.143 -33.283  -3.883  1.00  0.00    -0.070 C 
HETATM    5  C8  UNL     1     -21.257 -34.135  -3.057  1.00  0.00     0.016 C 
HETATM    6  C9  UNL     1     -21.537 -35.609  -3.234  1.00  0.00     0.009 C 
HETATM    7  C10 UNL     1     -21.457 -35.875  -4.699  1.00  0.00     0.006 C 
HETATM    8  C11 UNL     1     -22.639 -35.220  -5.376  1.00  0.00    -0.002 C 
HETATM    9  C12 UNL     1     -22.539 -35.648  -6.819  1.00  0.00     0.007 C 
HETATM   10  C13 UNL     1     -23.148 -34.722  -7.800  1.00  0.00     0.024 C 
HETATM   11  C14 UNL     1     -22.696 -33.301  -7.642  1.00  0.00     0.081 C 
HETATM   12  C16 UNL     1     -21.408 -33.087  -8.447  1.00  0.00     0.166 C 
HETATM   13  C17 UNL     1     -20.663 -32.009  -7.644  1.00  0.00     0.148 C 
HETATM   14  C18 UNL     1     -20.890 -32.545  -6.244  1.00  0.00     0.041 C 
HETATM   15  C19 UNL     1     -22.357 -32.872  -6.271  1.00  0.00     0.022 C 
HETATM   16  C20 UNL     1     -22.796 -33.771  -5.155  1.00  0.00    -0.012 C 
HETATM   17  C21 UNL     1     -24.299 -33.489  -4.961  1.00  0.00     0.021 C 
HETATM   18  C22 UNL     1     -21.421 -33.854  -1.579  1.00  0.00     0.018 C 
ENDROOT
BRANCH   1  19
HETATM   19  C2  UNL     1     -21.728 -32.175   0.104  1.00  0.00    -0.089 C 
HETATM   20  C1  UNL     1     -21.609 -31.051   0.767  1.00  0.00     0.014 C 
HETATM   21  C3  UNL     1     -22.474 -33.304   0.741  1.00  0.00     0.043 C 
ENDBRANCH   1  19
BRANCH  11  22
HETATM   22  C15 UNL     1     -23.726 -32.445  -8.296  1.00  0.00     0.185 C 
HETATM   23  O1  UNL     1     -23.997 -31.284  -7.902  1.00  0.00    -0.647 OA
HETATM   24  O2  UNL     1     -24.426 -32.936  -9.388  1.00  0.00    -0.647 OA
ENDBRANCH  11  22
BRANCH  12  25
HETATM   25  O3  UNL     1     -21.642 -32.697  -9.743  1.00  0.00    -0.392 OA
ATOM     26  H3  UNL     1     -21.232 -31.869  -9.962  1.00  0.00     0.210 HD
ENDBRANCH  12  25
BRANCH  13  27
HETATM   27  O4  UNL     1     -19.319 -32.082  -7.938  1.00  0.00    -0.393 OA
ATOM     28  H4  UNL     1     -18.886 -31.310  -7.592  1.00  0.00     0.210 HD
ENDBRANCH  13  27
TORSDOF 4
ENDMDL
MODEL 2
REMARK VINA RESULT: -7.654458613      2.221      3.576
REMARK  4 active torsions:
REMARK  status: ('A' for Active; 'I' for Inactive)
REMARK    1  A    between atoms: C2_2  and  C4_4 
REMARK    2  A    between atoms: C14_14  and  C15_15 
REMARK    3  A    between atoms: C16_18  and  O3_19 
REMARK    4  A    between atoms: C17_21  and  O4_22 
ROOT
HETATM    1  C4  UNL     1     -23.090 -36.064  -1.343  1.00  0.00     0.017 C 
HETATM    2  C5  UNL     1     -24.201 -35.502  -2.132  1.00  0.00     0.036 C 
HETATM    3  C6  UNL     1     -23.860 -34.915  -3.437  1.00  0.00    -0.022 C 
HETATM    4  C7  UNL     1     -22.645 -34.609  -3.856  1.00  0.00    -0.070 C 
HETATM    5  C8  UNL     1     -21.539 -34.889  -2.912  1.00  0.00     0.016 C 
HETATM    6  C9  UNL     1     -20.217 -35.101  -3.612  1.00  0.00     0.009 C 
HETATM    7  C10 UNL     1     -20.005 -33.903  -4.473  1.00  0.00     0.006 C 
HETATM    8  C11 UNL     1     -21.001 -33.939  -5.610  1.00  0.00    -0.002 C 
HETATM    9  C12 UNL     1     -20.627 -32.768  -6.485  1.00  0.00     0.007 C 
HETATM   10  C13 UNL     1     -21.731 -32.196  -7.286  1.00  0.00     0.024 C 
HETATM   11  C14 UNL     1     -22.954 -31.878  -6.479  1.00  0.00     0.081 C 
HETATM   12  C16 UNL     1     -22.824 -30.462  -5.901  1.00  0.00     0.166 C 
HETATM   13  C17 UNL     1     -23.605 -30.545  -4.580  1.00  0.00     0.148 C 
HETATM   14  C18 UNL     1     -23.095 -31.881  -4.077  1.00  0.00     0.041 C 
HETATM   15  C19 UNL     1     -23.206 -32.739  -5.307  1.00  0.00     0.022 C 
HETATM   16  C20 UNL     1     -22.422 -34.014  -5.227  1.00  0.00    -0.012 C 
HETATM   17  C21 UNL     1     -23.116 -34.989  -6.198  1.00  0.00     0.021 C 
HETATM   18  C22 UNL     1     -21.789 -36.143  -2.104  1.00  0.00     0.018 C 
ENDROOT
BRANCH   1  19
HETATM   19  C2  UNL     1     -23.409 -37.459  -0.925  1.00  0.00    -0.089 C 
HETATM   20  C1  UNL     1     -23.241 -37.914   0.292  1.00  0.00     0.014 C 
HETATM   21  C3  UNL     1     -23.956 -38.385  -1.965  1.00  0.00     0.043 C 
ENDBRANCH   1  19
BRANCH  11  22
HETATM   22  C15 UNL     1     -24.098 -31.819  -7.431  1.00  0.00     0.185 C 
HETATM   23  O1  UNL     1     -25.287 -32.017  -7.082  1.00  0.00    -0.647 OA
HETATM   24  O2  UNL     1     -23.857 -31.534  -8.768  1.00  0.00    -0.647 OA
ENDBRANCH  11  22
BRANCH  12  25
HETATM   25  O3  UNL     1     -23.321 -29.492  -6.736  1.00  0.00    -0.392 OA
ATOM     26  H3  UNL     1     -23.581 -28.702  -6.276  1.00  0.00     0.210 HD
ENDBRANCH  12  25
BRANCH  13  27
HETATM   27  O4  UNL     1     -23.162 -29.552  -3.735  1.00  0.00    -0.393 OA
ATOM     28  H4  UNL     1     -23.750 -28.808  -3.799  1.00  0.00     0.210 HD
ENDBRANCH  13  27
TORSDOF 4
ENDMDL
MODEL 3
REMARK VINA RESULT: -7.642033572      2.090      4.076
REMARK  4 active torsions:
REMARK  status: ('A' for Active; 'I' for Inactive)
REMARK    1  A    between atoms: C2_2  and  C4_4 
REMARK    2  A    between atoms: C14_14  and  C15_15 
REMARK    3  A    between atoms: C16_18  and  O3_19 
REMARK    4  A    between atoms: C17_21  and  O4_22 
ROOT
HETATM    1  C4  UNL     1     -22.385 -32.636  -3.211  1.00  0.00     0.017 C 
HETATM    2  C5  UNL     1     -21.396 -33.514  -3.862  1.00  0.00     0.036 C 
HETATM    3  C6  UNL     1     -21.177 -33.314  -5.303  1.00  0.00    -0.022 C 
HETATM    4  C7  UNL     1     -21.951 -32.618  -6.116  1.00  0.00    -0.070 C 
HETATM    5  C8  UNL     1     -23.142 -31.988  -5.504  1.00  0.00     0.016 C 
HETATM    6  C9  UNL     1     -23.616 -30.775  -6.269  1.00  0.00     0.009 C 
HETATM    7  C10 UNL     1     -23.810 -31.221  -7.678  1.00  0.00     0.006 C 
HETATM    8  C11 UNL     1     -22.456 -31.500  -8.289  1.00  0.00    -0.002 C 
HETATM    9  C12 UNL     1     -22.746 -31.818  -9.735  1.00  0.00     0.007 C 
HETATM   10  C13 UNL     1     -21.759 -32.695 -10.403  1.00  0.00     0.024 C 
HETATM   11  C14 UNL     1     -21.460 -33.950  -9.640  1.00  0.00     0.081 C 
HETATM   12  C16 UNL     1     -22.477 -35.032 -10.028  1.00  0.00     0.166 C 
HETATM   13  C17 UNL     1     -22.605 -35.874  -8.749  1.00  0.00     0.148 C 
HETATM   14  C18 UNL     1     -22.675 -34.757  -7.726  1.00  0.00     0.041 C 
HETATM   15  C19 UNL     1     -21.553 -33.859  -8.170  1.00  0.00     0.022 C 
HETATM   16  C20 UNL     1     -21.613 -32.482  -7.583  1.00  0.00    -0.012 C 
HETATM   17  C21 UNL     1     -20.165 -31.956  -7.608  1.00  0.00     0.021 C 
HETATM   18  C22 UNL     1     -22.868 -31.512  -4.094  1.00  0.00     0.018 C 
ENDROOT
BRANCH   1  19
HETATM   19  C2  UNL     1     -21.788 -31.989  -2.008  1.00  0.00    -0.089 C 
HETATM   20  C1  UNL     1     -21.002 -32.606  -1.161  1.00  0.00     0.014 C 
HETATM   21  C3  UNL     1     -22.111 -30.549  -1.765  1.00  0.00     0.043 C 
ENDBRANCH   1  19
BRANCH  11  22
HETATM   22  C15 UNL     1     -20.142 -34.447 -10.124  1.00  0.00     0.185 C 
HETATM   23  O1  UNL     1     -19.420 -35.227  -9.456  1.00  0.00    -0.647 OA
HETATM   24  O2  UNL     1     -19.674 -34.040 -11.365  1.00  0.00    -0.647 OA
ENDBRANCH  11  22
BRANCH  12  25
HETATM   25  O3  UNL     1     -22.077 -35.784 -11.105  1.00  0.00    -0.392 OA
ATOM     26  H3  UNL     1     -22.453 -36.658 -11.108  1.00  0.00     0.210 HD
ENDBRANCH  12  25
BRANCH  13  27
HETATM   27  O4  UNL     1     -23.812 -36.536  -8.769  1.00  0.00    -0.393 OA
ATOM     28  H4  UNL     1     -24.072 -36.679  -9.672  1.00  0.00     0.210 HD
ENDBRANCH  13  27
TORSDOF 4
ENDMDL
MODEL 4
REMARK VINA RESULT: -7.589857097      3.251      4.723
REMARK  4 active torsions:
REMARK  status: ('A' for Active; 'I' for Inactive)
REMARK    1  A    between atoms: C2_2  and  C4_4 
REMARK    2  A    between atoms: C14_14  and  C15_15 
REMARK    3  A    between atoms: C16_18  and  O3_19 
REMARK    4  A    between atoms: C17_21  and  O4_22 
ROOT
HETATM    1  C4  UNL     1     -22.465 -31.705  -4.529  1.00  0.00     0.017 C 
HETATM    2  C5  UNL     1     -23.554 -32.312  -5.314  1.00  0.00     0.036 C 
HETATM    3  C6  UNL     1     -23.886 -33.715  -5.018  1.00  0.00    -0.022 C 
HETATM    4  C7  UNL     1     -23.148 -34.554  -4.313  1.00  0.00    -0.070 C 
HETATM    5  C8  UNL     1     -21.875 -34.017  -3.782  1.00  0.00     0.016 C 
HETATM    6  C9  UNL     1     -21.403 -34.752  -2.550  1.00  0.00     0.009 C 
HETATM    7  C10 UNL     1     -21.357 -36.196  -2.919  1.00  0.00     0.006 C 
HETATM    8  C11 UNL     1     -22.773 -36.697  -3.092  1.00  0.00    -0.002 C 
HETATM    9  C12 UNL     1     -22.627 -38.179  -3.336  1.00  0.00     0.007 C 
HETATM   10  C13 UNL     1     -23.715 -38.804  -4.120  1.00  0.00     0.024 C 
HETATM   11  C14 UNL     1     -24.015 -38.088  -5.403  1.00  0.00     0.081 C 
HETATM   12  C16 UNL     1     -23.097 -38.626  -6.509  1.00  0.00     0.166 C 
HETATM   13  C17 UNL     1     -22.906 -37.413  -7.432  1.00  0.00     0.148 C 
HETATM   14  C18 UNL     1     -22.686 -36.339  -6.384  1.00  0.00     0.041 C 
HETATM   15  C19 UNL     1     -23.791 -36.630  -5.406  1.00  0.00     0.022 C 
HETATM   16  C20 UNL     1     -23.603 -35.974  -4.072  1.00  0.00    -0.012 C 
HETATM   17  C21 UNL     1     -25.018 -35.839  -3.473  1.00  0.00     0.021 C 
HETATM   18  C22 UNL     1     -21.999 -32.564  -3.379  1.00  0.00     0.018 C 
ENDROOT
BRANCH   1  19
HETATM   19  C2  UNL     1     -22.919 -30.419  -3.927  1.00  0.00    -0.089 C 
HETATM   20  C1  UNL     1     -23.439 -29.433  -4.614  1.00  0.00     0.014 C 
HETATM   21  C3  UNL     1     -22.767 -30.256  -2.447  1.00  0.00     0.043 C 
ENDBRANCH   1  19
BRANCH  11  22
HETATM   22  C15 UNL     1     -25.397 -38.479  -5.803  1.00  0.00     0.185 C 
HETATM   23  O1  UNL     1     -26.132 -39.207  -5.092  1.00  0.00    -0.647 OA
HETATM   24  O2  UNL     1     -25.910 -38.027  -7.010  1.00  0.00    -0.647 OA
ENDBRANCH  11  22
BRANCH  12  25
HETATM   25  O3  UNL     1     -23.630 -39.703  -7.174  1.00  0.00    -0.392 OA
ATOM     26  H3  UNL     1     -24.128 -39.455  -7.944  1.00  0.00     0.210 HD
ENDBRANCH  12  25
BRANCH  13  27
HETATM   27  O4  UNL     1     -21.743 -37.578  -8.152  1.00  0.00    -0.393 OA
ATOM     28  H4  UNL     1     -21.353 -36.726  -8.308  1.00  0.00     0.210 HD
ENDBRANCH  13  27
TORSDOF 4
ENDMDL
MODEL 5
REMARK VINA RESULT: -7.303428853      2.584      4.605
REMARK  4 active torsions:
REMARK  status: ('A' for Active; 'I' for Inactive)
REMARK    1  A    between atoms: C2_2  and  C4_4 
REMARK    2  A    between atoms: C14_14  and  C15_15 
REMARK    3  A    between atoms: C16_18  and  O3_19 
REMARK    4  A    between atoms: C17_21  and  O4_22 
ROOT
HETATM    1  C4  UNL     1     -23.780 -38.131  -4.040  1.00  0.00     0.017 C 
HETATM    2  C5  UNL     1     -22.684 -38.079  -5.023  1.00  0.00     0.036 C 
HETATM    3  C6  UNL     1     -22.193 -36.745  -5.402  1.00  0.00    -0.022 C 
HETATM    4  C7  UNL     1     -22.799 -35.597  -5.156  1.00  0.00    -0.070 C 
HETATM    5  C8  UNL     1     -24.087 -35.681  -4.431  1.00  0.00     0.016 C 
HETATM    6  C9  UNL     1     -24.409 -34.416  -3.669  1.00  0.00     0.009 C 
HETATM    7  C10 UNL     1     -24.329 -33.303  -4.658  1.00  0.00     0.006 C 
HETATM    8  C11 UNL     1     -22.882 -33.105  -5.049  1.00  0.00    -0.002 C 
HETATM    9  C12 UNL     1     -22.890 -31.890  -5.943  1.00  0.00     0.007 C 
HETATM   10  C13 UNL     1     -21.791 -31.822  -6.932  1.00  0.00     0.024 C 
HETATM   11  C14 UNL     1     -21.642 -33.072  -7.747  1.00  0.00     0.081 C 
HETATM   12  C16 UNL     1     -22.563 -32.991  -8.972  1.00  0.00     0.166 C 
HETATM   13  C17 UNL     1     -22.931 -34.459  -9.236  1.00  0.00     0.148 C 
HETATM   14  C18 UNL     1     -23.197 -34.906  -7.812  1.00  0.00     0.041 C 
HETATM   15  C19 UNL     1     -22.013 -34.335  -7.081  1.00  0.00     0.022 C 
HETATM   16  C20 UNL     1     -22.188 -34.286  -5.594  1.00  0.00    -0.012 C 
HETATM   17  C21 UNL     1     -20.762 -34.300  -5.008  1.00  0.00     0.021 C 
HETATM   18  C22 UNL     1     -24.088 -36.796  -3.408  1.00  0.00     0.018 C 
ENDROOT
BRANCH   1  19
HETATM   19  C2  UNL     1     -23.426 -39.047  -2.919  1.00  0.00    -0.089 C 
HETATM   20  C1  UNL     1     -23.176 -40.324  -3.068  1.00  0.00     0.014 C 
HETATM   21  C3  UNL     1     -23.351 -38.461  -1.544  1.00  0.00     0.043 C 
ENDBRANCH   1  19
BRANCH  11  22
HETATM   22  C15 UNL     1     -20.254 -33.071  -8.289  1.00  0.00     0.185 C 
HETATM   23  O1  UNL     1     -19.441 -32.136  -8.080  1.00  0.00    -0.647 OA
HETATM   24  O2  UNL     1     -19.822 -34.141  -9.060  1.00  0.00    -0.647 OA
ENDBRANCH  11  22
BRANCH  12  25
HETATM   25  O3  UNL     1     -21.963 -32.404 -10.058  1.00  0.00    -0.392 OA
ATOM     26  H3  UNL     1     -22.447 -31.657 -10.392  1.00  0.00     0.210 HD
ENDBRANCH  12  25
BRANCH  13  27
HETATM   27  O4  UNL     1     -24.111 -34.504  -9.945  1.00  0.00    -0.393 OA
ATOM     28  H4  UNL     1     -23.929 -34.804 -10.828  1.00  0.00     0.210 HD
ENDBRANCH  13  27
TORSDOF 4
ENDMDL
