MODEL 1
REMARK VINA RESULT: -7.180748251      0.000      0.000
REMARK  8 active torsions:
REMARK  status: ('A' for Active; 'I' for Inactive)
REMARK    1  A    between atoms: C10_10  and  O1_11 
REMARK    2  A    between atoms: O1_11  and  C11_12 
REMARK    3  A    between atoms: C11_12  and  C12_13 
REMARK    4  A    between atoms: C12_13  and  C13_14 
REMARK    5  A    between atoms: C13_14  and  C14_15 
REMARK    6  A    between atoms: C14_15  and  N1_16 
REMARK    7  A    between atoms: C18_20  and  O2_21 
REMARK    8  A    between atoms: C20_24  and  O3_25 
ROOT
HETATM    1  C1  UNL     1     -26.327  25.170   4.388  1.00  0.00     0.020 C 
HETATM    2  C2  UNL     1     -26.814  23.736   4.320  1.00  0.00    -0.015 C 
HETATM    3  C3  UNL     1     -28.207  23.831   3.663  1.00  0.00     0.020 C 
HETATM    4  C4  UNL     1     -27.063  23.295   5.707  1.00  0.00    -0.017 C 
HETATM    5  C5  UNL     1     -26.244  22.448   6.293  1.00  0.00    -0.003 C 
HETATM    6  C6  UNL     1     -25.074  21.915   5.578  1.00  0.00     0.004 C 
HETATM    7  C7  UNL     1     -24.859  22.284   4.329  1.00  0.00    -0.054 A 
HETATM    8  C8  UNL     1     -24.754  22.785   2.944  1.00  0.00     0.024 A 
HETATM    9  C9  UNL     1     -23.842  23.908   2.595  1.00  0.00     0.024 C 
HETATM   10  C10 UNL     1     -25.289  21.891   1.824  1.00  0.00     0.164 A 
HETATM   11  C20 UNL     1     -26.625  21.905   2.509  1.00  0.00     0.163 A 
HETATM   12  C21 UNL     1     -26.005  22.824   3.567  1.00  0.00     0.036 A 
ENDROOT
BRANCH  10  13
HETATM   13  O1  UNL     1     -24.639  20.687   1.703  1.00  0.00    -0.382 OA
BRANCH  13  14
HETATM   14  C11 UNL     1     -23.790  20.680   0.627  1.00  0.00     0.168 C 
BRANCH  14  15
HETATM   15  C12 UNL     1     -22.340  20.841   0.927  1.00  0.00     0.028 C 
BRANCH  15  16
HETATM   16  C13 UNL     1     -21.855  19.645   1.708  1.00  0.00     0.032 C 
BRANCH  16  17
HETATM   17  C14 UNL     1     -21.722  19.900   3.180  1.00  0.00     0.272 C 
BRANCH  17  18
HETATM   18  N1  UNL     1     -21.450  18.699   3.902  1.00  0.00     0.090 N 
HETATM   19  C15 UNL     1     -21.266  18.876   5.304  1.00  0.00     0.272 C 
HETATM   20  C16 UNL     1     -22.539  19.264   6.040  1.00  0.00     0.033 C 
HETATM   21  C17 UNL     1     -23.486  18.077   5.898  1.00  0.00     0.035 C 
HETATM   22  C18 UNL     1     -23.711  17.877   4.421  1.00  0.00     0.146 C 
HETATM   23  C19 UNL     1     -22.421  17.660   3.668  1.00  0.00     0.303 C 
BRANCH  22  24
HETATM   24  O2  UNL     1     -24.460  18.923   3.938  1.00  0.00    -0.394 OA
ATOM     25  H2  UNL     1     -23.876  19.576   3.568  1.00  0.00     0.210 HD
ENDBRANCH  22  24
ENDBRANCH  17  18
ENDBRANCH  16  17
ENDBRANCH  15  16
ENDBRANCH  14  15
ENDBRANCH  13  14
ENDBRANCH  10  13
BRANCH  11  26
HETATM   26  O3  UNL     1     -26.992  20.708   3.134  1.00  0.00    -0.392 OA
ATOM     27  H3  UNL     1     -27.921  20.603   3.301  1.00  0.00     0.210 HD
ENDBRANCH  11  26
TORSDOF 8
ENDMDL
MODEL 2
REMARK VINA RESULT: -6.970600871      2.214      5.806
REMARK  8 active torsions:
REMARK  status: ('A' for Active; 'I' for Inactive)
REMARK    1  A    between atoms: C10_10  and  O1_11 
REMARK    2  A    between atoms: O1_11  and  C11_12 
REMARK    3  A    between atoms: C11_12  and  C12_13 
REMARK    4  A    between atoms: C12_13  and  C13_14 
REMARK    5  A    between atoms: C13_14  and  C14_15 
REMARK    6  A    between atoms: C14_15  and  N1_16 
REMARK    7  A    between atoms: C18_20  and  O2_21 
REMARK    8  A    between atoms: C20_24  and  O3_25 
ROOT
HETATM    1  C1  UNL     1     -21.163  19.089   6.382  1.00  0.00     0.020 C 
HETATM    2  C2  UNL     1     -22.593  18.967   5.894  1.00  0.00    -0.015 C 
HETATM    3  C3  UNL     1     -23.368  20.035   6.695  1.00  0.00     0.020 C 
HETATM    4  C4  UNL     1     -23.107  17.668   6.372  1.00  0.00    -0.017 C 
HETATM    5  C5  UNL     1     -23.278  16.670   5.531  1.00  0.00    -0.003 C 
HETATM    6  C6  UNL     1     -22.972  16.830   4.101  1.00  0.00     0.004 C 
HETATM    7  C7  UNL     1     -22.537  17.996   3.661  1.00  0.00    -0.054 A 
HETATM    8  C8  UNL     1     -22.065  19.353   3.323  1.00  0.00     0.024 A 
HETATM    9  C9  UNL     1     -20.615  19.650   3.163  1.00  0.00     0.024 C 
HETATM   10  C10 UNL     1     -23.088  20.341   2.759  1.00  0.00     0.164 A 
HETATM   11  C20 UNL     1     -23.904  20.138   4.003  1.00  0.00     0.163 A 
HETATM   12  C21 UNL     1     -22.808  19.187   4.494  1.00  0.00     0.036 A 
ENDROOT
BRANCH  10  13
HETATM   13  O1  UNL     1     -23.637  19.962   1.559  1.00  0.00    -0.382 OA
BRANCH  13  14
HETATM   14  C11 UNL     1     -23.524  20.954   0.619  1.00  0.00     0.168 C 
BRANCH  14  15
HETATM   15  C12 UNL     1     -24.350  22.172   0.839  1.00  0.00     0.028 C 
BRANCH  15  16
HETATM   16  C13 UNL     1     -25.759  21.914   0.366  1.00  0.00     0.032 C 
BRANCH  16  17
HETATM   17  C14 UNL     1     -26.699  21.510   1.463  1.00  0.00     0.272 C 
BRANCH  17  18
HETATM   18  N1  UNL     1     -26.931  22.580   2.381  1.00  0.00     0.090 N 
HETATM   19  C15 UNL     1     -27.838  23.576   1.917  1.00  0.00     0.272 C 
HETATM   20  C16 UNL     1     -29.275  23.089   1.815  1.00  0.00     0.033 C 
HETATM   21  C17 UNL     1     -29.713  22.767   3.239  1.00  0.00     0.035 C 
HETATM   22  C18 UNL     1     -28.777  21.701   3.751  1.00  0.00     0.146 C 
HETATM   23  C19 UNL     1     -27.331  22.130   3.691  1.00  0.00     0.303 C 
BRANCH  22  24
HETATM   24  O2  UNL     1     -29.030  20.528   3.082  1.00  0.00    -0.394 OA
ATOM     25  H2  UNL     1     -29.970  20.428   2.978  1.00  0.00     0.210 HD
ENDBRANCH  22  24
ENDBRANCH  17  18
ENDBRANCH  16  17
ENDBRANCH  15  16
ENDBRANCH  14  15
ENDBRANCH  13  14
ENDBRANCH  10  13
BRANCH  11  26
HETATM   26  O3  UNL     1     -25.080  19.398   3.836  1.00  0.00    -0.392 OA
ATOM     27  H3  UNL     1     -25.371  18.916   4.601  1.00  0.00     0.210 HD
ENDBRANCH  11  26
TORSDOF 8
ENDMDL
MODEL 3
REMARK VINA RESULT: -6.936822201      2.175      4.256
REMARK  8 active torsions:
REMARK  status: ('A' for Active; 'I' for Inactive)
REMARK    1  A    between atoms: C10_10  and  O1_11 
REMARK    2  A    between atoms: O1_11  and  C11_12 
REMARK    3  A    between atoms: C11_12  and  C12_13 
REMARK    4  A    between atoms: C12_13  and  C13_14 
REMARK    5  A    between atoms: C13_14  and  C14_15 
REMARK    6  A    between atoms: C14_15  and  N1_16 
REMARK    7  A    between atoms: C18_20  and  O2_21 
REMARK    8  A    between atoms: C20_24  and  O3_25 
ROOT
HETATM    1  C1  UNL     1     -25.508  24.047   4.593  1.00  0.00     0.020 C 
HETATM    2  C2  UNL     1     -25.391  23.266   3.299  1.00  0.00    -0.015 C 
HETATM    3  C3  UNL     1     -24.326  24.028   2.482  1.00  0.00     0.020 C 
HETATM    4  C4  UNL     1     -26.657  23.452   2.562  1.00  0.00    -0.017 C 
HETATM    5  C5  UNL     1     -27.528  22.468   2.477  1.00  0.00    -0.003 C 
HETATM    6  C6  UNL     1     -27.254  21.165   3.102  1.00  0.00     0.004 C 
HETATM    7  C7  UNL     1     -26.114  20.982   3.740  1.00  0.00    -0.054 A 
HETATM    8  C8  UNL     1     -24.799  20.931   4.411  1.00  0.00     0.024 A 
HETATM    9  C9  UNL     1     -24.676  21.111   5.884  1.00  0.00     0.024 C 
HETATM   10  C10 UNL     1     -23.633  20.308   3.642  1.00  0.00     0.164 A 
HETATM   11  C20 UNL     1     -23.863  21.321   2.558  1.00  0.00     0.163 A 
HETATM   12  C21 UNL     1     -24.995  21.894   3.418  1.00  0.00     0.036 A 
ENDROOT
BRANCH  10  13
HETATM   13  O1  UNL     1     -23.806  18.981   3.332  1.00  0.00    -0.382 OA
BRANCH  13  14
HETATM   14  C11 UNL     1     -22.723  18.231   3.713  1.00  0.00     0.168 C 
BRANCH  14  15
HETATM   15  C12 UNL     1     -21.393  18.893   3.620  1.00  0.00     0.028 C 
BRANCH  15  16
HETATM   16  C13 UNL     1     -20.707  18.460   2.348  1.00  0.00     0.032 C 
BRANCH  16  17
HETATM   17  C14 UNL     1     -20.853  19.440   1.222  1.00  0.00     0.272 C 
BRANCH  17  18
HETATM   18  N1  UNL     1     -20.379  20.737   1.584  1.00  0.00     0.090 N 
HETATM   19  C15 UNL     1     -18.962  20.849   1.681  1.00  0.00     0.272 C 
HETATM   20  C16 UNL     1     -18.252  20.748   0.340  1.00  0.00     0.033 C 
HETATM   21  C17 UNL     1     -18.704  21.959  -0.468  1.00  0.00     0.035 C 
HETATM   22  C18 UNL     1     -20.203  21.858  -0.599  1.00  0.00     0.146 C 
HETATM   23  C19 UNL     1     -20.893  21.788   0.741  1.00  0.00     0.303 C 
BRANCH  22  24
HETATM   24  O2  UNL     1     -20.508  20.807  -1.430  1.00  0.00    -0.394 OA
ATOM     25  H2  UNL     1     -21.452  20.735  -1.503  1.00  0.00     0.210 HD
ENDBRANCH  22  24
ENDBRANCH  17  18
ENDBRANCH  16  17
ENDBRANCH  15  16
ENDBRANCH  14  15
ENDBRANCH  13  14
ENDBRANCH  10  13
BRANCH  11  26
HETATM   26  O3  UNL     1     -24.423  20.821   1.378  1.00  0.00    -0.392 OA
ATOM     27  H3  UNL     1     -24.399  21.411   0.634  1.00  0.00     0.210 HD
ENDBRANCH  11  26
TORSDOF 8
ENDMDL
MODEL 4
REMARK VINA RESULT: -6.935408250      1.046      1.469
REMARK  8 active torsions:
REMARK  status: ('A' for Active; 'I' for Inactive)
REMARK    1  A    between atoms: C10_10  and  O1_11 
REMARK    2  A    between atoms: O1_11  and  C11_12 
REMARK    3  A    between atoms: C11_12  and  C12_13 
REMARK    4  A    between atoms: C12_13  and  C13_14 
REMARK    5  A    between atoms: C13_14  and  C14_15 
REMARK    6  A    between atoms: C14_15  and  N1_16 
REMARK    7  A    between atoms: C18_20  and  O2_21 
REMARK    8  A    between atoms: C20_24  and  O3_25 
ROOT
HETATM    1  C1  UNL     1     -26.563  25.307   4.086  1.00  0.00     0.020 C 
HETATM    2  C2  UNL     1     -27.031  23.865   4.084  1.00  0.00    -0.015 C 
HETATM    3  C3  UNL     1     -28.376  23.896   3.329  1.00  0.00     0.020 C 
HETATM    4  C4  UNL     1     -27.371  23.516   5.478  1.00  0.00    -0.017 C 
HETATM    5  C5  UNL     1     -26.586  22.722   6.175  1.00  0.00    -0.003 C 
HETATM    6  C6  UNL     1     -25.364  22.159   5.579  1.00  0.00     0.004 C 
HETATM    7  C7  UNL     1     -25.067  22.445   4.326  1.00  0.00    -0.054 A 
HETATM    8  C8  UNL     1     -24.873  22.852   2.920  1.00  0.00     0.024 A 
HETATM    9  C9  UNL     1     -23.949  23.962   2.557  1.00  0.00     0.024 C 
HETATM   10  C10 UNL     1     -25.321  21.877   1.831  1.00  0.00     0.164 A 
HETATM   11  C20 UNL     1     -26.701  21.918   2.421  1.00  0.00     0.163 A 
HETATM   12  C21 UNL     1     -26.163  22.915   3.452  1.00  0.00     0.036 A 
ENDROOT
BRANCH  10  13
HETATM   13  O1  UNL     1     -24.653  20.677   1.836  1.00  0.00    -0.382 OA
BRANCH  13  14
HETATM   14  C11 UNL     1     -23.596  20.685   0.963  1.00  0.00     0.168 C 
BRANCH  14  15
HETATM   15  C12 UNL     1     -22.238  20.767   1.568  1.00  0.00     0.028 C 
BRANCH  15  16
HETATM   16  C13 UNL     1     -21.803  19.392   2.010  1.00  0.00     0.032 C 
BRANCH  16  17
HETATM   17  C14 UNL     1     -21.564  19.282   3.487  1.00  0.00     0.272 C 
BRANCH  17  18
HETATM   18  N1  UNL     1     -22.779  19.393   4.229  1.00  0.00     0.090 N 
HETATM   19  C15 UNL     1     -23.625  18.248   4.162  1.00  0.00     0.272 C 
HETATM   20  C16 UNL     1     -23.062  17.035   4.886  1.00  0.00     0.033 C 
HETATM   21  C17 UNL     1     -23.003  17.414   6.361  1.00  0.00     0.035 C 
HETATM   22  C18 UNL     1     -22.100  18.617   6.463  1.00  0.00     0.146 C 
HETATM   23  C19 UNL     1     -22.575  19.765   5.606  1.00  0.00     0.303 C 
BRANCH  22  24
HETATM   24  O2  UNL     1     -20.809  18.230   6.197  1.00  0.00    -0.394 OA
ATOM     25  H2  UNL     1     -20.564  17.536   6.798  1.00  0.00     0.210 HD
ENDBRANCH  22  24
ENDBRANCH  17  18
ENDBRANCH  16  17
ENDBRANCH  15  16
ENDBRANCH  14  15
ENDBRANCH  13  14
ENDBRANCH  10  13
BRANCH  11  26
HETATM   26  O3  UNL     1     -27.099  20.761   3.100  1.00  0.00    -0.392 OA
ATOM     27  H3  UNL     1     -27.623  20.152   2.595  1.00  0.00     0.210 HD
ENDBRANCH  11  26
TORSDOF 8
ENDMDL
MODEL 5
REMARK VINA RESULT: -6.775833345      2.044      2.932
REMARK  8 active torsions:
REMARK  status: ('A' for Active; 'I' for Inactive)
REMARK    1  A    between atoms: C10_10  and  O1_11 
REMARK    2  A    between atoms: O1_11  and  C11_12 
REMARK    3  A    between atoms: C11_12  and  C12_13 
REMARK    4  A    between atoms: C12_13  and  C13_14 
REMARK    5  A    between atoms: C13_14  and  C14_15 
REMARK    6  A    between atoms: C14_15  and  N1_16 
REMARK    7  A    between atoms: C18_20  and  O2_21 
REMARK    8  A    between atoms: C20_24  and  O3_25 
ROOT
HETATM    1  C1  UNL     1     -26.688  23.718   0.889  1.00  0.00     0.020 C 
HETATM    2  C2  UNL     1     -26.172  22.293   0.906  1.00  0.00    -0.015 C 
HETATM    3  C3  UNL     1     -26.401  21.782  -0.532  1.00  0.00     0.020 C 
HETATM    4  C4  UNL     1     -27.092  21.507   1.752  1.00  0.00    -0.017 C 
HETATM    5  C5  UNL     1     -26.718  21.112   2.951  1.00  0.00    -0.003 C 
HETATM    6  C6  UNL     1     -25.378  21.434   3.466  1.00  0.00     0.004 C 
HETATM    7  C7  UNL     1     -24.541  22.112   2.705  1.00  0.00    -0.054 A 
HETATM    8  C8  UNL     1     -23.721  22.872   1.740  1.00  0.00     0.024 A 
HETATM    9  C9  UNL     1     -23.578  24.350   1.841  1.00  0.00     0.024 C 
HETATM   10  C10 UNL     1     -22.720  22.089   0.888  1.00  0.00     0.164 A 
HETATM   11  C20 UNL     1     -23.865  21.258   0.383  1.00  0.00     0.163 A 
HETATM   12  C21 UNL     1     -24.791  22.120   1.248  1.00  0.00     0.036 A 
ENDROOT
BRANCH  10  13
HETATM   13  O1  UNL     1     -21.736  21.459   1.610  1.00  0.00    -0.382 OA
BRANCH  13  14
HETATM   14  C11 UNL     1     -20.867  20.784   0.792  1.00  0.00     0.168 C 
BRANCH  14  15
HETATM   15  C12 UNL     1     -20.451  19.428   1.244  1.00  0.00     0.028 C 
BRANCH  15  16
HETATM   16  C13 UNL     1     -20.636  19.319   2.737  1.00  0.00     0.032 C 
BRANCH  16  17
HETATM   17  C14 UNL     1     -21.592  18.239   3.149  1.00  0.00     0.272 C 
BRANCH  17  18
HETATM   18  N1  UNL     1     -22.765  18.776   3.762  1.00  0.00     0.090 N 
HETATM   19  C15 UNL     1     -23.683  17.801   4.247  1.00  0.00     0.272 C 
HETATM   20  C16 UNL     1     -23.169  17.028   5.451  1.00  0.00     0.033 C 
HETATM   21  C17 UNL     1     -23.023  18.047   6.575  1.00  0.00     0.035 C 
HETATM   22  C18 UNL     1     -22.042  19.086   6.093  1.00  0.00     0.146 C 
HETATM   23  C19 UNL     1     -22.478  19.733   4.801  1.00  0.00     0.303 C 
BRANCH  22  24
HETATM   24  O2  UNL     1     -20.790  18.522   6.030  1.00  0.00    -0.394 OA
ATOM     25  H2  UNL     1     -20.339  18.679   6.852  1.00  0.00     0.210 HD
ENDBRANCH  22  24
ENDBRANCH  17  18
ENDBRANCH  16  17
ENDBRANCH  15  16
ENDBRANCH  14  15
ENDBRANCH  13  14
ENDBRANCH  10  13
BRANCH  11  26
HETATM   26  O3  UNL     1     -23.914  19.946   0.867  1.00  0.00    -0.392 OA
ATOM     27  H3  UNL     1     -24.211  19.293   0.245  1.00  0.00     0.210 HD
ENDBRANCH  11  26
TORSDOF 8
ENDMDL
