MODEL 1
REMARK VINA RESULT: -6.216042369      0.000      0.000
REMARK  4 active torsions:
REMARK  status: ('A' for Active; 'I' for Inactive)
REMARK    1  A    between atoms: C3_4  and  N1_5 
REMARK       I    between atoms: N1_5  and  C4_7 
REMARK    2  A    between atoms: C4_7  and  C5_9 
REMARK    3  A    between atoms: C5_9  and  C6_10 
REMARK    4  A    between atoms: C6_10  and  O2_13 
ROOT
HETATM    1  N1  UNL     1      68.781  31.011   0.536  1.00  0.00    -0.321 N 
ATOM      2  H1  UNL     1      68.811  31.035   1.556  1.00  0.00     0.169 HD
HETATM    3  C4  UNL     1      67.939  30.106  -0.122  1.00  0.00     0.225 C 
HETATM    4  O1  UNL     1      67.902  30.074  -1.365  1.00  0.00    -0.273 OA
ENDROOT
BRANCH   1   5
HETATM    5  C3  UNL     1      69.607  31.913  -0.240  1.00  0.00     0.084 A 
HETATM    6  S1  UNL     1      69.164  33.342  -1.056  1.00  0.00    -0.075 SA
HETATM    7  C2  UNL     1      70.676  33.781  -1.693  1.00  0.00    -0.001 A 
HETATM    8  C1  UNL     1      71.025  34.973  -2.542  1.00  0.00     0.057 C 
HETATM    9  C11 UNL     1      71.506  32.788  -1.247  1.00  0.00     0.032 A 
HETATM   10  C9  UNL     1      70.942  31.818  -0.490  1.00  0.00    -0.010 A 
HETATM   11 BR1  UNL     1      73.404  32.839  -1.723  1.00  0.00    -0.049 Br
HETATM   12  C10 UNL     1      71.749  30.654   0.072  1.00  0.00     0.052 C 
ENDBRANCH   1   5
BRANCH   3  13
HETATM   13  C5  UNL     1      67.090  29.179   0.627  1.00  0.00     0.140 C 
BRANCH  13  14
HETATM   14  C6  UNL     1      65.616  29.487   0.478  1.00  0.00     0.059 C 
HETATM   15  C7  UNL     1      64.885  28.400  -0.242  1.00  0.00     0.045 C 
HETATM   16  C8  UNL     1      64.962  29.710   1.822  1.00  0.00     0.045 C 
BRANCH  14  17
HETATM   17  O2  UNL     1      65.478  30.696  -0.235  1.00  0.00    -0.390 OA
ATOM     18  H2  UNL     1      65.853  30.582  -1.100  1.00  0.00     0.210 HD
ENDBRANCH  14  17
ENDBRANCH  13  14
ENDBRANCH   3  13
TORSDOF 4
ENDMDL
MODEL 2
REMARK VINA RESULT: -5.976561133      1.586      2.397
REMARK  4 active torsions:
REMARK  status: ('A' for Active; 'I' for Inactive)
REMARK    1  A    between atoms: C3_4  and  N1_5 
REMARK       I    between atoms: N1_5  and  C4_7 
REMARK    2  A    between atoms: C4_7  and  C5_9 
REMARK    3  A    between atoms: C5_9  and  C6_10 
REMARK    4  A    between atoms: C6_10  and  O2_13 
ROOT
HETATM    1  N1  UNL     1      68.061  31.214   0.246  1.00  0.00    -0.321 N 
ATOM      2  H1  UNL     1      67.660  31.550   1.121  1.00  0.00     0.169 HD
HETATM    3  C4  UNL     1      67.309  30.396  -0.606  1.00  0.00     0.225 C 
HETATM    4  O1  UNL     1      67.797  29.984  -1.673  1.00  0.00    -0.273 OA
ENDROOT
BRANCH   1   5
HETATM    5  C3  UNL     1      69.414  31.579  -0.124  1.00  0.00     0.084 A 
HETATM    6  S1  UNL     1      70.864  30.718   0.121  1.00  0.00    -0.075 SA
HETATM    7  C2  UNL     1      71.959  31.807  -0.585  1.00  0.00    -0.001 A 
HETATM    8  C1  UNL     1      73.452  31.678  -0.721  1.00  0.00     0.057 C 
HETATM    9  C11 UNL     1      71.157  32.834  -1.002  1.00  0.00     0.032 A 
HETATM   10  C9  UNL     1      69.831  32.708  -0.759  1.00  0.00    -0.010 A 
HETATM   11 BR1  UNL     1      71.963  34.375  -1.902  1.00  0.00    -0.049 Br
HETATM   12  C10 UNL     1      68.825  33.776  -1.171  1.00  0.00     0.052 C 
ENDBRANCH   1   5
BRANCH   3  13
HETATM   13  C5  UNL     1      65.940  30.005  -0.267  1.00  0.00     0.140 C 
BRANCH  13  14
HETATM   14  C6  UNL     1      65.886  28.914   0.781  1.00  0.00     0.059 C 
HETATM   15  C7  UNL     1      65.639  29.461   2.150  1.00  0.00     0.045 C 
HETATM   16  C8  UNL     1      64.819  27.895   0.460  1.00  0.00     0.045 C 
BRANCH  14  17
HETATM   17  O2  UNL     1      67.114  28.219   0.770  1.00  0.00    -0.390 OA
ATOM     18  H2  UNL     1      67.355  28.045  -0.133  1.00  0.00     0.210 HD
ENDBRANCH  14  17
ENDBRANCH  13  14
ENDBRANCH   3  13
TORSDOF 4
ENDMDL
MODEL 3
REMARK VINA RESULT: -5.312897082      3.828      5.615
REMARK  4 active torsions:
REMARK  status: ('A' for Active; 'I' for Inactive)
REMARK    1  A    between atoms: C3_4  and  N1_5 
REMARK       I    between atoms: N1_5  and  C4_7 
REMARK    2  A    between atoms: C4_7  and  C5_9 
REMARK    3  A    between atoms: C5_9  and  C6_10 
REMARK    4  A    between atoms: C6_10  and  O2_13 
ROOT
HETATM    1  N1  UNL     1      72.502  34.503  -1.792  1.00  0.00    -0.321 N 
ATOM      2  H1  UNL     1      73.229  34.287  -1.109  1.00  0.00     0.169 HD
HETATM    3  C4  UNL     1      71.194  34.040  -1.600  1.00  0.00     0.225 C 
HETATM    4  O1  UNL     1      70.308  34.302  -2.431  1.00  0.00    -0.273 OA
ENDROOT
BRANCH   1   5
HETATM    5  C3  UNL     1      72.817  35.292  -2.965  1.00  0.00     0.084 A 
HETATM    6  S1  UNL     1      72.285  36.857  -3.382  1.00  0.00    -0.075 SA
HETATM    7  C2  UNL     1      73.091  37.041  -4.865  1.00  0.00    -0.001 A 
HETATM    8  C1  UNL     1      73.070  38.217  -5.803  1.00  0.00     0.057 C 
HETATM    9  C11 UNL     1      73.768  35.860  -5.004  1.00  0.00     0.032 A 
HETATM   10  C9  UNL     1      73.621  34.953  -4.010  1.00  0.00    -0.010 A 
HETATM   11 BR1  UNL     1      74.876  35.572  -6.592  1.00  0.00    -0.049 Br
HETATM   12  C10 UNL     1      74.317  33.598  -4.037  1.00  0.00     0.052 C 
ENDBRANCH   1   5
BRANCH   3  13
HETATM   13  C5  UNL     1      70.839  33.240  -0.427  1.00  0.00     0.140 C 
BRANCH  13  14
HETATM   14  C6  UNL     1      70.909  31.751  -0.693  1.00  0.00     0.059 C 
HETATM   15  C7  UNL     1      72.147  31.137  -0.124  1.00  0.00     0.045 C 
HETATM   16  C8  UNL     1      69.704  31.035  -0.130  1.00  0.00     0.045 C 
BRANCH  14  17
HETATM   17  O2  UNL     1      70.879  31.541  -2.087  1.00  0.00    -0.390 OA
ATOM     18  H2  UNL     1      70.193  30.914  -2.285  1.00  0.00     0.210 HD
ENDBRANCH  14  17
ENDBRANCH  13  14
ENDBRANCH   3  13
TORSDOF 4
ENDMDL
MODEL 4
REMARK VINA RESULT: -5.277486255      3.943      5.928
REMARK  4 active torsions:
REMARK  status: ('A' for Active; 'I' for Inactive)
REMARK    1  A    between atoms: C3_4  and  N1_5 
REMARK       I    between atoms: N1_5  and  C4_7 
REMARK    2  A    between atoms: C4_7  and  C5_9 
REMARK    3  A    between atoms: C5_9  and  C6_10 
REMARK    4  A    between atoms: C6_10  and  O2_13 
ROOT
HETATM    1  N1  UNL     1      72.704  34.302  -1.989  1.00  0.00    -0.321 N 
ATOM      2  H1  UNL     1      73.341  34.064  -1.228  1.00  0.00     0.169 HD
HETATM    3  C4  UNL     1      71.330  34.062  -1.858  1.00  0.00     0.225 C 
HETATM    4  O1  UNL     1      70.553  34.350  -2.784  1.00  0.00    -0.273 OA
ENDROOT
BRANCH   1   5
HETATM    5  C3  UNL     1      73.215  34.889  -3.211  1.00  0.00     0.084 A 
HETATM    6  S1  UNL     1      73.922  34.122  -4.557  1.00  0.00    -0.075 SA
HETATM    7  C2  UNL     1      74.234  35.482  -5.524  1.00  0.00    -0.001 A 
HETATM    8  C1  UNL     1      74.865  35.538  -6.888  1.00  0.00     0.057 C 
HETATM    9  C11 UNL     1      73.772  36.521  -4.763  1.00  0.00     0.032 A 
HETATM   10  C9  UNL     1      73.241  36.205  -3.558  1.00  0.00    -0.010 A 
HETATM   11 BR1  UNL     1      73.905  38.349  -5.453  1.00  0.00    -0.049 Br
HETATM   12  C10 UNL     1      72.689  37.263  -2.610  1.00  0.00     0.052 C 
ENDBRANCH   1   5
BRANCH   3  13
HETATM   13  C5  UNL     1      70.778  33.469  -0.639  1.00  0.00     0.140 C 
BRANCH  13  14
HETATM   14  C6  UNL     1      70.657  31.963  -0.725  1.00  0.00     0.059 C 
HETATM   15  C7  UNL     1      71.686  31.269   0.108  1.00  0.00     0.045 C 
HETATM   16  C8  UNL     1      69.285  31.495  -0.299  1.00  0.00     0.045 C 
BRANCH  14  17
HETATM   17  O2  UNL     1      70.807  31.575  -2.073  1.00  0.00    -0.390 OA
ATOM     18  H2  UNL     1      70.817  30.626  -2.116  1.00  0.00     0.210 HD
ENDBRANCH  14  17
ENDBRANCH  13  14
ENDBRANCH   3  13
TORSDOF 4
ENDMDL
MODEL 5
REMARK VINA RESULT: -5.116717621      4.879      8.477
REMARK  4 active torsions:
REMARK  status: ('A' for Active; 'I' for Inactive)
REMARK    1  A    between atoms: C3_4  and  N1_5 
REMARK       I    between atoms: N1_5  and  C4_7 
REMARK    2  A    between atoms: C4_7  and  C5_9 
REMARK    3  A    between atoms: C5_9  and  C6_10 
REMARK    4  A    between atoms: C6_10  and  O2_13 
ROOT
HETATM    1  N1  UNL     1      73.875  34.875  -3.455  1.00  0.00    -0.321 N 
ATOM      2  H1  UNL     1      74.443  35.627  -3.064  1.00  0.00     0.169 HD
HETATM    3  C4  UNL     1      74.015  34.514  -4.801  1.00  0.00     0.225 C 
HETATM    4  O1  UNL     1      73.323  33.599  -5.280  1.00  0.00    -0.273 OA
ENDROOT
BRANCH   1   5
HETATM    5  C3  UNL     1      72.918  34.176  -2.622  1.00  0.00     0.084 A 
HETATM    6  S1  UNL     1      71.259  34.491  -2.396  1.00  0.00    -0.075 SA
HETATM    7  C2  UNL     1      70.885  33.250  -1.300  1.00  0.00    -0.001 A 
HETATM    8  C1  UNL     1      69.559  32.928  -0.664  1.00  0.00     0.057 C 
HETATM    9  C11 UNL     1      72.080  32.606  -1.133  1.00  0.00     0.032 A 
HETATM   10  C9  UNL     1      73.137  33.094  -1.826  1.00  0.00    -0.010 A 
HETATM   11 BR1  UNL     1      72.179  31.061   0.066  1.00  0.00    -0.049 Br
HETATM   12  C10 UNL     1      74.525  32.475  -1.733  1.00  0.00     0.052 C 
ENDBRANCH   1   5
BRANCH   3  13
HETATM   13  C5  UNL     1      74.971  35.198  -5.673  1.00  0.00     0.140 C 
BRANCH  13  14
HETATM   14  C6  UNL     1      74.511  36.584  -6.070  1.00  0.00     0.059 C 
HETATM   15  C7  UNL     1      75.359  37.654  -5.461  1.00  0.00     0.045 C 
HETATM   16  C8  UNL     1      74.510  36.755  -7.571  1.00  0.00     0.045 C 
BRANCH  14  17
HETATM   17  O2  UNL     1      73.174  36.752  -5.652  1.00  0.00    -0.390 OA
ATOM     18  H2  UNL     1      72.987  37.682  -5.599  1.00  0.00     0.210 HD
ENDBRANCH  14  17
ENDBRANCH  13  14
ENDBRANCH   3  13
TORSDOF 4
ENDMDL
