MODEL 1
REMARK VINA RESULT: -6.081483412      0.000      0.000
REMARK  5 active torsions:
REMARK  status: ('A' for Active; 'I' for Inactive)
REMARK    1  A    between atoms: C6_6  and  C7_7 
REMARK    2  A    between atoms: C7_7  and  N1_8 
REMARK    3  A    between atoms: C8_9  and  O1_10 
REMARK    4  A    between atoms: C11_14  and  C12_15 
REMARK    5  A    between atoms: C13_17  and  O2_18 
ROOT
HETATM    1  N1  UNL     1      74.763  32.995  -1.663  1.00  0.00    -0.281 N 
HETATM    2  C8  UNL     1      74.724  32.932  -3.020  1.00  0.00     0.155 A 
HETATM    3  C9  UNL     1      75.877  32.378  -3.532  1.00  0.00     0.001 A 
HETATM    4  C10 UNL     1      76.145  32.170  -4.981  1.00  0.00     0.053 C 
HETATM    5  C11 UNL     1      76.649  32.090  -2.454  1.00  0.00     0.013 A 
HETATM    6  C13 UNL     1      75.977  32.460  -1.324  1.00  0.00     0.156 A 
ENDROOT
BRANCH   1   7
HETATM    7  C7  UNL     1      73.748  33.379  -0.719  1.00  0.00     0.113 C 
BRANCH   7   8
HETATM    8  C6  UNL     1      72.497  32.670  -0.653  1.00  0.00    -0.008 A 
HETATM    9  C4  UNL     1      72.278  31.398  -0.214  1.00  0.00    -0.049 A 
HETATM   10  C3  UNL     1      71.010  30.784  -0.220  1.00  0.00     0.014 A 
HETATM   11  C5  UNL     1      73.431  30.586   0.281  1.00  0.00     0.049 C 
HETATM   12  C2  UNL     1      69.921  31.452  -0.677  1.00  0.00    -0.061 A 
HETATM   13  C1  UNL     1      68.551  30.858  -0.709  1.00  0.00     0.048 C 
HETATM   14  C16 UNL     1      70.101  32.731  -1.127  1.00  0.00     0.014 A 
HETATM   15  C14 UNL     1      71.349  33.335  -1.122  1.00  0.00    -0.049 A 
HETATM   16  C15 UNL     1      71.429  34.668  -1.688  1.00  0.00     0.049 C 
ENDBRANCH   7   8
ENDBRANCH   1   7
BRANCH   2  17
HETATM   17  O1  UNL     1      73.650  33.378  -3.778  1.00  0.00    -0.345 OA
ATOM     18  H1  UNL     1      73.746  33.842  -4.602  1.00  0.00     0.219 HD
ENDBRANCH   2  17
BRANCH   6  19
HETATM   19  O2  UNL     1      76.539  32.267  -0.059  1.00  0.00    -0.345 OA
ATOM     20  H2  UNL     1      76.897  32.907   0.546  1.00  0.00     0.219 HD
ENDBRANCH   6  19
BRANCH   5  21
HETATM   21  C12 UNL     1      78.003  31.475  -2.523  1.00  0.00     0.129 C 
HETATM   22 BR1  UNL     1      77.940  29.580  -2.201  1.00  0.00    -0.091 Br
ENDBRANCH   5  21
TORSDOF 5
ENDMDL
MODEL 2
REMARK VINA RESULT: -5.999784420      0.294      1.904
REMARK  5 active torsions:
REMARK  status: ('A' for Active; 'I' for Inactive)
REMARK    1  A    between atoms: C6_6  and  C7_7 
REMARK    2  A    between atoms: C7_7  and  N1_8 
REMARK    3  A    between atoms: C8_9  and  O1_10 
REMARK    4  A    between atoms: C11_14  and  C12_15 
REMARK    5  A    between atoms: C13_17  and  O2_18 
ROOT
HETATM    1  N1  UNL     1      74.979  32.708  -1.572  1.00  0.00    -0.281 N 
HETATM    2  C8  UNL     1      74.923  32.714  -2.929  1.00  0.00     0.155 A 
HETATM    3  C9  UNL     1      76.046  32.137  -3.483  1.00  0.00     0.001 A 
HETATM    4  C10 UNL     1      76.289  31.990  -4.944  1.00  0.00     0.053 C 
HETATM    5  C11 UNL     1      76.816  31.764  -2.431  1.00  0.00     0.013 A 
HETATM    6  C13 UNL     1      76.173  32.105  -1.275  1.00  0.00     0.156 A 
ENDROOT
BRANCH   1   7
HETATM    7  C7  UNL     1      73.992  33.086  -0.597  1.00  0.00     0.113 C 
BRANCH   7   8
HETATM    8  C6  UNL     1      72.639  32.603  -0.691  1.00  0.00    -0.008 A 
HETATM    9  C4  UNL     1      71.539  33.277  -1.128  1.00  0.00    -0.049 A 
HETATM   10  C3  UNL     1      70.246  32.717  -1.151  1.00  0.00     0.014 A 
HETATM   11  C5  UNL     1      71.681  34.692  -1.588  1.00  0.00     0.049 C 
HETATM   12  C2  UNL     1      70.035  31.445  -0.727  1.00  0.00    -0.061 A 
HETATM   13  C1  UNL     1      68.691  30.794  -0.727  1.00  0.00     0.048 C 
HETATM   14  C16 UNL     1      71.117  30.737  -0.280  1.00  0.00     0.014 A 
HETATM   15  C14 UNL     1      72.388  31.288  -0.256  1.00  0.00    -0.049 A 
HETATM   16  C15 UNL     1      73.444  30.465   0.304  1.00  0.00     0.049 C 
ENDBRANCH   7   8
ENDBRANCH   1   7
BRANCH   2  17
HETATM   17  O1  UNL     1      73.861  33.242  -3.651  1.00  0.00    -0.345 OA
ATOM     18  H1  UNL     1      73.234  32.710  -4.127  1.00  0.00     0.219 HD
ENDBRANCH   2  17
BRANCH   6  19
HETATM   19  O2  UNL     1      76.739  31.826  -0.028  1.00  0.00    -0.345 OA
ATOM     20  H2  UNL     1      77.101  31.011   0.301  1.00  0.00     0.219 HD
ENDBRANCH   6  19
BRANCH   5  21
HETATM   21  C12 UNL     1      78.142  31.096  -2.547  1.00  0.00     0.129 C 
HETATM   22 BR1  UNL     1      78.014  29.203  -2.235  1.00  0.00    -0.091 Br
ENDBRANCH   5  21
TORSDOF 5
ENDMDL
MODEL 3
REMARK VINA RESULT: -5.976272514      2.550      6.074
REMARK  5 active torsions:
REMARK  status: ('A' for Active; 'I' for Inactive)
REMARK    1  A    between atoms: C6_6  and  C7_7 
REMARK    2  A    between atoms: C7_7  and  N1_8 
REMARK    3  A    between atoms: C8_9  and  O1_10 
REMARK    4  A    between atoms: C11_14  and  C12_15 
REMARK    5  A    between atoms: C13_17  and  O2_18 
ROOT
HETATM    1  N1  UNL     1      73.572  33.016  -1.856  1.00  0.00    -0.281 N 
HETATM    2  C8  UNL     1      73.700  32.464  -0.621  1.00  0.00     0.155 A 
HETATM    3  C9  UNL     1      72.593  31.714  -0.287  1.00  0.00     0.001 A 
HETATM    4  C10 UNL     1      72.423  30.980   0.997  1.00  0.00     0.053 C 
HETATM    5  C11 UNL     1      71.758  31.809  -1.352  1.00  0.00     0.013 A 
HETATM    6  C13 UNL     1      72.348  32.593  -2.302  1.00  0.00     0.156 A 
ENDROOT
BRANCH   1   7
HETATM    7  C7  UNL     1      74.516  33.759  -2.646  1.00  0.00     0.113 C 
BRANCH   7   8
HETATM    8  C6  UNL     1      75.231  33.128  -3.725  1.00  0.00    -0.008 A 
HETATM    9  C4  UNL     1      76.188  32.162  -3.641  1.00  0.00    -0.049 A 
HETATM   10  C3  UNL     1      76.853  31.630  -4.764  1.00  0.00     0.014 A 
HETATM   11  C5  UNL     1      76.587  31.640  -2.298  1.00  0.00     0.049 C 
HETATM   12  C2  UNL     1      76.561  32.072  -6.013  1.00  0.00    -0.061 A 
HETATM   13  C1  UNL     1      77.228  31.550  -7.243  1.00  0.00     0.048 C 
HETATM   14  C16 UNL     1      75.605  33.043  -6.137  1.00  0.00     0.014 A 
HETATM   15  C14 UNL     1      74.952  33.567  -5.032  1.00  0.00    -0.049 A 
HETATM   16  C15 UNL     1      74.010  34.641  -5.283  1.00  0.00     0.049 C 
ENDBRANCH   7   8
ENDBRANCH   1   7
BRANCH   2  17
HETATM   17  O1  UNL     1      74.813  32.645   0.189  1.00  0.00    -0.345 OA
ATOM     18  H1  UNL     1      74.819  33.206   0.956  1.00  0.00     0.219 HD
ENDBRANCH   2  17
BRANCH   6  19
HETATM   19  O2  UNL     1      71.709  32.853  -3.517  1.00  0.00    -0.345 OA
ATOM     20  H2  UNL     1      71.345  32.244  -4.149  1.00  0.00     0.219 HD
ENDBRANCH   6  19
BRANCH   5  21
HETATM   21  C12 UNL     1      70.422  31.157  -1.440  1.00  0.00     0.129 C 
HETATM   22 BR1  UNL     1      69.079  32.158  -0.496  1.00  0.00    -0.091 Br
ENDBRANCH   5  21
TORSDOF 5
ENDMDL
MODEL 4
REMARK VINA RESULT: -5.964501567      1.264      2.354
REMARK  5 active torsions:
REMARK  status: ('A' for Active; 'I' for Inactive)
REMARK    1  A    between atoms: C6_6  and  C7_7 
REMARK    2  A    between atoms: C7_7  and  N1_8 
REMARK    3  A    between atoms: C8_9  and  O1_10 
REMARK    4  A    between atoms: C11_14  and  C12_15 
REMARK    5  A    between atoms: C13_17  and  O2_18 
ROOT
HETATM    1  N1  UNL     1      74.811  32.635  -1.689  1.00  0.00    -0.281 N 
HETATM    2  C8  UNL     1      75.984  31.991  -1.451  1.00  0.00     0.155 A 
HETATM    3  C9  UNL     1      76.666  31.736  -2.621  1.00  0.00     0.001 A 
HETATM    4  C10 UNL     1      77.982  31.045  -2.701  1.00  0.00     0.053 C 
HETATM    5  C11 UNL     1      75.887  32.240  -3.610  1.00  0.00     0.013 A 
HETATM    6  C13 UNL     1      74.767  32.786  -3.050  1.00  0.00     0.156 A 
ENDROOT
BRANCH   1   7
HETATM    7  C7  UNL     1      73.854  33.198  -0.775  1.00  0.00     0.113 C 
BRANCH   7   8
HETATM    8  C6  UNL     1      72.535  32.636  -0.651  1.00  0.00    -0.008 A 
HETATM    9  C4  UNL     1      72.191  31.407  -0.171  1.00  0.00    -0.049 A 
HETATM   10  C3  UNL     1      70.862  30.940  -0.121  1.00  0.00     0.014 A 
HETATM   11  C5  UNL     1      73.261  30.482   0.311  1.00  0.00     0.049 C 
HETATM   12  C2  UNL     1      69.839  31.715  -0.562  1.00  0.00    -0.061 A 
HETATM   13  C1  UNL     1      68.411  31.278  -0.536  1.00  0.00     0.048 C 
HETATM   14  C16 UNL     1      70.146  32.955  -1.052  1.00  0.00     0.014 A 
HETATM   15  C14 UNL     1      71.453  33.414  -1.102  1.00  0.00    -0.049 A 
HETATM   16  C15 UNL     1      71.662  34.716  -1.707  1.00  0.00     0.049 C 
ENDBRANCH   7   8
ENDBRANCH   1   7
BRANCH   2  17
HETATM   17  O1  UNL     1      76.422  31.641  -0.181  1.00  0.00    -0.345 OA
ATOM     18  H1  UNL     1      77.337  31.639   0.077  1.00  0.00     0.219 HD
ENDBRANCH   2  17
BRANCH   6  19
HETATM   19  O2  UNL     1      73.788  33.391  -3.844  1.00  0.00    -0.345 OA
ATOM     20  H2  UNL     1      73.689  33.383  -4.789  1.00  0.00     0.219 HD
ENDBRANCH   6  19
BRANCH   5  21
HETATM   21  C12 UNL     1      76.221  32.189  -5.060  1.00  0.00     0.129 C 
HETATM   22 BR1  UNL     1      77.133  33.782  -5.635  1.00  0.00    -0.091 Br
ENDBRANCH   5  21
TORSDOF 5
ENDMDL
MODEL 5
REMARK VINA RESULT: -5.957234908      1.268      3.006
REMARK  5 active torsions:
REMARK  status: ('A' for Active; 'I' for Inactive)
REMARK    1  A    between atoms: C6_6  and  C7_7 
REMARK    2  A    between atoms: C7_7  and  N1_8 
REMARK    3  A    between atoms: C8_9  and  O1_10 
REMARK    4  A    between atoms: C11_14  and  C12_15 
REMARK    5  A    between atoms: C13_17  and  O2_18 
ROOT
HETATM    1  N1  UNL     1      74.864  32.479  -1.676  1.00  0.00    -0.281 N 
HETATM    2  C8  UNL     1      76.015  31.784  -1.484  1.00  0.00     0.155 A 
HETATM    3  C9  UNL     1      76.683  31.577  -2.672  1.00  0.00     0.001 A 
HETATM    4  C10 UNL     1      77.975  30.849  -2.801  1.00  0.00     0.053 C 
HETATM    5  C11 UNL     1      75.917  32.165  -3.624  1.00  0.00     0.013 A 
HETATM    6  C13 UNL     1      74.818  32.713  -3.025  1.00  0.00     0.156 A 
ENDROOT
BRANCH   1   7
HETATM    7  C7  UNL     1      73.930  33.017  -0.723  1.00  0.00     0.113 C 
BRANCH   7   8
HETATM    8  C6  UNL     1      72.547  32.616  -0.739  1.00  0.00    -0.008 A 
HETATM    9  C4  UNL     1      71.471  33.341  -1.156  1.00  0.00    -0.049 A 
HETATM   10  C3  UNL     1      70.147  32.863  -1.100  1.00  0.00     0.014 A 
HETATM   11  C5  UNL     1      71.679  34.726  -1.679  1.00  0.00     0.049 C 
HETATM   12  C2  UNL     1      69.879  31.625  -0.615  1.00  0.00    -0.061 A 
HETATM   13  C1  UNL     1      68.499  31.060  -0.530  1.00  0.00     0.048 C 
HETATM   14  C16 UNL     1      70.934  30.867  -0.186  1.00  0.00     0.014 A 
HETATM   15  C14 UNL     1      72.237  31.338  -0.240  1.00  0.00    -0.049 A 
HETATM   16  C15 UNL     1      73.264  30.472   0.307  1.00  0.00     0.049 C 
ENDBRANCH   7   8
ENDBRANCH   1   7
BRANCH   2  17
HETATM   17  O1  UNL     1      76.447  31.343  -0.241  1.00  0.00    -0.345 OA
ATOM     18  H1  UNL     1      75.965  30.724   0.294  1.00  0.00     0.219 HD
ENDBRANCH   2  17
BRANCH   6  19
HETATM   19  O2  UNL     1      73.856  33.396  -3.775  1.00  0.00    -0.345 OA
ATOM     20  H2  UNL     1      73.485  33.177  -4.621  1.00  0.00     0.219 HD
ENDBRANCH   6  19
BRANCH   5  21
HETATM   21  C12 UNL     1      76.243  32.190  -5.077  1.00  0.00     0.129 C 
HETATM   22 BR1  UNL     1      77.257  33.754  -5.550  1.00  0.00    -0.091 Br
ENDBRANCH   5  21
TORSDOF 5
ENDMDL
