MODEL 1
REMARK VINA RESULT: -8.422869853      0.000      0.000
REMARK  8 active torsions:
REMARK  status: ('A' for Active; 'I' for Inactive)
REMARK    1  A    between atoms: C2_5  and  C3_6 
REMARK       I    between atoms: C3_6  and  N3_8 
REMARK    2  A    between atoms: N3_8  and  C4_10 
REMARK    3  A    between atoms: N4_13  and  C6_14 
REMARK    4  A    between atoms: C6_14  and  C7_15 
REMARK    5  A    between atoms: C15_25  and  C16_26 
REMARK    6  A    between atoms: N6_32  and  C22_33 
REMARK    7  A    between atoms: C22_33  and  O3_34 
REMARK    8  A    between atoms: C22_33  and  C23_36 
ROOT
HETATM    1  C4  UNL     1      10.803  16.877  22.742  1.00  0.00     0.189 C 
HETATM    2  C5  UNL     1      11.239  18.228  22.293  1.00  0.00     0.244 C 
HETATM    3  O2  UNL     1      11.865  18.258  21.206  1.00  0.00    -0.271 OA
HETATM    4  N4  UNL     1      11.047  19.483  22.916  1.00  0.00    -0.343 N 
HETATM    5  C12 UNL     1      10.035  19.840  23.861  1.00  0.00     0.153 C 
HETATM    6  C13 UNL     1       9.523  18.746  24.698  1.00  0.00    -0.010 C 
HETATM    7  C14 UNL     1       9.874  17.486  24.888  1.00  0.00    -0.017 C 
HETATM    8  C15 UNL     1      10.997  16.799  24.225  1.00  0.00     0.073 C 
ENDROOT
BRANCH   1   9
HETATM    9  N3  UNL     1       9.429  16.709  22.306  1.00  0.00    -0.344 N 
HETATM   10  C3  UNL     1       9.088  16.037  21.103  1.00  0.00     0.261 C 
HETATM   11  O1  UNL     1      10.015  15.578  20.402  1.00  0.00    -0.269 OA
ATOM     12  H3  UNL     1       8.680  17.087  22.886  1.00  0.00     0.163 HD
BRANCH  10  13
HETATM   13  C2  UNL     1       7.705  15.839  20.612  1.00  0.00     0.289 A 
HETATM   14  N2  UNL     1       7.586  16.018  19.240  1.00  0.00    -0.335 N 
HETATM   15  C1  UNL     1       7.312  14.819  18.943  1.00  0.00     0.196 A 
ATOM     16  H2  UNL     1       7.687  16.849  18.659  1.00  0.00     0.164 HD
HETATM   17  N1  UNL     1       7.045  14.210  17.663  1.00  0.00    -0.063 NA
HETATM   18  N6  UNL     1       7.380  14.430  20.283  1.00  0.00    -0.270 N 
BRANCH  18  19
HETATM   19  C22 UNL     1       7.259  13.353  21.184  1.00  0.00     0.157 C 
BRANCH  19  20
HETATM   20  O3  UNL     1       6.069  13.286  21.715  1.00  0.00    -0.345 OA
ATOM     21  H3  UNL     1       6.092  13.372  22.661  1.00  0.00     0.219 HD
ENDBRANCH  19  20
BRANCH  19  22
HETATM   22  C23 UNL     1       8.182  12.352  21.609  1.00  0.00     0.015 A 
HETATM   23  C24 UNL     1       7.701  11.034  21.740  1.00  0.00     0.016 A 
HETATM   24  C25 UNL     1       8.503   9.999  22.140  1.00  0.00     0.001 A 
HETATM   25  C26 UNL     1       9.829  10.221  22.430  1.00  0.00     0.000 A 
HETATM   26  C27 UNL     1      10.345  11.479  22.319  1.00  0.00     0.001 A 
HETATM   27  C28 UNL     1       9.512  12.514  21.911  1.00  0.00     0.016 A 
ENDBRANCH  19  22
ENDBRANCH  18  19
ENDBRANCH  10  13
ENDBRANCH   1   9
BRANCH   8  28
HETATM   28  C16 UNL     1      11.259  15.454  24.755  1.00  0.00    -0.048 A 
HETATM   29  C17 UNL     1      10.666  15.019  25.924  1.00  0.00     0.008 A 
HETATM   30  C18 UNL     1      10.870  13.771  26.470  1.00  0.00     0.001 A 
HETATM   31  C19 UNL     1      11.714  12.899  25.818  1.00  0.00     0.000 A 
HETATM   32  C20 UNL     1      12.326  13.270  24.663  1.00  0.00     0.001 A 
HETATM   33  C21 UNL     1      12.099  14.541  24.135  1.00  0.00     0.008 A 
ENDBRANCH   8  28
BRANCH   4  34
HETATM   34  C6  UNL     1      11.980  20.571  22.567  1.00  0.00     0.166 C 
BRANCH  34  35
HETATM   35  C7  UNL     1      11.407  21.553  21.653  1.00  0.00    -0.025 A 
HETATM   36  C8  UNL     1      11.256  21.282  20.292  1.00  0.00     0.011 A 
HETATM   37  C9  UNL     1      10.704  22.234  19.481  1.00  0.00     0.018 A 
HETATM   38  C10 UNL     1      10.291  23.460  19.960  1.00  0.00     0.087 A 
HETATM   39  N5  UNL     1      10.452  23.685  21.272  1.00  0.00    -0.375 N 
HETATM   40  C11 UNL     1      10.994  22.774  22.127  1.00  0.00     0.096 A 
ATOM     41  H5  UNL     1      10.153  24.584  21.650  1.00  0.00     0.164 HD
ENDBRANCH  34  35
ENDBRANCH   4  34
TORSDOF 8
ENDMDL
MODEL 2
REMARK VINA RESULT: -8.178064075      3.949      7.014
REMARK  8 active torsions:
REMARK  status: ('A' for Active; 'I' for Inactive)
REMARK    1  A    between atoms: C2_5  and  C3_6 
REMARK       I    between atoms: C3_6  and  N3_8 
REMARK    2  A    between atoms: N3_8  and  C4_10 
REMARK    3  A    between atoms: N4_13  and  C6_14 
REMARK    4  A    between atoms: C6_14  and  C7_15 
REMARK    5  A    between atoms: C15_25  and  C16_26 
REMARK    6  A    between atoms: N6_32  and  C22_33 
REMARK    7  A    between atoms: C22_33  and  O3_34 
REMARK    8  A    between atoms: C22_33  and  C23_36 
ROOT
HETATM    1  C4  UNL     1      12.096  14.552  26.792  1.00  0.00     0.189 C 
HETATM    2  C5  UNL     1      12.988  15.595  27.369  1.00  0.00     0.244 C 
HETATM    3  O2  UNL     1      14.218  15.372  27.259  1.00  0.00    -0.271 OA
HETATM    4  N4  UNL     1      12.648  16.802  28.022  1.00  0.00    -0.343 N 
HETATM    5  C12 UNL     1      11.430  17.542  27.904  1.00  0.00     0.153 C 
HETATM    6  C13 UNL     1      10.231  16.759  27.575  1.00  0.00    -0.010 C 
HETATM    7  C14 UNL     1       9.968  15.467  27.485  1.00  0.00    -0.017 C 
HETATM    8  C15 UNL     1      10.932  14.377  27.720  1.00  0.00     0.073 C 
ENDROOT
BRANCH   1   9
HETATM    9  N3  UNL     1      11.738  14.993  25.456  1.00  0.00    -0.344 N 
HETATM   10  C3  UNL     1      12.423  14.543  24.297  1.00  0.00     0.261 C 
HETATM   11  O1  UNL     1      13.367  13.738  24.446  1.00  0.00    -0.269 OA
ATOM     12  H3  UNL     1      10.966  15.649  25.346  1.00  0.00     0.163 HD
BRANCH  10  13
HETATM   13  C2  UNL     1      12.100  14.960  22.914  1.00  0.00     0.289 A 
HETATM   14  N2  UNL     1      11.357  14.013  22.221  1.00  0.00    -0.335 N 
HETATM   15  C1  UNL     1      10.290  14.685  22.121  1.00  0.00     0.196 A 
ATOM     16  H2  UNL     1      11.596  13.076  21.898  1.00  0.00     0.164 HD
HETATM   17  N1  UNL     1       9.029  14.352  21.507  1.00  0.00    -0.063 NA
HETATM   18  N6  UNL     1      10.859  15.764  22.802  1.00  0.00    -0.270 N 
BRANCH  18  19
HETATM   19  C22 UNL     1      10.646  17.069  23.290  1.00  0.00     0.157 C 
BRANCH  19  20
HETATM   20  O3  UNL     1      10.047  17.069  24.450  1.00  0.00    -0.345 OA
ATOM     21  H3  UNL     1       9.177  17.447  24.404  1.00  0.00     0.219 HD
ENDBRANCH  19  20
BRANCH  19  22
HETATM   22  C23 UNL     1      10.957  18.354  22.755  1.00  0.00     0.015 A 
HETATM   23  C24 UNL     1      10.767  19.472  23.590  1.00  0.00     0.016 A 
HETATM   24  C25 UNL     1      11.036  20.750  23.175  1.00  0.00     0.001 A 
HETATM   25  C26 UNL     1      11.510  20.980  21.905  1.00  0.00     0.000 A 
HETATM   26  C27 UNL     1      11.712  19.932  21.056  1.00  0.00     0.001 A 
HETATM   27  C28 UNL     1      11.432  18.645  21.499  1.00  0.00     0.016 A 
ENDBRANCH  19  22
ENDBRANCH  18  19
ENDBRANCH  10  13
ENDBRANCH   1   9
BRANCH   8  28
HETATM   28  C16 UNL     1      10.322  13.041  27.715  1.00  0.00    -0.048 A 
HETATM   29  C17 UNL     1       9.172  12.779  28.434  1.00  0.00     0.008 A 
HETATM   30  C18 UNL     1       8.551  11.549  28.469  1.00  0.00     0.001 A 
HETATM   31  C19 UNL     1       9.105  10.514  27.748  1.00  0.00     0.000 A 
HETATM   32  C20 UNL     1      10.236  10.711  27.021  1.00  0.00     0.001 A 
HETATM   33  C21 UNL     1      10.841  11.968  27.006  1.00  0.00     0.008 A 
ENDBRANCH   8  28
BRANCH   4  34
HETATM   34  C6  UNL     1      13.646  17.394  28.933  1.00  0.00     0.166 C 
BRANCH  34  35
HETATM   35  C7  UNL     1      13.056  18.237  29.968  1.00  0.00    -0.025 A 
HETATM   36  C8  UNL     1      12.100  17.740  30.856  1.00  0.00     0.011 A 
HETATM   37  C9  UNL     1      11.586  18.570  31.813  1.00  0.00     0.018 A 
HETATM   38  C10 UNL     1      11.976  19.888  31.931  1.00  0.00     0.087 A 
HETATM   39  N5  UNL     1      12.895  20.330  31.060  1.00  0.00    -0.375 N 
HETATM   40  C11 UNL     1      13.442  19.549  30.089  1.00  0.00     0.096 A 
ATOM     41  H5  UNL     1      13.200  21.301  31.129  1.00  0.00     0.164 HD
ENDBRANCH  34  35
ENDBRANCH   4  34
TORSDOF 8
ENDMDL
MODEL 3
REMARK VINA RESULT: -7.977000536      3.184      7.309
REMARK  8 active torsions:
REMARK  status: ('A' for Active; 'I' for Inactive)
REMARK    1  A    between atoms: C2_5  and  C3_6 
REMARK       I    between atoms: C3_6  and  N3_8 
REMARK    2  A    between atoms: N3_8  and  C4_10 
REMARK    3  A    between atoms: N4_13  and  C6_14 
REMARK    4  A    between atoms: C6_14  and  C7_15 
REMARK    5  A    between atoms: C15_25  and  C16_26 
REMARK    6  A    between atoms: N6_32  and  C22_33 
REMARK    7  A    between atoms: C22_33  and  O3_34 
REMARK    8  A    between atoms: C22_33  and  C23_36 
ROOT
HETATM    1  C4  UNL     1      10.905  13.187  22.298  1.00  0.00     0.189 C 
HETATM    2  C5  UNL     1       9.508  13.273  21.792  1.00  0.00     0.244 C 
HETATM    3  O2  UNL     1       8.855  12.202  21.830  1.00  0.00    -0.271 OA
HETATM    4  N4  UNL     1       8.811  14.389  21.274  1.00  0.00    -0.343 N 
HETATM    5  C12 UNL     1       9.084  15.772  21.512  1.00  0.00     0.153 C 
HETATM    6  C13 UNL     1      10.482  16.110  21.810  1.00  0.00    -0.010 C 
HETATM    7  C14 UNL     1      11.621  15.438  21.784  1.00  0.00    -0.017 C 
HETATM    8  C15 UNL     1      11.772  14.022  21.405  1.00  0.00     0.073 C 
ENDROOT
BRANCH   1   9
HETATM    9  N3  UNL     1      10.880  13.618  23.684  1.00  0.00    -0.344 N 
HETATM   10  C3  UNL     1      11.669  12.999  24.689  1.00  0.00     0.261 C 
HETATM   11  O1  UNL     1      12.409  12.049  24.354  1.00  0.00    -0.269 OA
ATOM     12  H3  UNL     1      10.273  14.394  23.946  1.00  0.00     0.163 HD
BRANCH  10  13
HETATM   13  C2  UNL     1      11.681  13.398  26.115  1.00  0.00     0.289 A 
HETATM   14  N2  UNL     1      12.960  13.442  26.654  1.00  0.00    -0.335 N 
HETATM   15  C1  UNL     1      13.015  14.692  26.839  1.00  0.00     0.196 A 
ATOM     16  H2  UNL     1      13.638  12.704  26.841  1.00  0.00     0.164 HD
HETATM   17  N1  UNL     1      14.068  15.512  27.385  1.00  0.00    -0.063 NA
HETATM   18  N6  UNL     1      11.726  14.864  26.329  1.00  0.00    -0.270 N 
BRANCH  18  19
HETATM   19  C22 UNL     1      10.712  15.797  26.033  1.00  0.00     0.157 C 
BRANCH  19  20
HETATM   20  O3  UNL     1       9.553  15.434  26.512  1.00  0.00    -0.345 OA
ATOM     21  H3  UNL     1       9.466  15.642  27.435  1.00  0.00     0.219 HD
ENDBRANCH  19  20
BRANCH  19  22
HETATM   22  C23 UNL     1      10.725  17.034  25.322  1.00  0.00     0.015 A 
HETATM   23  C24 UNL     1       9.552  17.812  25.343  1.00  0.00     0.016 A 
HETATM   24  C25 UNL     1       9.460  19.015  24.694  1.00  0.00     0.001 A 
HETATM   25  C26 UNL     1      10.534  19.506  23.990  1.00  0.00     0.000 A 
HETATM   26  C27 UNL     1      11.695  18.792  23.938  1.00  0.00     0.001 A 
HETATM   27  C28 UNL     1      11.765  17.574  24.604  1.00  0.00     0.016 A 
ENDBRANCH  19  22
ENDBRANCH  18  19
ENDBRANCH  10  13
ENDBRANCH   1   9
BRANCH   8  28
HETATM   28  C16 UNL     1      13.171  13.587  21.303  1.00  0.00    -0.048 A 
HETATM   29  C17 UNL     1      13.584  12.739  20.294  1.00  0.00     0.008 A 
HETATM   30  C18 UNL     1      14.880  12.297  20.144  1.00  0.00     0.001 A 
HETATM   31  C19 UNL     1      15.827  12.720  21.051  1.00  0.00     0.000 A 
HETATM   32  C20 UNL     1      15.481  13.554  22.067  1.00  0.00     0.001 A 
HETATM   33  C21 UNL     1      14.160  13.984  22.191  1.00  0.00     0.008 A 
ENDBRANCH   8  28
BRANCH   4  34
HETATM   34  C6  UNL     1       7.662  14.128  20.387  1.00  0.00     0.166 C 
BRANCH  34  35
HETATM   35  C7  UNL     1       8.037  13.974  18.985  1.00  0.00    -0.025 A 
HETATM   36  C8  UNL     1       7.622  12.872  18.235  1.00  0.00     0.011 A 
HETATM   37  C9  UNL     1       7.996  12.781  16.923  1.00  0.00     0.018 A 
HETATM   38  C10 UNL     1       8.773  13.742  16.311  1.00  0.00     0.087 A 
HETATM   39  N5  UNL     1       9.153  14.785  17.062  1.00  0.00    -0.375 N 
HETATM   40  C11 UNL     1       8.811  14.929  18.372  1.00  0.00     0.096 A 
ATOM     41  H5  UNL     1       9.729  15.509  16.630  1.00  0.00     0.164 HD
ENDBRANCH  34  35
ENDBRANCH   4  34
TORSDOF 8
ENDMDL
MODEL 4
REMARK VINA RESULT: -7.974922385      4.558      7.760
REMARK  8 active torsions:
REMARK  status: ('A' for Active; 'I' for Inactive)
REMARK    1  A    between atoms: C2_5  and  C3_6 
REMARK       I    between atoms: C3_6  and  N3_8 
REMARK    2  A    between atoms: N3_8  and  C4_10 
REMARK    3  A    between atoms: N4_13  and  C6_14 
REMARK    4  A    between atoms: C6_14  and  C7_15 
REMARK    5  A    between atoms: C15_25  and  C16_26 
REMARK    6  A    between atoms: N6_32  and  C22_33 
REMARK    7  A    between atoms: C22_33  and  O3_34 
REMARK    8  A    between atoms: C22_33  and  C23_36 
ROOT
HETATM    1  C4  UNL     1      11.015  16.626  27.236  1.00  0.00     0.189 C 
HETATM    2  C5  UNL     1      10.653  17.455  26.054  1.00  0.00     0.244 C 
HETATM    3  O2  UNL     1      10.358  18.649  26.305  1.00  0.00    -0.271 OA
HETATM    4  N4  UNL     1      10.596  17.091  24.689  1.00  0.00    -0.343 N 
HETATM    5  C12 UNL     1      11.282  16.013  24.047  1.00  0.00     0.153 C 
HETATM    6  C13 UNL     1      11.595  14.854  24.894  1.00  0.00    -0.010 C 
HETATM    7  C14 UNL     1      11.270  14.495  26.124  1.00  0.00    -0.017 C 
HETATM    8  C15 UNL     1      10.416  15.265  27.045  1.00  0.00     0.073 C 
ENDROOT
BRANCH   1   9
HETATM    9  N3  UNL     1      12.463  16.636  27.334  1.00  0.00    -0.344 N 
HETATM   10  C3  UNL     1      13.150  17.263  28.406  1.00  0.00     0.261 C 
HETATM   11  O1  UNL     1      12.471  17.823  29.292  1.00  0.00    -0.269 OA
ATOM     12  H3  UNL     1      13.007  16.175  26.605  1.00  0.00     0.163 HD
BRANCH  10  13
HETATM   13  C2  UNL     1      14.623  17.304  28.553  1.00  0.00     0.289 A 
HETATM   14  N2  UNL     1      15.038  18.055  29.645  1.00  0.00    -0.335 N 
HETATM   15  C1  UNL     1      15.514  17.102  30.327  1.00  0.00     0.196 A 
ATOM     16  H2  UNL     1      14.977  19.055  29.836  1.00  0.00     0.164 HD
HETATM   17  N1  UNL     1      16.143  17.102  31.624  1.00  0.00    -0.063 NA
HETATM   18  N6  UNL     1      15.180  16.175  29.336  1.00  0.00    -0.270 N 
BRANCH  18  19
HETATM   19  C22 UNL     1      15.214  14.816  28.963  1.00  0.00     0.157 C 
BRANCH  19  20
HETATM   20  O3  UNL     1      16.256  14.532  28.230  1.00  0.00    -0.345 OA
ATOM     21  H3  UNL     1      16.103  13.784  27.664  1.00  0.00     0.219 HD
ENDBRANCH  19  20
BRANCH  19  22
HETATM   22  C23 UNL     1      14.334  13.726  29.234  1.00  0.00     0.015 A 
HETATM   23  C24 UNL     1      13.756  13.064  28.134  1.00  0.00     0.016 A 
HETATM   24  C25 UNL     1      12.899  12.006  28.285  1.00  0.00     0.001 A 
HETATM   25  C26 UNL     1      12.574  11.551  29.541  1.00  0.00     0.000 A 
HETATM   26  C27 UNL     1      13.107  12.157  30.641  1.00  0.00     0.001 A 
HETATM   27  C28 UNL     1      13.974  13.229  30.464  1.00  0.00     0.016 A 
ENDBRANCH  19  22
ENDBRANCH  18  19
ENDBRANCH  10  13
ENDBRANCH   1   9
BRANCH   8  28
HETATM   28  C16 UNL     1      10.087  14.545  28.283  1.00  0.00    -0.048 A 
HETATM   29  C17 UNL     1       9.366  13.368  28.254  1.00  0.00     0.008 A 
HETATM   30  C18 UNL     1       9.027  12.647  29.377  1.00  0.00     0.001 A 
HETATM   31  C19 UNL     1       9.427  13.121  30.607  1.00  0.00     0.000 A 
HETATM   32  C20 UNL     1      10.139  14.275  30.700  1.00  0.00     0.001 A 
HETATM   33  C21 UNL     1      10.467  14.982  29.543  1.00  0.00     0.008 A 
ENDBRANCH   8  28
BRANCH   4  34
HETATM   34  C6  UNL     1       9.744  17.901  23.798  1.00  0.00     0.166 C 
BRANCH  34  35
HETATM   35  C7  UNL     1      10.500  18.806  22.940  1.00  0.00    -0.025 A 
HETATM   36  C8  UNL     1      10.739  20.132  23.309  1.00  0.00     0.011 A 
HETATM   37  C9  UNL     1      11.462  20.935  22.471  1.00  0.00     0.018 A 
HETATM   38  C10 UNL     1      11.965  20.482  21.268  1.00  0.00     0.087 A 
HETATM   39  N5  UNL     1      11.715  19.204  20.949  1.00  0.00    -0.375 N 
HETATM   40  C11 UNL     1      11.003  18.359  21.743  1.00  0.00     0.096 A 
ATOM     41  H5  UNL     1      12.078  18.847  20.064  1.00  0.00     0.164 HD
ENDBRANCH  34  35
ENDBRANCH   4  34
TORSDOF 8
ENDMDL
MODEL 5
REMARK VINA RESULT: -7.940286381      3.662      8.283
REMARK  8 active torsions:
REMARK  status: ('A' for Active; 'I' for Inactive)
REMARK    1  A    between atoms: C2_5  and  C3_6 
REMARK       I    between atoms: C3_6  and  N3_8 
REMARK    2  A    between atoms: N3_8  and  C4_10 
REMARK    3  A    between atoms: N4_13  and  C6_14 
REMARK    4  A    between atoms: C6_14  and  C7_15 
REMARK    5  A    between atoms: C15_25  and  C16_26 
REMARK    6  A    between atoms: N6_32  and  C22_33 
REMARK    7  A    between atoms: C22_33  and  O3_34 
REMARK    8  A    between atoms: C22_33  and  C23_36 
ROOT
HETATM    1  C4  UNL     1      11.300  16.255  22.603  1.00  0.00     0.189 C 
HETATM    2  C5  UNL     1      11.397  14.975  21.848  1.00  0.00     0.244 C 
HETATM    3  O2  UNL     1      12.495  14.377  21.941  1.00  0.00    -0.271 OA
HETATM    4  N4  UNL     1      10.426  14.337  21.042  1.00  0.00    -0.343 N 
HETATM    5  C12 UNL     1       9.006  14.496  21.099  1.00  0.00     0.153 C 
HETATM    6  C13 UNL     1       8.523  15.796  21.584  1.00  0.00    -0.010 C 
HETATM    7  C14 UNL     1       9.104  16.949  21.869  1.00  0.00    -0.017 C 
HETATM    8  C15 UNL     1      10.546  17.234  21.756  1.00  0.00     0.073 C 
ENDROOT
BRANCH   1   9
HETATM    9  N3  UNL     1      10.671  15.950  23.874  1.00  0.00    -0.344 N 
HETATM   10  C3  UNL     1      11.159  16.457  25.107  1.00  0.00     0.261 C 
HETATM   11  O1  UNL     1      12.169  17.192  25.083  1.00  0.00    -0.269 OA
ATOM     12  H3  UNL     1       9.846  15.350  23.883  1.00  0.00     0.163 HD
BRANCH  10  13
HETATM   13  C2  UNL     1      10.556  16.178  26.430  1.00  0.00     0.289 A 
HETATM   14  N2  UNL     1      10.248  14.836  26.613  1.00  0.00    -0.335 N 
HETATM   15  C1  UNL     1      11.092  14.598  27.524  1.00  0.00     0.196 A 
ATOM     16  H2  UNL     1       9.561  14.236  26.158  1.00  0.00     0.164 HD
HETATM   17  N1  UNL     1      11.377  13.379  28.241  1.00  0.00    -0.063 NA
HETATM   18  N6  UNL     1      11.549  15.918  27.500  1.00  0.00    -0.270 N 
BRANCH  18  19
HETATM   19  C22 UNL     1      12.454  16.840  28.061  1.00  0.00     0.157 C 
BRANCH  19  20
HETATM   20  O3  UNL     1      13.567  16.913  27.383  1.00  0.00    -0.345 OA
ATOM     21  H3  UNL     1      14.054  17.706  27.576  1.00  0.00     0.219 HD
ENDBRANCH  19  20
BRANCH  19  22
HETATM   22  C23 UNL     1      12.374  17.685  29.208  1.00  0.00     0.015 A 
HETATM   23  C24 UNL     1      11.337  17.440  30.129  1.00  0.00     0.016 A 
HETATM   24  C25 UNL     1      11.171  18.192  31.262  1.00  0.00     0.001 A 
HETATM   25  C26 UNL     1      12.032  19.228  31.538  1.00  0.00     0.000 A 
HETATM   26  C27 UNL     1      13.053  19.508  30.679  1.00  0.00     0.001 A 
HETATM   27  C28 UNL     1      13.202  18.732  29.535  1.00  0.00     0.016 A 
ENDBRANCH  19  22
ENDBRANCH  18  19
ENDBRANCH  10  13
ENDBRANCH   1   9
BRANCH   8  28
HETATM   28  C16 UNL     1      10.885  18.647  21.976  1.00  0.00    -0.048 A 
HETATM   29  C17 UNL     1      11.533  19.385  21.006  1.00  0.00     0.008 A 
HETATM   30  C18 UNL     1      11.877  20.711  21.152  1.00  0.00     0.001 A 
HETATM   31  C19 UNL     1      11.559  21.346  22.332  1.00  0.00     0.000 A 
HETATM   32  C20 UNL     1      10.921  20.671  23.324  1.00  0.00     0.001 A 
HETATM   33  C21 UNL     1      10.586  19.329  23.147  1.00  0.00     0.008 A 
ENDBRANCH   8  28
BRANCH   4  34
HETATM   34  C6  UNL     1      10.901  13.388  20.018  1.00  0.00     0.166 C 
BRANCH  34  35
HETATM   35  C7  UNL     1      10.086  13.388  18.808  1.00  0.00    -0.025 A 
HETATM   36  C8  UNL     1       9.527  14.564  18.304  1.00  0.00     0.011 A 
HETATM   37  C9  UNL     1       8.778  14.508  17.162  1.00  0.00     0.018 A 
HETATM   38  C10 UNL     1       8.552  13.327  16.486  1.00  0.00     0.087 A 
HETATM   39  N5  UNL     1       9.105  12.218  16.999  1.00  0.00    -0.375 N 
HETATM   40  C11 UNL     1       9.859  12.214  18.132  1.00  0.00     0.096 A 
ATOM     41  H5  UNL     1       8.952  11.333  16.516  1.00  0.00     0.164 HD
ENDBRANCH  34  35
ENDBRANCH   4  34
TORSDOF 8
ENDMDL
