MODEL 1
REMARK VINA RESULT: -8.486625911      0.000      0.000
REMARK  7 active torsions:
REMARK  status: ('A' for Active; 'I' for Inactive)
REMARK    1  A    between atoms: C2_2  and  O1_3 
REMARK    2  A    between atoms: C2_2  and  C3_5 
REMARK    3  A    between atoms: N1_10  and  C6_11 
REMARK    4  A    between atoms: C7_12  and  N2_13 
REMARK    5  A    between atoms: N2_13  and  C8_15 
REMARK    6  A    between atoms: C13_20  and  N3_21 
REMARK    7  A    between atoms: N4_26  and  C15_27 
ROOT
HETATM    1  C6  UNL     1       1.885  34.575  24.842  1.00  0.00     0.095 A 
HETATM    2  C7  UNL     1       3.046  33.846  24.997  1.00  0.00     0.073 A 
HETATM    3  C14 UNL     1       4.224  34.480  25.371  1.00  0.00     0.126 A 
HETATM    4  N4  UNL     1       4.275  35.822  25.595  1.00  0.00    -0.316 N 
HETATM    5  C18 UNL     1       3.141  36.521  25.443  1.00  0.00     0.272 A 
HETATM    6  O4  UNL     1       3.151  37.766  25.642  1.00  0.00    -0.266 OA
HETATM    7  C19 UNL     1       1.953  35.924  25.073  1.00  0.00     0.131 A 
HETATM    8 CL1  UNL     1       0.529  36.918  24.902  1.00  0.00    -0.076 Cl
ENDROOT
BRANCH   2   9
HETATM    9  N2  UNL     1       3.046  32.442  24.784  1.00  0.00    -0.380 N 
ATOM     10  H2  UNL     1       2.158  31.959  24.924  1.00  0.00     0.160 HD
BRANCH   9  11
HETATM   11  C8  UNL     1       4.158  31.637  24.396  1.00  0.00     0.112 C 
HETATM   12  C9  UNL     1       5.168  31.656  25.534  1.00  0.00     0.027 C 
HETATM   13  C10 UNL     1       6.459  30.971  25.161  1.00  0.00     0.002 C 
HETATM   14  C11 UNL     1       6.198  29.660  24.443  1.00  0.00     0.002 C 
HETATM   15  C12 UNL     1       4.803  29.237  24.858  1.00  0.00     0.035 C 
HETATM   16  C13 UNL     1       3.831  30.187  24.168  1.00  0.00     0.206 C 
BRANCH  16  17
HETATM   17  N3  UNL     1       2.513  29.808  24.581  1.00  0.00    -0.073 N 
ATOM     18  H33 UNL     1       2.410  29.917  25.589  1.00  0.00     0.274 HD
ATOM     19  H32 UNL     1       1.828  30.494  24.261  1.00  0.00     0.274 HD
ATOM     20  H31 UNL     1       2.237  28.869  24.293  1.00  0.00     0.274 HD
ENDBRANCH  16  17
ENDBRANCH   9  11
ENDBRANCH   2   9
BRANCH   1  21
HETATM   21  N1  UNL     1       0.634  34.028  24.460  1.00  0.00    -0.280 N 
HETATM   22  C3  UNL     1      -0.374  33.357  25.232  1.00  0.00     0.148 C 
HETATM   23  C4  UNL     1      -1.627  33.495  24.411  1.00  0.00     0.209 C 
HETATM   24  O2  UNL     1      -1.097  33.377  23.083  1.00  0.00    -0.301 OA
HETATM   25  C5  UNL     1       0.113  34.063  23.127  1.00  0.00     0.368 C 
HETATM   26  O3  UNL     1       0.665  34.629  22.140  1.00  0.00    -0.238 OA
BRANCH  22  27
HETATM   27  C2  UNL     1      -0.126  31.879  25.429  1.00  0.00     0.139 C 
HETATM   28  C1  UNL     1      -1.459  31.275  25.892  1.00  0.00     0.041 C 
BRANCH  27  29
HETATM   29  O1  UNL     1       0.744  31.701  26.484  1.00  0.00    -0.394 OA
ATOM     30  H1  UNL     1       1.438  32.336  26.349  1.00  0.00     0.210 HD
ENDBRANCH  27  29
ENDBRANCH  22  27
ENDBRANCH   1  21
BRANCH   4  31
HETATM   31  C15 UNL     1       5.514  36.475  25.984  1.00  0.00     0.092 A 
HETATM   32  C16 UNL     1       6.469  36.949  24.947  1.00  0.00     0.028 A 
HETATM   33  C17 UNL     1       6.818  35.814  25.821  1.00  0.00     0.028 A 
ENDBRANCH   4  31
TORSDOF 7
ENDMDL
MODEL 2
REMARK VINA RESULT: -8.172718346      2.765      5.535
REMARK  7 active torsions:
REMARK  status: ('A' for Active; 'I' for Inactive)
REMARK    1  A    between atoms: C2_2  and  O1_3 
REMARK    2  A    between atoms: C2_2  and  C3_5 
REMARK    3  A    between atoms: N1_10  and  C6_11 
REMARK    4  A    between atoms: C7_12  and  N2_13 
REMARK    5  A    between atoms: N2_13  and  C8_15 
REMARK    6  A    between atoms: C13_20  and  N3_21 
REMARK    7  A    between atoms: N4_26  and  C15_27 
ROOT
HETATM    1  C6  UNL     1       4.834  35.430  25.322  1.00  0.00     0.095 A 
HETATM    2  C7  UNL     1       4.066  34.334  24.988  1.00  0.00     0.073 A 
HETATM    3  C14 UNL     1       2.975  34.479  24.140  1.00  0.00     0.126 A 
HETATM    4  N4  UNL     1       2.631  35.688  23.617  1.00  0.00    -0.316 N 
HETATM    5  C18 UNL     1       3.385  36.746  23.946  1.00  0.00     0.272 A 
HETATM    6  O4  UNL     1       3.095  37.881  23.480  1.00  0.00    -0.266 OA
HETATM    7  C19 UNL     1       4.475  36.639  24.786  1.00  0.00     0.131 A 
HETATM    8 CL1  UNL     1       5.396  38.073  25.155  1.00  0.00    -0.076 Cl
ENDROOT
BRANCH   2   9
HETATM    9  N2  UNL     1       4.387  33.049  25.501  1.00  0.00    -0.380 N 
ATOM     10  H2  UNL     1       4.514  32.978  26.510  1.00  0.00     0.160 HD
BRANCH   9  11
HETATM   11  C8  UNL     1       4.550  31.847  24.749  1.00  0.00     0.112 C 
HETATM   12  C9  UNL     1       5.708  31.071  25.358  1.00  0.00     0.027 C 
HETATM   13  C10 UNL     1       6.076  29.859  24.537  1.00  0.00     0.002 C 
HETATM   14  C11 UNL     1       4.838  29.096  24.100  1.00  0.00     0.002 C 
HETATM   15  C12 UNL     1       3.755  29.472  25.090  1.00  0.00     0.035 C 
HETATM   16  C13 UNL     1       3.370  30.917  24.795  1.00  0.00     0.206 C 
BRANCH  16  17
HETATM   17  N3  UNL     1       2.366  31.284  25.747  1.00  0.00    -0.073 N 
ATOM     18  H33 UNL     1       2.276  32.299  25.797  1.00  0.00     0.274 HD
ATOM     19  H32 UNL     1       1.438  31.044  25.398  1.00  0.00     0.274 HD
ATOM     20  H31 UNL     1       2.507  30.893  26.679  1.00  0.00     0.274 HD
ENDBRANCH  16  17
ENDBRANCH   9  11
ENDBRANCH   2   9
BRANCH   1  21
HETATM   21  N1  UNL     1       5.962  35.393  26.180  1.00  0.00    -0.280 N 
HETATM   22  C3  UNL     1       7.368  35.357  25.887  1.00  0.00     0.148 C 
HETATM   23  C4  UNL     1       8.026  35.849  27.145  1.00  0.00     0.209 C 
HETATM   24  O2  UNL     1       7.168  35.278  28.143  1.00  0.00    -0.301 OA
HETATM   25  C5  UNL     1       5.887  35.394  27.610  1.00  0.00     0.368 C 
HETATM   26  O3  UNL     1       4.823  35.487  28.287  1.00  0.00    -0.238 OA
BRANCH  22  27
HETATM   27  C2  UNL     1       7.910  33.974  25.606  1.00  0.00     0.139 C 
HETATM   28  C1  UNL     1       9.434  34.119  25.507  1.00  0.00     0.041 C 
BRANCH  27  29
HETATM   29  O1  UNL     1       7.497  33.570  24.354  1.00  0.00    -0.394 OA
ATOM     30  H1  UNL     1       7.048  32.744  24.490  1.00  0.00     0.210 HD
ENDBRANCH  27  29
ENDBRANCH  22  27
ENDBRANCH   1  21
BRANCH   4  31
HETATM   31  C15 UNL     1       1.486  35.827  22.732  1.00  0.00     0.092 A 
HETATM   32  C16 UNL     1       0.135  36.096  23.291  1.00  0.00     0.028 A 
HETATM   33  C17 UNL     1       0.436  34.798  22.661  1.00  0.00     0.028 A 
ENDBRANCH   4  31
TORSDOF 7
ENDMDL
MODEL 3
REMARK VINA RESULT: -7.940226662      1.047      1.171
REMARK  7 active torsions:
REMARK  status: ('A' for Active; 'I' for Inactive)
REMARK    1  A    between atoms: C2_2  and  O1_3 
REMARK    2  A    between atoms: C2_2  and  C3_5 
REMARK    3  A    between atoms: N1_10  and  C6_11 
REMARK    4  A    between atoms: C7_12  and  N2_13 
REMARK    5  A    between atoms: N2_13  and  C8_15 
REMARK    6  A    between atoms: C13_20  and  N3_21 
REMARK    7  A    between atoms: N4_26  and  C15_27 
ROOT
HETATM    1  C6  UNL     1       1.549  35.084  24.260  1.00  0.00     0.095 A 
HETATM    2  C7  UNL     1       2.826  34.617  24.493  1.00  0.00     0.073 A 
HETATM    3  C14 UNL     1       3.883  35.509  24.619  1.00  0.00     0.126 A 
HETATM    4  N4  UNL     1       3.700  36.855  24.519  1.00  0.00    -0.316 N 
HETATM    5  C18 UNL     1       2.455  37.298  24.294  1.00  0.00     0.272 A 
HETATM    6  O4  UNL     1       2.249  38.538  24.195  1.00  0.00    -0.266 OA
HETATM    7  C19 UNL     1       1.382  36.441  24.164  1.00  0.00     0.131 A 
HETATM    8 CL1  UNL     1      -0.202  37.113  23.873  1.00  0.00    -0.076 Cl
ENDROOT
BRANCH   2   9
HETATM    9  N2  UNL     1       3.069  33.223  24.615  1.00  0.00    -0.380 N 
ATOM     10  H2  UNL     1       2.258  32.631  24.796  1.00  0.00     0.160 HD
BRANCH   9  11
HETATM   11  C8  UNL     1       4.330  32.565  24.510  1.00  0.00     0.112 C 
HETATM   12  C9  UNL     1       5.061  32.743  25.832  1.00  0.00     0.027 C 
HETATM   13  C10 UNL     1       6.478  32.227  25.775  1.00  0.00     0.002 C 
HETATM   14  C11 UNL     1       6.543  30.877  25.085  1.00  0.00     0.002 C 
HETATM   15  C12 UNL     1       5.155  30.283  25.217  1.00  0.00     0.035 C 
HETATM   16  C13 UNL     1       4.244  31.080  24.292  1.00  0.00     0.206 C 
BRANCH  16  17
HETATM   17  N3  UNL     1       2.926  30.538  24.436  1.00  0.00    -0.073 N 
ATOM     18  H33 UNL     1       2.422  31.022  25.178  1.00  0.00     0.274 HD
ATOM     19  H32 UNL     1       2.346  30.794  23.636  1.00  0.00     0.274 HD
ATOM     20  H31 UNL     1       2.900  29.530  24.586  1.00  0.00     0.274 HD
ENDBRANCH  16  17
ENDBRANCH   9  11
ENDBRANCH   2   9
BRANCH   1  21
HETATM   21  N1  UNL     1       0.403  34.261  24.112  1.00  0.00    -0.280 N 
HETATM   22  C3  UNL     1      -0.393  33.571  25.088  1.00  0.00     0.148 C 
HETATM   23  C4  UNL     1      -1.707  33.331  24.398  1.00  0.00     0.209 C 
HETATM   24  O2  UNL     1      -1.266  33.070  23.057  1.00  0.00    -0.301 OA
HETATM   25  C5  UNL     1      -0.214  33.958  22.856  1.00  0.00     0.368 C 
HETATM   26  O3  UNL     1       0.140  34.425  21.735  1.00  0.00    -0.238 OA
BRANCH  22  27
HETATM   27  C2  UNL     1       0.154  32.223  25.498  1.00  0.00     0.139 C 
HETATM   28  C1  UNL     1      -0.995  31.487  26.201  1.00  0.00     0.041 C 
BRANCH  27  29
HETATM   29  O1  UNL     1       1.123  32.400  26.463  1.00  0.00    -0.394 OA
ATOM     30  H1  UNL     1       1.598  33.182  26.205  1.00  0.00     0.210 HD
ENDBRANCH  27  29
ENDBRANCH  22  27
ENDBRANCH   1  21
BRANCH   4  31
HETATM   31  C15 UNL     1       4.814  37.778  24.650  1.00  0.00     0.092 A 
HETATM   32  C16 UNL     1       6.169  37.273  25.001  1.00  0.00     0.028 A 
HETATM   33  C17 UNL     1       5.406  38.091  25.961  1.00  0.00     0.028 A 
ENDBRANCH   4  31
TORSDOF 7
ENDMDL
MODEL 4
REMARK VINA RESULT: -7.939479777      2.836      6.319
REMARK  7 active torsions:
REMARK  status: ('A' for Active; 'I' for Inactive)
REMARK    1  A    between atoms: C2_2  and  O1_3 
REMARK    2  A    between atoms: C2_2  and  C3_5 
REMARK    3  A    between atoms: N1_10  and  C6_11 
REMARK    4  A    between atoms: C7_12  and  N2_13 
REMARK    5  A    between atoms: N2_13  and  C8_15 
REMARK    6  A    between atoms: C13_20  and  N3_21 
REMARK    7  A    between atoms: N4_26  and  C15_27 
ROOT
HETATM    1  C6  UNL     1       5.978  33.670  25.280  1.00  0.00     0.095 A 
HETATM    2  C7  UNL     1       4.877  32.842  25.216  1.00  0.00     0.073 A 
HETATM    3  C14 UNL     1       5.032  31.498  24.899  1.00  0.00     0.126 A 
HETATM    4  N4  UNL     1       6.257  30.960  24.644  1.00  0.00    -0.316 N 
HETATM    5  C18 UNL     1       7.320  31.774  24.710  1.00  0.00     0.272 A 
HETATM    6  O4  UNL     1       8.469  31.309  24.479  1.00  0.00    -0.266 OA
HETATM    7  C19 UNL     1       7.203  33.112  25.022  1.00  0.00     0.131 A 
HETATM    8 CL1  UNL     1       8.646  34.091  25.085  1.00  0.00    -0.076 Cl
ENDROOT
BRANCH   2   9
HETATM    9  N2  UNL     1       3.578  33.351  25.482  1.00  0.00    -0.380 N 
ATOM     10  H2  UNL     1       3.525  34.175  26.082  1.00  0.00     0.160 HD
BRANCH   9  11
HETATM   11  C8  UNL     1       2.342  32.832  24.997  1.00  0.00     0.112 C 
HETATM   12  C9  UNL     1       1.681  32.064  26.132  1.00  0.00     0.027 C 
HETATM   13  C10 UNL     1       0.442  31.330  25.678  1.00  0.00     0.002 C 
HETATM   14  C11 UNL     1      -0.423  32.209  24.795  1.00  0.00     0.002 C 
HETATM   15  C12 UNL     1      -0.050  33.635  25.144  1.00  0.00     0.035 C 
HETATM   16  C13 UNL     1       1.345  33.877  24.580  1.00  0.00     0.206 C 
BRANCH  16  17
HETATM   17  N3  UNL     1       1.712  35.215  24.934  1.00  0.00    -0.073 N 
ATOM     18  H33 UNL     1       1.750  35.805  24.103  1.00  0.00     0.274 HD
ATOM     19  H32 UNL     1       0.951  35.673  25.437  1.00  0.00     0.274 HD
ATOM     20  H31 UNL     1       2.581  35.287  25.462  1.00  0.00     0.274 HD
ENDBRANCH  16  17
ENDBRANCH   9  11
ENDBRANCH   2   9
BRANCH   1  21
HETATM   21  N1  UNL     1       5.930  35.053  25.590  1.00  0.00    -0.280 N 
HETATM   22  C3  UNL     1       6.662  35.829  26.552  1.00  0.00     0.148 C 
HETATM   23  C4  UNL     1       6.558  37.243  26.050  1.00  0.00     0.209 C 
HETATM   24  O2  UNL     1       5.223  37.248  25.525  1.00  0.00    -0.301 OA
HETATM   25  C5  UNL     1       5.075  35.996  24.933  1.00  0.00     0.368 C 
HETATM   26  O3  UNL     1       4.304  35.735  23.965  1.00  0.00    -0.238 OA
BRANCH  22  27
HETATM   27  C2  UNL     1       6.080  35.802  27.946  1.00  0.00     0.139 C 
HETATM   28  C1  UNL     1       6.828  34.697  28.705  1.00  0.00     0.041 C 
BRANCH  27  29
HETATM   29  O1  UNL     1       4.769  35.381  27.883  1.00  0.00    -0.394 OA
ATOM     30  H1  UNL     1       4.601  35.212  26.963  1.00  0.00     0.210 HD
ENDBRANCH  27  29
ENDBRANCH  22  27
ENDBRANCH   1  21
BRANCH   4  31
HETATM   31  C15 UNL     1       6.406  29.553  24.311  1.00  0.00     0.092 A 
HETATM   32  C16 UNL     1       5.741  28.993  23.104  1.00  0.00     0.028 A 
HETATM   33  C17 UNL     1       5.290  28.604  24.453  1.00  0.00     0.028 A 
ENDBRANCH   4  31
TORSDOF 7
ENDMDL
MODEL 5
REMARK VINA RESULT: -7.859713775      1.441      1.941
REMARK  7 active torsions:
REMARK  status: ('A' for Active; 'I' for Inactive)
REMARK    1  A    between atoms: C2_2  and  O1_3 
REMARK    2  A    between atoms: C2_2  and  C3_5 
REMARK    3  A    between atoms: N1_10  and  C6_11 
REMARK    4  A    between atoms: C7_12  and  N2_13 
REMARK    5  A    between atoms: N2_13  and  C8_15 
REMARK    6  A    between atoms: C13_20  and  N3_21 
REMARK    7  A    between atoms: N4_26  and  C15_27 
ROOT
HETATM    1  C6  UNL     1       3.232  34.931  25.000  1.00  0.00     0.095 A 
HETATM    2  C7  UNL     1       4.265  34.016  24.997  1.00  0.00     0.073 A 
HETATM    3  C14 UNL     1       5.455  34.306  25.653  1.00  0.00     0.126 A 
HETATM    4  N4  UNL     1       5.642  35.483  26.312  1.00  0.00    -0.316 N 
HETATM    5  C18 UNL     1       4.631  36.364  26.310  1.00  0.00     0.272 A 
HETATM    6  O4  UNL     1       4.769  37.464  26.909  1.00  0.00    -0.266 OA
HETATM    7  C19 UNL     1       3.436  36.110  25.669  1.00  0.00     0.131 A 
HETATM    8 CL1  UNL     1       2.179  37.318  25.723  1.00  0.00    -0.076 Cl
ENDROOT
BRANCH   2   9
HETATM    9  N2  UNL     1       4.119  32.770  24.333  1.00  0.00    -0.380 N 
ATOM     10  H2  UNL     1       3.577  32.774  23.468  1.00  0.00     0.160 HD
BRANCH   9  11
HETATM   11  C8  UNL     1       4.651  31.514  24.748  1.00  0.00     0.112 C 
HETATM   12  C9  UNL     1       3.648  30.434  24.371  1.00  0.00     0.027 C 
HETATM   13  C10 UNL     1       4.035  29.081  24.915  1.00  0.00     0.002 C 
HETATM   14  C11 UNL     1       5.512  28.806  24.702  1.00  0.00     0.002 C 
HETATM   15  C12 UNL     1       5.931  29.695  23.548  1.00  0.00     0.035 C 
HETATM   16  C13 UNL     1       5.937  31.126  24.073  1.00  0.00     0.206 C 
BRANCH  16  17
HETATM   17  N3  UNL     1       6.306  31.970  22.977  1.00  0.00    -0.073 N 
ATOM     18  H33 UNL     1       5.510  32.116  22.356  1.00  0.00     0.274 HD
ATOM     19  H32 UNL     1       6.453  32.927  23.298  1.00  0.00     0.274 HD
ATOM     20  H31 UNL     1       7.115  31.644  22.449  1.00  0.00     0.274 HD
ENDBRANCH  16  17
ENDBRANCH   9  11
ENDBRANCH   2   9
BRANCH   1  21
HETATM   21  N1  UNL     1       1.982  34.738  24.360  1.00  0.00    -0.280 N 
HETATM   22  C3  UNL     1       0.755  34.169  24.844  1.00  0.00     0.148 C 
HETATM   23  C4  UNL     1      -0.299  34.712  23.919  1.00  0.00     0.209 C 
HETATM   24  O2  UNL     1       0.411  34.721  22.672  1.00  0.00    -0.301 OA
HETATM   25  C5  UNL     1       1.702  35.117  23.008  1.00  0.00     0.368 C 
HETATM   26  O3  UNL     1       2.503  35.718  22.236  1.00  0.00    -0.238 OA
BRANCH  22  27
HETATM   27  C2  UNL     1       0.692  32.661  24.762  1.00  0.00     0.139 C 
HETATM   28  C1  UNL     1      -0.793  32.285  24.849  1.00  0.00     0.041 C 
BRANCH  27  29
HETATM   29  O1  UNL     1       1.275  32.121  25.889  1.00  0.00    -0.394 OA
ATOM     30  H1  UNL     1       1.180  31.180  25.797  1.00  0.00     0.210 HD
ENDBRANCH  27  29
ENDBRANCH  22  27
ENDBRANCH   1  21
BRANCH   4  31
HETATM   31  C15 UNL     1       6.892  35.775  26.993  1.00  0.00     0.092 A 
HETATM   32  C16 UNL     1       8.023  36.393  26.250  1.00  0.00     0.028 A 
HETATM   33  C17 UNL     1       8.115  35.001  26.726  1.00  0.00     0.028 A 
ENDBRANCH   4  31
TORSDOF 7
ENDMDL
