MODEL 1
REMARK VINA RESULT: -7.013894304      0.000      0.000
REMARK  20 active torsions:
REMARK  status: ('A' for Active; 'I' for Inactive)
REMARK    1  A    between atoms: N1_1  and  C1_5 
REMARK    2  A    between atoms: C1_5  and  C2_6 
REMARK    3  A    between atoms: C2_6  and  C3_7 
REMARK    4  A    between atoms: C3_7  and  C4_8 
REMARK    5  A    between atoms: C4_8  and  C5_9 
REMARK    6  A    between atoms: C5_9  and  C6_10 
REMARK    7  A    between atoms: C6_10  and  C7_11 
REMARK    8  A    between atoms: C7_11  and  C8_12 
REMARK    9  A    between atoms: C8_12  and  N2_13 
REMARK       I    between atoms: N2_13  and  C9_15 
REMARK   10  A    between atoms: C9_15  and  C10_17 
REMARK       I    between atoms: N3_21  and  C14_22 
REMARK   11  A    between atoms: C14_22  and  C15_24 
REMARK   12  A    between atoms: C15_24  and  O3_25 
REMARK   13  A    between atoms: C15_24  and  N4_27 
REMARK       I    between atoms: N4_27  and  C16_29 
REMARK   14  A    between atoms: C16_29  and  C17_31 
REMARK   15  A    between atoms: C17_31  and  N5_32 
REMARK   16  A    between atoms: N5_32  and  C18_33 
REMARK   17  A    between atoms: N5_32  and  C24_42 
REMARK   18  A    between atoms: C18_33  and  C19_34 
REMARK   19  A    between atoms: C19_34  and  N6_35 
REMARK   20  A    between atoms: C22_38  and  O5_39 
ROOT
HETATM    1  C15 UNL     1       0.160   7.728  96.042  1.00  0.00     0.314 C 
ENDROOT
BRANCH   1   2
HETATM    2  C14 UNL     1      -1.257   7.673  96.441  1.00  0.00     0.269 C 
HETATM    3  N3  UNL     1      -2.031   6.485  96.482  1.00  0.00    -0.335 N 
HETATM    4  C10 UNL     1      -3.433   6.431  96.852  1.00  0.00     0.179 C 
HETATM    5  C13 UNL     1      -1.606   5.124  96.199  1.00  0.00     0.127 C 
HETATM    6  C11 UNL     1      -3.400   5.162  97.730  1.00  0.00     0.037 C 
HETATM    7  C12 UNL     1      -2.716   4.233  96.734  1.00  0.00     0.022 C 
HETATM    8  O2  UNL     1      -1.800   8.772  96.768  1.00  0.00    -0.268 OA
BRANCH   4   9
HETATM    9  C9  UNL     1      -4.230   6.173  95.639  1.00  0.00     0.240 C 
HETATM   10  N2  UNL     1      -3.828   6.630  94.350  1.00  0.00    -0.359 N 
ATOM     11  H2  UNL     1      -2.956   7.152  94.273  1.00  0.00     0.162 HD
HETATM   12  O1  UNL     1      -5.294   5.534  95.721  1.00  0.00    -0.271 OA
BRANCH  10  13
HETATM   13  C8  UNL     1      -4.595   6.394  93.143  1.00  0.00     0.122 C 
BRANCH  13  14
HETATM   14  C7  UNL     1      -3.642   6.051  92.036  1.00  0.00     0.020 C 
BRANCH  14  15
HETATM   15  C6  UNL     1      -2.411   5.295  92.511  1.00  0.00     0.002 C 
BRANCH  15  16
HETATM   16  C5  UNL     1      -1.200   6.048  92.210  1.00  0.00     0.000 C 
BRANCH  16  17
HETATM   17  C4  UNL     1      -0.135   5.372  91.452  1.00  0.00     0.000 C 
BRANCH  17  18
HETATM   18  C3  UNL     1       0.974   4.781  92.175  1.00  0.00     0.002 C 
BRANCH  18  19
HETATM   19  C2  UNL     1       1.424   3.390  92.062  1.00  0.00     0.027 C 
BRANCH  19  20
HETATM   20  C1  UNL     1       0.564   2.340  92.693  1.00  0.00     0.229 C 
BRANCH  20  21
HETATM   21  N1  UNL     1       0.097   2.561  94.004  1.00  0.00    -0.079 N 
ATOM     22  H13 UNL     1      -0.431   3.433  94.026  1.00  0.00     0.274 HD
ATOM     23  H12 UNL     1      -0.635   1.884  94.216  1.00  0.00     0.274 HD
ATOM     24  H11 UNL     1       0.778   2.564  94.764  1.00  0.00     0.274 HD
ENDBRANCH  20  21
ENDBRANCH  19  20
ENDBRANCH  18  19
ENDBRANCH  17  18
ENDBRANCH  16  17
ENDBRANCH  15  16
ENDBRANCH  14  15
ENDBRANCH  13  14
ENDBRANCH  10  13
ENDBRANCH   4   9
ENDBRANCH   1   2
BRANCH   1  25
HETATM   25  O3  UNL     1       0.898   8.568  96.915  1.00  0.00    -0.368 OA
ATOM     26  H3  UNL     1       0.889   9.466  96.607  1.00  0.00     0.212 HD
ENDBRANCH   1  25
BRANCH   1  27
HETATM   27  N4  UNL     1       0.325   8.237  94.687  1.00  0.00    -0.322 N 
HETATM   28  C16 UNL     1       1.456   8.034  93.878  1.00  0.00     0.259 C 
HETATM   29  O4  UNL     1       2.413   7.370  94.321  1.00  0.00    -0.267 OA
ATOM     30  H4  UNL     1      -0.442   8.782  94.294  1.00  0.00     0.165 HD
BRANCH  28  31
HETATM   31  C17 UNL     1       1.520   8.604  92.511  1.00  0.00     0.165 C 
BRANCH  31  32
HETATM   32  N5  UNL     1       2.305   9.736  92.349  1.00  0.00    -0.357 N 
BRANCH  32  33
HETATM   33  C18 UNL     1       3.659   9.770  92.735  1.00  0.00     0.094 C 
BRANCH  33  34
HETATM   34  C19 UNL     1       4.180  11.121  93.175  1.00  0.00     0.317 C 
BRANCH  34  35
HETATM   35  N6  UNL     1       3.966  11.361  94.575  1.00  0.00     0.095 N 
HETATM   36  C20 UNL     1       4.135  12.703  94.995  1.00  0.00     0.275 C 
HETATM   37  C21 UNL     1       5.237  12.729  96.031  1.00  0.00     0.064 C 
HETATM   38  C22 UNL     1       5.636  11.309  96.249  1.00  0.00     0.148 C 
HETATM   39  C23 UNL     1       4.682  10.484  95.447  1.00  0.00     0.304 C 
BRANCH  38  40
HETATM   40  O5  UNL     1       5.672  10.954  97.598  1.00  0.00    -0.394 OA
ATOM     41  H5  UNL     1       6.408  11.334  98.063  1.00  0.00     0.210 HD
ENDBRANCH  38  40
ENDBRANCH  34  35
ENDBRANCH  33  34
ENDBRANCH  32  33
BRANCH  32  42
HETATM   42  C24 UNL     1       1.946  10.765  91.464  1.00  0.00     0.116 C 
HETATM   43  C25 UNL     1       2.448  10.576  90.047  1.00  0.00     0.055 C 
HETATM   44  C26 UNL     1       1.544  11.516  89.276  1.00  0.00     0.234 C 
HETATM   45  N7  UNL     1       0.378  11.769  90.066  1.00  0.00    -0.073 N 
HETATM   46  C27 UNL     1       0.466  10.927  91.241  1.00  0.00     0.257 C 
ATOM     47  H72 UNL     1       0.254  12.755  90.291  1.00  0.00     0.277 HD
ATOM     48  H71 UNL     1      -0.491  11.641  89.548  1.00  0.00     0.277 HD
ENDBRANCH  32  42
ENDBRANCH  31  32
ENDBRANCH  28  31
ENDBRANCH   1  27
TORSDOF 20
ENDMDL
MODEL 2
REMARK VINA RESULT: -6.841941939      2.543      4.402
REMARK  20 active torsions:
REMARK  status: ('A' for Active; 'I' for Inactive)
REMARK    1  A    between atoms: N1_1  and  C1_5 
REMARK    2  A    between atoms: C1_5  and  C2_6 
REMARK    3  A    between atoms: C2_6  and  C3_7 
REMARK    4  A    between atoms: C3_7  and  C4_8 
REMARK    5  A    between atoms: C4_8  and  C5_9 
REMARK    6  A    between atoms: C5_9  and  C6_10 
REMARK    7  A    between atoms: C6_10  and  C7_11 
REMARK    8  A    between atoms: C7_11  and  C8_12 
REMARK    9  A    between atoms: C8_12  and  N2_13 
REMARK       I    between atoms: N2_13  and  C9_15 
REMARK   10  A    between atoms: C9_15  and  C10_17 
REMARK       I    between atoms: N3_21  and  C14_22 
REMARK   11  A    between atoms: C14_22  and  C15_24 
REMARK   12  A    between atoms: C15_24  and  O3_25 
REMARK   13  A    between atoms: C15_24  and  N4_27 
REMARK       I    between atoms: N4_27  and  C16_29 
REMARK   14  A    between atoms: C16_29  and  C17_31 
REMARK   15  A    between atoms: C17_31  and  N5_32 
REMARK   16  A    between atoms: N5_32  and  C18_33 
REMARK   17  A    between atoms: N5_32  and  C24_42 
REMARK   18  A    between atoms: C18_33  and  C19_34 
REMARK   19  A    between atoms: C19_34  and  N6_35 
REMARK   20  A    between atoms: C22_38  and  O5_39 
ROOT
HETATM    1  C15 UNL     1      -0.410   7.591  91.608  1.00  0.00     0.314 C 
ENDROOT
BRANCH   1   2
HETATM    2  C14 UNL     1      -0.818   8.163  92.902  1.00  0.00     0.269 C 
HETATM    3  N3  UNL     1      -0.828   7.447  94.126  1.00  0.00    -0.335 N 
HETATM    4  C10 UNL     1      -1.251   8.003  95.398  1.00  0.00     0.179 C 
HETATM    5  C13 UNL     1      -0.415   6.075  94.369  1.00  0.00     0.127 C 
HETATM    6  C11 UNL     1      -0.149   7.406  96.299  1.00  0.00     0.037 C 
HETATM    7  C12 UNL     1      -0.299   5.949  95.880  1.00  0.00     0.022 C 
HETATM    8  O2  UNL     1      -1.178   9.380  92.899  1.00  0.00    -0.268 OA
BRANCH   4   9
HETATM    9  C9  UNL     1      -2.555   7.413  95.757  1.00  0.00     0.240 C 
HETATM   10  N2  UNL     1      -2.945   7.189  97.110  1.00  0.00    -0.359 N 
ATOM     11  H2  UNL     1      -2.295   7.452  97.849  1.00  0.00     0.162 HD
HETATM   12  O1  UNL     1      -3.357   7.092  94.862  1.00  0.00    -0.271 OA
BRANCH  10  13
HETATM   13  C8  UNL     1      -4.217   6.608  97.489  1.00  0.00     0.122 C 
BRANCH  13  14
HETATM   14  C7  UNL     1      -4.120   6.146  98.913  1.00  0.00     0.020 C 
BRANCH  14  15
HETATM   15  C6  UNL     1      -4.296   4.645  99.075  1.00  0.00     0.002 C 
BRANCH  15  16
HETATM   16  C5  UNL     1      -3.378   3.924  98.202  1.00  0.00     0.000 C 
BRANCH  16  17
HETATM   17  C4  UNL     1      -3.180   2.486  98.442  1.00  0.00     0.000 C 
BRANCH  17  18
HETATM   18  C3  UNL     1      -2.255   1.754  97.598  1.00  0.00     0.002 C 
BRANCH  18  19
HETATM   19  C2  UNL     1      -1.917   2.087  96.211  1.00  0.00     0.027 C 
BRANCH  19  20
HETATM   20  C1  UNL     1      -0.500   2.476  95.926  1.00  0.00     0.229 C 
BRANCH  20  21
HETATM   21  N1  UNL     1      -0.050   2.424  94.592  1.00  0.00    -0.079 N 
ATOM     22  H13 UNL     1       0.691   1.728  94.517  1.00  0.00     0.274 HD
ATOM     23  H12 UNL     1      -0.775   2.001  94.012  1.00  0.00     0.274 HD
ATOM     24  H11 UNL     1       0.262   3.291  94.154  1.00  0.00     0.274 HD
ENDBRANCH  20  21
ENDBRANCH  19  20
ENDBRANCH  18  19
ENDBRANCH  17  18
ENDBRANCH  16  17
ENDBRANCH  15  16
ENDBRANCH  14  15
ENDBRANCH  13  14
ENDBRANCH  10  13
ENDBRANCH   4   9
ENDBRANCH   1   2
BRANCH   1  25
HETATM   25  O3  UNL     1       0.816   6.886  91.732  1.00  0.00    -0.368 OA
ATOM     26  H3  UNL     1       0.958   6.322  90.981  1.00  0.00     0.212 HD
ENDBRANCH   1  25
BRANCH   1  27
HETATM   27  N4  UNL     1      -0.234   8.618  90.589  1.00  0.00    -0.322 N 
HETATM   28  C16 UNL     1       0.401   8.428  89.350  1.00  0.00     0.259 C 
HETATM   29  O4  UNL     1       0.860   7.306  89.064  1.00  0.00    -0.267 OA
ATOM     30  H4  UNL     1      -0.602   9.547  90.791  1.00  0.00     0.165 HD
BRANCH  28  31
HETATM   31  C17 UNL     1       0.529   9.548  88.387  1.00  0.00     0.165 C 
BRANCH  31  32
HETATM   32  N5  UNL     1       0.908  10.775  88.912  1.00  0.00    -0.357 N 
BRANCH  32  33
HETATM   33  C18 UNL     1       2.222  11.029  89.347  1.00  0.00     0.094 C 
BRANCH  33  34
HETATM   34  C19 UNL     1       2.405  11.139  90.846  1.00  0.00     0.317 C 
BRANCH  34  35
HETATM   35  N6  UNL     1       3.105  10.013  91.396  1.00  0.00     0.095 N 
HETATM   36  C20 UNL     1       2.652   9.576  92.665  1.00  0.00     0.275 C 
HETATM   37  C21 UNL     1       3.809   9.685  93.634  1.00  0.00     0.064 C 
HETATM   38  C22 UNL     1       4.983  10.129  92.829  1.00  0.00     0.148 C 
HETATM   39  C23 UNL     1       4.528  10.141  91.406  1.00  0.00     0.304 C 
BRANCH  38  40
HETATM   40  O5  UNL     1       6.117   9.342  93.039  1.00  0.00    -0.394 OA
ATOM     41  H5  UNL     1       6.221   9.074  93.945  1.00  0.00     0.210 HD
ENDBRANCH  38  40
ENDBRANCH  34  35
ENDBRANCH  33  34
ENDBRANCH  32  33
BRANCH  32  42
HETATM   42  C24 UNL     1       0.152  11.938  88.695  1.00  0.00     0.116 C 
HETATM   43  C25 UNL     1       0.892  13.038  87.962  1.00  0.00     0.055 C 
HETATM   44  C26 UNL     1      -0.253  13.900  87.470  1.00  0.00     0.234 C 
HETATM   45  N7  UNL     1      -1.444  13.107  87.467  1.00  0.00    -0.073 N 
HETATM   46  C27 UNL     1      -1.061  11.756  87.820  1.00  0.00     0.257 C 
ATOM     47  H72 UNL     1      -2.176  13.484  88.068  1.00  0.00     0.277 HD
ATOM     48  H71 UNL     1      -1.957  13.159  86.587  1.00  0.00     0.277 HD
ENDBRANCH  32  42
ENDBRANCH  31  32
ENDBRANCH  28  31
ENDBRANCH   1  27
TORSDOF 20
ENDMDL
MODEL 3
REMARK VINA RESULT: -6.746394843      2.442      4.854
REMARK  20 active torsions:
REMARK  status: ('A' for Active; 'I' for Inactive)
REMARK    1  A    between atoms: N1_1  and  C1_5 
REMARK    2  A    between atoms: C1_5  and  C2_6 
REMARK    3  A    between atoms: C2_6  and  C3_7 
REMARK    4  A    between atoms: C3_7  and  C4_8 
REMARK    5  A    between atoms: C4_8  and  C5_9 
REMARK    6  A    between atoms: C5_9  and  C6_10 
REMARK    7  A    between atoms: C6_10  and  C7_11 
REMARK    8  A    between atoms: C7_11  and  C8_12 
REMARK    9  A    between atoms: C8_12  and  N2_13 
REMARK       I    between atoms: N2_13  and  C9_15 
REMARK   10  A    between atoms: C9_15  and  C10_17 
REMARK       I    between atoms: N3_21  and  C14_22 
REMARK   11  A    between atoms: C14_22  and  C15_24 
REMARK   12  A    between atoms: C15_24  and  O3_25 
REMARK   13  A    between atoms: C15_24  and  N4_27 
REMARK       I    between atoms: N4_27  and  C16_29 
REMARK   14  A    between atoms: C16_29  and  C17_31 
REMARK   15  A    between atoms: C17_31  and  N5_32 
REMARK   16  A    between atoms: N5_32  and  C18_33 
REMARK   17  A    between atoms: N5_32  and  C24_42 
REMARK   18  A    between atoms: C18_33  and  C19_34 
REMARK   19  A    between atoms: C19_34  and  N6_35 
REMARK   20  A    between atoms: C22_38  and  O5_39 
ROOT
HETATM    1  C15 UNL     1      -1.780   8.501  92.206  1.00  0.00     0.314 C 
ENDROOT
BRANCH   1   2
HETATM    2  C14 UNL     1      -1.377   7.871  93.475  1.00  0.00     0.269 C 
HETATM    3  N3  UNL     1      -0.462   6.793  93.578  1.00  0.00    -0.335 N 
HETATM    4  C10 UNL     1      -0.081   6.156  94.824  1.00  0.00     0.179 C 
HETATM    5  C13 UNL     1       0.278   6.136  92.512  1.00  0.00     0.127 C 
HETATM    6  C11 UNL     1       1.434   6.008  94.565  1.00  0.00     0.037 C 
HETATM    7  C12 UNL     1       1.350   5.315  93.211  1.00  0.00     0.022 C 
HETATM    8  O2  UNL     1      -1.893   8.342  94.534  1.00  0.00    -0.268 OA
BRANCH   4   9
HETATM    9  C9  UNL     1      -0.704   4.820  94.879  1.00  0.00     0.240 C 
HETATM   10  N2  UNL     1      -0.033   3.686  95.422  1.00  0.00    -0.359 N 
ATOM     11  H2  UNL     1       0.911   3.812  95.786  1.00  0.00     0.162 HD
HETATM   12  O1  UNL     1      -1.857   4.656  94.441  1.00  0.00    -0.271 OA
BRANCH  10  13
HETATM   13  C8  UNL     1      -0.621   2.363  95.483  1.00  0.00     0.122 C 
BRANCH  13  14
HETATM   14  C7  UNL     1      -1.153   2.145  96.869  1.00  0.00     0.020 C 
BRANCH  14  15
HETATM   15  C6  UNL     1      -2.664   2.271  96.964  1.00  0.00     0.002 C 
BRANCH  15  16
HETATM   16  C5  UNL     1      -3.068   2.580  98.330  1.00  0.00     0.000 C 
BRANCH  16  17
HETATM   17  C4  UNL     1      -3.640   3.909  98.599  1.00  0.00     0.000 C 
BRANCH  17  18
HETATM   18  C3  UNL     1      -3.287   5.014  97.729  1.00  0.00     0.002 C 
BRANCH  18  19
HETATM   19  C2  UNL     1      -3.746   6.398  97.875  1.00  0.00     0.027 C 
BRANCH  19  20
HETATM   20  C1  UNL     1      -4.299   7.068  96.655  1.00  0.00     0.229 C 
BRANCH  20  21
HETATM   21  N1  UNL     1      -4.121   6.435  95.409  1.00  0.00    -0.079 N 
ATOM     22  H13 UNL     1      -3.265   6.783  94.978  1.00  0.00     0.274 HD
ATOM     23  H12 UNL     1      -3.877   5.457  95.564  1.00  0.00     0.274 HD
ATOM     24  H11 UNL     1      -4.881   6.485  94.730  1.00  0.00     0.274 HD
ENDBRANCH  20  21
ENDBRANCH  19  20
ENDBRANCH  18  19
ENDBRANCH  17  18
ENDBRANCH  16  17
ENDBRANCH  15  16
ENDBRANCH  14  15
ENDBRANCH  13  14
ENDBRANCH  10  13
ENDBRANCH   4   9
ENDBRANCH   1   2
BRANCH   1  25
HETATM   25  O3  UNL     1      -2.469   7.575  91.380  1.00  0.00    -0.368 OA
ATOM     26  H3  UNL     1      -1.986   7.414  90.578  1.00  0.00     0.212 HD
ENDBRANCH   1  25
BRANCH   1  27
HETATM   27  N4  UNL     1      -0.634   9.001  91.458  1.00  0.00    -0.322 N 
HETATM   28  C16 UNL     1      -0.700   9.643  90.209  1.00  0.00     0.259 C 
HETATM   29  O4  UNL     1      -1.809   9.818  89.670  1.00  0.00    -0.267 OA
ATOM     30  H4  UNL     1       0.289   8.876  91.874  1.00  0.00     0.165 HD
BRANCH  28  31
HETATM   31  C17 UNL     1       0.534  10.109  89.532  1.00  0.00     0.165 C 
BRANCH  31  32
HETATM   32  N5  UNL     1       1.088  11.291  90.003  1.00  0.00    -0.357 N 
BRANCH  32  33
HETATM   33  C18 UNL     1       1.982  11.317  91.090  1.00  0.00     0.094 C 
BRANCH  33  34
HETATM   34  C19 UNL     1       3.375  10.797  90.805  1.00  0.00     0.317 C 
BRANCH  34  35
HETATM   35  N6  UNL     1       3.777   9.772  91.727  1.00  0.00     0.095 N 
HETATM   36  C20 UNL     1       2.922   9.587  92.842  1.00  0.00     0.275 C 
HETATM   37  C21 UNL     1       3.731   9.842  94.094  1.00  0.00     0.064 C 
HETATM   38  C22 UNL     1       5.128  10.100  93.641  1.00  0.00     0.148 C 
HETATM   39  C23 UNL     1       5.134   9.863  92.165  1.00  0.00     0.304 C 
BRANCH  38  40
HETATM   40  O5  UNL     1       6.074   9.335  94.325  1.00  0.00    -0.394 OA
ATOM     41  H5  UNL     1       6.195   8.471  93.950  1.00  0.00     0.210 HD
ENDBRANCH  38  40
ENDBRANCH  34  35
ENDBRANCH  33  34
ENDBRANCH  32  33
BRANCH  32  42
HETATM   42  C24 UNL     1       1.117  12.457  89.222  1.00  0.00     0.116 C 
HETATM   43  C25 UNL     1       0.917  12.223  87.739  1.00  0.00     0.055 C 
HETATM   44  C26 UNL     1       0.525  13.607  87.263  1.00  0.00     0.234 C 
HETATM   45  N7  UNL     1       0.056  14.355  88.390  1.00  0.00    -0.073 N 
HETATM   46  C27 UNL     1       0.027  13.452  89.521  1.00  0.00     0.257 C 
ATOM     47  H72 UNL     1       0.603  15.197  88.566  1.00  0.00     0.277 HD
ATOM     48  H71 UNL     1      -0.840  14.812  88.221  1.00  0.00     0.277 HD
ENDBRANCH  32  42
ENDBRANCH  31  32
ENDBRANCH  28  31
ENDBRANCH   1  27
TORSDOF 20
ENDMDL
MODEL 4
REMARK VINA RESULT: -6.557712268      2.678      5.535
REMARK  20 active torsions:
REMARK  status: ('A' for Active; 'I' for Inactive)
REMARK    1  A    between atoms: N1_1  and  C1_5 
REMARK    2  A    between atoms: C1_5  and  C2_6 
REMARK    3  A    between atoms: C2_6  and  C3_7 
REMARK    4  A    between atoms: C3_7  and  C4_8 
REMARK    5  A    between atoms: C4_8  and  C5_9 
REMARK    6  A    between atoms: C5_9  and  C6_10 
REMARK    7  A    between atoms: C6_10  and  C7_11 
REMARK    8  A    between atoms: C7_11  and  C8_12 
REMARK    9  A    between atoms: C8_12  and  N2_13 
REMARK       I    between atoms: N2_13  and  C9_15 
REMARK   10  A    between atoms: C9_15  and  C10_17 
REMARK       I    between atoms: N3_21  and  C14_22 
REMARK   11  A    between atoms: C14_22  and  C15_24 
REMARK   12  A    between atoms: C15_24  and  O3_25 
REMARK   13  A    between atoms: C15_24  and  N4_27 
REMARK       I    between atoms: N4_27  and  C16_29 
REMARK   14  A    between atoms: C16_29  and  C17_31 
REMARK   15  A    between atoms: C17_31  and  N5_32 
REMARK   16  A    between atoms: N5_32  and  C18_33 
REMARK   17  A    between atoms: N5_32  and  C24_42 
REMARK   18  A    between atoms: C18_33  and  C19_34 
REMARK   19  A    between atoms: C19_34  and  N6_35 
REMARK   20  A    between atoms: C22_38  and  O5_39 
ROOT
HETATM    1  C15 UNL     1       0.137   5.983  91.736  1.00  0.00     0.314 C 
ENDROOT
BRANCH   1   2
HETATM    2  C14 UNL     1      -1.117   5.531  92.362  1.00  0.00     0.269 C 
HETATM    3  N3  UNL     1      -2.312   6.294  92.399  1.00  0.00    -0.335 N 
HETATM    4  C10 UNL     1      -3.542   5.860  93.036  1.00  0.00     0.179 C 
HETATM    5  C13 UNL     1      -2.563   7.602  91.818  1.00  0.00     0.127 C 
HETATM    6  C11 UNL     1      -4.546   6.332  91.962  1.00  0.00     0.037 C 
HETATM    7  C12 UNL     1      -4.074   7.776  91.849  1.00  0.00     0.022 C 
HETATM    8  O2  UNL     1      -1.106   4.380  92.895  1.00  0.00    -0.268 OA
BRANCH   4   9
HETATM    9  C9  UNL     1      -3.734   6.645  94.270  1.00  0.00     0.240 C 
HETATM   10  N2  UNL     1      -2.641   7.109  95.058  1.00  0.00    -0.359 N 
ATOM     11  H2  UNL     1      -1.695   6.889  94.748  1.00  0.00     0.162 HD
HETATM   12  O1  UNL     1      -4.884   6.923  94.655  1.00  0.00    -0.271 OA
BRANCH  10  13
HETATM   13  C8  UNL     1      -2.802   7.877  96.275  1.00  0.00     0.122 C 
BRANCH  13  14
HETATM   14  C7  UNL     1      -2.542   6.972  97.444  1.00  0.00     0.020 C 
BRANCH  14  15
HETATM   15  C6  UNL     1      -3.808   6.389  98.051  1.00  0.00     0.002 C 
BRANCH  15  16
HETATM   16  C5  UNL     1      -3.679   4.947  98.216  1.00  0.00     0.000 C 
BRANCH  16  17
HETATM   17  C4  UNL     1      -2.923   4.198  97.199  1.00  0.00     0.000 C 
BRANCH  17  18
HETATM   18  C3  UNL     1      -2.601   2.806  97.447  1.00  0.00     0.002 C 
BRANCH  18  19
HETATM   19  C2  UNL     1      -1.544   2.041  96.780  1.00  0.00     0.027 C 
BRANCH  19  20
HETATM   20  C1  UNL     1      -0.495   2.818  96.047  1.00  0.00     0.229 C 
BRANCH  20  21
HETATM   21  N1  UNL     1      -0.132   2.391  94.753  1.00  0.00    -0.079 N 
ATOM     22  H13 UNL     1      -0.666   1.555  94.517  1.00  0.00     0.274 HD
ATOM     23  H12 UNL     1      -0.495   3.055  94.069  1.00  0.00     0.274 HD
ATOM     24  H11 UNL     1       0.856   2.222  94.562  1.00  0.00     0.274 HD
ENDBRANCH  20  21
ENDBRANCH  19  20
ENDBRANCH  18  19
ENDBRANCH  17  18
ENDBRANCH  16  17
ENDBRANCH  15  16
ENDBRANCH  14  15
ENDBRANCH  13  14
ENDBRANCH  10  13
ENDBRANCH   4   9
ENDBRANCH   1   2
BRANCH   1  25
HETATM   25  O3  UNL     1       1.142   4.987  91.843  1.00  0.00    -0.368 OA
ATOM     26  H3  UNL     1       1.662   4.945  91.049  1.00  0.00     0.212 HD
ENDBRANCH   1  25
BRANCH   1  27
HETATM   27  N4  UNL     1       0.647   7.200  92.353  1.00  0.00    -0.322 N 
HETATM   28  C16 UNL     1       1.020   8.365  91.660  1.00  0.00     0.259 C 
HETATM   29  O4  UNL     1       0.917   8.396  90.419  1.00  0.00    -0.267 OA
ATOM     30  H4  UNL     1       0.740   7.208  93.369  1.00  0.00     0.165 HD
BRANCH  28  31
HETATM   31  C17 UNL     1       1.532   9.549  92.391  1.00  0.00     0.165 C 
BRANCH  31  32
HETATM   32  N5  UNL     1       2.559  10.254  91.781  1.00  0.00    -0.357 N 
BRANCH  32  33
HETATM   33  C18 UNL     1       2.318  11.200  90.767  1.00  0.00     0.094 C 
BRANCH  33  34
HETATM   34  C19 UNL     1       1.074  12.044  90.941  1.00  0.00     0.317 C 
BRANCH  34  35
HETATM   35  N6  UNL     1       0.304  12.142  89.733  1.00  0.00     0.095 N 
HETATM   36  C20 UNL     1       0.862  11.499  88.602  1.00  0.00     0.275 C 
HETATM   37  C21 UNL     1       1.086  12.548  87.535  1.00  0.00     0.064 C 
HETATM   38  C22 UNL     1       0.543  13.823  88.086  1.00  0.00     0.148 C 
HETATM   39  C23 UNL     1      -0.098  13.470  89.389  1.00  0.00     0.304 C 
BRANCH  38  40
HETATM   40  O5  UNL     1      -0.323  14.472  87.204  1.00  0.00    -0.394 OA
ATOM     41  H5  UNL     1      -1.211  14.137  87.240  1.00  0.00     0.210 HD
ENDBRANCH  38  40
ENDBRANCH  34  35
ENDBRANCH  33  34
ENDBRANCH  32  33
BRANCH  32  42
HETATM   42  C24 UNL     1       3.827  10.373  92.371  1.00  0.00     0.116 C 
HETATM   43  C25 UNL     1       4.047   9.475  93.570  1.00  0.00     0.055 C 
HETATM   44  C26 UNL     1       5.559   9.464  93.669  1.00  0.00     0.234 C 
HETATM   45  N7  UNL     1       6.096   9.850  92.400  1.00  0.00    -0.073 N 
HETATM   46  C27 UNL     1       4.982   9.982  91.486  1.00  0.00     0.257 C 
ATOM     47  H72 UNL     1       6.673  10.688  92.449  1.00  0.00     0.277 HD
ATOM     48  H71 UNL     1       6.817   9.213  92.061  1.00  0.00     0.277 HD
ENDBRANCH  32  42
ENDBRANCH  31  32
ENDBRANCH  28  31
ENDBRANCH   1  27
TORSDOF 20
ENDMDL
MODEL 5
REMARK VINA RESULT: -6.500598380      2.494      5.164
REMARK  20 active torsions:
REMARK  status: ('A' for Active; 'I' for Inactive)
REMARK    1  A    between atoms: N1_1  and  C1_5 
REMARK    2  A    between atoms: C1_5  and  C2_6 
REMARK    3  A    between atoms: C2_6  and  C3_7 
REMARK    4  A    between atoms: C3_7  and  C4_8 
REMARK    5  A    between atoms: C4_8  and  C5_9 
REMARK    6  A    between atoms: C5_9  and  C6_10 
REMARK    7  A    between atoms: C6_10  and  C7_11 
REMARK    8  A    between atoms: C7_11  and  C8_12 
REMARK    9  A    between atoms: C8_12  and  N2_13 
REMARK       I    between atoms: N2_13  and  C9_15 
REMARK   10  A    between atoms: C9_15  and  C10_17 
REMARK       I    between atoms: N3_21  and  C14_22 
REMARK   11  A    between atoms: C14_22  and  C15_24 
REMARK   12  A    between atoms: C15_24  and  O3_25 
REMARK   13  A    between atoms: C15_24  and  N4_27 
REMARK       I    between atoms: N4_27  and  C16_29 
REMARK   14  A    between atoms: C16_29  and  C17_31 
REMARK   15  A    between atoms: C17_31  and  N5_32 
REMARK   16  A    between atoms: N5_32  and  C18_33 
REMARK   17  A    between atoms: N5_32  and  C24_42 
REMARK   18  A    between atoms: C18_33  and  C19_34 
REMARK   19  A    between atoms: C19_34  and  N6_35 
REMARK   20  A    between atoms: C22_38  and  O5_39 
ROOT
HETATM    1  C15 UNL     1       1.557   6.834  93.633  1.00  0.00     0.314 C 
ENDROOT
BRANCH   1   2
HETATM    2  C14 UNL     1       0.659   5.675  93.494  1.00  0.00     0.269 C 
HETATM    3  N3  UNL     1      -0.485   5.448  94.300  1.00  0.00    -0.335 N 
HETATM    4  C10 UNL     1      -1.358   4.295  94.180  1.00  0.00     0.179 C 
HETATM    5  C13 UNL     1      -1.023   6.289  95.356  1.00  0.00     0.127 C 
HETATM    6  C11 UNL     1      -2.718   5.007  94.333  1.00  0.00     0.037 C 
HETATM    7  C12 UNL     1      -2.422   5.756  95.626  1.00  0.00     0.022 C 
HETATM    8  O2  UNL     1       0.947   4.838  92.585  1.00  0.00    -0.268 OA
BRANCH   4   9
HETATM    9  C9  UNL     1      -1.130   3.411  95.339  1.00  0.00     0.240 C 
HETATM   10  N2  UNL     1      -2.149   2.563  95.864  1.00  0.00    -0.359 N 
ATOM     11  H2  UNL     1      -3.063   2.572  95.414  1.00  0.00     0.162 HD
HETATM   12  O1  UNL     1      -0.017   3.390  95.893  1.00  0.00    -0.271 OA
BRANCH  10  13
HETATM   13  C8  UNL     1      -1.953   1.690  97.003  1.00  0.00     0.122 C 
BRANCH  13  14
HETATM   14  C7  UNL     1      -2.916   2.094  98.080  1.00  0.00     0.020 C 
BRANCH  14  15
HETATM   15  C6  UNL     1      -4.325   2.342  97.569  1.00  0.00     0.002 C 
BRANCH  15  16
HETATM   16  C5  UNL     1      -4.822   3.629  98.040  1.00  0.00     0.000 C 
BRANCH  16  17
HETATM   17  C4  UNL     1      -3.918   4.468  98.843  1.00  0.00     0.000 C 
BRANCH  17  18
HETATM   18  C3  UNL     1      -4.480   5.540  99.641  1.00  0.00     0.002 C 
BRANCH  18  19
HETATM   19  C2  UNL     1      -5.899   5.708  99.970  1.00  0.00     0.027 C 
BRANCH  19  20
HETATM   20  C1  UNL     1      -6.567   6.962  99.497  1.00  0.00     0.229 C 
BRANCH  20  21
HETATM   21  N1  UNL     1      -7.023   7.880 100.464  1.00  0.00    -0.079 N 
ATOM     22  H13 UNL     1      -6.927   7.462 101.390  1.00  0.00     0.274 HD
ATOM     23  H12 UNL     1      -6.360   8.652 100.530  1.00  0.00     0.274 HD
ATOM     24  H11 UNL     1      -7.965   8.257 100.364  1.00  0.00     0.274 HD
ENDBRANCH  20  21
ENDBRANCH  19  20
ENDBRANCH  18  19
ENDBRANCH  17  18
ENDBRANCH  16  17
ENDBRANCH  15  16
ENDBRANCH  14  15
ENDBRANCH  13  14
ENDBRANCH  10  13
ENDBRANCH   4   9
ENDBRANCH   1   2
BRANCH   1  25
HETATM   25  O3  UNL     1       1.963   6.999  94.983  1.00  0.00    -0.368 OA
ATOM     26  H3  UNL     1       1.404   7.624  95.430  1.00  0.00     0.212 HD
ENDBRANCH   1  25
BRANCH   1  27
HETATM   27  N4  UNL     1       0.919   8.072  93.204  1.00  0.00    -0.322 N 
HETATM   28  C16 UNL     1       0.707   8.452  91.868  1.00  0.00     0.259 C 
HETATM   29  O4  UNL     1       1.078   7.696  90.951  1.00  0.00    -0.267 OA
ATOM     30  H4  UNL     1       0.600   8.713  93.931  1.00  0.00     0.165 HD
BRANCH  28  31
HETATM   31  C17 UNL     1       0.050   9.741  91.543  1.00  0.00     0.165 C 
BRANCH  31  32
HETATM   32  N5  UNL     1       0.810  10.661  90.836  1.00  0.00    -0.357 N 
BRANCH  32  33
HETATM   33  C18 UNL     1       1.976  11.240  91.372  1.00  0.00     0.094 C 
BRANCH  33  34
HETATM   34  C19 UNL     1       3.277  10.575  90.977  1.00  0.00     0.317 C 
BRANCH  34  35
HETATM   35  N6  UNL     1       4.298  10.731  91.974  1.00  0.00     0.095 N 
HETATM   36  C20 UNL     1       5.315   9.746  91.964  1.00  0.00     0.275 C 
HETATM   37  C21 UNL     1       5.303   9.052  93.307  1.00  0.00     0.064 C 
HETATM   38  C22 UNL     1       4.275   9.753  94.128  1.00  0.00     0.148 C 
HETATM   39  C23 UNL     1       3.809  10.910  93.305  1.00  0.00     0.304 C 
BRANCH  38  40
HETATM   40  O5  UNL     1       4.745  10.127  95.388  1.00  0.00    -0.394 OA
ATOM     41  H5  UNL     1       4.148   9.897  96.091  1.00  0.00     0.210 HD
ENDBRANCH  38  40
ENDBRANCH  34  35
ENDBRANCH  33  34
ENDBRANCH  32  33
BRANCH  32  42
HETATM   42  C24 UNL     1       0.710  10.787  89.441  1.00  0.00     0.116 C 
HETATM   43  C25 UNL     1      -0.584  10.262  88.856  1.00  0.00     0.055 C 
HETATM   44  C26 UNL     1      -0.606  10.944  87.503  1.00  0.00     0.234 C 
HETATM   45  N7  UNL     1       0.260  12.083  87.559  1.00  0.00    -0.073 N 
HETATM   46  C27 UNL     1       0.721  12.203  88.926  1.00  0.00     0.257 C 
ATOM     47  H72 UNL     1       1.021  12.039  86.883  1.00  0.00     0.277 HD
ATOM     48  H71 UNL     1      -0.178  12.935  87.209  1.00  0.00     0.277 HD
ENDBRANCH  32  42
ENDBRANCH  31  32
ENDBRANCH  28  31
ENDBRANCH   1  27
TORSDOF 20
ENDMDL
