MODEL 1
REMARK VINA RESULT: -6.382537756      0.000      0.000
REMARK  4 active torsions:
REMARK  status: ('A' for Active; 'I' for Inactive)
REMARK    1  A    between atoms: C2_2  and  C3_3 
REMARK    2  A    between atoms: C3_3  and  C4_4 
REMARK    3  A    between atoms: C4_4  and  C5_5 
REMARK    4  A    between atoms: N1_7  and  C6_9 
ROOT
HETATM    1  C6  UNL     1     -38.111  10.162  22.906  1.00  0.00     0.098 A 
HETATM    2  S1  UNL     1     -38.410  11.812  23.210  1.00  0.00    -0.045 SA
HETATM    3  C7  UNL     1     -39.569  11.659  24.468  1.00  0.00     0.121 A 
HETATM    4  C8  UNL     1     -39.687  10.306  24.611  1.00  0.00     0.008 A 
HETATM    5  C9  UNL     1     -38.931   9.522  23.802  1.00  0.00     0.088 A 
HETATM    6  C10 UNL     1     -38.981   8.042  23.875  1.00  0.00     0.103 C 
HETATM    7  N2  UNL     1     -39.007   6.883  23.916  1.00  0.00    -0.191 NA
HETATM    8  C11 UNL     1     -40.644   9.728  25.655  1.00  0.00     0.074 C 
HETATM    9  C12 UNL     1     -40.512  10.510  26.916  1.00  0.00     0.279 C 
HETATM   10  N3  UNL     1     -41.286  11.682  27.038  1.00  0.00     0.107 N 
HETATM   11  C13 UNL     1     -40.895  12.409  28.209  1.00  0.00     0.312 C 
HETATM   12  C14 UNL     1     -41.377  12.564  25.943  1.00  0.00     0.447 C 
HETATM   13  O2  UNL     1     -40.214  12.716  25.153  1.00  0.00    -0.314 OA
ENDROOT
BRANCH   1  14
HETATM   14  N1  UNL     1     -37.226   9.553  21.955  1.00  0.00    -0.353 N 
HETATM   15  C3  UNL     1     -35.954   9.549  22.123  1.00  0.00     0.012 C 
ATOM     16  H1  UNL     1     -37.619   9.112  21.123  1.00  0.00     0.166 HD
BRANCH  15  17
HETATM   17  C2  UNL     1     -34.991   8.939  21.179  1.00  0.00     0.052 C 
HETATM   18  C1  UNL     1     -35.638   7.742  20.508  1.00  0.00     0.011 C 
ENDBRANCH  15  17
BRANCH  15  19
HETATM   19  C4  UNL     1     -35.419  10.182  23.318  1.00  0.00     0.066 C 
BRANCH  19  20
HETATM   20  C5  UNL     1     -34.878  11.363  23.192  1.00  0.00     0.260 C 
HETATM   21  O1  UNL     1     -34.751  12.593  23.176  1.00  0.00    -0.302 OA
ENDBRANCH  19  20
ENDBRANCH  15  19
ENDBRANCH   1  14
TORSDOF 4
ENDMDL
MODEL 2
REMARK VINA RESULT: -6.109360320      1.085      1.172
REMARK  4 active torsions:
REMARK  status: ('A' for Active; 'I' for Inactive)
REMARK    1  A    between atoms: C2_2  and  C3_3 
REMARK    2  A    between atoms: C3_3  and  C4_4 
REMARK    3  A    between atoms: C4_4  and  C5_5 
REMARK    4  A    between atoms: N1_7  and  C6_9 
ROOT
HETATM    1  C6  UNL     1     -37.653  10.031  22.901  1.00  0.00     0.098 A 
HETATM    2  S1  UNL     1     -37.623  11.667  23.377  1.00  0.00    -0.045 SA
HETATM    3  C7  UNL     1     -39.027  11.697  24.365  1.00  0.00     0.121 A 
HETATM    4  C8  UNL     1     -39.480  10.410  24.289  1.00  0.00     0.008 A 
HETATM    5  C9  UNL     1     -38.769   9.539  23.530  1.00  0.00     0.088 A 
HETATM    6  C10 UNL     1     -39.172   8.121  23.379  1.00  0.00     0.103 C 
HETATM    7  N2  UNL     1     -39.471   7.008  23.249  1.00  0.00    -0.191 NA
HETATM    8  C11 UNL     1     -40.744   9.999  25.046  1.00  0.00     0.074 C 
HETATM    9  C12 UNL     1     -40.709  10.601  26.408  1.00  0.00     0.279 C 
HETATM   10  N3  UNL     1     -41.201  11.913  26.551  1.00  0.00     0.107 N 
HETATM   11  C13 UNL     1     -40.913  12.405  27.866  1.00  0.00     0.312 C 
HETATM   12  C14 UNL     1     -40.851  12.888  25.596  1.00  0.00     0.447 C 
HETATM   13  O2  UNL     1     -39.544  12.813  25.064  1.00  0.00    -0.314 OA
ENDROOT
BRANCH   1  14
HETATM   14  N1  UNL     1     -36.749   9.310  22.052  1.00  0.00    -0.353 N 
HETATM   15  C3  UNL     1     -35.476   9.393  22.195  1.00  0.00     0.012 C 
ATOM     16  H1  UNL     1     -37.128   8.715  21.315  1.00  0.00     0.166 HD
BRANCH  15  17
HETATM   17  C2  UNL     1     -34.494   8.675  21.352  1.00  0.00     0.052 C 
HETATM   18  C1  UNL     1     -34.222   9.486  20.100  1.00  0.00     0.011 C 
ENDBRANCH  15  17
BRANCH  15  19
HETATM   19  C4  UNL     1     -34.962  10.246  23.254  1.00  0.00     0.066 C 
BRANCH  19  20
HETATM   20  C5  UNL     1     -33.832   9.909  23.815  1.00  0.00     0.260 C 
HETATM   21  O1  UNL     1     -32.898   9.867  24.623  1.00  0.00    -0.302 OA
ENDBRANCH  19  20
ENDBRANCH  15  19
ENDBRANCH   1  14
TORSDOF 4
ENDMDL
MODEL 3
REMARK VINA RESULT: -6.100606537      2.245      2.720
REMARK  4 active torsions:
REMARK  status: ('A' for Active; 'I' for Inactive)
REMARK    1  A    between atoms: C2_2  and  C3_3 
REMARK    2  A    between atoms: C3_3  and  C4_4 
REMARK    3  A    between atoms: C4_4  and  C5_5 
REMARK    4  A    between atoms: N1_7  and  C6_9 
ROOT
HETATM    1  C6  UNL     1     -38.494   9.839  23.880  1.00  0.00     0.098 A 
HETATM    2  S1  UNL     1     -38.028  11.464  23.664  1.00  0.00    -0.045 SA
HETATM    3  C7  UNL     1     -39.230  12.229  24.623  1.00  0.00     0.121 A 
HETATM    4  C8  UNL     1     -39.966  11.175  25.087  1.00  0.00     0.008 A 
HETATM    5  C9  UNL     1     -39.588   9.930  24.704  1.00  0.00     0.088 A 
HETATM    6  C10 UNL     1     -40.316   8.718  25.150  1.00  0.00     0.103 C 
HETATM    7  N2  UNL     1     -40.873   7.758  25.487  1.00  0.00    -0.191 NA
HETATM    8  C11 UNL     1     -41.166  11.424  26.003  1.00  0.00     0.074 C 
HETATM    9  C12 UNL     1     -40.797  12.459  27.010  1.00  0.00     0.279 C 
HETATM   10  N3  UNL     1     -40.956  13.809  26.642  1.00  0.00     0.107 N 
HETATM   11  C13 UNL     1     -40.376  14.661  27.638  1.00  0.00     0.312 C 
HETATM   12  C14 UNL     1     -40.540  14.229  25.363  1.00  0.00     0.447 C 
HETATM   13  O2  UNL     1     -39.375  13.619  24.844  1.00  0.00    -0.314 OA
ENDROOT
BRANCH   1  14
HETATM   14  N1  UNL     1     -37.909   8.642  23.347  1.00  0.00    -0.353 N 
HETATM   15  C3  UNL     1     -38.191   8.219  22.168  1.00  0.00     0.012 C 
ATOM     16  H1  UNL     1     -37.251   8.114  23.919  1.00  0.00     0.166 HD
BRANCH  15  17
HETATM   17  C2  UNL     1     -37.622   6.995  21.563  1.00  0.00     0.052 C 
HETATM   18  C1  UNL     1     -38.125   5.782  22.322  1.00  0.00     0.011 C 
ENDBRANCH  15  17
BRANCH  15  19
HETATM   19  C4  UNL     1     -39.131   8.992  21.372  1.00  0.00     0.066 C 
BRANCH  19  20
HETATM   20  C5  UNL     1     -38.672   9.612  20.318  1.00  0.00     0.260 C 
HETATM   21  O1  UNL     1     -38.397  10.521  19.528  1.00  0.00    -0.302 OA
ENDBRANCH  19  20
ENDBRANCH  15  19
ENDBRANCH   1  14
TORSDOF 4
ENDMDL
MODEL 4
REMARK VINA RESULT: -5.456368136      4.171      5.742
REMARK  4 active torsions:
REMARK  status: ('A' for Active; 'I' for Inactive)
REMARK    1  A    between atoms: C2_2  and  C3_3 
REMARK    2  A    between atoms: C3_3  and  C4_4 
REMARK    3  A    between atoms: C4_4  and  C5_5 
REMARK    4  A    between atoms: N1_7  and  C6_9 
ROOT
HETATM    1  C6  UNL     1     -39.305   7.468  23.737  1.00  0.00     0.098 A 
HETATM    2  S1  UNL     1     -39.284   5.860  23.174  1.00  0.00    -0.045 SA
HETATM    3  C7  UNL     1     -40.894   5.406  23.565  1.00  0.00     0.121 A 
HETATM    4  C8  UNL     1     -41.402   6.541  24.130  1.00  0.00     0.008 A 
HETATM    5  C9  UNL     1     -40.580   7.617  24.222  1.00  0.00     0.088 A 
HETATM    6  C10 UNL     1     -41.030   8.898  24.818  1.00  0.00     0.103 C 
HETATM    7  N2  UNL     1     -41.363   9.908  25.281  1.00  0.00    -0.191 NA
HETATM    8  C11 UNL     1     -42.848   6.567  24.630  1.00  0.00     0.074 C 
HETATM    9  C12 UNL     1     -43.717   5.890  23.626  1.00  0.00     0.279 C 
HETATM   10  N3  UNL     1     -43.842   4.490  23.714  1.00  0.00     0.107 N 
HETATM   11  C13 UNL     1     -44.543   3.987  22.569  1.00  0.00     0.312 C 
HETATM   12  C14 UNL     1     -42.693   3.708  23.944  1.00  0.00     0.447 C 
HETATM   13  O2  UNL     1     -41.496   4.147  23.334  1.00  0.00    -0.314 OA
ENDROOT
BRANCH   1  14
HETATM   14  N1  UNL     1     -38.263   8.454  23.724  1.00  0.00    -0.353 N 
HETATM   15  C3  UNL     1     -38.118   9.270  22.744  1.00  0.00     0.012 C 
ATOM     16  H1  UNL     1     -37.621   8.508  24.514  1.00  0.00     0.166 HD
BRANCH  15  17
HETATM   17  C2  UNL     1     -37.065  10.307  22.673  1.00  0.00     0.052 C 
HETATM   18  C1  UNL     1     -37.463  11.485  23.542  1.00  0.00     0.011 C 
ENDBRANCH  15  17
BRANCH  15  19
HETATM   19  C4  UNL     1     -39.048   9.175  21.631  1.00  0.00     0.066 C 
BRANCH  19  20
HETATM   20  C5  UNL     1     -38.858   9.962  20.608  1.00  0.00     0.260 C 
HETATM   21  O1  UNL     1     -38.504  10.360  19.492  1.00  0.00    -0.302 OA
ENDBRANCH  19  20
ENDBRANCH  15  19
ENDBRANCH   1  14
TORSDOF 4
ENDMDL
MODEL 5
REMARK VINA RESULT: -5.320598740      3.153      6.522
REMARK  4 active torsions:
REMARK  status: ('A' for Active; 'I' for Inactive)
REMARK    1  A    between atoms: C2_2  and  C3_3 
REMARK    2  A    between atoms: C3_3  and  C4_4 
REMARK    3  A    between atoms: C4_4  and  C5_5 
REMARK    4  A    between atoms: N1_7  and  C6_9 
ROOT
HETATM    1  C6  UNL     1     -40.061  10.990  25.042  1.00  0.00     0.098 A 
HETATM    2  S1  UNL     1     -40.643   9.551  25.747  1.00  0.00    -0.045 SA
HETATM    3  C7  UNL     1     -40.132   8.428  24.552  1.00  0.00     0.121 A 
HETATM    4  C8  UNL     1     -39.516   9.225  23.630  1.00  0.00     0.008 A 
HETATM    5  C9  UNL     1     -39.475  10.558  23.879  1.00  0.00     0.088 A 
HETATM    6  C10 UNL     1     -38.831  11.511  22.944  1.00  0.00     0.103 C 
HETATM    7  N2  UNL     1     -38.333  12.272  22.225  1.00  0.00    -0.191 NA
HETATM    8  C11 UNL     1     -38.902   8.605  22.372  1.00  0.00     0.074 C 
HETATM    9  C12 UNL     1     -38.175   7.361  22.753  1.00  0.00     0.279 C 
HETATM   10  N3  UNL     1     -38.922   6.169  22.825  1.00  0.00     0.107 N 
HETATM   11  C13 UNL     1     -38.123   5.122  23.390  1.00  0.00     0.312 C 
HETATM   12  C14 UNL     1     -40.187   6.184  23.446  1.00  0.00     0.447 C 
HETATM   13  O2  UNL     1     -40.329   7.027  24.572  1.00  0.00    -0.314 OA
ENDROOT
BRANCH   1  14
HETATM   14  N1  UNL     1     -40.146  12.340  25.520  1.00  0.00    -0.353 N 
HETATM   15  C3  UNL     1     -40.639  12.620  26.671  1.00  0.00     0.012 C 
ATOM     16  H1  UNL     1     -39.804  13.098  24.929  1.00  0.00     0.166 HD
BRANCH  15  17
HETATM   17  C2  UNL     1     -40.753  13.989  27.219  1.00  0.00     0.052 C 
HETATM   18  C1  UNL     1     -40.330  14.989  26.159  1.00  0.00     0.011 C 
ENDBRANCH  15  17
BRANCH  15  19
HETATM   19  C4  UNL     1     -41.117  11.521  27.495  1.00  0.00     0.066 C 
BRANCH  19  20
HETATM   20  C5  UNL     1     -41.178  11.708  28.786  1.00  0.00     0.260 C 
HETATM   21  O1  UNL     1     -41.584  11.666  29.953  1.00  0.00    -0.302 OA
ENDBRANCH  19  20
ENDBRANCH  15  19
ENDBRANCH   1  14
TORSDOF 4
ENDMDL
