MODEL 1
REMARK VINA RESULT: -6.860855347      0.000      0.000
REMARK  4 active torsions:
REMARK  status: ('A' for Active; 'I' for Inactive)
REMARK    1  A    between atoms: C2_2  and  C3_3 
REMARK    2  A    between atoms: C3_3  and  O1_4 
REMARK    3  A    between atoms: O1_4  and  C4_5 
REMARK       I    between atoms: C4_5  and  N1_7 
REMARK    4  A    between atoms: N2_9  and  C5_11 
ROOT
HETATM    1  C5  UNL     1     -38.255   9.385  21.609  1.00  0.00     0.122 A 
HETATM    2  C6  UNL     1     -39.127   9.215  22.666  1.00  0.00     0.066 A 
HETATM    3  C7  UNL     1     -39.229  10.398  23.378  1.00  0.00     0.035 A 
HETATM    4  C8  UNL     1     -38.395  11.292  22.723  1.00  0.00     0.163 A 
HETATM    5  N3  UNL     1     -37.825  10.663  21.670  1.00  0.00    -0.321 N 
ATOM      6  H3  UNL     1     -37.168  11.091  21.019  1.00  0.00     0.169 HD
HETATM    7  O3  UNL     1     -38.498  12.428  23.412  1.00  0.00    -0.269 OA
HETATM    8  C9  UNL     1     -39.305  12.318  24.415  1.00  0.00     0.207 A 
HETATM    9  O4  UNL     1     -39.666  13.218  25.328  1.00  0.00    -0.250 OA
HETATM   10  C10 UNL     1     -40.516  12.869  26.271  1.00  0.00     0.290 A 
HETATM   11  O5  UNL     1     -40.818  13.764  27.104  1.00  0.00    -0.260 OA
HETATM   12  C11 UNL     1     -41.055  11.606  26.360  1.00  0.00     0.090 A 
HETATM   13  C12 UNL     1     -40.700  10.655  25.429  1.00  0.00    -0.040 A 
HETATM   14  C13 UNL     1     -41.235   9.273  25.454  1.00  0.00     0.049 C 
HETATM   15  C14 UNL     1     -39.808  11.037  24.447  1.00  0.00     0.044 A 
ENDROOT
BRANCH   1  16
HETATM   16  N2  UNL     1     -37.901   8.390  20.658  1.00  0.00    -0.281 N 
HETATM   17  N1  UNL     1     -36.855   7.709  20.684  1.00  0.00    -0.244 N 
HETATM   18  C4  UNL     1     -35.836   7.815  21.674  1.00  0.00     0.379 C 
ATOM     19  H1  UNL     1     -36.720   7.026  19.940  1.00  0.00     0.192 HD
HETATM   20  O2  UNL     1     -35.086   6.819  21.809  1.00  0.00    -0.237 OA
ATOM     21  H2  UNL     1     -38.554   8.218  19.893  1.00  0.00     0.188 HD
BRANCH  18  22
HETATM   22  O1  UNL     1     -35.663   8.935  22.454  1.00  0.00    -0.299 OA
BRANCH  22  23
HETATM   23  C3  UNL     1     -34.440   9.637  22.455  1.00  0.00     0.207 C 
BRANCH  23  24
HETATM   24  C2  UNL     1     -34.403  10.597  23.586  1.00  0.00    -0.011 C 
HETATM   25  C1  UNL     1     -34.872  11.822  23.528  1.00  0.00     0.009 C 
ENDBRANCH  23  24
ENDBRANCH  22  23
ENDBRANCH  18  22
ENDBRANCH   1  16
TORSDOF 4
ENDMDL
MODEL 2
REMARK VINA RESULT: -6.508306753      1.737      2.392
REMARK  4 active torsions:
REMARK  status: ('A' for Active; 'I' for Inactive)
REMARK    1  A    between atoms: C2_2  and  C3_3 
REMARK    2  A    between atoms: C3_3  and  O1_4 
REMARK    3  A    between atoms: O1_4  and  C4_5 
REMARK       I    between atoms: C4_5  and  N1_7 
REMARK    4  A    between atoms: N2_9  and  C5_11 
ROOT
HETATM    1  C5  UNL     1     -37.237   8.454  22.970  1.00  0.00     0.122 A 
HETATM    2  C6  UNL     1     -38.485   8.597  23.543  1.00  0.00     0.066 A 
HETATM    3  C7  UNL     1     -38.658   9.907  23.958  1.00  0.00     0.035 A 
HETATM    4  C8  UNL     1     -37.479  10.556  23.620  1.00  0.00     0.163 A 
HETATM    5  N3  UNL     1     -36.648   9.667  23.032  1.00  0.00    -0.321 N 
ATOM      6  H3  UNL     1     -35.713   9.880  22.686  1.00  0.00     0.169 HD
HETATM    7  O3  UNL     1     -37.651  11.814  24.021  1.00  0.00    -0.269 OA
HETATM    8  C9  UNL     1     -38.809  11.998  24.567  1.00  0.00     0.207 A 
HETATM    9  O4  UNL     1     -39.347  13.100  25.085  1.00  0.00    -0.250 OA
HETATM   10  C10 UNL     1     -40.560  13.044  25.592  1.00  0.00     0.290 A 
HETATM   11  O5  UNL     1     -41.014  14.118  26.067  1.00  0.00    -0.260 OA
HETATM   12  C11 UNL     1     -41.308  11.888  25.612  1.00  0.00     0.090 A 
HETATM   13  C12 UNL     1     -40.776  10.733  25.083  1.00  0.00    -0.040 A 
HETATM   14  C13 UNL     1     -41.514   9.448  25.065  1.00  0.00     0.049 C 
HETATM   15  C14 UNL     1     -39.503  10.810  24.556  1.00  0.00     0.044 A 
ENDROOT
BRANCH   1  16
HETATM   16  N2  UNL     1     -36.706   7.252  22.428  1.00  0.00    -0.281 N 
HETATM   17  N1  UNL     1     -36.285   7.114  21.261  1.00  0.00    -0.244 N 
HETATM   18  C4  UNL     1     -36.264   8.140  20.273  1.00  0.00     0.379 C 
ATOM     19  H1  UNL     1     -35.928   6.196  20.995  1.00  0.00     0.192 HD
HETATM   20  O2  UNL     1     -35.455   7.985  19.327  1.00  0.00    -0.237 OA
ATOM     21  H2  UNL     1     -36.667   6.438  23.041  1.00  0.00     0.188 HD
BRANCH  18  22
HETATM   22  O1  UNL     1     -37.075   9.250  20.329  1.00  0.00    -0.299 OA
BRANCH  22  23
HETATM   23  C3  UNL     1     -38.290   9.298  19.615  1.00  0.00     0.207 C 
BRANCH  23  24
HETATM   24  C2  UNL     1     -39.311  10.039  20.397  1.00  0.00    -0.011 C 
HETATM   25  C1  UNL     1     -39.230  11.316  20.691  1.00  0.00     0.009 C 
ENDBRANCH  23  24
ENDBRANCH  22  23
ENDBRANCH  18  22
ENDBRANCH   1  16
TORSDOF 4
ENDMDL
MODEL 3
REMARK VINA RESULT: -6.473140140      4.425      5.862
REMARK  4 active torsions:
REMARK  status: ('A' for Active; 'I' for Inactive)
REMARK    1  A    between atoms: C2_2  and  C3_3 
REMARK    2  A    between atoms: C3_3  and  O1_4 
REMARK    3  A    between atoms: O1_4  and  C4_5 
REMARK       I    between atoms: C4_5  and  N1_7 
REMARK    4  A    between atoms: N2_9  and  C5_11 
ROOT
HETATM    1  C5  UNL     1     -42.324   6.920  24.004  1.00  0.00     0.122 A 
HETATM    2  C6  UNL     1     -42.091   8.202  24.460  1.00  0.00     0.066 A 
HETATM    3  C7  UNL     1     -40.852   8.634  24.018  1.00  0.00     0.035 A 
HETATM    4  C8  UNL     1     -40.339   7.578  23.278  1.00  0.00     0.163 A 
HETATM    5  N3  UNL     1     -41.237   6.567  23.285  1.00  0.00    -0.321 N 
ATOM      6  H3  UNL     1     -41.112   5.671  22.817  1.00  0.00     0.169 HD
HETATM    7  O3  UNL     1     -39.149   8.000  22.855  1.00  0.00    -0.269 OA
HETATM    8  C9  UNL     1     -38.884   9.199  23.260  1.00  0.00     0.207 A 
HETATM    9  O4  UNL     1     -37.811   9.958  23.049  1.00  0.00    -0.250 OA
HETATM   10  C10 UNL     1     -37.766  11.165  23.571  1.00  0.00     0.290 A 
HETATM   11  O5  UNL     1     -36.726  11.834  23.336  1.00  0.00    -0.260 OA
HETATM   12  C11 UNL     1     -38.788  11.688  24.332  1.00  0.00     0.090 A 
HETATM   13  C12 UNL     1     -39.910  10.926  24.566  1.00  0.00    -0.040 A 
HETATM   14  C13 UNL     1     -41.054  11.413  25.373  1.00  0.00     0.049 C 
HETATM   15  C14 UNL     1     -39.941   9.661  24.011  1.00  0.00     0.044 A 
ENDROOT
BRANCH   1  16
HETATM   16  N2  UNL     1     -43.491   6.149  24.256  1.00  0.00    -0.281 N 
HETATM   17  N1  UNL     1     -43.573   5.217  25.082  1.00  0.00    -0.244 N 
HETATM   18  C4  UNL     1     -42.508   4.767  25.915  1.00  0.00     0.379 C 
ATOM     19  H1  UNL     1     -44.471   4.742  25.168  1.00  0.00     0.192 HD
HETATM   20  O2  UNL     1     -42.838   4.142  26.951  1.00  0.00    -0.237 OA
ATOM     21  H2  UNL     1     -44.328   6.376  23.719  1.00  0.00     0.188 HD
BRANCH  18  22
HETATM   22  O1  UNL     1     -41.183   4.994  25.623  1.00  0.00    -0.299 OA
BRANCH  22  23
HETATM   23  C3  UNL     1     -40.303   3.922  25.367  1.00  0.00     0.207 C 
BRANCH  23  24
HETATM   24  C2  UNL     1     -38.898   4.356  25.572  1.00  0.00    -0.011 C 
HETATM   25  C1  UNL     1     -38.186   4.996  24.673  1.00  0.00     0.009 C 
ENDBRANCH  23  24
ENDBRANCH  22  23
ENDBRANCH  18  22
ENDBRANCH   1  16
TORSDOF 4
ENDMDL
MODEL 4
REMARK VINA RESULT: -6.436859059      3.688      5.666
REMARK  4 active torsions:
REMARK  status: ('A' for Active; 'I' for Inactive)
REMARK    1  A    between atoms: C2_2  and  C3_3 
REMARK    2  A    between atoms: C3_3  and  O1_4 
REMARK    3  A    between atoms: O1_4  and  C4_5 
REMARK       I    between atoms: C4_5  and  N1_7 
REMARK    4  A    between atoms: N2_9  and  C5_11 
ROOT
HETATM    1  C5  UNL     1     -38.909   8.428  22.351  1.00  0.00     0.122 A 
HETATM    2  C6  UNL     1     -40.234   8.121  22.587  1.00  0.00     0.066 A 
HETATM    3  C7  UNL     1     -40.315   7.113  23.534  1.00  0.00     0.035 A 
HETATM    4  C8  UNL     1     -39.000   6.817  23.866  1.00  0.00     0.163 A 
HETATM    5  N3  UNL     1     -38.181   7.616  23.146  1.00  0.00    -0.321 N 
ATOM      6  H3  UNL     1     -37.163   7.607  23.197  1.00  0.00     0.169 HD
HETATM    7  O3  UNL     1     -39.085   5.848  24.776  1.00  0.00    -0.269 OA
HETATM    8  C9  UNL     1     -40.310   5.524  25.031  1.00  0.00     0.207 A 
HETATM    9  O4  UNL     1     -40.799   4.613  25.869  1.00  0.00    -0.250 OA
HETATM   10  C10 UNL     1     -42.103   4.459  25.960  1.00  0.00     0.290 A 
HETATM   11  O5  UNL     1     -42.504   3.582  26.770  1.00  0.00    -0.260 OA
HETATM   12  C11 UNL     1     -42.995   5.204  25.222  1.00  0.00     0.090 A 
HETATM   13  C12 UNL     1     -42.518   6.153  24.347  1.00  0.00    -0.040 A 
HETATM   14  C13 UNL     1     -43.411   6.996  23.517  1.00  0.00     0.049 C 
HETATM   15  C14 UNL     1     -41.148   6.301  24.264  1.00  0.00     0.044 A 
ENDROOT
BRANCH   1  16
HETATM   16  N2  UNL     1     -38.436   9.414  21.443  1.00  0.00    -0.281 N 
HETATM   17  N1  UNL     1     -38.009  10.543  21.764  1.00  0.00    -0.244 N 
HETATM   18  C4  UNL     1     -37.924  11.034  23.098  1.00  0.00     0.379 C 
ATOM     19  H1  UNL     1     -37.698  11.159  21.014  1.00  0.00     0.192 HD
HETATM   20  O2  UNL     1     -37.114  11.971  23.296  1.00  0.00    -0.237 OA
ATOM     21  H2  UNL     1     -38.446   9.181  20.450  1.00  0.00     0.188 HD
BRANCH  18  22
HETATM   22  O1  UNL     1     -38.676  10.527  24.133  1.00  0.00    -0.299 OA
BRANCH  22  23
HETATM   23  C3  UNL     1     -39.653  11.316  24.775  1.00  0.00     0.207 C 
BRANCH  23  24
HETATM   24  C2  UNL     1     -40.726  10.451  25.327  1.00  0.00    -0.011 C 
HETATM   25  C1  UNL     1     -40.514   9.443  26.140  1.00  0.00     0.009 C 
ENDBRANCH  23  24
ENDBRANCH  22  23
ENDBRANCH  18  22
ENDBRANCH   1  16
TORSDOF 4
ENDMDL
MODEL 5
REMARK VINA RESULT: -6.427485380      1.219      1.440
REMARK  4 active torsions:
REMARK  status: ('A' for Active; 'I' for Inactive)
REMARK    1  A    between atoms: C2_2  and  C3_3 
REMARK    2  A    between atoms: C3_3  and  O1_4 
REMARK    3  A    between atoms: O1_4  and  C4_5 
REMARK       I    between atoms: C4_5  and  N1_7 
REMARK    4  A    between atoms: N2_9  and  C5_11 
ROOT
HETATM    1  C5  UNL     1     -37.598   8.471  21.059  1.00  0.00     0.122 A 
HETATM    2  C6  UNL     1     -38.233   8.097  22.226  1.00  0.00     0.066 A 
HETATM    3  C7  UNL     1     -38.759   9.216  22.849  1.00  0.00     0.035 A 
HETATM    4  C8  UNL     1     -38.427  10.282  22.025  1.00  0.00     0.163 A 
HETATM    5  N3  UNL     1     -37.734   9.811  20.964  1.00  0.00    -0.321 N 
ATOM      6  H3  UNL     1     -37.368  10.383  20.204  1.00  0.00     0.169 HD
HETATM    7  O3  UNL     1     -38.936  11.355  22.628  1.00  0.00    -0.269 OA
HETATM    8  C9  UNL     1     -39.541  11.054  23.730  1.00  0.00     0.207 A 
HETATM    9  O4  UNL     1     -40.169  11.837  24.605  1.00  0.00    -0.250 OA
HETATM   10  C10 UNL     1     -40.719  11.295  25.671  1.00  0.00     0.290 A 
HETATM   11  O5  UNL     1     -41.297  12.087  26.461  1.00  0.00    -0.260 OA
HETATM   12  C11 UNL     1     -40.676   9.943  25.927  1.00  0.00     0.090 A 
HETATM   13  C12 UNL     1     -40.035   9.110  25.039  1.00  0.00    -0.040 A 
HETATM   14  C13 UNL     1     -39.944   7.644  25.241  1.00  0.00     0.049 C 
HETATM   15  C14 UNL     1     -39.463   9.694  23.927  1.00  0.00     0.044 A 
ENDROOT
BRANCH   1  16
HETATM   16  N2  UNL     1     -36.941   7.594  20.154  1.00  0.00    -0.281 N 
HETATM   17  N1  UNL     1     -35.704   7.453  20.059  1.00  0.00    -0.244 N 
HETATM   18  C4  UNL     1     -34.740   8.149  20.844  1.00  0.00     0.379 C 
ATOM     19  H1  UNL     1     -35.358   6.789  19.367  1.00  0.00     0.192 HD
HETATM   20  O2  UNL     1     -33.608   7.616  20.936  1.00  0.00    -0.237 OA
ATOM     21  H2  UNL     1     -37.526   7.036  19.533  1.00  0.00     0.188 HD
BRANCH  18  22
HETATM   22  O1  UNL     1     -35.009   9.340  21.478  1.00  0.00    -0.299 OA
BRANCH  22  23
HETATM   23  C3  UNL     1     -34.339   9.696  22.667  1.00  0.00     0.207 C 
BRANCH  23  24
HETATM   24  C2  UNL     1     -35.174  10.632  23.462  1.00  0.00    -0.011 C 
HETATM   25  C1  UNL     1     -35.044  11.938  23.437  1.00  0.00     0.009 C 
ENDBRANCH  23  24
ENDBRANCH  22  23
ENDBRANCH  18  22
ENDBRANCH   1  16
TORSDOF 4
ENDMDL
