MODEL 1
REMARK VINA RESULT: -6.800742168      0.000      0.000
REMARK  4 active torsions:
REMARK  status: ('A' for Active; 'I' for Inactive)
REMARK    1  A    between atoms: S1_2  and  C2_3 
REMARK    2  A    between atoms: C3_6  and  N2_7 
REMARK    3  A    between atoms: C4_12  and  N4_13 
REMARK    4  A    between atoms: C10_19  and  O1_20 
ROOT
HETATM    1  C2  UNL     1       3.497   4.728  22.158  1.00  0.00     0.110 A 
HETATM    2  N1  UNL     1       3.783   5.654  21.196  1.00  0.00    -0.184 N 
ATOM      3  H1  UNL     1       4.461   5.457  20.459  1.00  0.00     0.185 HD
HETATM    4  C3  UNL     1       3.152   6.817  21.251  1.00  0.00     0.678 A 
HETATM    5  N3  UNL     1       2.263   7.091  22.211  1.00  0.00    -0.175 N 
ATOM      6  H3  UNL     1       1.805   8.002  22.208  1.00  0.00     0.186 HD
HETATM    7  C4  UNL     1       1.944   6.203  23.192  1.00  0.00     0.144 A 
HETATM    8  C11 UNL     1       2.592   4.987  23.148  1.00  0.00     0.123 A 
HETATM    9  C12 UNL     1       2.329   3.980  24.133  1.00  0.00     0.106 C 
HETATM   10  N5  UNL     1       2.126   3.176  24.944  1.00  0.00    -0.191 NA
ENDROOT
BRANCH   1  11
HETATM   11  S1  UNL     1       4.358   3.162  22.067  1.00  0.00    -0.115 SA
HETATM   12  C1  UNL     1       6.029   3.298  22.736  1.00  0.00     0.097 C 
ENDBRANCH   1  11
BRANCH   7  13
HETATM   13  N4  UNL     1       1.001   6.531  24.195  1.00  0.00    -0.339 N 
HETATM   14  C5  UNL     1       1.484   6.984  25.473  1.00  0.00     0.127 C 
HETATM   15  C6  UNL     1       0.719   8.126  26.063  1.00  0.00     0.024 C 
HETATM   16  C7  UNL     1      -0.759   7.772  26.040  1.00  0.00    -0.013 C 
HETATM   17  C8  UNL     1      -1.629   8.818  26.657  1.00  0.00     0.010 C 
HETATM   18  C9  UNL     1      -1.114   7.652  24.551  1.00  0.00     0.058 C 
HETATM   19  C10 UNL     1      -0.421   6.432  23.994  1.00  0.00     0.221 C 
BRANCH  19  20
HETATM   20  O1  UNL     1      -0.768   6.294  22.655  1.00  0.00    -0.377 OA
ATOM     21  H1  UNL     1      -0.934   7.127  22.230  1.00  0.00     0.212 HD
ENDBRANCH  19  20
ENDBRANCH   7  13
BRANCH   4  22
HETATM   22  N2  UNL     1       3.414   7.700  20.347  1.00  0.00    -0.234 N 
ATOM     23  H22 UNL     1       2.915   7.681  19.457  1.00  0.00     0.174 HD
ATOM     24  H21 UNL     1       4.123   8.404  20.550  1.00  0.00     0.174 HD
ENDBRANCH   4  22
TORSDOF 4
ENDMDL
MODEL 2
REMARK VINA RESULT: -6.660855182      4.140      6.700
REMARK  4 active torsions:
REMARK  status: ('A' for Active; 'I' for Inactive)
REMARK    1  A    between atoms: S1_2  and  C2_3 
REMARK    2  A    between atoms: C3_6  and  N2_7 
REMARK    3  A    between atoms: C4_12  and  N4_13 
REMARK    4  A    between atoms: C10_19  and  O1_20 
ROOT
HETATM    1  C2  UNL     1      -0.932  11.350  24.047  1.00  0.00     0.110 A 
HETATM    2  N1  UNL     1      -2.157  11.443  24.643  1.00  0.00    -0.184 N 
ATOM      3  H1  UNL     1      -2.654  12.333  24.691  1.00  0.00     0.185 HD
HETATM    4  C3  UNL     1      -2.679  10.339  25.158  1.00  0.00     0.678 A 
HETATM    5  N3  UNL     1      -2.039   9.167  25.104  1.00  0.00    -0.175 N 
ATOM      6  H3  UNL     1      -2.485   8.348  25.517  1.00  0.00     0.186 HD
HETATM    7  C4  UNL     1      -0.818   9.022  24.522  1.00  0.00     0.144 A 
HETATM    8  C11 UNL     1      -0.262  10.161  23.981  1.00  0.00     0.123 A 
HETATM    9  C12 UNL     1       1.021  10.119  23.344  1.00  0.00     0.106 C 
HETATM   10  N5  UNL     1       2.068  10.083  22.846  1.00  0.00    -0.191 NA
ENDROOT
BRANCH   1  11
HETATM   11  S1  UNL     1      -0.243  12.849  23.356  1.00  0.00    -0.115 SA
HETATM   12  C1  UNL     1      -0.705  13.039  21.621  1.00  0.00     0.097 C 
ENDBRANCH   1  11
BRANCH   7  13
HETATM   13  N4  UNL     1      -0.170   7.764  24.489  1.00  0.00    -0.339 N 
HETATM   14  C5  UNL     1      -0.374   6.914  23.346  1.00  0.00     0.127 C 
HETATM   15  C6  UNL     1       0.855   6.218  22.854  1.00  0.00     0.024 C 
HETATM   16  C7  UNL     1       1.520   5.532  24.037  1.00  0.00    -0.013 C 
HETATM   17  C8  UNL     1       2.738   4.752  23.662  1.00  0.00     0.010 C 
HETATM   18  C9  UNL     1       1.935   6.675  24.974  1.00  0.00     0.058 C 
HETATM   19  C10 UNL     1       0.686   7.297  25.548  1.00  0.00     0.221 C 
BRANCH  19  20
HETATM   20  O1  UNL     1       1.054   8.308  26.429  1.00  0.00    -0.377 OA
ATOM     21  H1  UNL     1       1.893   8.697  26.212  1.00  0.00     0.212 HD
ENDBRANCH  19  20
ENDBRANCH   7  13
BRANCH   4  22
HETATM   22  N2  UNL     1      -3.836  10.416  25.725  1.00  0.00    -0.234 N 
ATOM     23  H22 UNL     1      -4.666  10.609  25.163  1.00  0.00     0.174 HD
ATOM     24  H21 UNL     1      -3.891  10.277  26.734  1.00  0.00     0.174 HD
ENDBRANCH   4  22
TORSDOF 4
ENDMDL
MODEL 3
REMARK VINA RESULT: -6.652571174      4.215      6.265
REMARK  4 active torsions:
REMARK  status: ('A' for Active; 'I' for Inactive)
REMARK    1  A    between atoms: S1_2  and  C2_3 
REMARK    2  A    between atoms: C3_6  and  N2_7 
REMARK    3  A    between atoms: C4_12  and  N4_13 
REMARK    4  A    between atoms: C10_19  and  O1_20 
ROOT
HETATM    1  C2  UNL     1       0.178   8.099  25.720  1.00  0.00     0.110 A 
HETATM    2  N1  UNL     1      -0.626   7.812  26.787  1.00  0.00    -0.184 N 
ATOM      3  H1  UNL     1      -0.412   7.036  27.415  1.00  0.00     0.185 HD
HETATM    4  C3  UNL     1      -1.692   8.574  26.980  1.00  0.00     0.678 A 
HETATM    5  N3  UNL     1      -1.986   9.593  26.165  1.00  0.00    -0.175 N 
ATOM      6  H3  UNL     1      -2.819  10.148  26.358  1.00  0.00     0.186 HD
HETATM    7  C4  UNL     1      -1.219   9.918  25.090  1.00  0.00     0.144 A 
HETATM    8  C11 UNL     1      -0.105   9.135  24.876  1.00  0.00     0.123 A 
HETATM    9  C12 UNL     1       0.771   9.392  23.771  1.00  0.00     0.106 C 
HETATM   10  N5  UNL     1       1.467   9.593  22.865  1.00  0.00    -0.191 NA
ENDROOT
BRANCH   1  11
HETATM   11  S1  UNL     1       1.613   7.061  25.476  1.00  0.00    -0.115 SA
HETATM   12  C1  UNL     1       1.294   5.787  24.238  1.00  0.00     0.097 C 
ENDBRANCH   1  11
BRANCH   7  13
HETATM   13  N4  UNL     1      -1.566  11.001  24.247  1.00  0.00    -0.339 N 
HETATM   14  C5  UNL     1      -0.557  11.979  23.932  1.00  0.00     0.127 C 
HETATM   15  C6  UNL     1      -0.546  12.432  22.507  1.00  0.00     0.024 C 
HETATM   16  C7  UNL     1      -1.960  12.843  22.127  1.00  0.00    -0.013 C 
HETATM   17  C8  UNL     1      -2.070  13.369  20.733  1.00  0.00     0.010 C 
HETATM   18  C9  UNL     1      -2.788  11.554  22.233  1.00  0.00     0.058 C 
HETATM   19  C10 UNL     1      -2.881  11.169  23.689  1.00  0.00     0.221 C 
BRANCH  19  20
HETATM   20  O1  UNL     1      -3.663  10.024  23.799  1.00  0.00    -0.377 OA
ATOM     21  H1  UNL     1      -4.318  10.090  24.484  1.00  0.00     0.212 HD
ENDBRANCH  19  20
ENDBRANCH   7  13
BRANCH   4  22
HETATM   22  N2  UNL     1      -2.459   8.312  27.985  1.00  0.00    -0.234 N 
ATOM     23  H22 UNL     1      -2.049   8.100  28.895  1.00  0.00     0.174 HD
ATOM     24  H21 UNL     1      -3.468   8.327  27.840  1.00  0.00     0.174 HD
ENDBRANCH   4  22
TORSDOF 4
ENDMDL
MODEL 4
REMARK VINA RESULT: -6.572602019      3.904      5.244
REMARK  4 active torsions:
REMARK  status: ('A' for Active; 'I' for Inactive)
REMARK    1  A    between atoms: S1_2  and  C2_3 
REMARK    2  A    between atoms: C3_6  and  N2_7 
REMARK    3  A    between atoms: C4_12  and  N4_13 
REMARK    4  A    between atoms: C10_19  and  O1_20 
ROOT
HETATM    1  C2  UNL     1       2.714   4.577  19.598  1.00  0.00     0.110 A 
HETATM    2  N1  UNL     1       2.837   5.916  19.359  1.00  0.00    -0.184 N 
ATOM      3  H1  UNL     1       2.546   6.322  18.469  1.00  0.00     0.185 HD
HETATM    4  C3  UNL     1       3.348   6.671  20.321  1.00  0.00     0.678 A 
HETATM    5  N3  UNL     1       3.735   6.154  21.491  1.00  0.00    -0.175 N 
ATOM      6  H3  UNL     1       4.122   6.779  22.198  1.00  0.00     0.186 HD
HETATM    7  C4  UNL     1       3.634   4.827  21.778  1.00  0.00     0.144 A 
HETATM    8  C11 UNL     1       3.103   4.028  20.787  1.00  0.00     0.123 A 
HETATM    9  C12 UNL     1       2.953   2.617  20.986  1.00  0.00     0.106 C 
HETATM   10  N5  UNL     1       2.850   1.473  21.145  1.00  0.00    -0.191 NA
ENDROOT
BRANCH   1  11
HETATM   11  S1  UNL     1       2.022   3.574  18.290  1.00  0.00    -0.115 SA
HETATM   12  C1  UNL     1       1.343   4.601  16.969  1.00  0.00     0.097 C 
ENDBRANCH   1  11
BRANCH   7  13
HETATM   13  N4  UNL     1       4.059   4.316  23.027  1.00  0.00    -0.339 N 
HETATM   14  C5  UNL     1       3.061   3.968  24.005  1.00  0.00     0.127 C 
HETATM   15  C6  UNL     1       3.325   2.696  24.745  1.00  0.00     0.024 C 
HETATM   16  C7  UNL     1       4.745   2.746  25.287  1.00  0.00    -0.013 C 
HETATM   17  C8  UNL     1       5.113   1.546  26.097  1.00  0.00     0.010 C 
HETATM   18  C9  UNL     1       5.641   2.792  24.041  1.00  0.00     0.058 C 
HETATM   19  C10 UNL     1       5.445   4.127  23.364  1.00  0.00     0.221 C 
BRANCH  19  20
HETATM   20  O1  UNL     1       6.283   4.193  22.256  1.00  0.00    -0.377 OA
ATOM     21  H1  UNL     1       7.187   3.994  22.467  1.00  0.00     0.212 HD
ENDBRANCH  19  20
ENDBRANCH   7  13
BRANCH   4  22
HETATM   22  N2  UNL     1       3.469   7.938  20.106  1.00  0.00    -0.234 N 
ATOM     23  H22 UNL     1       2.680   8.561  20.280  1.00  0.00     0.174 HD
ATOM     24  H21 UNL     1       4.364   8.287  19.765  1.00  0.00     0.174 HD
ENDBRANCH   4  22
TORSDOF 4
ENDMDL
MODEL 5
REMARK VINA RESULT: -6.520262509      1.272      1.698
REMARK  4 active torsions:
REMARK  status: ('A' for Active; 'I' for Inactive)
REMARK    1  A    between atoms: S1_2  and  C2_3 
REMARK    2  A    between atoms: C3_6  and  N2_7 
REMARK    3  A    between atoms: C4_12  and  N4_13 
REMARK    4  A    between atoms: C10_19  and  O1_20 
ROOT
HETATM    1  C2  UNL     1       3.167   4.451  21.807  1.00  0.00     0.110 A 
HETATM    2  N1  UNL     1       3.593   5.226  20.765  1.00  0.00    -0.184 N 
ATOM      3  H1  UNL     1       4.259   4.867  20.079  1.00  0.00     0.185 HD
HETATM    4  C3  UNL     1       3.114   6.457  20.674  1.00  0.00     0.678 A 
HETATM    5  N3  UNL     1       2.242   6.941  21.565  1.00  0.00    -0.175 N 
ATOM      6  H3  UNL     1       1.905   7.896  21.450  1.00  0.00     0.186 HD
HETATM    7  C4  UNL     1       1.788   6.211  22.620  1.00  0.00     0.144 A 
HETATM    8  C11 UNL     1       2.277   4.927  22.728  1.00  0.00     0.123 A 
HETATM    9  C12 UNL     1       1.863   4.073  23.802  1.00  0.00     0.106 C 
HETATM   10  N5  UNL     1       1.539   3.392  24.684  1.00  0.00    -0.191 NA
ENDROOT
BRANCH   1  11
HETATM   11  S1  UNL     1       3.823   2.791  21.913  1.00  0.00    -0.115 SA
HETATM   12  C1  UNL     1       5.331   2.749  22.905  1.00  0.00     0.097 C 
ENDBRANCH   1  11
BRANCH   7  13
HETATM   13  N4  UNL     1       0.869   6.760  23.546  1.00  0.00    -0.339 N 
HETATM   14  C5  UNL     1      -0.530   6.464  23.385  1.00  0.00     0.127 C 
HETATM   15  C6  UNL     1      -1.260   6.172  24.657  1.00  0.00     0.024 C 
HETATM   16  C7  UNL     1      -0.964   7.290  25.644  1.00  0.00    -0.013 C 
HETATM   17  C8  UNL     1      -1.684   7.139  26.944  1.00  0.00     0.010 C 
HETATM   18  C9  UNL     1       0.547   7.198  25.903  1.00  0.00     0.058 C 
HETATM   19  C10 UNL     1       1.270   7.602  24.642  1.00  0.00     0.221 C 
BRANCH  19  20
HETATM   20  O1  UNL     1       2.640   7.560  24.879  1.00  0.00    -0.377 OA
ATOM     21  H1  UNL     1       3.135   8.100  24.275  1.00  0.00     0.212 HD
ENDBRANCH  19  20
ENDBRANCH   7  13
BRANCH   4  22
HETATM   22  N2  UNL     1       3.509   7.198  19.694  1.00  0.00    -0.234 N 
ATOM     23  H22 UNL     1       4.506   7.354  19.545  1.00  0.00     0.174 HD
ATOM     24  H21 UNL     1       2.804   7.611  19.084  1.00  0.00     0.174 HD
ENDBRANCH   4  22
TORSDOF 4
ENDMDL
