MODEL 1
REMARK VINA RESULT: -8.699170113      0.000      0.000
REMARK  9 active torsions:
REMARK  status: ('A' for Active; 'I' for Inactive)
REMARK    1  A    between atoms: N1_1  and  C1_5 
REMARK    2  A    between atoms: C4_9  and  C5_10 
REMARK    3  A    between atoms: C5_10  and  O2_11 
REMARK    4  A    between atoms: C6_13  and  O3_14 
REMARK    5  A    between atoms: C8_17  and  O4_18 
REMARK    6  A    between atoms: O4_18  and  C9_19 
REMARK    7  A    between atoms: C9_19  and  C10_20 
REMARK    8  A    between atoms: C13_23  and  O5_24 
REMARK    9  A    between atoms: O5_24  and  C14_25 
ROOT
HETATM    1  C1  UNL     1     -36.547 -13.113  24.333  1.00  0.00     0.215 C 
HETATM    2  C2  UNL     1     -36.733 -14.407  25.156  1.00  0.00     0.070 C 
HETATM    3  C3  UNL     1     -37.906 -15.055  24.616  1.00  0.00     0.164 A 
HETATM    4  O1  UNL     1     -38.936 -15.751  25.020  1.00  0.00    -0.364 OA
HETATM    5  C4  UNL     1     -39.122 -14.411  25.295  1.00  0.00     0.134 A 
HETATM    6  C6  UNL     1     -39.503 -13.332  24.386  1.00  0.00     0.160 C 
HETATM    7  C7  UNL     1     -38.813 -12.044  24.465  1.00  0.00     0.069 C 
HETATM    8  C8  UNL     1     -37.351 -11.993  24.839  1.00  0.00     0.154 C 
ENDROOT
BRANCH   8   9
HETATM    9  O4  UNL     1     -36.889 -10.810  24.300  1.00  0.00    -0.379 OA
BRANCH   9  10
HETATM   10  C9  UNL     1     -37.686 -10.063  23.526  1.00  0.00     0.206 C 
BRANCH  10  11
HETATM   11  C10 UNL     1     -37.684  -8.589  23.668  1.00  0.00    -0.034 A 
HETATM   12  C11 UNL     1     -36.684  -7.882  24.275  1.00  0.00     0.012 A 
HETATM   13  C12 UNL     1     -36.758  -6.522  24.388  1.00  0.00     0.038 A 
HETATM   14  C13 UNL     1     -37.826  -5.782  23.907  1.00  0.00     0.076 A 
HETATM   15  C20 UNL     1     -38.834  -6.501  23.295  1.00  0.00     0.038 A 
HETATM   16  C21 UNL     1     -38.779  -7.859  23.172  1.00  0.00     0.012 A 
BRANCH  14  17
HETATM   17  O5  UNL     1     -37.919  -4.415  24.011  1.00  0.00    -0.311 OA
BRANCH  17  18
HETATM   18  C14 UNL     1     -38.999  -3.844  24.666  1.00  0.00     0.076 A 
HETATM   19  C15 UNL     1     -39.192  -4.062  26.021  1.00  0.00     0.039 A 
HETATM   20  C16 UNL     1     -40.258  -3.505  26.701  1.00  0.00     0.026 A 
HETATM   21  C17 UNL     1     -41.167  -2.710  26.043  1.00  0.00     0.034 A 
HETATM   22 CL1  UNL     1     -42.506  -2.016  26.921  1.00  0.00    -0.084 Cl
HETATM   23  C18 UNL     1     -40.979  -2.490  24.698  1.00  0.00     0.026 A 
HETATM   24  C19 UNL     1     -39.912  -3.046  24.015  1.00  0.00     0.039 A 
ENDBRANCH  17  18
ENDBRANCH  14  17
ENDBRANCH  10  11
ENDBRANCH   9  10
ENDBRANCH   8   9
BRANCH   1  25
HETATM   25  N1  UNL     1     -35.154 -12.888  24.137  1.00  0.00    -0.072 N 
ATOM     26  H13 UNL     1     -34.945 -12.532  23.204  1.00  0.00     0.274 HD
ATOM     27  H12 UNL     1     -34.810 -12.092  24.674  1.00  0.00     0.274 HD
ATOM     28  H11 UNL     1     -34.648 -13.749  24.348  1.00  0.00     0.274 HD
ENDBRANCH   1  25
BRANCH   6  29
HETATM   29  O3  UNL     1     -40.898 -13.064  24.475  1.00  0.00    -0.392 OA
ATOM     30  H3  UNL     1     -41.057 -12.135  24.594  1.00  0.00     0.210 HD
ENDBRANCH   6  29
BRANCH   5  31
HETATM   31  C5  UNL     1     -39.325 -14.247  26.727  1.00  0.00     0.207 C 
BRANCH  31  32
HETATM   32  O2  UNL     1     -40.510 -14.833  27.152  1.00  0.00    -0.398 OA
ATOM     33  H2  UNL     1     -41.183 -14.185  27.323  1.00  0.00     0.209 HD
ENDBRANCH  31  32
ENDBRANCH   5  31
TORSDOF 9
ENDMDL
MODEL 2
REMARK VINA RESULT: -8.585986310      0.620      1.401
REMARK  9 active torsions:
REMARK  status: ('A' for Active; 'I' for Inactive)
REMARK    1  A    between atoms: N1_1  and  C1_5 
REMARK    2  A    between atoms: C4_9  and  C5_10 
REMARK    3  A    between atoms: C5_10  and  O2_11 
REMARK    4  A    between atoms: C6_13  and  O3_14 
REMARK    5  A    between atoms: C8_17  and  O4_18 
REMARK    6  A    between atoms: O4_18  and  C9_19 
REMARK    7  A    between atoms: C9_19  and  C10_20 
REMARK    8  A    between atoms: C13_23  and  O5_24 
REMARK    9  A    between atoms: O5_24  and  C14_25 
ROOT
HETATM    1  C1  UNL     1     -36.286 -13.065  24.128  1.00  0.00     0.215 C 
HETATM    2  C2  UNL     1     -36.591 -14.256  25.064  1.00  0.00     0.070 C 
HETATM    3  C3  UNL     1     -37.798 -14.863  24.552  1.00  0.00     0.164 A 
HETATM    4  O1  UNL     1     -38.888 -15.438  24.989  1.00  0.00    -0.364 OA
HETATM    5  C4  UNL     1     -38.976 -14.067  25.131  1.00  0.00     0.134 A 
HETATM    6  C6  UNL     1     -39.251 -13.055  24.114  1.00  0.00     0.160 C 
HETATM    7  C7  UNL     1     -38.465 -11.821  24.091  1.00  0.00     0.069 C 
HETATM    8  C8  UNL     1     -37.013 -11.845  24.502  1.00  0.00     0.154 C 
ENDROOT
BRANCH   8   9
HETATM    9  O4  UNL     1     -36.448 -10.757  23.868  1.00  0.00    -0.379 OA
BRANCH   9  10
HETATM   10  C9  UNL     1     -36.100  -9.671  24.571  1.00  0.00     0.206 C 
BRANCH  10  11
HETATM   11  C10 UNL     1     -36.714  -8.360  24.256  1.00  0.00    -0.034 A 
HETATM   12  C11 UNL     1     -37.904  -8.211  23.602  1.00  0.00     0.012 A 
HETATM   13  C12 UNL     1     -38.401  -6.969  23.328  1.00  0.00     0.038 A 
HETATM   14  C13 UNL     1     -37.749  -5.800  23.685  1.00  0.00     0.076 A 
HETATM   15  C20 UNL     1     -36.546  -5.955  24.346  1.00  0.00     0.038 A 
HETATM   16  C21 UNL     1     -36.033  -7.188  24.630  1.00  0.00     0.012 A 
BRANCH  14  17
HETATM   17  O5  UNL     1     -38.232  -4.541  23.419  1.00  0.00    -0.311 OA
BRANCH  17  18
HETATM   18  C14 UNL     1     -39.184  -3.976  24.252  1.00  0.00     0.076 A 
HETATM   19  C15 UNL     1     -40.137  -3.108  23.741  1.00  0.00     0.039 A 
HETATM   20  C16 UNL     1     -41.099  -2.530  24.547  1.00  0.00     0.026 A 
HETATM   21  C17 UNL     1     -41.137  -2.804  25.894  1.00  0.00     0.034 A 
HETATM   22 CL1  UNL     1     -42.360  -2.063  26.894  1.00  0.00    -0.084 Cl
HETATM   23  C18 UNL     1     -40.193  -3.665  26.406  1.00  0.00     0.026 A 
HETATM   24  C19 UNL     1     -39.229  -4.245  25.602  1.00  0.00     0.039 A 
ENDBRANCH  17  18
ENDBRANCH  14  17
ENDBRANCH  10  11
ENDBRANCH   9  10
ENDBRANCH   8   9
BRANCH   1  25
HETATM   25  N1  UNL     1     -34.877 -12.965  23.954  1.00  0.00    -0.072 N 
ATOM     26  H13 UNL     1     -34.393 -13.834  24.185  1.00  0.00     0.274 HD
ATOM     27  H12 UNL     1     -34.609 -12.911  22.971  1.00  0.00     0.274 HD
ATOM     28  H11 UNL     1     -34.532 -12.172  24.496  1.00  0.00     0.274 HD
ENDBRANCH   1  25
BRANCH   6  29
HETATM   29  O3  UNL     1     -40.623 -12.676  24.135  1.00  0.00    -0.392 OA
ATOM     30  H3  UNL     1     -41.186 -13.439  24.091  1.00  0.00     0.210 HD
ENDBRANCH   6  29
BRANCH   5  31
HETATM   31  C5  UNL     1     -39.197 -13.751  26.535  1.00  0.00     0.207 C 
BRANCH  31  32
HETATM   32  O2  UNL     1     -40.547 -13.765  26.861  1.00  0.00    -0.398 OA
ATOM     33  H2  UNL     1     -40.851 -12.911  27.144  1.00  0.00     0.209 HD
ENDBRANCH  31  32
ENDBRANCH   5  31
TORSDOF 9
ENDMDL
MODEL 3
REMARK VINA RESULT: -8.507079338      1.064      1.298
REMARK  9 active torsions:
REMARK  status: ('A' for Active; 'I' for Inactive)
REMARK    1  A    between atoms: N1_1  and  C1_5 
REMARK    2  A    between atoms: C4_9  and  C5_10 
REMARK    3  A    between atoms: C5_10  and  O2_11 
REMARK    4  A    between atoms: C6_13  and  O3_14 
REMARK    5  A    between atoms: C8_17  and  O4_18 
REMARK    6  A    between atoms: O4_18  and  C9_19 
REMARK    7  A    between atoms: C9_19  and  C10_20 
REMARK    8  A    between atoms: C13_23  and  O5_24 
REMARK    9  A    between atoms: O5_24  and  C14_25 
ROOT
HETATM    1  C1  UNL     1     -36.415 -13.549  24.478  1.00  0.00     0.215 C 
HETATM    2  C2  UNL     1     -36.949 -14.741  25.303  1.00  0.00     0.070 C 
HETATM    3  C3  UNL     1     -38.179 -15.147  24.662  1.00  0.00     0.164 A 
HETATM    4  O1  UNL     1     -39.367 -15.594  24.975  1.00  0.00    -0.364 OA
HETATM    5  C4  UNL     1     -39.286 -14.235  25.205  1.00  0.00     0.134 A 
HETATM    6  C6  UNL     1     -39.342 -13.136  24.244  1.00  0.00     0.160 C 
HETATM    7  C7  UNL     1     -38.402 -12.020  24.366  1.00  0.00     0.069 C 
HETATM    8  C8  UNL     1     -37.005 -12.265  24.881  1.00  0.00     0.154 C 
ENDROOT
BRANCH   8   9
HETATM    9  O4  UNL     1     -36.252 -11.228  24.368  1.00  0.00    -0.379 OA
BRANCH   9  10
HETATM   10  C9  UNL     1     -36.852 -10.174  23.801  1.00  0.00     0.206 C 
BRANCH  10  11
HETATM   11  C10 UNL     1     -36.777  -8.844  24.448  1.00  0.00    -0.034 A 
HETATM   12  C11 UNL     1     -36.408  -8.648  25.749  1.00  0.00     0.012 A 
HETATM   13  C12 UNL     1     -36.380  -7.392  26.286  1.00  0.00     0.038 A 
HETATM   14  C13 UNL     1     -36.716  -6.256  25.567  1.00  0.00     0.076 A 
HETATM   15  C20 UNL     1     -37.088  -6.460  24.253  1.00  0.00     0.038 A 
HETATM   16  C21 UNL     1     -37.122  -7.706  23.697  1.00  0.00     0.012 A 
BRANCH  14  17
HETATM   17  O5  UNL     1     -36.694  -4.985  26.088  1.00  0.00    -0.311 OA
BRANCH  17  18
HETATM   18  C14 UNL     1     -37.844  -4.212  26.072  1.00  0.00     0.076 A 
HETATM   19  C15 UNL     1     -38.992  -4.650  26.714  1.00  0.00     0.039 A 
HETATM   20  C16 UNL     1     -40.153  -3.900  26.715  1.00  0.00     0.026 A 
HETATM   21  C17 UNL     1     -40.200  -2.685  26.072  1.00  0.00     0.034 A 
HETATM   22 CL1  UNL     1     -41.677  -1.755  26.086  1.00  0.00    -0.084 Cl
HETATM   23  C18 UNL     1     -39.063  -2.247  25.434  1.00  0.00     0.026 A 
HETATM   24  C19 UNL     1     -37.900  -2.995  25.431  1.00  0.00     0.039 A 
ENDBRANCH  17  18
ENDBRANCH  14  17
ENDBRANCH  10  11
ENDBRANCH   9  10
ENDBRANCH   8   9
BRANCH   1  25
HETATM   25  N1  UNL     1     -34.995 -13.630  24.416  1.00  0.00    -0.072 N 
ATOM     26  H13 UNL     1     -34.550 -13.334  25.285  1.00  0.00     0.274 HD
ATOM     27  H12 UNL     1     -34.661 -14.594  24.406  1.00  0.00     0.274 HD
ATOM     28  H11 UNL     1     -34.668 -13.097  23.610  1.00  0.00     0.274 HD
ENDBRANCH   1  25
BRANCH   6  29
HETATM   29  O3  UNL     1     -40.649 -12.576  24.189  1.00  0.00    -0.392 OA
ATOM     30  H3  UNL     1     -41.283 -13.158  24.591  1.00  0.00     0.210 HD
ENDBRANCH   6  29
BRANCH   5  31
HETATM   31  C5  UNL     1     -39.580 -13.975  26.607  1.00  0.00     0.207 C 
BRANCH  31  32
HETATM   32  O2  UNL     1     -40.542 -14.844  27.104  1.00  0.00    -0.398 OA
ATOM     33  H2  UNL     1     -40.682 -15.585  26.525  1.00  0.00     0.209 HD
ENDBRANCH  31  32
ENDBRANCH   5  31
TORSDOF 9
ENDMDL
MODEL 4
REMARK VINA RESULT: -8.302994507      1.643      2.197
REMARK  9 active torsions:
REMARK  status: ('A' for Active; 'I' for Inactive)
REMARK    1  A    between atoms: N1_1  and  C1_5 
REMARK    2  A    between atoms: C4_9  and  C5_10 
REMARK    3  A    between atoms: C5_10  and  O2_11 
REMARK    4  A    between atoms: C6_13  and  O3_14 
REMARK    5  A    between atoms: C8_17  and  O4_18 
REMARK    6  A    between atoms: O4_18  and  C9_19 
REMARK    7  A    between atoms: C9_19  and  C10_20 
REMARK    8  A    between atoms: C13_23  and  O5_24 
REMARK    9  A    between atoms: O5_24  and  C14_25 
ROOT
HETATM    1  C1  UNL     1     -36.271 -13.003  24.082  1.00  0.00     0.215 C 
HETATM    2  C2  UNL     1     -36.609 -14.200  24.997  1.00  0.00     0.070 C 
HETATM    3  C3  UNL     1     -37.843 -14.753  24.486  1.00  0.00     0.164 A 
HETATM    4  O1  UNL     1     -38.948 -15.297  24.924  1.00  0.00    -0.364 OA
HETATM    5  C4  UNL     1     -38.985 -13.928  25.092  1.00  0.00     0.134 A 
HETATM    6  C6  UNL     1     -39.233 -12.887  24.097  1.00  0.00     0.160 C 
HETATM    7  C7  UNL     1     -38.403 -11.681  24.091  1.00  0.00     0.069 C 
HETATM    8  C8  UNL     1     -36.949 -11.765  24.486  1.00  0.00     0.154 C 
ENDROOT
BRANCH   8   9
HETATM    9  O4  UNL     1     -36.351 -10.686  23.868  1.00  0.00    -0.379 OA
BRANCH   9  10
HETATM   10  C9  UNL     1     -35.443  -9.950  24.521  1.00  0.00     0.206 C 
BRANCH  10  11
HETATM   11  C10 UNL     1     -35.875  -8.776  25.314  1.00  0.00    -0.034 A 
HETATM   12  C11 UNL     1     -36.286  -7.594  24.766  1.00  0.00     0.012 A 
HETATM   13  C12 UNL     1     -36.652  -6.545  25.560  1.00  0.00     0.038 A 
HETATM   14  C13 UNL     1     -36.633  -6.603  26.944  1.00  0.00     0.076 A 
HETATM   15  C20 UNL     1     -36.216  -7.799  27.493  1.00  0.00     0.038 A 
HETATM   16  C21 UNL     1     -35.847  -8.860  26.718  1.00  0.00     0.012 A 
BRANCH  14  17
HETATM   17  O5  UNL     1     -36.997  -5.559  27.760  1.00  0.00    -0.311 OA
BRANCH  17  18
HETATM   18  C14 UNL     1     -38.010  -4.698  27.369  1.00  0.00     0.076 A 
HETATM   19  C15 UNL     1     -37.861  -3.328  27.516  1.00  0.00     0.039 A 
HETATM   20  C16 UNL     1     -38.854  -2.445  27.135  1.00  0.00     0.026 A 
HETATM   21  C17 UNL     1     -40.030  -2.908  26.594  1.00  0.00     0.034 A 
HETATM   22 CL1  UNL     1     -41.270  -1.776  26.120  1.00  0.00    -0.084 Cl
HETATM   23  C18 UNL     1     -40.182  -4.268  26.447  1.00  0.00     0.026 A 
HETATM   24  C19 UNL     1     -39.190  -5.154  26.827  1.00  0.00     0.039 A 
ENDBRANCH  17  18
ENDBRANCH  14  17
ENDBRANCH  10  11
ENDBRANCH   9  10
ENDBRANCH   8   9
BRANCH   1  25
HETATM   25  N1  UNL     1     -34.860 -12.950  23.895  1.00  0.00    -0.072 N 
ATOM     26  H13 UNL     1     -34.351 -13.437  24.633  1.00  0.00     0.274 HD
ATOM     27  H12 UNL     1     -34.550 -13.521  23.108  1.00  0.00     0.274 HD
ATOM     28  H11 UNL     1     -34.575 -11.975  23.805  1.00  0.00     0.274 HD
ENDBRANCH   1  25
BRANCH   6  29
HETATM   29  O3  UNL     1     -40.590 -12.459  24.139  1.00  0.00    -0.392 OA
ATOM     30  H3  UNL     1     -41.021 -12.619  23.308  1.00  0.00     0.210 HD
ENDBRANCH   6  29
BRANCH   5  31
HETATM   31  C5  UNL     1     -39.182 -13.631  26.504  1.00  0.00     0.207 C 
BRANCH  31  32
HETATM   32  O2  UNL     1     -40.515 -13.743  26.875  1.00  0.00    -0.398 OA
ATOM     33  H2  UNL     1     -40.762 -13.081  27.509  1.00  0.00     0.209 HD
ENDBRANCH  31  32
ENDBRANCH   5  31
TORSDOF 9
ENDMDL
MODEL 5
REMARK VINA RESULT: -8.120533222      1.350      1.668
REMARK  9 active torsions:
REMARK  status: ('A' for Active; 'I' for Inactive)
REMARK    1  A    between atoms: N1_1  and  C1_5 
REMARK    2  A    between atoms: C4_9  and  C5_10 
REMARK    3  A    between atoms: C5_10  and  O2_11 
REMARK    4  A    between atoms: C6_13  and  O3_14 
REMARK    5  A    between atoms: C8_17  and  O4_18 
REMARK    6  A    between atoms: O4_18  and  C9_19 
REMARK    7  A    between atoms: C9_19  and  C10_20 
REMARK    8  A    between atoms: C13_23  and  O5_24 
REMARK    9  A    between atoms: O5_24  and  C14_25 
ROOT
HETATM    1  C1  UNL     1     -36.282 -13.364  24.123  1.00  0.00     0.215 C 
HETATM    2  C2  UNL     1     -36.641 -14.485  25.122  1.00  0.00     0.070 C 
HETATM    3  C3  UNL     1     -37.879 -15.058  24.648  1.00  0.00     0.164 A 
HETATM    4  O1  UNL     1     -38.994 -15.553  25.119  1.00  0.00    -0.364 OA
HETATM    5  C4  UNL     1     -39.013 -14.174  25.185  1.00  0.00     0.134 A 
HETATM    6  C6  UNL     1     -39.243 -13.207  24.115  1.00  0.00     0.160 C 
HETATM    7  C7  UNL     1     -38.396 -12.016  24.023  1.00  0.00     0.069 C 
HETATM    8  C8  UNL     1     -36.945 -12.090  24.431  1.00  0.00     0.154 C 
ENDROOT
BRANCH   8   9
HETATM    9  O4  UNL     1     -36.330 -11.068  23.737  1.00  0.00    -0.379 OA
BRANCH   9  10
HETATM   10  C9  UNL     1     -35.847 -10.003  24.390  1.00  0.00     0.206 C 
BRANCH  10  11
HETATM   11  C10 UNL     1     -36.562  -8.708  24.324  1.00  0.00    -0.034 A 
HETATM   12  C11 UNL     1     -36.302  -7.650  25.148  1.00  0.00     0.012 A 
HETATM   13  C12 UNL     1     -37.016  -6.490  25.043  1.00  0.00     0.038 A 
HETATM   14  C13 UNL     1     -38.030  -6.309  24.117  1.00  0.00     0.076 A 
HETATM   15  C20 UNL     1     -38.289  -7.382  23.287  1.00  0.00     0.038 A 
HETATM   16  C21 UNL     1     -37.587  -8.549  23.375  1.00  0.00     0.012 A 
BRANCH  14  17
HETATM   17  O5  UNL     1     -38.759  -5.151  23.996  1.00  0.00    -0.311 OA
BRANCH  17  18
HETATM   18  C14 UNL     1     -38.617  -4.143  24.937  1.00  0.00     0.076 A 
HETATM   19  C15 UNL     1     -37.735  -3.097  24.715  1.00  0.00     0.039 A 
HETATM   20  C16 UNL     1     -37.573  -2.078  25.634  1.00  0.00     0.026 A 
HETATM   21  C17 UNL     1     -38.291  -2.075  26.807  1.00  0.00     0.034 A 
HETATM   22 CL1  UNL     1     -38.070  -0.778  27.954  1.00  0.00    -0.084 Cl
HETATM   23  C18 UNL     1     -39.167  -3.112  27.031  1.00  0.00     0.026 A 
HETATM   24  C19 UNL     1     -39.332  -4.132  26.113  1.00  0.00     0.039 A 
ENDBRANCH  17  18
ENDBRANCH  14  17
ENDBRANCH  10  11
ENDBRANCH   9  10
ENDBRANCH   8   9
BRANCH   1  25
HETATM   25  N1  UNL     1     -34.870 -13.344  23.939  1.00  0.00    -0.072 N 
ATOM     26  H13 UNL     1     -34.469 -14.281  23.899  1.00  0.00     0.274 HD
ATOM     27  H12 UNL     1     -34.604 -13.034  23.005  1.00  0.00     0.274 HD
ATOM     28  H11 UNL     1     -34.450 -12.772  24.673  1.00  0.00     0.274 HD
ENDBRANCH   1  25
BRANCH   6  29
HETATM   29  O3  UNL     1     -40.594 -12.759  24.119  1.00  0.00    -0.392 OA
ATOM     30  H3  UNL     1     -40.825 -12.373  23.282  1.00  0.00     0.210 HD
ENDBRANCH   6  29
BRANCH   5  31
HETATM   31  C5  UNL     1     -39.211 -13.772  26.570  1.00  0.00     0.207 C 
BRANCH  31  32
HETATM   32  O2  UNL     1     -40.553 -13.789  26.927  1.00  0.00    -0.398 OA
ATOM     33  H2  UNL     1     -40.715 -14.366  27.663  1.00  0.00     0.209 HD
ENDBRANCH  31  32
ENDBRANCH   5  31
TORSDOF 9
ENDMDL
