MODEL 1
REMARK VINA RESULT: -8.299137258      0.000      0.000
REMARK  11 active torsions:
REMARK  status: ('A' for Active; 'I' for Inactive)
REMARK    1  A    between atoms: C2_2  and  N1_3 
REMARK    2  A    between atoms: C2_2  and  N2_7 
REMARK    3  A    between atoms: N2_7  and  C3_9 
REMARK    4  A    between atoms: C3_9  and  O1_10 
REMARK    5  A    between atoms: C3_9  and  C4_12 
REMARK    6  A    between atoms: C5_15  and  C6_16 
REMARK    7  A    between atoms: C10_22  and  N5_23 
REMARK    8  A    between atoms: N5_23  and  C11_25 
REMARK    9  A    between atoms: C14_30  and  O2_31 
REMARK   10  A    between atoms: O2_31  and  C15_32 
REMARK   11  A    between atoms: C15_32  and  C16_33 
ROOT
HETATM    1  C4  UNL     1     -34.271  -9.219  26.002  1.00  0.00     0.128 A 
HETATM    2  N3  UNL     1     -33.956  -8.608  27.194  1.00  0.00    -0.352 N 
ATOM      3  H3  UNL     1     -32.999  -8.679  27.539  1.00  0.00     0.166 HD
HETATM    4  C5  UNL     1     -34.844  -7.927  27.915  1.00  0.00     0.029 A 
HETATM    5  C9  UNL     1     -36.128  -7.844  27.425  1.00  0.00     0.115 A 
HETATM    6  N4  UNL     1     -36.454  -8.435  26.263  1.00  0.00    -0.348 N 
ATOM      7  H4  UNL     1     -37.413  -8.358  25.925  1.00  0.00     0.167 HD
HETATM    8  C10 UNL     1     -35.550  -9.134  25.521  1.00  0.00     0.137 A 
ENDROOT
BRANCH   8   9
HETATM    9  N5  UNL     1     -35.935  -9.675  24.424  1.00  0.00    -0.338 N 
ATOM     10  H5  UNL     1     -35.223  -9.905  23.731  1.00  0.00     0.167 HD
BRANCH   9  11
HETATM   11  C11 UNL     1     -37.282  -9.975  24.110  1.00  0.00     0.074 A 
HETATM   12  C12 UNL     1     -38.152  -8.984  23.685  1.00  0.00     0.119 A 
HETATM   13  N6  UNL     1     -39.431  -9.244  23.383  1.00  0.00    -0.370 N 
HETATM   14  C13 UNL     1     -39.948 -10.482  23.475  1.00  0.00     0.126 A 
ATOM     15  H6  UNL     1     -40.032  -8.479  23.075  1.00  0.00     0.164 HD
HETATM   16  C14 UNL     1     -39.113 -11.491  23.894  1.00  0.00     0.108 A 
HETATM   17  C19 UNL     1     -37.790 -11.247  24.210  1.00  0.00     0.096 A 
HETATM   18 CL1  UNL     1     -36.701 -12.520  24.747  1.00  0.00    -0.079 Cl
BRANCH  16  19
HETATM   19  O2  UNL     1     -39.556 -12.775  24.013  1.00  0.00    -0.348 OA
BRANCH  19  20
HETATM   20  C15 UNL     1     -40.337 -13.373  24.976  1.00  0.00     0.180 C 
BRANCH  20  21
HETATM   21  C16 UNL     1     -39.998 -14.844  25.139  1.00  0.00     0.010 A 
HETATM   22  C17 UNL     1     -38.607 -15.236  24.908  1.00  0.00     0.007 A 
HETATM   23  C18 UNL     1     -39.107 -15.214  26.306  1.00  0.00     0.007 A 
ENDBRANCH  20  21
ENDBRANCH  19  20
ENDBRANCH  16  19
ENDBRANCH   9  11
ENDBRANCH   8   9
BRANCH   1  24
HETATM   24  C3  UNL     1     -33.227  -9.934  25.316  1.00  0.00     0.168 C 
BRANCH  24  25
HETATM   25  N2  UNL     1     -32.807 -11.257  25.464  1.00  0.00    -0.342 N 
ATOM     26  H2  UNL     1     -32.725 -11.659  26.398  1.00  0.00     0.163 HD
BRANCH  25  27
HETATM   27  C2  UNL     1     -32.482 -12.075  24.297  1.00  0.00     0.279 C 
HETATM   28  C1  UNL     1     -33.592 -12.098  23.292  1.00  0.00     0.063 C 
BRANCH  27  29
HETATM   29  N1  UNL     1     -31.260 -11.571  23.734  1.00  0.00    -0.059 N 
ATOM     30  H13 UNL     1     -30.805 -10.911  24.365  1.00  0.00     0.276 HD
ATOM     31  H12 UNL     1     -30.539 -12.291  23.709  1.00  0.00     0.276 HD
ATOM     32  H11 UNL     1     -31.407 -11.161  22.811  1.00  0.00     0.276 HD
ENDBRANCH  27  29
ENDBRANCH  25  27
ENDBRANCH  24  25
BRANCH  24  33
HETATM   33  O1  UNL     1     -32.596  -9.213  24.428  1.00  0.00    -0.344 OA
ATOM     34  H1  UNL     1     -32.525  -8.283  24.606  1.00  0.00     0.219 HD
ENDBRANCH  24  33
ENDBRANCH   1  24
BRANCH   4  35
HETATM   35  C6  UNL     1     -34.450  -7.277  29.207  1.00  0.00     0.037 A 
HETATM   36  C7  UNL     1     -34.940  -7.868  30.486  1.00  0.00     0.011 A 
HETATM   37  C8  UNL     1     -35.460  -6.585  30.009  1.00  0.00     0.011 A 
ENDBRANCH   4  35
TORSDOF 11
ENDMDL
MODEL 2
REMARK VINA RESULT: -8.229357969      2.133      7.635
REMARK  11 active torsions:
REMARK  status: ('A' for Active; 'I' for Inactive)
REMARK    1  A    between atoms: C2_2  and  N1_3 
REMARK    2  A    between atoms: C2_2  and  N2_7 
REMARK    3  A    between atoms: N2_7  and  C3_9 
REMARK    4  A    between atoms: C3_9  and  O1_10 
REMARK    5  A    between atoms: C3_9  and  C4_12 
REMARK    6  A    between atoms: C5_15  and  C6_16 
REMARK    7  A    between atoms: C10_22  and  N5_23 
REMARK    8  A    between atoms: N5_23  and  C11_25 
REMARK    9  A    between atoms: C14_30  and  O2_31 
REMARK   10  A    between atoms: O2_31  and  C15_32 
REMARK   11  A    between atoms: C15_32  and  C16_33 
ROOT
HETATM    1  C4  UNL     1     -37.634 -10.992  24.005  1.00  0.00     0.128 A 
HETATM    2  N3  UNL     1     -38.408 -12.128  24.063  1.00  0.00    -0.352 N 
ATOM      3  H3  UNL     1     -39.390 -12.062  23.794  1.00  0.00     0.166 HD
HETATM    4  C5  UNL     1     -37.934 -13.309  24.453  1.00  0.00     0.029 A 
HETATM    5  C9  UNL     1     -36.605 -13.371  24.808  1.00  0.00     0.115 A 
HETATM    6  N4  UNL     1     -35.833 -12.272  24.758  1.00  0.00    -0.348 N 
ATOM      7  H4  UNL     1     -34.853 -12.348  25.027  1.00  0.00     0.167 HD
HETATM    8  C10 UNL     1     -36.314 -11.061  24.360  1.00  0.00     0.137 A 
ENDROOT
BRANCH   8   9
HETATM    9  N5  UNL     1     -35.519 -10.055  24.341  1.00  0.00    -0.338 N 
ATOM     10  H5  UNL     1     -35.510  -9.470  23.505  1.00  0.00     0.167 HD
BRANCH   9  11
HETATM   11  C11 UNL     1     -34.652  -9.701  25.402  1.00  0.00     0.074 A 
HETATM   12  C12 UNL     1     -33.425 -10.325  25.559  1.00  0.00     0.119 A 
HETATM   13  N6  UNL     1     -32.589 -10.007  26.556  1.00  0.00    -0.370 N 
HETATM   14  C13 UNL     1     -32.890  -9.063  27.465  1.00  0.00     0.126 A 
ATOM     15  H6  UNL     1     -31.696 -10.496  26.628  1.00  0.00     0.164 HD
HETATM   16  C14 UNL     1     -34.101  -8.422  27.341  1.00  0.00     0.108 A 
HETATM   17  C19 UNL     1     -34.979  -8.733  26.321  1.00  0.00     0.096 A 
HETATM   18 CL1  UNL     1     -36.532  -7.928  26.139  1.00  0.00    -0.079 Cl
BRANCH  16  19
HETATM   19  O2  UNL     1     -34.483  -7.452  28.220  1.00  0.00    -0.348 OA
BRANCH  19  20
HETATM   20  C15 UNL     1     -34.806  -7.524  29.556  1.00  0.00     0.180 C 
BRANCH  20  21
HETATM   21  C16 UNL     1     -34.288  -6.321  30.324  1.00  0.00     0.010 A 
HETATM   22  C17 UNL     1     -35.093  -5.854  31.453  1.00  0.00     0.007 A 
HETATM   23  C18 UNL     1     -33.824  -6.566  31.745  1.00  0.00     0.007 A 
ENDBRANCH  20  21
ENDBRANCH  19  20
ENDBRANCH  16  19
ENDBRANCH   9  11
ENDBRANCH   8   9
BRANCH   1  24
HETATM   24  C3  UNL     1     -38.262  -9.771  23.574  1.00  0.00     0.168 C 
BRANCH  24  25
HETATM   25  N2  UNL     1     -39.581  -9.342  23.735  1.00  0.00    -0.342 N 
ATOM     26  H2  UNL     1     -39.811  -8.692  24.487  1.00  0.00     0.163 HD
BRANCH  25  27
HETATM   27  C2  UNL     1     -40.636  -9.814  22.841  1.00  0.00     0.279 C 
HETATM   28  C1  UNL     1     -41.883  -8.994  22.949  1.00  0.00     0.063 C 
BRANCH  27  29
HETATM   29  N1  UNL     1     -40.111  -9.817  21.504  1.00  0.00    -0.059 N 
ATOM     30  H13 UNL     1     -39.931 -10.766  21.177  1.00  0.00     0.276 HD
ATOM     31  H12 UNL     1     -40.822  -9.546  20.826  1.00  0.00     0.276 HD
ATOM     32  H11 UNL     1     -39.278  -9.233  21.421  1.00  0.00     0.276 HD
ENDBRANCH  27  29
ENDBRANCH  25  27
ENDBRANCH  24  25
BRANCH  24  33
HETATM   33  O1  UNL     1     -37.455  -8.963  22.940  1.00  0.00    -0.344 OA
ATOM     34  H1  UNL     1     -37.174  -9.232  22.075  1.00  0.00     0.219 HD
ENDBRANCH  24  33
ENDBRANCH   1  24
BRANCH   4  35
HETATM   35  C6  UNL     1     -38.818 -14.518  24.498  1.00  0.00     0.037 A 
HETATM   36  C7  UNL     1     -39.472 -14.881  25.789  1.00  0.00     0.011 A 
HETATM   37  C8  UNL     1     -38.391 -15.704  25.242  1.00  0.00     0.011 A 
ENDBRANCH   4  35
TORSDOF 11
ENDMDL
MODEL 3
REMARK VINA RESULT: -8.216723300      2.591      6.466
REMARK  11 active torsions:
REMARK  status: ('A' for Active; 'I' for Inactive)
REMARK    1  A    between atoms: C2_2  and  N1_3 
REMARK    2  A    between atoms: C2_2  and  N2_7 
REMARK    3  A    between atoms: N2_7  and  C3_9 
REMARK    4  A    between atoms: C3_9  and  O1_10 
REMARK    5  A    between atoms: C3_9  and  C4_12 
REMARK    6  A    between atoms: C5_15  and  C6_16 
REMARK    7  A    between atoms: C10_22  and  N5_23 
REMARK    8  A    between atoms: N5_23  and  C11_25 
REMARK    9  A    between atoms: C14_30  and  O2_31 
REMARK   10  A    between atoms: O2_31  and  C15_32 
REMARK   11  A    between atoms: C15_32  and  C16_33 
ROOT
HETATM    1  C4  UNL     1     -35.565 -12.583  23.876  1.00  0.00     0.128 A 
HETATM    2  N3  UNL     1     -36.226 -13.769  24.102  1.00  0.00    -0.352 N 
ATOM      3  H3  UNL     1     -35.814 -14.631  23.745  1.00  0.00     0.166 HD
HETATM    4  C5  UNL     1     -37.378 -13.841  24.764  1.00  0.00     0.029 A 
HETATM    5  C9  UNL     1     -37.911 -12.663  25.236  1.00  0.00     0.115 A 
HETATM    6  N4  UNL     1     -37.280 -11.495  25.026  1.00  0.00    -0.348 N 
ATOM      7  H4  UNL     1     -37.699 -10.638  25.386  1.00  0.00     0.167 HD
HETATM    8  C10 UNL     1     -36.101 -11.416  24.348  1.00  0.00     0.137 A 
ENDROOT
BRANCH   8   9
HETATM    9  N5  UNL     1     -35.559 -10.266  24.181  1.00  0.00    -0.338 N 
ATOM     10  H5  UNL     1     -35.316  -9.987  23.231  1.00  0.00     0.167 HD
BRANCH   9  11
HETATM   11  C11 UNL     1     -35.274  -9.357  25.228  1.00  0.00     0.074 A 
HETATM   12  C12 UNL     1     -34.265  -9.615  26.141  1.00  0.00     0.119 A 
HETATM   13  N6  UNL     1     -33.978  -8.770  27.140  1.00  0.00    -0.370 N 
HETATM   14  C13 UNL     1     -34.652  -7.621  27.317  1.00  0.00     0.126 A 
ATOM     15  H6  UNL     1     -33.225  -9.007  27.787  1.00  0.00     0.164 HD
HETATM   16  C14 UNL     1     -35.662  -7.331  26.429  1.00  0.00     0.108 A 
HETATM   17  C19 UNL     1     -35.975  -8.187  25.391  1.00  0.00     0.096 A 
HETATM   18 CL1  UNL     1     -37.260  -7.840  24.241  1.00  0.00    -0.079 Cl
BRANCH  16  19
HETATM   19  O2  UNL     1     -36.393  -6.186  26.537  1.00  0.00    -0.348 OA
BRANCH  19  20
HETATM   20  C15 UNL     1     -37.467  -5.874  27.340  1.00  0.00     0.180 C 
BRANCH  20  21
HETATM   21  C16 UNL     1     -38.193  -4.635  26.850  1.00  0.00     0.010 A 
HETATM   22  C17 UNL     1     -38.828  -4.712  25.534  1.00  0.00     0.007 A 
HETATM   23  C18 UNL     1     -39.701  -4.728  26.734  1.00  0.00     0.007 A 
ENDBRANCH  20  21
ENDBRANCH  19  20
ENDBRANCH  16  19
ENDBRANCH   9  11
ENDBRANCH   8   9
BRANCH   1  24
HETATM   24  C3  UNL     1     -34.330 -12.632  23.139  1.00  0.00     0.168 C 
BRANCH  24  25
HETATM   25  N2  UNL     1     -33.039 -12.929  23.582  1.00  0.00    -0.342 N 
ATOM     26  H2  UNL     1     -32.887 -13.738  24.185  1.00  0.00     0.163 HD
BRANCH  25  27
HETATM   27  C2  UNL     1     -31.903 -12.097  23.191  1.00  0.00     0.279 C 
HETATM   28  C1  UNL     1     -31.574 -11.063  24.221  1.00  0.00     0.063 C 
BRANCH  27  29
HETATM   29  N1  UNL     1     -30.790 -12.967  22.930  1.00  0.00    -0.059 N 
ATOM     30  H13 UNL     1     -30.290 -13.197  23.788  1.00  0.00     0.276 HD
ATOM     31  H12 UNL     1     -31.103 -13.902  22.671  1.00  0.00     0.276 HD
ATOM     32  H11 UNL     1     -30.160 -12.578  22.227  1.00  0.00     0.276 HD
ENDBRANCH  27  29
ENDBRANCH  25  27
ENDBRANCH  24  25
BRANCH  24  33
HETATM   33  O1  UNL     1     -34.466 -12.351  21.871  1.00  0.00    -0.344 OA
ATOM     34  H1  UNL     1     -35.034 -11.622  21.654  1.00  0.00     0.219 HD
ENDBRANCH  24  33
ENDBRANCH   1  24
BRANCH   4  35
HETATM   35  C6  UNL     1     -38.058 -15.158  24.985  1.00  0.00     0.037 A 
HETATM   36  C7  UNL     1     -39.539 -15.237  24.823  1.00  0.00     0.011 A 
HETATM   37  C8  UNL     1     -38.927 -15.341  26.149  1.00  0.00     0.011 A 
ENDBRANCH   4  35
TORSDOF 11
ENDMDL
MODEL 4
REMARK VINA RESULT: -8.130238349      3.358      5.973
REMARK  11 active torsions:
REMARK  status: ('A' for Active; 'I' for Inactive)
REMARK    1  A    between atoms: C2_2  and  N1_3 
REMARK    2  A    between atoms: C2_2  and  N2_7 
REMARK    3  A    between atoms: N2_7  and  C3_9 
REMARK    4  A    between atoms: C3_9  and  O1_10 
REMARK    5  A    between atoms: C3_9  and  C4_12 
REMARK    6  A    between atoms: C5_15  and  C6_16 
REMARK    7  A    between atoms: C10_22  and  N5_23 
REMARK    8  A    between atoms: N5_23  and  C11_25 
REMARK    9  A    between atoms: C14_30  and  O2_31 
REMARK   10  A    between atoms: O2_31  and  C15_32 
REMARK   11  A    between atoms: C15_32  and  C16_33 
ROOT
HETATM    1  C4  UNL     1     -36.995  -6.145  28.389  1.00  0.00     0.128 A 
HETATM    2  N3  UNL     1     -37.710  -4.979  28.239  1.00  0.00    -0.352 N 
ATOM      3  H3  UNL     1     -37.912  -4.422  29.069  1.00  0.00     0.166 HD
HETATM    4  C5  UNL     1     -38.149  -4.546  27.060  1.00  0.00     0.029 A 
HETATM    5  C9  UNL     1     -37.861  -5.315  25.956  1.00  0.00     0.115 A 
HETATM    6  N4  UNL     1     -37.165  -6.457  26.082  1.00  0.00    -0.348 N 
ATOM      7  H4  UNL     1     -36.966  -7.007  25.247  1.00  0.00     0.167 HD
HETATM    8  C10 UNL     1     -36.713  -6.906  27.287  1.00  0.00     0.137 A 
ENDROOT
BRANCH   8   9
HETATM    9  N5  UNL     1     -36.058  -8.008  27.332  1.00  0.00    -0.338 N 
ATOM     10  H5  UNL     1     -36.206  -8.617  28.136  1.00  0.00     0.167 HD
BRANCH   9  11
HETATM   11  C11 UNL     1     -35.144  -8.435  26.340  1.00  0.00     0.074 A 
HETATM   12  C12 UNL     1     -33.877  -7.881  26.251  1.00  0.00     0.119 A 
HETATM   13  N6  UNL     1     -32.996  -8.268  25.320  1.00  0.00    -0.370 N 
HETATM   14  C13 UNL     1     -33.287  -9.219  24.416  1.00  0.00     0.126 A 
ATOM     15  H6  UNL     1     -32.075  -7.828  25.297  1.00  0.00     0.164 HD
HETATM   16  C14 UNL     1     -34.535  -9.793  24.473  1.00  0.00     0.108 A 
HETATM   17  C19 UNL     1     -35.461  -9.409  25.424  1.00  0.00     0.096 A 
HETATM   18 CL1  UNL     1     -37.064 -10.127  25.519  1.00  0.00    -0.079 Cl
BRANCH  16  19
HETATM   19  O2  UNL     1     -34.910 -10.765  23.594  1.00  0.00    -0.348 OA
BRANCH  19  20
HETATM   20  C15 UNL     1     -34.428 -12.040  23.401  1.00  0.00     0.180 C 
BRANCH  20  21
HETATM   21  C16 UNL     1     -34.870 -12.979  24.509  1.00  0.00     0.010 A 
HETATM   22  C17 UNL     1     -36.210 -13.557  24.396  1.00  0.00     0.007 A 
HETATM   23  C18 UNL     1     -35.043 -14.438  24.138  1.00  0.00     0.007 A 
ENDBRANCH  20  21
ENDBRANCH  19  20
ENDBRANCH  16  19
ENDBRANCH   9  11
ENDBRANCH   8   9
BRANCH   1  24
HETATM   24  C3  UNL     1     -36.581  -6.515  29.717  1.00  0.00     0.168 C 
BRANCH  24  25
HETATM   25  N2  UNL     1     -35.731  -5.849  30.603  1.00  0.00    -0.342 N 
ATOM     26  H2  UNL     1     -36.103  -5.112  31.201  1.00  0.00     0.163 HD
BRANCH  25  27
HETATM   27  C2  UNL     1     -34.314  -6.196  30.683  1.00  0.00     0.279 C 
HETATM   28  C1  UNL     1     -33.548  -5.262  31.566  1.00  0.00     0.063 C 
BRANCH  27  29
HETATM   29  N1  UNL     1     -34.219  -7.557  31.133  1.00  0.00    -0.059 N 
ATOM     30  H13 UNL     1     -33.975  -7.605  32.123  1.00  0.00     0.276 HD
ATOM     31  H12 UNL     1     -35.138  -7.999  31.174  1.00  0.00     0.276 HD
ATOM     32  H11 UNL     1     -33.570  -8.102  30.565  1.00  0.00     0.276 HD
ENDBRANCH  27  29
ENDBRANCH  25  27
ENDBRANCH  24  25
BRANCH  24  33
HETATM   33  O1  UNL     1     -37.091  -7.644  30.129  1.00  0.00    -0.344 OA
ATOM     34  H1  UNL     1     -37.385  -8.249  29.459  1.00  0.00     0.219 HD
ENDBRANCH  24  33
ENDBRANCH   1  24
BRANCH   4  35
HETATM   35  C6  UNL     1     -38.923  -3.267  26.949  1.00  0.00     0.037 A 
HETATM   36  C7  UNL     1     -40.359  -3.329  26.552  1.00  0.00     0.011 A 
HETATM   37  C8  UNL     1     -39.355  -2.791  25.634  1.00  0.00     0.011 A 
ENDBRANCH   4  35
TORSDOF 11
ENDMDL
MODEL 5
REMARK VINA RESULT: -8.126769200      2.347      6.123
REMARK  11 active torsions:
REMARK  status: ('A' for Active; 'I' for Inactive)
REMARK    1  A    between atoms: C2_2  and  N1_3 
REMARK    2  A    between atoms: C2_2  and  N2_7 
REMARK    3  A    between atoms: N2_7  and  C3_9 
REMARK    4  A    between atoms: C3_9  and  O1_10 
REMARK    5  A    between atoms: C3_9  and  C4_12 
REMARK    6  A    between atoms: C5_15  and  C6_16 
REMARK    7  A    between atoms: C10_22  and  N5_23 
REMARK    8  A    between atoms: N5_23  and  C11_25 
REMARK    9  A    between atoms: C14_30  and  O2_31 
REMARK   10  A    between atoms: O2_31  and  C15_32 
REMARK   11  A    between atoms: C15_32  and  C16_33 
ROOT
HETATM    1  C4  UNL     1     -35.600 -12.435  23.958  1.00  0.00     0.128 A 
HETATM    2  N3  UNL     1     -36.241 -13.626  24.207  1.00  0.00    -0.352 N 
ATOM      3  H3  UNL     1     -35.807 -14.490  23.883  1.00  0.00     0.166 HD
HETATM    4  C5  UNL     1     -37.403 -13.702  24.852  1.00  0.00     0.029 A 
HETATM    5  C9  UNL     1     -37.967 -12.521  25.280  1.00  0.00     0.115 A 
HETATM    6  N4  UNL     1     -37.355 -11.348  25.047  1.00  0.00    -0.348 N 
ATOM      7  H4  UNL     1     -37.796 -10.489  25.375  1.00  0.00     0.167 HD
HETATM    8  C10 UNL     1     -36.166 -11.265  24.387  1.00  0.00     0.137 A 
ENDROOT
BRANCH   8   9
HETATM    9  N5  UNL     1     -35.643 -10.109  24.196  1.00  0.00    -0.338 N 
ATOM     10  H5  UNL     1     -34.747 -10.067  23.710  1.00  0.00     0.167 HD
BRANCH   9  11
HETATM   11  C11 UNL     1     -36.226  -8.890  24.614  1.00  0.00     0.074 A 
HETATM   12  C12 UNL     1     -37.156  -8.235  23.823  1.00  0.00     0.119 A 
HETATM   13  N6  UNL     1     -37.720  -7.079  24.198  1.00  0.00    -0.370 N 
HETATM   14  C13 UNL     1     -37.417  -6.485  25.365  1.00  0.00     0.126 A 
ATOM     15  H6  UNL     1     -38.399  -6.637  23.578  1.00  0.00     0.164 HD
HETATM   16  C14 UNL     1     -36.497  -7.106  26.177  1.00  0.00     0.108 A 
HETATM   17  C19 UNL     1     -35.903  -8.298  25.812  1.00  0.00     0.096 A 
HETATM   18 CL1  UNL     1     -34.725  -9.113  26.832  1.00  0.00    -0.079 Cl
BRANCH  16  19
HETATM   19  O2  UNL     1     -36.136  -6.570  27.378  1.00  0.00    -0.348 OA
BRANCH  19  20
HETATM   20  C15 UNL     1     -36.899  -6.165  28.449  1.00  0.00     0.180 C 
BRANCH  20  21
HETATM   21  C16 UNL     1     -36.537  -6.923  29.714  1.00  0.00     0.010 A 
HETATM   22  C17 UNL     1     -35.113  -7.117  29.989  1.00  0.00     0.007 A 
HETATM   23  C18 UNL     1     -35.857  -6.132  30.813  1.00  0.00     0.007 A 
ENDBRANCH  20  21
ENDBRANCH  19  20
ENDBRANCH  16  19
ENDBRANCH   9  11
ENDBRANCH   8   9
BRANCH   1  24
HETATM   24  C3  UNL     1     -34.351 -12.480  23.245  1.00  0.00     0.168 C 
BRANCH  24  25
HETATM   25  N2  UNL     1     -33.061 -12.727  23.719  1.00  0.00    -0.342 N 
ATOM     26  H2  UNL     1     -32.892 -13.529  24.327  1.00  0.00     0.163 HD
BRANCH  25  27
HETATM   27  C2  UNL     1     -31.949 -11.851  23.357  1.00  0.00     0.279 C 
HETATM   28  C1  UNL     1     -31.572 -10.922  24.468  1.00  0.00     0.063 C 
BRANCH  27  29
HETATM   29  N1  UNL     1     -30.847 -12.681  22.956  1.00  0.00    -0.059 N 
ATOM     30  H13 UNL     1     -29.957 -12.293  23.269  1.00  0.00     0.276 HD
ATOM     31  H12 UNL     1     -30.833 -13.556  23.479  1.00  0.00     0.276 HD
ATOM     32  H11 UNL     1     -30.845 -12.849  21.950  1.00  0.00     0.276 HD
ENDBRANCH  27  29
ENDBRANCH  25  27
ENDBRANCH  24  25
BRANCH  24  33
HETATM   33  O1  UNL     1     -34.471 -12.251  21.964  1.00  0.00    -0.344 OA
ATOM     34  H1  UNL     1     -34.016 -12.845  21.380  1.00  0.00     0.219 HD
ENDBRANCH  24  33
ENDBRANCH   1  24
BRANCH   4  35
HETATM   35  C6  UNL     1     -38.062 -15.025  25.099  1.00  0.00     0.037 A 
HETATM   36  C7  UNL     1     -39.521 -15.163  24.825  1.00  0.00     0.011 A 
HETATM   37  C8  UNL     1     -39.018 -15.166  26.199  1.00  0.00     0.011 A 
ENDBRANCH   4  35
TORSDOF 11
ENDMDL
