MODEL 1
REMARK VINA RESULT: -8.168975279      0.000      0.000
REMARK  11 active torsions:
REMARK  status: ('A' for Active; 'I' for Inactive)
REMARK    1  A    between atoms: C2_2  and  O2_4 
REMARK    2  A    between atoms: O2_4  and  C3_5 
REMARK    3  A    between atoms: C5_7  and  C6_8 
REMARK       I    between atoms: C6_8  and  N1_10 
REMARK    4  A    between atoms: N1_10  and  C7_12 
REMARK    5  A    between atoms: C12_17  and  C13_18 
REMARK    6  A    between atoms: C13_18  and  O4_19 
REMARK    7  A    between atoms: C13_18  and  O5_21 
REMARK    8  A    between atoms: C15_25  and  C16_26 
REMARK    9  A    between atoms: C16_26  and  N3_27 
REMARK   10  A    between atoms: N3_27  and  N4_29 
REMARK   11  A    between atoms: N4_29  and  N5_30 
ROOT
HETATM    1  C3  UNL     1     -35.491 -10.108  24.812  1.00  0.00     0.216 C 
HETATM    2  C4  UNL     1     -36.684  -9.481  24.211  1.00  0.00     0.061 A 
HETATM    3  C5  UNL     1     -37.957  -9.918  23.947  1.00  0.00     0.070 A 
HETATM    4  C12 UNL     1     -38.628  -8.883  23.371  1.00  0.00     0.029 A 
HETATM    5  C14 UNL     1     -37.736  -7.779  23.286  1.00  0.00     0.104 A 
HETATM    6  N2  UNL     1     -36.583  -8.167  23.795  1.00  0.00    -0.350 N 
HETATM    7  C15 UNL     1     -35.301  -7.509  24.002  1.00  0.00     0.112 C 
HETATM    8  C17 UNL     1     -34.830  -7.721  25.404  1.00  0.00     0.067 C 
HETATM    9  C18 UNL     1     -34.821  -9.147  25.774  1.00  0.00     0.207 C 
HETATM   10  F1  UNL     1     -33.521  -9.546  26.056  1.00  0.00    -0.246 F 
ENDROOT
BRANCH   3  11
HETATM   11  C6  UNL     1     -38.460 -11.246  24.231  1.00  0.00     0.254 C 
HETATM   12  O3  UNL     1     -39.722 -11.486  24.041  1.00  0.00    -0.268 OA
HETATM   13  N1  UNL     1     -37.740 -12.358  24.697  1.00  0.00    -0.352 N 
ATOM     14  H1  UNL     1     -36.738 -12.280  24.869  1.00  0.00     0.163 HD
BRANCH  13  15
HETATM   15  C7  UNL     1     -38.420 -13.617  24.935  1.00  0.00     0.084 C 
HETATM   16  C8  UNL     1     -38.834 -13.670  26.402  1.00  0.00     0.025 C 
HETATM   17  C9  UNL     1     -39.180 -15.136  26.558  1.00  0.00     0.002 C 
HETATM   18  C10 UNL     1     -38.355 -15.884  25.535  1.00  0.00     0.002 C 
HETATM   19  C11 UNL     1     -37.537 -14.809  24.810  1.00  0.00     0.025 C 
ENDBRANCH  13  15
ENDBRANCH   3  11
BRANCH   4  20
HETATM   20  C13 UNL     1     -39.991  -8.789  22.808  1.00  0.00     0.290 C 
BRANCH  20  21
HETATM   21  O4  UNL     1     -40.943  -9.021  23.861  1.00  0.00    -0.367 OA
ATOM     22  H4  UNL     1     -40.918  -9.941  24.098  1.00  0.00     0.213 HD
ENDBRANCH  20  21
BRANCH  20  23
HETATM   23  O5  UNL     1     -40.281  -9.724  21.835  1.00  0.00    -0.367 OA
ATOM     24  H5  UNL     1     -41.166  -9.680  21.491  1.00  0.00     0.213 HD
ENDBRANCH  20  23
ENDBRANCH   4  20
BRANCH   1  25
HETATM   25  O2  UNL     1     -34.501 -10.398  23.831  1.00  0.00    -0.307 OA
BRANCH  25  26
HETATM   26  C2  UNL     1     -34.279 -11.692  23.395  1.00  0.00     0.255 C 
HETATM   27  C1  UNL     1     -32.997 -12.408  23.652  1.00  0.00     0.126 C 
HETATM   28  O1  UNL     1     -35.176 -12.285  22.765  1.00  0.00    -0.266 OA
ENDBRANCH  25  26
ENDBRANCH   1  25
BRANCH   7  29
HETATM   29  C16 UNL     1     -35.370  -6.038  23.695  1.00  0.00     0.181 C 
BRANCH  29  30
HETATM   30  N3  UNL     1     -34.949  -5.725  22.342  1.00  0.00    -0.251 N 
ATOM     31  H3  UNL     1     -33.961  -5.734  22.089  1.00  0.00     0.197 HD
BRANCH  30  32
HETATM   32  N4  UNL     1     -35.800  -5.451  21.515  1.00  0.00    -0.248 NA
BRANCH  32  33
HETATM   33  N5  UNL     1     -36.549  -5.455  20.538  1.00  0.00    -0.261 N 
ATOM     34  H52 UNL     1     -36.738  -6.455  20.605  1.00  0.00     0.193 HD
ATOM     35  H51 UNL     1     -37.106  -5.189  19.726  1.00  0.00     0.193 HD
ENDBRANCH  32  33
ENDBRANCH  30  32
ENDBRANCH  29  30
ENDBRANCH   7  29
TORSDOF 11
ENDMDL
MODEL 2
REMARK VINA RESULT: -8.050346650      1.748      2.193
REMARK  11 active torsions:
REMARK  status: ('A' for Active; 'I' for Inactive)
REMARK    1  A    between atoms: C2_2  and  O2_4 
REMARK    2  A    between atoms: O2_4  and  C3_5 
REMARK    3  A    between atoms: C5_7  and  C6_8 
REMARK       I    between atoms: C6_8  and  N1_10 
REMARK    4  A    between atoms: N1_10  and  C7_12 
REMARK    5  A    between atoms: C12_17  and  C13_18 
REMARK    6  A    between atoms: C13_18  and  O4_19 
REMARK    7  A    between atoms: C13_18  and  O5_21 
REMARK    8  A    between atoms: C15_25  and  C16_26 
REMARK    9  A    between atoms: C16_26  and  N3_27 
REMARK   10  A    between atoms: N3_27  and  N4_29 
REMARK   11  A    between atoms: N4_29  and  N5_30 
ROOT
HETATM    1  C3  UNL     1     -33.729 -10.622  25.073  1.00  0.00     0.216 C 
HETATM    2  C4  UNL     1     -34.887  -9.813  24.649  1.00  0.00     0.061 A 
HETATM    3  C5  UNL     1     -36.148 -10.119  24.203  1.00  0.00     0.070 A 
HETATM    4  C12 UNL     1     -36.785  -8.941  23.954  1.00  0.00     0.029 A 
HETATM    5  C14 UNL     1     -35.883  -7.885  24.262  1.00  0.00     0.104 A 
HETATM    6  N2  UNL     1     -34.759  -8.437  24.674  1.00  0.00    -0.350 N 
HETATM    7  C15 UNL     1     -33.485  -7.905  25.135  1.00  0.00     0.112 C 
HETATM    8  C17 UNL     1     -33.085  -8.557  26.418  1.00  0.00     0.067 C 
HETATM    9  C18 UNL     1     -33.101 -10.027  26.319  1.00  0.00     0.207 C 
HETATM   10  F1  UNL     1     -31.819 -10.522  26.519  1.00  0.00    -0.246 F 
ENDROOT
BRANCH   3  11
HETATM   11  C6  UNL     1     -36.671 -11.458  24.030  1.00  0.00     0.254 C 
HETATM   12  O3  UNL     1     -36.281 -12.148  23.001  1.00  0.00    -0.268 OA
HETATM   13  N1  UNL     1     -37.574 -12.144  24.858  1.00  0.00    -0.352 N 
ATOM     14  H1  UNL     1     -37.934 -11.695  25.700  1.00  0.00     0.163 HD
BRANCH  13  15
HETATM   15  C7  UNL     1     -37.996 -13.490  24.517  1.00  0.00     0.084 C 
HETATM   16  C8  UNL     1     -39.492 -13.607  24.784  1.00  0.00     0.025 C 
HETATM   17  C9  UNL     1     -39.685 -15.108  24.734  1.00  0.00     0.002 C 
HETATM   18  C10 UNL     1     -38.362 -15.725  25.130  1.00  0.00     0.002 C 
HETATM   19  C11 UNL     1     -37.431 -14.540  25.409  1.00  0.00     0.025 C 
ENDBRANCH  13  15
ENDBRANCH   3  11
BRANCH   4  20
HETATM   20  C13 UNL     1     -38.118  -8.647  23.388  1.00  0.00     0.290 C 
BRANCH  20  21
HETATM   21  O4  UNL     1     -39.085  -9.511  24.011  1.00  0.00    -0.367 OA
ATOM     22  H4  UNL     1     -39.663  -8.983  24.550  1.00  0.00     0.213 HD
ENDBRANCH  20  21
BRANCH  20  23
HETATM   23  O5  UNL     1     -38.236  -8.878  22.033  1.00  0.00    -0.367 OA
ATOM     24  H5  UNL     1     -37.926  -9.728  21.745  1.00  0.00     0.213 HD
ENDBRANCH  20  23
ENDBRANCH   4  20
BRANCH   1  25
HETATM   25  O2  UNL     1     -32.693 -10.608  24.096  1.00  0.00    -0.307 OA
BRANCH  25  26
HETATM   26  C2  UNL     1     -32.307 -11.764  23.442  1.00  0.00     0.255 C 
HETATM   27  C1  UNL     1     -33.106 -13.020  23.511  1.00  0.00     0.126 C 
HETATM   28  O1  UNL     1     -31.256 -11.763  22.772  1.00  0.00    -0.266 OA
ENDBRANCH  25  26
ENDBRANCH   1  25
BRANCH   7  29
HETATM   29  C16 UNL     1     -33.531  -6.411  25.306  1.00  0.00     0.181 C 
BRANCH  29  30
HETATM   30  N3  UNL     1     -33.879  -5.715  24.082  1.00  0.00    -0.251 N 
ATOM     31  H3  UNL     1     -33.725  -6.152  23.173  1.00  0.00     0.197 HD
BRANCH  30  32
HETATM   32  N4  UNL     1     -34.360  -4.598  24.161  1.00  0.00    -0.248 NA
BRANCH  32  33
HETATM   33  N5  UNL     1     -34.720  -3.444  23.934  1.00  0.00    -0.261 N 
ATOM     34  H52 UNL     1     -34.012  -3.034  24.544  1.00  0.00     0.193 HD
ATOM     35  H51 UNL     1     -35.203  -2.615  23.586  1.00  0.00     0.193 HD
ENDBRANCH  32  33
ENDBRANCH  30  32
ENDBRANCH  29  30
ENDBRANCH   7  29
TORSDOF 11
ENDMDL
MODEL 3
REMARK VINA RESULT: -8.046156609      1.127      1.446
REMARK  11 active torsions:
REMARK  status: ('A' for Active; 'I' for Inactive)
REMARK    1  A    between atoms: C2_2  and  O2_4 
REMARK    2  A    between atoms: O2_4  and  C3_5 
REMARK    3  A    between atoms: C5_7  and  C6_8 
REMARK       I    between atoms: C6_8  and  N1_10 
REMARK    4  A    between atoms: N1_10  and  C7_12 
REMARK    5  A    between atoms: C12_17  and  C13_18 
REMARK    6  A    between atoms: C13_18  and  O4_19 
REMARK    7  A    between atoms: C13_18  and  O5_21 
REMARK    8  A    between atoms: C15_25  and  C16_26 
REMARK    9  A    between atoms: C16_26  and  N3_27 
REMARK   10  A    between atoms: N3_27  and  N4_29 
REMARK   11  A    between atoms: N4_29  and  N5_30 
ROOT
HETATM    1  C3  UNL     1     -35.138  -9.103  24.865  1.00  0.00     0.216 C 
HETATM    2  C4  UNL     1     -36.418  -8.853  24.176  1.00  0.00     0.061 A 
HETATM    3  C5  UNL     1     -37.594  -9.553  24.071  1.00  0.00     0.070 A 
HETATM    4  C12 UNL     1     -38.432  -8.818  23.289  1.00  0.00     0.029 A 
HETATM    5  C14 UNL     1     -37.746  -7.632  22.909  1.00  0.00     0.104 A 
HETATM    6  N2  UNL     1     -36.546  -7.682  23.454  1.00  0.00    -0.350 N 
HETATM    7  C15 UNL     1     -35.400  -6.785  23.450  1.00  0.00     0.112 C 
HETATM    8  C17 UNL     1     -34.907  -6.567  24.844  1.00  0.00     0.067 C 
HETATM    9  C18 UNL     1     -34.651  -7.837  25.544  1.00  0.00     0.207 C 
HETATM   10  F1  UNL     1     -33.303  -7.929  25.866  1.00  0.00    -0.246 F 
ENDROOT
BRANCH   3  11
HETATM   11  C6  UNL     1     -37.858 -10.839  24.683  1.00  0.00     0.254 C 
HETATM   12  O3  UNL     1     -37.522 -11.015  25.925  1.00  0.00    -0.268 OA
HETATM   13  N1  UNL     1     -38.458 -11.964  24.096  1.00  0.00    -0.352 N 
ATOM     14  H1  UNL     1     -38.770 -11.927  23.126  1.00  0.00     0.163 HD
BRANCH  13  15
HETATM   15  C7  UNL     1     -38.634 -13.180  24.869  1.00  0.00     0.084 C 
HETATM   16  C8  UNL     1     -37.541 -14.165  24.471  1.00  0.00     0.025 C 
HETATM   17  C9  UNL     1     -38.071 -15.452  25.068  1.00  0.00     0.002 C 
HETATM   18  C10 UNL     1     -39.576 -15.314  25.119  1.00  0.00     0.002 C 
HETATM   19  C11 UNL     1     -39.876 -13.930  24.533  1.00  0.00     0.025 C 
ENDBRANCH  13  15
ENDBRANCH   3  11
BRANCH   4  20
HETATM   20  C13 UNL     1     -39.787  -9.098  22.770  1.00  0.00     0.290 C 
BRANCH  20  21
HETATM   21  O4  UNL     1     -40.643  -9.443  23.874  1.00  0.00    -0.367 OA
ATOM     22  H4  UNL     1     -41.302  -8.766  23.972  1.00  0.00     0.213 HD
ENDBRANCH  20  21
BRANCH  20  23
HETATM   23  O5  UNL     1     -39.864 -10.164  21.897  1.00  0.00    -0.367 OA
ATOM     24  H5  UNL     1     -39.102 -10.280  21.342  1.00  0.00     0.213 HD
ENDBRANCH  20  23
ENDBRANCH   4  20
BRANCH   1  25
HETATM   25  O2  UNL     1     -34.106  -9.449  23.946  1.00  0.00    -0.307 OA
BRANCH  25  26
HETATM   26  C2  UNL     1     -33.461 -10.670  24.017  1.00  0.00     0.255 C 
HETATM   27  C1  UNL     1     -34.204 -11.961  24.051  1.00  0.00     0.126 C 
HETATM   28  O1  UNL     1     -32.215 -10.698  24.056  1.00  0.00    -0.266 OA
ENDBRANCH  25  26
ENDBRANCH   1  25
BRANCH   7  29
HETATM   29  C16 UNL     1     -35.723  -5.466  22.803  1.00  0.00     0.181 C 
BRANCH  29  30
HETATM   30  N3  UNL     1     -35.320  -5.409  21.410  1.00  0.00    -0.251 N 
ATOM     31  H3  UNL     1     -34.333  -5.393  21.154  1.00  0.00     0.197 HD
BRANCH  30  32
HETATM   32  N4  UNL     1     -36.185  -5.381  20.553  1.00  0.00    -0.248 NA
BRANCH  32  33
HETATM   33  N5  UNL     1     -37.044  -5.682  19.725  1.00  0.00    -0.261 N 
ATOM     34  H52 UNL     1     -36.379  -5.723  18.953  1.00  0.00     0.193 HD
ATOM     35  H51 UNL     1     -37.922  -5.916  19.260  1.00  0.00     0.193 HD
ENDBRANCH  32  33
ENDBRANCH  30  32
ENDBRANCH  29  30
ENDBRANCH   7  29
TORSDOF 11
ENDMDL
MODEL 4
REMARK VINA RESULT: -8.038332417      1.576      1.942
REMARK  11 active torsions:
REMARK  status: ('A' for Active; 'I' for Inactive)
REMARK    1  A    between atoms: C2_2  and  O2_4 
REMARK    2  A    between atoms: O2_4  and  C3_5 
REMARK    3  A    between atoms: C5_7  and  C6_8 
REMARK       I    between atoms: C6_8  and  N1_10 
REMARK    4  A    between atoms: N1_10  and  C7_12 
REMARK    5  A    between atoms: C12_17  and  C13_18 
REMARK    6  A    between atoms: C13_18  and  O4_19 
REMARK    7  A    between atoms: C13_18  and  O5_21 
REMARK    8  A    between atoms: C15_25  and  C16_26 
REMARK    9  A    between atoms: C16_26  and  N3_27 
REMARK   10  A    between atoms: N3_27  and  N4_29 
REMARK   11  A    between atoms: N4_29  and  N5_30 
ROOT
HETATM    1  C3  UNL     1     -35.895  -9.128  25.569  1.00  0.00     0.216 C 
HETATM    2  C4  UNL     1     -36.821  -9.014  24.426  1.00  0.00     0.061 A 
HETATM    3  C5  UNL     1     -37.495  -9.926  23.653  1.00  0.00     0.070 A 
HETATM    4  C12 UNL     1     -38.208  -9.223  22.730  1.00  0.00     0.029 A 
HETATM    5  C14 UNL     1     -37.963  -7.840  22.951  1.00  0.00     0.104 A 
HETATM    6  N2  UNL     1     -37.132  -7.747  23.970  1.00  0.00    -0.350 N 
HETATM    7  C15 UNL     1     -36.522  -6.628  24.674  1.00  0.00     0.112 C 
HETATM    8  C17 UNL     1     -36.703  -6.784  26.149  1.00  0.00     0.067 C 
HETATM    9  C18 UNL     1     -36.237  -8.097  26.627  1.00  0.00     0.207 C 
HETATM   10  F1  UNL     1     -35.183  -7.923  27.515  1.00  0.00    -0.246 F 
ENDROOT
BRANCH   3  11
HETATM   11  C6  UNL     1     -37.428 -11.364  23.809  1.00  0.00     0.254 C 
HETATM   12  O3  UNL     1     -36.447 -12.005  23.248  1.00  0.00    -0.268 OA
HETATM   13  N1  UNL     1     -38.312 -12.195  24.517  1.00  0.00    -0.352 N 
ATOM     14  H1  UNL     1     -39.111 -11.790  25.004  1.00  0.00     0.163 HD
BRANCH  13  15
HETATM   15  C7  UNL     1     -38.088 -13.628  24.556  1.00  0.00     0.084 C 
HETATM   16  C8  UNL     1     -39.443 -14.323  24.645  1.00  0.00     0.025 C 
HETATM   17  C9  UNL     1     -39.029 -15.726  25.036  1.00  0.00     0.002 C 
HETATM   18  C10 UNL     1     -37.717 -15.598  25.776  1.00  0.00     0.002 C 
HETATM   19  C11 UNL     1     -37.409 -14.096  25.796  1.00  0.00     0.025 C 
ENDBRANCH  13  15
ENDBRANCH   3  11
BRANCH   4  20
HETATM   20  C13 UNL     1     -39.048  -9.664  21.597  1.00  0.00     0.290 C 
BRANCH  20  21
HETATM   21  O4  UNL     1     -38.630  -8.964  20.412  1.00  0.00    -0.367 OA
ATOM     22  H4  UNL     1     -37.760  -9.262  20.172  1.00  0.00     0.213 HD
ENDBRANCH  20  21
BRANCH  20  23
HETATM   23  O5  UNL     1     -40.393  -9.391  21.732  1.00  0.00    -0.367 OA
ATOM     24  H5  UNL     1     -40.599  -8.480  21.906  1.00  0.00     0.213 HD
ENDBRANCH  20  23
ENDBRANCH   4  20
BRANCH   1  25
HETATM   25  O2  UNL     1     -34.555  -8.836  25.189  1.00  0.00    -0.307 OA
BRANCH  25  26
HETATM   26  C2  UNL     1     -33.576  -9.814  25.198  1.00  0.00     0.255 C 
HETATM   27  C1  UNL     1     -32.790 -10.140  26.420  1.00  0.00     0.126 C 
HETATM   28  O1  UNL     1     -33.338 -10.447  24.150  1.00  0.00    -0.266 OA
ENDBRANCH  25  26
ENDBRANCH   1  25
BRANCH   7  29
HETATM   29  C16 UNL     1     -37.084  -5.308  24.220  1.00  0.00     0.181 C 
BRANCH  29  30
HETATM   30  N3  UNL     1     -36.123  -4.513  23.479  1.00  0.00    -0.251 N 
ATOM     31  H3  UNL     1     -35.705  -3.680  23.894  1.00  0.00     0.197 HD
BRANCH  30  32
HETATM   32  N4  UNL     1     -35.824  -4.862  22.350  1.00  0.00    -0.248 NA
BRANCH  32  33
HETATM   33  N5  UNL     1     -35.370  -5.459  21.375  1.00  0.00    -0.261 N 
ATOM     34  H52 UNL     1     -35.234  -4.605  20.834  1.00  0.00     0.193 HD
ATOM     35  H51 UNL     1     -35.037  -6.173  20.727  1.00  0.00     0.193 HD
ENDBRANCH  32  33
ENDBRANCH  30  32
ENDBRANCH  29  30
ENDBRANCH   7  29
TORSDOF 11
ENDMDL
MODEL 5
REMARK VINA RESULT: -7.978258667      4.034      7.095
REMARK  11 active torsions:
REMARK  status: ('A' for Active; 'I' for Inactive)
REMARK    1  A    between atoms: C2_2  and  O2_4 
REMARK    2  A    between atoms: O2_4  and  C3_5 
REMARK    3  A    between atoms: C5_7  and  C6_8 
REMARK       I    between atoms: C6_8  and  N1_10 
REMARK    4  A    between atoms: N1_10  and  C7_12 
REMARK    5  A    between atoms: C12_17  and  C13_18 
REMARK    6  A    between atoms: C13_18  and  O4_19 
REMARK    7  A    between atoms: C13_18  and  O5_21 
REMARK    8  A    between atoms: C15_25  and  C16_26 
REMARK    9  A    between atoms: C16_26  and  N3_27 
REMARK   10  A    between atoms: N3_27  and  N4_29 
REMARK   11  A    between atoms: N4_29  and  N5_30 
ROOT
HETATM    1  C3  UNL     1     -36.791  -8.843  24.560  1.00  0.00     0.216 C 
HETATM    2  C4  UNL     1     -35.791  -8.701  25.636  1.00  0.00     0.061 A 
HETATM    3  C5  UNL     1     -35.695  -7.899  26.745  1.00  0.00     0.070 A 
HETATM    4  C12 UNL     1     -34.530  -8.217  27.373  1.00  0.00     0.029 A 
HETATM    5  C14 UNL     1     -33.898  -9.247  26.624  1.00  0.00     0.104 A 
HETATM    6  N2  UNL     1     -34.675  -9.515  25.593  1.00  0.00    -0.350 N 
HETATM    7  C15 UNL     1     -34.592 -10.458  24.487  1.00  0.00     0.112 C 
HETATM    8  C17 UNL     1     -35.876 -11.211  24.351  1.00  0.00     0.067 C 
HETATM    9  C18 UNL     1     -37.038 -10.310  24.263  1.00  0.00     0.207 C 
HETATM   10  F1  UNL     1     -37.662 -10.473  23.034  1.00  0.00    -0.246 F 
ENDROOT
BRANCH   3  11
HETATM   11  C6  UNL     1     -36.667  -6.902  27.141  1.00  0.00     0.254 C 
HETATM   12  O3  UNL     1     -37.055  -6.871  28.380  1.00  0.00    -0.268 OA
HETATM   13  N1  UNL     1     -37.269  -5.919  26.338  1.00  0.00    -0.352 N 
ATOM     14  H1  UNL     1     -37.025  -5.850  25.350  1.00  0.00     0.163 HD
BRANCH  13  15
HETATM   15  C7  UNL     1     -38.237  -5.003  26.912  1.00  0.00     0.084 C 
HETATM   16  C8  UNL     1     -39.397  -4.855  25.934  1.00  0.00     0.025 C 
HETATM   17  C9  UNL     1     -40.101  -3.636  26.494  1.00  0.00     0.002 C 
HETATM   18  C10 UNL     1     -39.047  -2.822  27.209  1.00  0.00     0.002 C 
HETATM   19  C11 UNL     1     -37.741  -3.604  27.032  1.00  0.00     0.025 C 
ENDBRANCH  13  15
ENDBRANCH   3  11
BRANCH   4  20
HETATM   20  C13 UNL     1     -33.865  -7.637  28.559  1.00  0.00     0.290 C 
BRANCH  20  21
HETATM   21  O4  UNL     1     -32.670  -8.389  28.833  1.00  0.00    -0.367 OA
ATOM     22  H4  UNL     1     -32.646  -8.599  29.759  1.00  0.00     0.213 HD
ENDBRANCH  20  21
BRANCH  20  23
HETATM   23  O5  UNL     1     -34.607  -7.687  29.722  1.00  0.00    -0.367 OA
ATOM     24  H5  UNL     1     -35.429  -8.157  29.650  1.00  0.00     0.213 HD
ENDBRANCH  20  23
ENDBRANCH   4  20
BRANCH   1  25
HETATM   25  O2  UNL     1     -36.323  -8.293  23.333  1.00  0.00    -0.307 OA
BRANCH  25  26
HETATM   26  C2  UNL     1     -36.034  -6.945  23.215  1.00  0.00     0.255 C 
HETATM   27  C1  UNL     1     -34.645  -6.444  23.021  1.00  0.00     0.126 C 
HETATM   28  O1  UNL     1     -36.964  -6.116  23.272  1.00  0.00    -0.266 OA
ENDBRANCH  25  26
ENDBRANCH   1  25
BRANCH   7  29
HETATM   29  C16 UNL     1     -33.445 -11.416  24.653  1.00  0.00     0.181 C 
BRANCH  29  30
HETATM   30  N3  UNL     1     -32.191 -10.884  24.153  1.00  0.00    -0.251 N 
ATOM     31  H3  UNL     1     -31.844  -9.981  24.474  1.00  0.00     0.197 HD
BRANCH  30  32
HETATM   32  N4  UNL     1     -31.560 -11.540  23.343  1.00  0.00    -0.248 NA
BRANCH  32  33
HETATM   33  N5  UNL     1     -31.096 -12.452  22.659  1.00  0.00    -0.261 N 
ATOM     34  H52 UNL     1     -30.130 -12.176  22.831  1.00  0.00     0.193 HD
ATOM     35  H51 UNL     1     -30.979 -13.267  22.056  1.00  0.00     0.193 HD
ENDBRANCH  32  33
ENDBRANCH  30  32
ENDBRANCH  29  30
ENDBRANCH   7  29
TORSDOF 11
ENDMDL
