MODEL 1
REMARK VINA RESULT: -7.654043594      0.000      0.000
REMARK  8 active torsions:
REMARK  status: ('A' for Active; 'I' for Inactive)
REMARK    1  A    between atoms: C2_2  and  O1_3 
REMARK    2  A    between atoms: C2_2  and  C3_5 
REMARK    3  A    between atoms: C3_5  and  C4_6 
REMARK    4  A    between atoms: C4_6  and  C5_7 
REMARK    5  A    between atoms: C5_7  and  O2_8 
REMARK    6  A    between atoms: C11_15  and  N1_16 
REMARK    7  A    between atoms: C14_21  and  N3_22 
REMARK    8  A    between atoms: N3_22  and  C15_23 
ROOT
HETATM    1  N1  UNL     1      -0.098  33.887  24.048  1.00  0.00    -0.319 N 
HETATM    2  C12 UNL     1      -0.980  33.801  23.068  1.00  0.00     0.185 A 
HETATM    3  N2  UNL     1      -0.745  34.755  22.121  1.00  0.00    -0.345 N 
ATOM      4  H2  UNL     1      -1.281  34.902  21.266  1.00  0.00     0.167 HD
HETATM    5  C13 UNL     1       0.303  35.455  22.514  1.00  0.00     0.136 A 
HETATM    6  C14 UNL     1       0.932  36.547  21.883  1.00  0.00     0.206 A 
HETATM    7  N4  UNL     1       2.014  37.067  22.552  1.00  0.00    -0.306 N 
ATOM      8  H4  UNL     1       2.520  37.859  22.157  1.00  0.00     0.171 HD
HETATM    9  C18 UNL     1       2.405  36.544  23.715  1.00  0.00     0.182 A 
HETATM   10 CL1  UNL     1       3.814  37.279  24.510  1.00  0.00    -0.045 Cl
HETATM   11  N5  UNL     1       1.778  35.502  24.285  1.00  0.00    -0.316 N 
ATOM     12  H5  UNL     1       2.114  35.136  25.176  1.00  0.00     0.170 HD
HETATM   13  C19 UNL     1       0.712  34.938  23.693  1.00  0.00     0.143 A 
ENDROOT
BRANCH   1  14
HETATM   14  C11 UNL     1       0.086  33.156  25.226  1.00  0.00     0.131 C 
HETATM   15  C5  UNL     1       1.301  32.347  25.513  1.00  0.00     0.083 C 
HETATM   16  C6  UNL     1       0.392  31.466  26.353  1.00  0.00     0.028 C 
HETATM   17  C7  UNL     1       0.033  32.165  27.637  1.00  0.00     0.008 C 
HETATM   18  C10 UNL     1      -0.710  31.852  25.392  1.00  0.00     0.019 C 
HETATM   19  C8  UNL     1      -1.411  32.582  27.521  1.00  0.00     0.001 C 
HETATM   20  C9  UNL     1      -1.939  32.075  26.204  1.00  0.00     0.007 C 
BRANCH  15  21
HETATM   21  C4  UNL     1       2.063  31.679  24.452  1.00  0.00     0.043 C 
BRANCH  21  22
HETATM   22  C3  UNL     1       3.010  30.606  24.941  1.00  0.00     0.034 C 
BRANCH  22  23
HETATM   23  C2  UNL     1       4.430  30.884  24.495  1.00  0.00     0.114 C 
HETATM   24  C1  UNL     1       5.251  29.616  24.558  1.00  0.00     0.039 C 
BRANCH  23  25
HETATM   25  O1  UNL     1       4.955  31.835  25.393  1.00  0.00    -0.396 OA
ATOM     26  H1  UNL     1       4.383  32.592  25.428  1.00  0.00     0.210 HD
ENDBRANCH  23  25
ENDBRANCH  22  23
ENDBRANCH  21  22
ENDBRANCH  15  21
BRANCH  15  27
HETATM   27  O2  UNL     1       2.184  33.011  26.412  1.00  0.00    -0.387 OA
ATOM     28  H2  UNL     1       1.713  33.296  27.186  1.00  0.00     0.210 HD
ENDBRANCH  15  27
ENDBRANCH   1  14
BRANCH   6  29
HETATM   29  N3  UNL     1       0.594  37.025  20.849  1.00  0.00    -0.421 NA
BRANCH  29  30
HETATM   30  C15 UNL     1       0.238  37.532  19.679  1.00  0.00     0.184 C 
HETATM   31  C16 UNL     1       1.000  38.822  19.283  1.00  0.00     0.114 C 
HETATM   32  S1  UNL     1       2.396  37.798  18.706  1.00  0.00    -0.163 SA
HETATM   33  C17 UNL     1       0.832  36.939  18.393  1.00  0.00     0.114 C 
ENDBRANCH  29  30
ENDBRANCH   6  29
TORSDOF 8
ENDMDL
MODEL 2
REMARK VINA RESULT: -7.543921199      1.601      1.791
REMARK  8 active torsions:
REMARK  status: ('A' for Active; 'I' for Inactive)
REMARK    1  A    between atoms: C2_2  and  O1_3 
REMARK    2  A    between atoms: C2_2  and  C3_5 
REMARK    3  A    between atoms: C3_5  and  C4_6 
REMARK    4  A    between atoms: C4_6  and  C5_7 
REMARK    5  A    between atoms: C5_7  and  O2_8 
REMARK    6  A    between atoms: C11_15  and  N1_16 
REMARK    7  A    between atoms: C14_21  and  N3_22 
REMARK    8  A    between atoms: N3_22  and  C15_23 
ROOT
HETATM    1  N1  UNL     1       0.721  34.225  24.278  1.00  0.00    -0.319 N 
HETATM    2  C12 UNL     1       0.062  34.710  23.241  1.00  0.00     0.185 A 
HETATM    3  N2  UNL     1       0.815  35.636  22.580  1.00  0.00    -0.345 N 
ATOM      4  H2  UNL     1       0.537  36.156  21.748  1.00  0.00     0.167 HD
HETATM    5  C13 UNL     1       1.967  35.738  23.215  1.00  0.00     0.136 A 
HETATM    6  C14 UNL     1       3.075  36.560  22.923  1.00  0.00     0.206 A 
HETATM    7  N4  UNL     1       4.140  36.435  23.783  1.00  0.00    -0.306 N 
ATOM      8  H4  UNL     1       4.977  36.997  23.636  1.00  0.00     0.171 HD
HETATM    9  C18 UNL     1       4.085  35.583  24.808  1.00  0.00     0.182 A 
HETATM   10 CL1  UNL     1       5.507  35.486  25.868  1.00  0.00    -0.045 Cl
HETATM   11  N5  UNL     1       3.009  34.816  25.053  1.00  0.00    -0.316 N 
ATOM     12  H5  UNL     1       3.013  34.180  25.849  1.00  0.00     0.170 HD
HETATM   13  C19 UNL     1       1.928  34.881  24.258  1.00  0.00     0.143 A 
ENDROOT
BRANCH   1  14
HETATM   14  C11 UNL     1       0.394  33.275  25.251  1.00  0.00     0.131 C 
HETATM   15  C5  UNL     1       1.206  32.057  25.519  1.00  0.00     0.083 C 
HETATM   16  C6  UNL     1      -0.097  31.408  25.955  1.00  0.00     0.028 C 
HETATM   17  C7  UNL     1      -0.519  31.943  27.297  1.00  0.00     0.008 C 
HETATM   18  C10 UNL     1      -0.773  32.320  24.955  1.00  0.00     0.019 C 
HETATM   19  C8  UNL     1      -1.701  32.847  27.058  1.00  0.00     0.001 C 
HETATM   20  C9  UNL     1      -2.032  32.803  25.589  1.00  0.00     0.007 C 
BRANCH  15  21
HETATM   21  C4  UNL     1       1.958  31.372  24.463  1.00  0.00     0.043 C 
BRANCH  21  22
HETATM   22  C3  UNL     1       3.081  30.490  24.963  1.00  0.00     0.034 C 
BRANCH  22  23
HETATM   23  C2  UNL     1       4.428  31.003  24.502  1.00  0.00     0.114 C 
HETATM   24  C1  UNL     1       5.459  29.901  24.582  1.00  0.00     0.039 C 
BRANCH  23  25
HETATM   25  O1  UNL     1       4.782  32.049  25.378  1.00  0.00    -0.396 OA
ATOM     26  H1  UNL     1       4.098  32.707  25.384  1.00  0.00     0.210 HD
ENDBRANCH  23  25
ENDBRANCH  22  23
ENDBRANCH  21  22
ENDBRANCH  15  21
BRANCH  15  27
HETATM   27  O2  UNL     1       2.011  32.199  26.685  1.00  0.00    -0.387 OA
ATOM     28  H2  UNL     1       1.541  32.686  27.353  1.00  0.00     0.210 HD
ENDBRANCH  15  27
ENDBRANCH   1  14
BRANCH   6  29
HETATM   29  N3  UNL     1       3.138  37.323  22.016  1.00  0.00    -0.421 NA
BRANCH  29  30
HETATM   30  C15 UNL     1       3.219  38.147  20.982  1.00  0.00     0.184 C 
HETATM   31  C16 UNL     1       4.664  38.421  20.495  1.00  0.00     0.114 C 
HETATM   32  S1  UNL     1       4.630  36.849  19.569  1.00  0.00    -0.163 SA
HETATM   33  C17 UNL     1       2.982  37.600  19.566  1.00  0.00     0.114 C 
ENDBRANCH  29  30
ENDBRANCH   6  29
TORSDOF 8
ENDMDL
MODEL 3
REMARK VINA RESULT: -7.257269598      3.520      6.997
REMARK  8 active torsions:
REMARK  status: ('A' for Active; 'I' for Inactive)
REMARK    1  A    between atoms: C2_2  and  O1_3 
REMARK    2  A    between atoms: C2_2  and  C3_5 
REMARK    3  A    between atoms: C3_5  and  C4_6 
REMARK    4  A    between atoms: C4_6  and  C5_7 
REMARK    5  A    between atoms: C5_7  and  O2_8 
REMARK    6  A    between atoms: C11_15  and  N1_16 
REMARK    7  A    between atoms: C14_21  and  N3_22 
REMARK    8  A    between atoms: N3_22  and  C15_23 
ROOT
HETATM    1  N1  UNL     1       2.133  35.030  24.496  1.00  0.00    -0.319 N 
HETATM    2  C12 UNL     1       3.400  34.796  24.201  1.00  0.00     0.185 A 
HETATM    3  N2  UNL     1       3.674  33.461  24.277  1.00  0.00    -0.345 N 
ATOM      4  H2  UNL     1       4.575  33.019  24.096  1.00  0.00     0.167 HD
HETATM    5  C13 UNL     1       2.560  32.846  24.627  1.00  0.00     0.136 A 
HETATM    6  C14 UNL     1       2.330  31.471  24.838  1.00  0.00     0.206 A 
HETATM    7  N4  UNL     1       1.047  31.140  25.201  1.00  0.00    -0.306 N 
ATOM      8  H4  UNL     1       0.805  30.164  25.370  1.00  0.00     0.171 HD
HETATM    9  C18 UNL     1       0.116  32.086  25.333  1.00  0.00     0.182 A 
HETATM   10 CL1  UNL     1      -1.516  31.568  25.804  1.00  0.00    -0.045 Cl
HETATM   11  N5  UNL     1       0.375  33.387  25.123  1.00  0.00    -0.316 N 
ATOM     12  H5  UNL     1      -0.369  34.075  25.237  1.00  0.00     0.170 HD
HETATM   13  C19 UNL     1       1.605  33.791  24.767  1.00  0.00     0.143 A 
ENDROOT
BRANCH   1  14
HETATM   14  C11 UNL     1       1.376  36.204  24.561  1.00  0.00     0.131 C 
HETATM   15  C5  UNL     1       0.216  36.487  23.674  1.00  0.00     0.083 C 
HETATM   16  C6  UNL     1       0.569  37.954  23.850  1.00  0.00     0.028 C 
HETATM   17  C7  UNL     1       0.177  38.422  25.226  1.00  0.00     0.008 C 
HETATM   18  C10 UNL     1       2.001  37.492  24.001  1.00  0.00     0.019 C 
HETATM   19  C8  UNL     1       1.451  38.599  26.010  1.00  0.00     0.001 C 
HETATM   20  C9  UNL     1       2.609  38.308  25.090  1.00  0.00     0.007 C 
BRANCH  15  21
HETATM   21  C4  UNL     1       0.147  35.990  22.296  1.00  0.00     0.043 C 
BRANCH  21  22
HETATM   22  C3  UNL     1      -0.482  36.952  21.313  1.00  0.00     0.034 C 
BRANCH  22  23
HETATM   23  C2  UNL     1       0.302  37.006  20.020  1.00  0.00     0.114 C 
HETATM   24  C1  UNL     1       1.784  36.924  20.307  1.00  0.00     0.039 C 
BRANCH  23  25
HETATM   25  O1  UNL     1       0.004  38.246  19.419  1.00  0.00    -0.396 OA
ATOM     26  H1  UNL     1       0.522  38.353  18.631  1.00  0.00     0.210 HD
ENDBRANCH  23  25
ENDBRANCH  22  23
ENDBRANCH  21  22
ENDBRANCH  15  21
BRANCH  15  27
HETATM   27  O2  UNL     1      -1.027  36.276  24.337  1.00  0.00    -0.387 OA
ATOM     28  H2  UNL     1      -1.616  37.003  24.173  1.00  0.00     0.210 HD
ENDBRANCH  15  27
ENDBRANCH   1  14
BRANCH   6  29
HETATM   29  N3  UNL     1       3.149  30.618  24.726  1.00  0.00    -0.421 NA
BRANCH  29  30
HETATM   30  C15 UNL     1       4.034  29.641  24.597  1.00  0.00     0.184 C 
HETATM   31  C16 UNL     1       4.100  29.020  23.180  1.00  0.00     0.114 C 
HETATM   32  S1  UNL     1       5.163  30.403  22.643  1.00  0.00    -0.163 SA
HETATM   33  C17 UNL     1       5.512  29.994  24.372  1.00  0.00     0.114 C 
ENDBRANCH  29  30
ENDBRANCH   6  29
TORSDOF 8
ENDMDL
MODEL 4
REMARK VINA RESULT: -7.144950603      2.226      2.895
REMARK  8 active torsions:
REMARK  status: ('A' for Active; 'I' for Inactive)
REMARK    1  A    between atoms: C2_2  and  O1_3 
REMARK    2  A    between atoms: C2_2  and  C3_5 
REMARK    3  A    between atoms: C3_5  and  C4_6 
REMARK    4  A    between atoms: C4_6  and  C5_7 
REMARK    5  A    between atoms: C5_7  and  O2_8 
REMARK    6  A    between atoms: C11_15  and  N1_16 
REMARK    7  A    between atoms: C14_21  and  N3_22 
REMARK    8  A    between atoms: N3_22  and  C15_23 
ROOT
HETATM    1  N1  UNL     1       1.968  34.518  24.532  1.00  0.00    -0.319 N 
HETATM    2  C12 UNL     1       3.246  34.782  24.740  1.00  0.00     0.185 A 
HETATM    3  N2  UNL     1       3.699  35.710  23.848  1.00  0.00    -0.345 N 
ATOM      4  H2  UNL     1       4.646  36.085  23.796  1.00  0.00     0.167 HD
HETATM    5  C13 UNL     1       2.689  36.033  23.063  1.00  0.00     0.136 A 
HETATM    6  C14 UNL     1       2.653  36.944  21.988  1.00  0.00     0.206 A 
HETATM    7  N4  UNL     1       1.436  37.061  21.359  1.00  0.00    -0.306 N 
ATOM      8  H4  UNL     1       1.333  37.700  20.572  1.00  0.00     0.171 HD
HETATM    9  C18 UNL     1       0.391  36.342  21.770  1.00  0.00     0.182 A 
HETATM   10 CL1  UNL     1      -1.143  36.557  20.901  1.00  0.00    -0.045 Cl
HETATM   11  N5  UNL     1       0.466  35.483  22.801  1.00  0.00    -0.316 N 
ATOM     12  H5  UNL     1      -0.361  34.955  23.079  1.00  0.00     0.170 HD
HETATM   13  C19 UNL     1       1.620  35.313  23.466  1.00  0.00     0.143 A 
ENDROOT
BRANCH   1  14
HETATM   14  C11 UNL     1       1.061  33.659  25.160  1.00  0.00     0.131 C 
HETATM   15  C5  UNL     1       1.471  32.487  25.980  1.00  0.00     0.083 C 
HETATM   16  C6  UNL     1       0.153  31.859  25.556  1.00  0.00     0.028 C 
HETATM   17  C7  UNL     1      -0.991  32.511  26.285  1.00  0.00     0.008 C 
HETATM   18  C10 UNL     1       0.293  32.660  24.281  1.00  0.00     0.019 C 
HETATM   19  C8  UNL     1      -1.720  33.368  25.283  1.00  0.00     0.001 C 
HETATM   20  C9  UNL     1      -1.062  33.179  23.941  1.00  0.00     0.007 C 
BRANCH  15  21
HETATM   21  C4  UNL     1       2.685  31.717  25.691  1.00  0.00     0.043 C 
BRANCH  21  22
HETATM   22  C3  UNL     1       2.442  30.400  24.989  1.00  0.00     0.034 C 
BRANCH  22  23
HETATM   23  C2  UNL     1       3.448  30.175  23.881  1.00  0.00     0.114 C 
HETATM   24  C1  UNL     1       4.623  29.378  24.400  1.00  0.00     0.039 C 
BRANCH  23  25
HETATM   25  O1  UNL     1       3.885  31.450  23.468  1.00  0.00    -0.396 OA
ATOM     26  H1  UNL     1       3.682  31.576  22.549  1.00  0.00     0.210 HD
ENDBRANCH  23  25
ENDBRANCH  22  23
ENDBRANCH  21  22
ENDBRANCH  15  21
BRANCH  15  27
HETATM   27  O2  UNL     1       1.374  32.752  27.376  1.00  0.00    -0.387 OA
ATOM     28  H2  UNL     1       1.638  33.646  27.560  1.00  0.00     0.210 HD
ENDBRANCH  15  27
ENDBRANCH   1  14
BRANCH   6  29
HETATM   29  N3  UNL     1       3.576  37.589  21.608  1.00  0.00    -0.421 NA
BRANCH  29  30
HETATM   30  C15 UNL     1       4.582  38.325  21.161  1.00  0.00     0.184 C 
HETATM   31  C16 UNL     1       5.926  37.565  21.043  1.00  0.00     0.114 C 
HETATM   32  S1  UNL     1       5.378  36.880  19.443  1.00  0.00    -0.163 SA
HETATM   33  C17 UNL     1       4.727  38.557  19.650  1.00  0.00     0.114 C 
ENDBRANCH  29  30
ENDBRANCH   6  29
TORSDOF 8
ENDMDL
MODEL 5
REMARK VINA RESULT: -7.097232840      2.746      4.814
REMARK  8 active torsions:
REMARK  status: ('A' for Active; 'I' for Inactive)
REMARK    1  A    between atoms: C2_2  and  O1_3 
REMARK    2  A    between atoms: C2_2  and  C3_5 
REMARK    3  A    between atoms: C3_5  and  C4_6 
REMARK    4  A    between atoms: C4_6  and  C5_7 
REMARK    5  A    between atoms: C5_7  and  O2_8 
REMARK    6  A    between atoms: C11_15  and  N1_16 
REMARK    7  A    between atoms: C14_21  and  N3_22 
REMARK    8  A    between atoms: N3_22  and  C15_23 
ROOT
HETATM    1  N1  UNL     1       2.795  34.169  24.601  1.00  0.00    -0.319 N 
HETATM    2  C12 UNL     1       3.727  34.910  25.175  1.00  0.00     0.185 A 
HETATM    3  N2  UNL     1       3.586  36.221  24.823  1.00  0.00    -0.345 N 
ATOM      4  H2  UNL     1       4.176  36.994  25.131  1.00  0.00     0.167 HD
HETATM    5  C13 UNL     1       2.548  36.306  24.013  1.00  0.00     0.136 A 
HETATM    6  C14 UNL     1       2.002  37.441  23.381  1.00  0.00     0.206 A 
HETATM    7  N4  UNL     1       0.907  37.200  22.586  1.00  0.00    -0.306 N 
ATOM      8  H4  UNL     1       0.458  37.973  22.096  1.00  0.00     0.171 HD
HETATM    9  C18 UNL     1       0.429  35.963  22.451  1.00  0.00     0.182 A 
HETATM   10 CL1  UNL     1      -0.991  35.744  21.406  1.00  0.00    -0.045 Cl
HETATM   11  N5  UNL     1       0.978  34.905  23.071  1.00  0.00    -0.316 N 
ATOM     12  H5  UNL     1       0.577  33.977  22.937  1.00  0.00     0.170 HD
HETATM   13  C19 UNL     1       2.051  35.058  23.864  1.00  0.00     0.143 A 
ENDROOT
BRANCH   1  14
HETATM   14  C11 UNL     1       2.515  32.799  24.639  1.00  0.00     0.131 C 
HETATM   15  C5  UNL     1       1.311  32.223  25.298  1.00  0.00     0.083 C 
HETATM   16  C6  UNL     1       2.160  30.985  25.535  1.00  0.00     0.028 C 
HETATM   17  C7  UNL     1       2.344  30.228  24.247  1.00  0.00     0.008 C 
HETATM   18  C10 UNL     1       3.343  31.925  25.594  1.00  0.00     0.019 C 
HETATM   19  C8  UNL     1       3.772  30.439  23.814  1.00  0.00     0.001 C 
HETATM   20  C9  UNL     1       4.464  31.260  24.871  1.00  0.00     0.007 C 
BRANCH  15  21
HETATM   21  C4  UNL     1       0.701  32.836  26.482  1.00  0.00     0.043 C 
BRANCH  21  22
HETATM   22  C3  UNL     1      -0.016  31.863  27.393  1.00  0.00     0.034 C 
BRANCH  22  23
HETATM   23  C2  UNL     1      -1.481  32.218  27.530  1.00  0.00     0.114 C 
HETATM   24  C1  UNL     1      -2.223  31.099  28.226  1.00  0.00     0.039 C 
BRANCH  23  25
HETATM   25  O1  UNL     1      -1.981  32.377  26.222  1.00  0.00    -0.396 OA
ATOM     26  H1  UNL     1      -2.016  33.300  26.003  1.00  0.00     0.210 HD
ENDBRANCH  23  25
ENDBRANCH  22  23
ENDBRANCH  21  22
ENDBRANCH  15  21
BRANCH  15  27
HETATM   27  O2  UNL     1       0.307  31.865  24.354  1.00  0.00    -0.387 OA
ATOM     28  H2  UNL     1      -0.119  31.057  24.616  1.00  0.00     0.210 HD
ENDBRANCH  15  27
ENDBRANCH   1  14
BRANCH   6  29
HETATM   29  N3  UNL     1       2.418  38.549  23.490  1.00  0.00    -0.421 NA
BRANCH  29  30
HETATM   30  C15 UNL     1       2.914  39.769  23.625  1.00  0.00     0.184 C 
HETATM   31  C16 UNL     1       2.215  40.627  24.708  1.00  0.00     0.114 C 
HETATM   32  S1  UNL     1       3.219  39.799  25.987  1.00  0.00    -0.163 SA
HETATM   33  C17 UNL     1       4.184  39.974  24.464  1.00  0.00     0.114 C 
ENDBRANCH  29  30
ENDBRANCH   6  29
TORSDOF 8
ENDMDL
