MODEL 1
REMARK VINA RESULT: -8.648726845      0.000      0.000
REMARK  8 active torsions:
REMARK  status: ('A' for Active; 'I' for Inactive)
REMARK    1  A    between atoms: C2_2  and  C4_4 
REMARK    2  A    between atoms: C4_4  and  N1_5 
REMARK    3  A    between atoms: N1_5  and  C5_7 
REMARK    4  A    between atoms: C6_10  and  C7_11 
REMARK    5  A    between atoms: N4_23  and  C16_24 
REMARK    6  A    between atoms: C17_26  and  C18_27 
REMARK    7  A    between atoms: C18_27  and  O3_29 
REMARK    8  A    between atoms: C20_31  and  O4_32 
ROOT
HETATM    1  C5  UNL     1       1.059  33.723  24.624  1.00  0.00     0.120 A 
HETATM    2  N2  UNL     1       1.913  32.702  24.434  1.00  0.00    -0.329 N 
ATOM      3  H2  UNL     1       1.564  31.743  24.458  1.00  0.00     0.168 HD
HETATM    4  C6  UNL     1       3.222  32.928  24.211  1.00  0.00     0.114 A 
HETATM    5  N3  UNL     1       3.683  34.200  24.181  1.00  0.00    -0.329 N 
ATOM      6  H3  UNL     1       4.675  34.365  24.012  1.00  0.00     0.168 HD
HETATM    7  C12 UNL     1       2.874  35.242  24.364  1.00  0.00     0.125 A 
HETATM    8  C13 UNL     1       1.531  35.027  24.592  1.00  0.00     0.054 A 
HETATM    9  C14 UNL     1       0.937  36.262  24.746  1.00  0.00     0.036 A 
HETATM   10  C15 UNL     1       1.940  37.174  24.605  1.00  0.00     0.096 A 
HETATM   11  N4  UNL     1       3.135  36.553  24.370  1.00  0.00    -0.312 N 
ENDROOT
BRANCH  11  12
HETATM   12  C16 UNL     1       4.351  37.244  24.184  1.00  0.00     0.266 C 
HETATM   13  O2  UNL     1       5.449  36.663  24.833  1.00  0.00    -0.353 OA
HETATM   14  C17 UNL     1       6.464  37.553  24.482  1.00  0.00     0.184 C 
HETATM   15  C20 UNL     1       6.270  37.912  23.036  1.00  0.00     0.188 C 
HETATM   16  C21 UNL     1       4.849  37.379  22.790  1.00  0.00     0.250 C 
HETATM   17  F1  UNL     1       4.144  38.353  22.111  1.00  0.00    -0.242 F 
BRANCH  14  18
HETATM   18  C18 UNL     1       7.834  36.979  24.755  1.00  0.00     0.145 C 
HETATM   19  C19 UNL     1       8.574  37.916  25.686  1.00  0.00     0.042 C 
BRANCH  18  20
HETATM   20  O3  UNL     1       7.714  35.732  25.359  1.00  0.00    -0.393 OA
ATOM     21  H3  UNL     1       7.849  35.047  24.715  1.00  0.00     0.210 HD
ENDBRANCH  18  20
ENDBRANCH  14  18
BRANCH  15  22
HETATM   22  O4  UNL     1       7.191  37.277  22.205  1.00  0.00    -0.390 OA
ATOM     23  H4  UNL     1       8.014  37.749  22.152  1.00  0.00     0.210 HD
ENDBRANCH  15  22
ENDBRANCH  11  12
BRANCH   4  24
HETATM   24  C7  UNL     1       4.094  31.757  24.011  1.00  0.00     0.189 C 
HETATM   25  C8  UNL     1       3.801  30.684  25.041  1.00  0.00     0.040 C 
HETATM   26  C9  UNL     1       4.439  29.355  24.613  1.00  0.00     0.005 C 
HETATM   27  C10 UNL     1       5.618  29.689  23.717  1.00  0.00     0.026 C 
HETATM   28  C11 UNL     1       5.138  30.451  22.518  1.00  0.00     0.168 C 
HETATM   29  O1  UNL     1       3.991  31.205  22.751  1.00  0.00    -0.378 OA
ENDBRANCH   4  24
BRANCH   1  30
HETATM   30  N1  UNL     1      -0.198  33.573  24.839  1.00  0.00    -0.351 N 
ATOM     31  H1  UNL     1      -0.846  34.345  24.679  1.00  0.00     0.166 HD
BRANCH  30  32
HETATM   32  C4  UNL     1      -0.676  32.317  25.304  1.00  0.00     0.091 C 
BRANCH  32  33
HETATM   33  C2  UNL     1      -0.853  32.104  26.587  1.00  0.00    -0.072 C 
HETATM   34  C1  UNL     1      -2.247  32.059  27.145  1.00  0.00     0.044 C 
HETATM   35  C3  UNL     1       0.299  31.908  27.503  1.00  0.00     0.044 C 
ENDBRANCH  32  33
ENDBRANCH  30  32
ENDBRANCH   1  30
TORSDOF 8
ENDMDL
MODEL 2
REMARK VINA RESULT: -8.219874852      1.091      1.556
REMARK  8 active torsions:
REMARK  status: ('A' for Active; 'I' for Inactive)
REMARK    1  A    between atoms: C2_2  and  C4_4 
REMARK    2  A    between atoms: C4_4  and  N1_5 
REMARK    3  A    between atoms: N1_5  and  C5_7 
REMARK    4  A    between atoms: C6_10  and  C7_11 
REMARK    5  A    between atoms: N4_23  and  C16_24 
REMARK    6  A    between atoms: C17_26  and  C18_27 
REMARK    7  A    between atoms: C18_27  and  O3_29 
REMARK    8  A    between atoms: C20_31  and  O4_32 
ROOT
HETATM    1  C5  UNL     1       1.074  33.548  24.761  1.00  0.00     0.120 A 
HETATM    2  N2  UNL     1       1.966  32.569  24.527  1.00  0.00    -0.329 N 
ATOM      3  H2  UNL     1       1.665  31.595  24.564  1.00  0.00     0.168 HD
HETATM    4  C6  UNL     1       3.251  32.858  24.245  1.00  0.00     0.114 A 
HETATM    5  N3  UNL     1       3.649  34.151  24.197  1.00  0.00    -0.329 N 
ATOM      6  H3  UNL     1       4.623  34.364  23.984  1.00  0.00     0.168 HD
HETATM    7  C12 UNL     1       2.800  35.153  24.423  1.00  0.00     0.125 A 
HETATM    8  C13 UNL     1       1.481  34.874  24.712  1.00  0.00     0.054 A 
HETATM    9  C14 UNL     1       0.837  36.078  24.898  1.00  0.00     0.036 A 
HETATM   10  C15 UNL     1       1.787  37.038  24.714  1.00  0.00     0.096 A 
HETATM   11  N4  UNL     1       2.997  36.475  24.421  1.00  0.00    -0.312 N 
ENDROOT
BRANCH  11  12
HETATM   12  C16 UNL     1       4.169  37.225  24.181  1.00  0.00     0.266 C 
HETATM   13  O2  UNL     1       5.328  36.682  24.755  1.00  0.00    -0.353 OA
HETATM   14  C17 UNL     1       6.280  37.623  24.366  1.00  0.00     0.184 C 
HETATM   15  C20 UNL     1       5.988  38.000  22.941  1.00  0.00     0.188 C 
HETATM   16  C21 UNL     1       4.579  37.408  22.764  1.00  0.00     0.250 C 
HETATM   17  F1  UNL     1       3.794  38.361  22.147  1.00  0.00    -0.242 F 
BRANCH  14  18
HETATM   18  C18 UNL     1       7.688  37.107  24.548  1.00  0.00     0.145 C 
HETATM   19  C19 UNL     1       8.403  37.997  25.542  1.00  0.00     0.042 C 
BRANCH  18  20
HETATM   20  O3  UNL     1       7.656  35.806  25.037  1.00  0.00    -0.393 OA
ATOM     21  H3  UNL     1       8.314  35.280  24.599  1.00  0.00     0.210 HD
ENDBRANCH  18  20
ENDBRANCH  14  18
BRANCH  15  22
HETATM   22  O4  UNL     1       6.886  37.424  22.045  1.00  0.00    -0.390 OA
ATOM     23  H4  UNL     1       6.770  37.746  21.159  1.00  0.00     0.210 HD
ENDBRANCH  15  22
ENDBRANCH  11  12
BRANCH   4  24
HETATM   24  C7  UNL     1       4.168  31.732  24.000  1.00  0.00     0.189 C 
HETATM   25  C8  UNL     1       4.005  30.662  25.062  1.00  0.00     0.040 C 
HETATM   26  C9  UNL     1       4.681  29.362  24.609  1.00  0.00     0.005 C 
HETATM   27  C10 UNL     1       5.775  29.741  23.628  1.00  0.00     0.026 C 
HETATM   28  C11 UNL     1       5.173  30.456  22.455  1.00  0.00     0.168 C 
HETATM   29  O1  UNL     1       4.007  31.153  22.758  1.00  0.00    -0.378 OA
ENDBRANCH   4  24
BRANCH   1  30
HETATM   30  N1  UNL     1      -0.163  33.337  25.034  1.00  0.00    -0.351 N 
ATOM     31  H1  UNL     1      -0.508  33.452  25.988  1.00  0.00     0.166 HD
BRANCH  30  32
HETATM   32  C4  UNL     1      -1.045  32.943  23.991  1.00  0.00     0.091 C 
BRANCH  32  33
HETATM   33  C2  UNL     1      -1.777  33.834  23.363  1.00  0.00    -0.072 C 
HETATM   34  C1  UNL     1      -2.968  34.433  24.054  1.00  0.00     0.044 C 
HETATM   35  C3  UNL     1      -1.451  34.264  21.980  1.00  0.00     0.044 C 
ENDBRANCH  32  33
ENDBRANCH  30  32
ENDBRANCH   1  30
TORSDOF 8
ENDMDL
MODEL 3
REMARK VINA RESULT: -8.151434784      2.642      5.145
REMARK  8 active torsions:
REMARK  status: ('A' for Active; 'I' for Inactive)
REMARK    1  A    between atoms: C2_2  and  C4_4 
REMARK    2  A    between atoms: C4_4  and  N1_5 
REMARK    3  A    between atoms: N1_5  and  C5_7 
REMARK    4  A    between atoms: C6_10  and  C7_11 
REMARK    5  A    between atoms: N4_23  and  C16_24 
REMARK    6  A    between atoms: C17_26  and  C18_27 
REMARK    7  A    between atoms: C18_27  and  O3_29 
REMARK    8  A    between atoms: C20_31  and  O4_32 
ROOT
HETATM    1  C5  UNL     1       3.217  32.088  25.184  1.00  0.00     0.120 A 
HETATM    2  N2  UNL     1       1.995  32.296  24.663  1.00  0.00    -0.329 N 
ATOM      3  H2  UNL     1       1.415  31.497  24.407  1.00  0.00     0.168 HD
HETATM    4  C6  UNL     1       1.527  33.546  24.477  1.00  0.00     0.114 A 
HETATM    5  N3  UNL     1       2.299  34.604  24.816  1.00  0.00    -0.329 N 
ATOM      6  H3  UNL     1       1.940  35.548  24.672  1.00  0.00     0.168 HD
HETATM    7  C12 UNL     1       3.516  34.445  25.335  1.00  0.00     0.125 A 
HETATM    8  C13 UNL     1       4.009  33.172  25.533  1.00  0.00     0.054 A 
HETATM    9  C14 UNL     1       5.271  33.300  26.073  1.00  0.00     0.036 A 
HETATM   10  C15 UNL     1       5.493  34.641  26.182  1.00  0.00     0.096 A 
HETATM   11  N4  UNL     1       4.416  35.351  25.729  1.00  0.00    -0.312 N 
ENDROOT
BRANCH  11  12
HETATM   12  C16 UNL     1       4.361  36.761  25.717  1.00  0.00     0.266 C 
HETATM   13  O2  UNL     1       3.900  37.329  26.914  1.00  0.00    -0.353 OA
HETATM   14  C17 UNL     1       3.945  38.686  26.596  1.00  0.00     0.184 C 
HETATM   15  C20 UNL     1       5.215  38.930  25.832  1.00  0.00     0.188 C 
HETATM   16  C21 UNL     1       5.638  37.489  25.499  1.00  0.00     0.250 C 
HETATM   17  F1  UNL     1       6.000  37.452  24.167  1.00  0.00    -0.242 F 
BRANCH  14  18
HETATM   18  C18 UNL     1       3.836  39.556  27.826  1.00  0.00     0.145 C 
HETATM   19  C19 UNL     1       2.393  39.985  27.987  1.00  0.00     0.042 C 
BRANCH  18  20
HETATM   20  O3  UNL     1       4.229  38.838  28.950  1.00  0.00    -0.393 OA
ATOM     21  H3  UNL     1       4.488  39.436  29.641  1.00  0.00     0.210 HD
ENDBRANCH  18  20
ENDBRANCH  14  18
BRANCH  15  22
HETATM   22  O4  UNL     1       6.184  39.567  26.605  1.00  0.00    -0.390 OA
ATOM     23  H4  UNL     1       6.041  40.504  26.663  1.00  0.00     0.210 HD
ENDBRANCH  15  22
ENDBRANCH  11  12
BRANCH   4  24
HETATM   24  C7  UNL     1       0.179  33.692  23.902  1.00  0.00     0.189 C 
HETATM   25  C8  UNL     1      -0.879  33.637  24.987  1.00  0.00     0.040 C 
HETATM   26  C9  UNL     1      -2.220  34.145  24.442  1.00  0.00     0.005 C 
HETATM   27  C10 UNL     1      -2.211  33.921  22.942  1.00  0.00     0.026 C 
HETATM   28  C11 UNL     1      -1.073  34.680  22.327  1.00  0.00     0.168 C 
HETATM   29  O1  UNL     1       0.013  34.855  23.179  1.00  0.00    -0.378 OA
ENDBRANCH   4  24
BRANCH   1  30
HETATM   30  N1  UNL     1       3.719  30.923  25.387  1.00  0.00    -0.351 N 
ATOM     31  H1  UNL     1       3.923  30.607  26.336  1.00  0.00     0.166 HD
BRANCH  30  32
HETATM   32  C4  UNL     1       3.986  30.080  24.274  1.00  0.00     0.091 C 
BRANCH  32  33
HETATM   33  C2  UNL     1       5.195  30.002  23.771  1.00  0.00    -0.072 C 
HETATM   34  C1  UNL     1       6.381  29.987  24.694  1.00  0.00     0.044 C 
HETATM   35  C3  UNL     1       5.419  29.930  22.305  1.00  0.00     0.044 C 
ENDBRANCH  32  33
ENDBRANCH  30  32
ENDBRANCH   1  30
TORSDOF 8
ENDMDL
MODEL 4
REMARK VINA RESULT: -8.082884556      1.604      2.133
REMARK  8 active torsions:
REMARK  status: ('A' for Active; 'I' for Inactive)
REMARK    1  A    between atoms: C2_2  and  C4_4 
REMARK    2  A    between atoms: C4_4  and  N1_5 
REMARK    3  A    between atoms: N1_5  and  C5_7 
REMARK    4  A    between atoms: C6_10  and  C7_11 
REMARK    5  A    between atoms: N4_23  and  C16_24 
REMARK    6  A    between atoms: C17_26  and  C18_27 
REMARK    7  A    between atoms: C18_27  and  O3_29 
REMARK    8  A    between atoms: C20_31  and  O4_32 
ROOT
HETATM    1  C5  UNL     1      -0.247  32.393  24.936  1.00  0.00     0.120 A 
HETATM    2  N2  UNL     1       0.848  31.614  24.926  1.00  0.00    -0.329 N 
ATOM      3  H2  UNL     1       0.765  30.625  25.160  1.00  0.00     0.168 HD
HETATM    4  C6  UNL     1       2.055  32.123  24.610  1.00  0.00     0.114 A 
HETATM    5  N3  UNL     1       2.164  33.436  24.300  1.00  0.00    -0.329 N 
ATOM      6  H3  UNL     1       3.080  33.816  24.063  1.00  0.00     0.168 HD
HETATM    7  C12 UNL     1       1.106  34.245  24.298  1.00  0.00     0.125 A 
HETATM    8  C13 UNL     1      -0.137  33.739  24.618  1.00  0.00     0.054 A 
HETATM    9  C14 UNL     1      -1.037  34.779  24.538  1.00  0.00     0.036 A 
HETATM   10  C15 UNL     1      -0.309  35.872  24.173  1.00  0.00     0.096 A 
HETATM   11  N4  UNL     1       1.011  35.549  24.024  1.00  0.00    -0.312 N 
ENDROOT
BRANCH  11  12
HETATM   12  C16 UNL     1       2.004  36.481  23.652  1.00  0.00     0.266 C 
HETATM   13  O2  UNL     1       3.150  36.454  24.459  1.00  0.00    -0.353 OA
HETATM   14  C17 UNL     1       3.913  37.460  23.867  1.00  0.00     0.184 C 
HETATM   15  C20 UNL     1       3.771  37.319  22.378  1.00  0.00     0.188 C 
HETATM   16  C21 UNL     1       2.581  36.350  22.288  1.00  0.00     0.250 C 
HETATM   17  F1  UNL     1       1.707  36.841  21.338  1.00  0.00    -0.242 F 
BRANCH  14  18
HETATM   18  C18 UNL     1       5.354  37.411  24.316  1.00  0.00     0.145 C 
HETATM   19  C19 UNL     1       5.539  38.391  25.455  1.00  0.00     0.042 C 
BRANCH  18  20
HETATM   20  O3  UNL     1       5.670  36.131  24.757  1.00  0.00    -0.393 OA
ATOM     21  H3  UNL     1       6.599  35.970  24.644  1.00  0.00     0.210 HD
ENDBRANCH  18  20
ENDBRANCH  14  18
BRANCH  15  22
HETATM   22  O4  UNL     1       4.907  36.768  21.788  1.00  0.00    -0.390 OA
ATOM     23  H4  UNL     1       5.463  37.428  21.389  1.00  0.00     0.210 HD
ENDBRANCH  15  22
ENDBRANCH  11  12
BRANCH   4  24
HETATM   24  C7  UNL     1       3.208  31.207  24.620  1.00  0.00     0.189 C 
HETATM   25  C8  UNL     1       3.116  30.210  23.481  1.00  0.00     0.040 C 
HETATM   26  C9  UNL     1       4.467  29.512  23.281  1.00  0.00     0.005 C 
HETATM   27  C10 UNL     1       5.199  29.557  24.609  1.00  0.00     0.026 C 
HETATM   28  C11 UNL     1       5.402  30.984  25.023  1.00  0.00     0.168 C 
HETATM   29  O1  UNL     1       4.424  31.853  24.547  1.00  0.00    -0.378 OA
ENDBRANCH   4  24
BRANCH   1  30
HETATM   30  N1  UNL     1      -1.424  31.967  25.227  1.00  0.00    -0.351 N 
ATOM     31  H1  UNL     1      -1.922  31.347  24.587  1.00  0.00     0.166 HD
BRANCH  30  32
HETATM   32  C4  UNL     1      -2.024  32.371  26.452  1.00  0.00     0.091 C 
BRANCH  32  33
HETATM   33  C2  UNL     1      -1.637  31.842  27.589  1.00  0.00    -0.072 C 
HETATM   34  C1  UNL     1      -2.549  30.893  28.312  1.00  0.00     0.044 C 
HETATM   35  C3  UNL     1      -0.313  32.165  28.180  1.00  0.00     0.044 C 
ENDBRANCH  32  33
ENDBRANCH  30  32
ENDBRANCH   1  30
TORSDOF 8
ENDMDL
MODEL 5
REMARK VINA RESULT: -8.081493451      1.864      2.525
REMARK  8 active torsions:
REMARK  status: ('A' for Active; 'I' for Inactive)
REMARK    1  A    between atoms: C2_2  and  C4_4 
REMARK    2  A    between atoms: C4_4  and  N1_5 
REMARK    3  A    between atoms: N1_5  and  C5_7 
REMARK    4  A    between atoms: C6_10  and  C7_11 
REMARK    5  A    between atoms: N4_23  and  C16_24 
REMARK    6  A    between atoms: C17_26  and  C18_27 
REMARK    7  A    between atoms: C18_27  and  O3_29 
REMARK    8  A    between atoms: C20_31  and  O4_32 
ROOT
HETATM    1  C5  UNL     1       0.844  33.371  24.703  1.00  0.00     0.120 A 
HETATM    2  N2  UNL     1       1.787  32.429  24.527  1.00  0.00    -0.329 N 
ATOM      3  H2  UNL     1       1.552  31.447  24.675  1.00  0.00     0.168 HD
HETATM    4  C6  UNL     1       3.039  32.764  24.160  1.00  0.00     0.114 A 
HETATM    5  N3  UNL     1       3.350  34.068  23.966  1.00  0.00    -0.329 N 
ATOM      6  H3  UNL     1       4.299  34.316  23.689  1.00  0.00     0.168 HD
HETATM    7  C12 UNL     1       2.448  35.034  24.129  1.00  0.00     0.125 A 
HETATM    8  C13 UNL     1       1.161  34.706  24.504  1.00  0.00     0.054 A 
HETATM    9  C14 UNL     1       0.449  35.882  24.598  1.00  0.00     0.036 A 
HETATM   10  C15 UNL     1       1.327  36.874  24.276  1.00  0.00     0.096 A 
HETATM   11  N4  UNL     1       2.559  36.358  23.987  1.00  0.00    -0.312 N 
ENDROOT
BRANCH  11  12
HETATM   12  C16 UNL     1       3.670  37.149  23.621  1.00  0.00     0.266 C 
HETATM   13  O2  UNL     1       3.367  38.192  22.734  1.00  0.00    -0.353 OA
HETATM   14  C17 UNL     1       4.627  38.762  22.559  1.00  0.00     0.184 C 
HETATM   15  C20 UNL     1       5.301  38.794  23.901  1.00  0.00     0.188 C 
HETATM   16  C21 UNL     1       4.383  37.864  24.712  1.00  0.00     0.250 C 
HETATM   17  F1  UNL     1       5.184  36.994  25.424  1.00  0.00    -0.242 F 
BRANCH  14  18
HETATM   18  C18 UNL     1       4.542  40.130  21.923  1.00  0.00     0.145 C 
HETATM   19  C19 UNL     1       4.789  39.988  20.437  1.00  0.00     0.042 C 
BRANCH  18  20
HETATM   20  O3  UNL     1       3.277  40.670  22.129  1.00  0.00    -0.393 OA
ATOM     21  H3  UNL     1       3.104  40.741  23.060  1.00  0.00     0.210 HD
ENDBRANCH  18  20
ENDBRANCH  14  18
BRANCH  15  22
HETATM   22  O4  UNL     1       5.323  40.075  24.452  1.00  0.00    -0.390 OA
ATOM     23  H4  UNL     1       6.190  40.462  24.430  1.00  0.00     0.210 HD
ENDBRANCH  15  22
ENDBRANCH  11  12
BRANCH   4  24
HETATM   24  C7  UNL     1       4.016  31.676  23.987  1.00  0.00     0.189 C 
HETATM   25  C8  UNL     1       3.820  30.602  25.038  1.00  0.00     0.040 C 
HETATM   26  C9  UNL     1       4.580  29.330  24.641  1.00  0.00     0.005 C 
HETATM   27  C10 UNL     1       5.726  29.752  23.741  1.00  0.00     0.026 C 
HETATM   28  C11 UNL     1       5.184  30.441  22.525  1.00  0.00     0.168 C 
HETATM   29  O1  UNL     1       3.971  31.090  22.739  1.00  0.00    -0.378 OA
ENDBRANCH   4  24
BRANCH   1  30
HETATM   30  N1  UNL     1      -0.366  33.114  25.051  1.00  0.00    -0.351 N 
ATOM     31  H1  UNL     1      -1.122  33.753  24.801  1.00  0.00     0.166 HD
BRANCH  30  32
HETATM   32  C4  UNL     1      -0.638  31.930  25.790  1.00  0.00     0.091 C 
BRANCH  32  33
HETATM   33  C2  UNL     1      -0.656  31.953  27.102  1.00  0.00    -0.072 C 
HETATM   34  C1  UNL     1      -1.950  31.719  27.828  1.00  0.00     0.044 C 
HETATM   35  C3  UNL     1       0.578  32.206  27.887  1.00  0.00     0.044 C 
ENDBRANCH  32  33
ENDBRANCH  30  32
ENDBRANCH   1  30
TORSDOF 8
ENDMDL
