MODEL 1
REMARK VINA RESULT: -8.462832107      0.000      0.000
REMARK  5 active torsions:
REMARK  status: ('A' for Active; 'I' for Inactive)
REMARK    1  A    between atoms: C5_6  and  C6_7 
REMARK    2  A    between atoms: C6_7  and  N2_8 
REMARK    3  A    between atoms: N2_8  and  C7_11 
REMARK    4  A    between atoms: N3_14  and  C10_15 
REMARK    5  A    between atoms: C11_18  and  N5_19 
ROOT
HETATM    1  N1  UNL     1      10.041  40.139  15.359  1.00  0.00    -0.191 NA
HETATM    2  C1  UNL     1       9.400  39.695  16.194  1.00  0.00     0.103 C 
HETATM    3  C2  UNL     1       8.576  39.149  17.243  1.00  0.00     0.088 A 
HETATM    4  C3  UNL     1       7.204  39.346  17.207  1.00  0.00     0.028 A 
HETATM    5  C4  UNL     1       6.447  38.809  18.226  1.00  0.00     0.028 A 
HETATM    6  C5  UNL     1       6.989  38.091  19.272  1.00  0.00     0.036 A 
HETATM    7  N7  UNL     1       8.322  37.925  19.265  1.00  0.00    -0.344 N 
ATOM      8  H7  UNL     1       8.750  37.397  20.025  1.00  0.00     0.167 HD
HETATM    9  C21 UNL     1       9.118  38.422  18.300  1.00  0.00     0.120 A 
HETATM   10  N8  UNL     1      10.399  38.265  18.289  1.00  0.00    -0.384 N 
ATOM     11  H81 UNL     1      10.796  37.733  19.062  1.00  0.00     0.157 HD
ATOM     12  H82 UNL     1      11.003  38.642  17.558  1.00  0.00     0.157 HD
ENDROOT
BRANCH   6  13
HETATM   13  C6  UNL     1       6.099  37.548  20.330  1.00  0.00     0.289 C 
BRANCH  13  14
HETATM   14  N2  UNL     1       5.366  38.597  21.003  1.00  0.00    -0.066 N 
ATOM     15  H22 UNL     1       5.859  38.908  21.840  1.00  0.00     0.278 HD
ATOM     16  H21 UNL     1       5.390  39.463  20.464  1.00  0.00     0.278 HD
BRANCH  14  17
HETATM   17  C7  UNL     1       4.018  38.223  21.311  1.00  0.00     0.189 C 
HETATM   18  C8  UNL     1       3.761  36.802  20.922  1.00  0.00     0.053 C 
HETATM   19  C9  UNL     1       3.335  36.015  22.140  1.00  0.00     0.126 C 
HETATM   20  N3  UNL     1       2.090  36.627  22.609  1.00  0.00    -0.365 N 
HETATM   21  C19 UNL     1       2.199  38.010  22.939  1.00  0.00     0.126 C 
HETATM   22  C20 UNL     1       3.676  38.421  22.761  1.00  0.00     0.053 C 
BRANCH  20  23
HETATM   23  C10 UNL     1       0.930  35.818  22.692  1.00  0.00     0.142 A 
HETATM   24  N4  UNL     1       0.764  35.016  23.768  1.00  0.00    -0.175 N 
HETATM   25  C11 UNL     1      -0.257  34.210  23.992  1.00  0.00     0.681 A 
ATOM     26  H4  UNL     1       1.499  35.035  24.475  1.00  0.00     0.186 HD
HETATM   27  N6  UNL     1      -1.248  34.176  23.050  1.00  0.00    -0.200 N 
HETATM   28  C17 UNL     1      -1.143  34.952  21.953  1.00  0.00     0.133 A 
ATOM     29  H6  UNL     1      -2.058  33.570  23.176  1.00  0.00     0.183 HD
HETATM   30  C18 UNL     1      -0.058  35.782  21.756  1.00  0.00     0.094 A 
HETATM   31 CL1  UNL     1       0.027  36.765  20.314  1.00  0.00    -0.079 Cl
BRANCH  25  32
HETATM   32  N5  UNL     1      -0.400  33.383  25.131  1.00  0.00    -0.218 N 
HETATM   33  C12 UNL     1       0.716  33.015  25.956  1.00  0.00     0.141 C 
HETATM   34  C13 UNL     1       0.370  31.638  26.541  1.00  0.00     0.020 C 
HETATM   35  C14 UNL     1      -0.722  31.845  27.553  1.00  0.00     0.003 C 
HETATM   36  C15 UNL     1      -1.849  32.601  26.944  1.00  0.00     0.020 C 
HETATM   37  C16 UNL     1      -1.708  32.884  25.485  1.00  0.00     0.141 C 
ENDBRANCH  25  32
ENDBRANCH  20  23
ENDBRANCH  14  17
ENDBRANCH  13  14
ENDBRANCH   6  13
TORSDOF 5
ENDMDL
MODEL 2
REMARK VINA RESULT: -8.414151875      1.114      1.448
REMARK  5 active torsions:
REMARK  status: ('A' for Active; 'I' for Inactive)
REMARK    1  A    between atoms: C5_6  and  C6_7 
REMARK    2  A    between atoms: C6_7  and  N2_8 
REMARK    3  A    between atoms: N2_8  and  C7_11 
REMARK    4  A    between atoms: N3_14  and  C10_15 
REMARK    5  A    between atoms: C11_18  and  N5_19 
ROOT
HETATM    1  N1  UNL     1      11.119  38.640  15.855  1.00  0.00    -0.191 NA
HETATM    2  C1  UNL     1      10.109  38.806  16.362  1.00  0.00     0.103 C 
HETATM    3  C2  UNL     1       8.835  38.995  17.010  1.00  0.00     0.088 A 
HETATM    4  C3  UNL     1       8.482  38.178  18.074  1.00  0.00     0.028 A 
HETATM    5  C4  UNL     1       7.256  38.387  18.669  1.00  0.00     0.028 A 
HETATM    6  C5  UNL     1       6.374  39.364  18.257  1.00  0.00     0.036 A 
HETATM    7  N7  UNL     1       6.759  40.131  17.225  1.00  0.00    -0.344 N 
ATOM      8  H7  UNL     1       6.126  40.862  16.901  1.00  0.00     0.167 HD
HETATM    9  C21 UNL     1       7.941  39.980  16.599  1.00  0.00     0.120 A 
HETATM   10  N8  UNL     1       8.316  40.715  15.607  1.00  0.00    -0.384 N 
ATOM     11  H81 UNL     1       7.661  41.436  15.307  1.00  0.00     0.157 HD
ATOM     12  H82 UNL     1       9.212  40.601  15.133  1.00  0.00     0.157 HD
ENDROOT
BRANCH   6  13
HETATM   13  C6  UNL     1       5.072  39.520  18.957  1.00  0.00     0.289 C 
BRANCH  13  14
HETATM   14  N2  UNL     1       5.173  39.176  20.358  1.00  0.00    -0.066 N 
ATOM     15  H22 UNL     1       5.911  38.487  20.513  1.00  0.00     0.278 HD
ATOM     16  H21 UNL     1       5.555  39.953  20.898  1.00  0.00     0.278 HD
BRANCH  14  17
HETATM   17  C7  UNL     1       3.929  38.729  20.911  1.00  0.00     0.189 C 
HETATM   18  C8  UNL     1       3.447  37.502  20.205  1.00  0.00     0.053 C 
HETATM   19  C9  UNL     1       3.294  36.375  21.200  1.00  0.00     0.126 C 
HETATM   20  N3  UNL     1       2.284  36.815  22.165  1.00  0.00    -0.365 N 
HETATM   21  C19 UNL     1       2.606  38.025  22.848  1.00  0.00     0.126 C 
HETATM   22  C20 UNL     1       4.011  38.465  22.388  1.00  0.00     0.053 C 
BRANCH  20  23
HETATM   23  C10 UNL     1       1.120  36.024  22.331  1.00  0.00     0.142 A 
HETATM   24  N4  UNL     1       1.041  35.182  23.385  1.00  0.00    -0.175 N 
HETATM   25  C11 UNL     1       0.029  34.386  23.677  1.00  0.00     0.681 A 
ATOM     26  H4  UNL     1       1.841  35.159  24.017  1.00  0.00     0.186 HD
HETATM   27  N6  UNL     1      -1.049  34.409  22.834  1.00  0.00    -0.200 N 
HETATM   28  C17 UNL     1      -1.034  35.227  21.764  1.00  0.00     0.133 A 
ATOM     29  H6  UNL     1      -1.857  33.813  23.015  1.00  0.00     0.183 HD
HETATM   30  C18 UNL     1       0.045  36.044  21.495  1.00  0.00     0.094 A 
HETATM   31 CL1  UNL     1       0.013  37.083  20.090  1.00  0.00    -0.079 Cl
BRANCH  25  32
HETATM   32  N5  UNL     1      -0.021  33.516  24.791  1.00  0.00    -0.218 N 
HETATM   33  C12 UNL     1       1.145  33.188  25.561  1.00  0.00     0.141 C 
HETATM   34  C13 UNL     1       0.902  31.776  26.110  1.00  0.00     0.020 C 
HETATM   35  C14 UNL     1      -0.159  31.886  27.169  1.00  0.00     0.003 C 
HETATM   36  C15 UNL     1      -1.351  32.593  26.629  1.00  0.00     0.020 C 
HETATM   37  C16 UNL     1      -1.284  32.930  25.177  1.00  0.00     0.141 C 
ENDBRANCH  25  32
ENDBRANCH  20  23
ENDBRANCH  14  17
ENDBRANCH  13  14
ENDBRANCH   6  13
TORSDOF 5
ENDMDL
MODEL 3
REMARK VINA RESULT: -8.303672539      1.445      1.531
REMARK  5 active torsions:
REMARK  status: ('A' for Active; 'I' for Inactive)
REMARK    1  A    between atoms: C5_6  and  C6_7 
REMARK    2  A    between atoms: C6_7  and  N2_8 
REMARK    3  A    between atoms: N2_8  and  C7_11 
REMARK    4  A    between atoms: N3_14  and  C10_15 
REMARK    5  A    between atoms: C11_18  and  N5_19 
ROOT
HETATM    1  N1  UNL     1       7.936  37.226  15.018  1.00  0.00    -0.191 NA
HETATM    2  C1  UNL     1       7.431  37.690  15.932  1.00  0.00     0.103 C 
HETATM    3  C2  UNL     1       6.798  38.295  17.077  1.00  0.00     0.088 A 
HETATM    4  C3  UNL     1       6.290  39.581  16.976  1.00  0.00     0.028 A 
HETATM    5  C4  UNL     1       5.691  40.128  18.091  1.00  0.00     0.028 A 
HETATM    6  C5  UNL     1       5.577  39.458  19.291  1.00  0.00     0.036 A 
HETATM    7  N7  UNL     1       6.083  38.216  19.342  1.00  0.00    -0.344 N 
ATOM      8  H7  UNL     1       6.011  37.697  20.217  1.00  0.00     0.167 HD
HETATM    9  C21 UNL     1       6.680  37.623  18.290  1.00  0.00     0.120 A 
HETATM   10  N8  UNL     1       7.167  36.430  18.334  1.00  0.00    -0.384 N 
ATOM     11  H81 UNL     1       7.079  35.937  19.223  1.00  0.00     0.157 HD
ATOM     12  H82 UNL     1       7.619  35.980  17.538  1.00  0.00     0.157 HD
ENDROOT
BRANCH   6  13
HETATM   13  C6  UNL     1       4.915  40.124  20.444  1.00  0.00     0.289 C 
BRANCH  13  14
HETATM   14  N2  UNL     1       4.905  39.277  21.616  1.00  0.00    -0.066 N 
ATOM     15  H22 UNL     1       5.610  38.543  21.542  1.00  0.00     0.278 HD
ATOM     16  H21 UNL     1       5.268  39.775  22.429  1.00  0.00     0.278 HD
BRANCH  14  17
HETATM   17  C7  UNL     1       3.612  38.722  21.889  1.00  0.00     0.189 C 
HETATM   18  C8  UNL     1       3.503  37.339  21.331  1.00  0.00     0.053 C 
HETATM   19  C9  UNL     1       3.192  36.368  22.447  1.00  0.00     0.126 C 
HETATM   20  N3  UNL     1       1.898  36.779  22.998  1.00  0.00    -0.365 N 
HETATM   21  C19 UNL     1       1.865  38.116  23.494  1.00  0.00     0.126 C 
HETATM   22  C20 UNL     1       3.284  38.705  23.354  1.00  0.00     0.053 C 
BRANCH  20  23
HETATM   23  C10 UNL     1       0.835  35.843  22.993  1.00  0.00     0.142 A 
HETATM   24  N4  UNL     1       0.685  35.012  24.049  1.00  0.00    -0.175 N 
HETATM   25  C11 UNL     1      -0.251  34.092  24.194  1.00  0.00     0.681 A 
ATOM     26  H4  UNL     1       1.361  35.104  24.807  1.00  0.00     0.186 HD
HETATM   27  N6  UNL     1      -1.162  33.960  23.181  1.00  0.00    -0.200 N 
HETATM   28  C17 UNL     1      -1.068  34.759  22.100  1.00  0.00     0.133 A 
ATOM     29  H6  UNL     1      -1.905  33.265  23.245  1.00  0.00     0.183 HD
HETATM   30  C18 UNL     1      -0.073  35.708  21.987  1.00  0.00     0.094 A 
HETATM   31 CL1  UNL     1       0.003  36.715  20.561  1.00  0.00    -0.079 Cl
BRANCH  25  32
HETATM   32  N5  UNL     1      -0.379  33.238  25.314  1.00  0.00    -0.218 N 
HETATM   33  C12 UNL     1       0.726  32.935  26.178  1.00  0.00     0.141 C 
HETATM   34  C13 UNL     1       0.455  31.528  26.729  1.00  0.00     0.020 C 
HETATM   35  C14 UNL     1      -0.687  31.641  27.699  1.00  0.00     0.003 C 
HETATM   36  C15 UNL     1      -1.840  32.327  27.056  1.00  0.00     0.020 C 
HETATM   37  C16 UNL     1      -1.662  32.643  25.609  1.00  0.00     0.141 C 
ENDBRANCH  25  32
ENDBRANCH  20  23
ENDBRANCH  14  17
ENDBRANCH  13  14
ENDBRANCH   6  13
TORSDOF 5
ENDMDL
MODEL 4
REMARK VINA RESULT: -8.247832275      5.774      7.618
REMARK  5 active torsions:
REMARK  status: ('A' for Active; 'I' for Inactive)
REMARK    1  A    between atoms: C5_6  and  C6_7 
REMARK    2  A    between atoms: C6_7  and  N2_8 
REMARK    3  A    between atoms: N2_8  and  C7_11 
REMARK    4  A    between atoms: N3_14  and  C10_15 
REMARK    5  A    between atoms: C11_18  and  N5_19 
ROOT
HETATM    1  N1  UNL     1       9.835  44.234  29.985  1.00  0.00    -0.191 NA
HETATM    2  C1  UNL     1       9.001  43.804  29.333  1.00  0.00     0.103 C 
HETATM    3  C2  UNL     1       7.963  43.262  28.493  1.00  0.00     0.088 A 
HETATM    4  C3  UNL     1       8.308  42.551  27.353  1.00  0.00     0.028 A 
HETATM    5  C4  UNL     1       7.289  42.046  26.574  1.00  0.00     0.028 A 
HETATM    6  C5  UNL     1       5.954  42.215  26.875  1.00  0.00     0.036 A 
HETATM    7  N7  UNL     1       5.667  42.908  27.989  1.00  0.00    -0.344 N 
ATOM      8  H7  UNL     1       4.688  43.048  28.236  1.00  0.00     0.167 HD
HETATM    9  C21 UNL     1       6.614  43.428  28.793  1.00  0.00     0.120 A 
HETATM   10  N8  UNL     1       6.344  44.095  29.864  1.00  0.00    -0.384 N 
ATOM     11  H81 UNL     1       5.356  44.217  30.084  1.00  0.00     0.157 HD
ATOM     12  H82 UNL     1       7.060  44.489  30.474  1.00  0.00     0.157 HD
ENDROOT
BRANCH   6  13
HETATM   13  C6  UNL     1       4.919  41.636  25.979  1.00  0.00     0.289 C 
BRANCH  13  14
HETATM   14  N2  UNL     1       5.439  40.529  25.207  1.00  0.00    -0.066 N 
ATOM     15  H22 UNL     1       5.424  40.740  24.209  1.00  0.00     0.278 HD
ATOM     16  H21 UNL     1       6.446  40.432  25.341  1.00  0.00     0.278 HD
BRANCH  14  17
HETATM   17  C7  UNL     1       4.764  39.296  25.481  1.00  0.00     0.189 C 
HETATM   18  C8  UNL     1       3.914  38.890  24.320  1.00  0.00     0.053 C 
HETATM   19  C9  UNL     1       4.352  37.530  23.825  1.00  0.00     0.126 C 
HETATM   20  N3  UNL     1       4.139  36.601  24.938  1.00  0.00    -0.365 N 
HETATM   21  C19 UNL     1       4.846  36.935  26.130  1.00  0.00     0.126 C 
HETATM   22  C20 UNL     1       5.707  38.181  25.833  1.00  0.00     0.053 C 
BRANCH  20  23
HETATM   23  C10 UNL     1       3.282  35.491  24.735  1.00  0.00     0.142 A 
HETATM   24  N4  UNL     1       3.825  34.270  24.531  1.00  0.00    -0.175 N 
HETATM   25  C11 UNL     1       3.165  33.144  24.331  1.00  0.00     0.681 A 
ATOM     26  H4  UNL     1       4.844  34.213  24.532  1.00  0.00     0.186 HD
HETATM   27  N6  UNL     1       1.799  33.211  24.327  1.00  0.00    -0.200 N 
HETATM   28  C17 UNL     1       1.195  34.399  24.524  1.00  0.00     0.133 A 
ATOM     29  H6  UNL     1       1.243  32.370  24.176  1.00  0.00     0.183 HD
HETATM   30  C18 UNL     1       1.922  35.554  24.730  1.00  0.00     0.094 A 
HETATM   31 CL1  UNL     1       1.087  37.068  24.978  1.00  0.00    -0.079 Cl
BRANCH  25  32
HETATM   32  N5  UNL     1       3.767  31.881  24.121  1.00  0.00    -0.218 N 
HETATM   33  C12 UNL     1       3.953  30.934  25.184  1.00  0.00     0.141 C 
HETATM   34  C13 UNL     1       5.201  30.123  24.810  1.00  0.00     0.020 C 
HETATM   35  C14 UNL     1       4.828  29.237  23.655  1.00  0.00     0.003 C 
HETATM   36  C15 UNL     1       4.220  30.046  22.564  1.00  0.00     0.020 C 
HETATM   37  C16 UNL     1       4.213  31.520  22.796  1.00  0.00     0.141 C 
ENDBRANCH  25  32
ENDBRANCH  20  23
ENDBRANCH  14  17
ENDBRANCH  13  14
ENDBRANCH   6  13
TORSDOF 5
ENDMDL
MODEL 5
REMARK VINA RESULT: -8.242205670      4.958      6.512
REMARK  5 active torsions:
REMARK  status: ('A' for Active; 'I' for Inactive)
REMARK    1  A    between atoms: C5_6  and  C6_7 
REMARK    2  A    between atoms: C6_7  and  N2_8 
REMARK    3  A    between atoms: N2_8  and  C7_11 
REMARK    4  A    between atoms: N3_14  and  C10_15 
REMARK    5  A    between atoms: C11_18  and  N5_19 
ROOT
HETATM    1  N1  UNL     1      10.706  43.806  29.089  1.00  0.00    -0.191 NA
HETATM    2  C1  UNL     1       9.877  43.214  28.572  1.00  0.00     0.103 C 
HETATM    3  C2  UNL     1       8.816  42.481  27.928  1.00  0.00     0.088 A 
HETATM    4  C3  UNL     1       7.587  43.091  27.728  1.00  0.00     0.028 A 
HETATM    5  C4  UNL     1       6.596  42.360  27.110  1.00  0.00     0.028 A 
HETATM    6  C5  UNL     1       6.771  41.060  26.684  1.00  0.00     0.036 A 
HETATM    7  N7  UNL     1       7.977  40.510  26.898  1.00  0.00    -0.344 N 
ATOM      8  H7  UNL     1       8.135  39.550  26.592  1.00  0.00     0.167 HD
HETATM    9  C21 UNL     1       8.988  41.169  27.496  1.00  0.00     0.120 A 
HETATM   10  N8  UNL     1      10.148  40.645  27.703  1.00  0.00    -0.384 N 
ATOM     11  H81 UNL     1      10.274  39.684  27.386  1.00  0.00     0.157 HD
ATOM     12  H82 UNL     1      10.915  41.144  28.156  1.00  0.00     0.157 HD
ENDROOT
BRANCH   6  13
HETATM   13  C6  UNL     1       5.647  40.344  26.025  1.00  0.00     0.289 C 
BRANCH  13  14
HETATM   14  N2  UNL     1       6.122  39.330  25.110  1.00  0.00    -0.066 N 
ATOM     15  H22 UNL     1       6.672  39.746  24.358  1.00  0.00     0.278 HD
ATOM     16  H21 UNL     1       6.844  38.755  25.546  1.00  0.00     0.278 HD
BRANCH  14  17
HETATM   17  C7  UNL     1       5.066  38.517  24.586  1.00  0.00     0.189 C 
HETATM   18  C8  UNL     1       4.628  37.504  25.594  1.00  0.00     0.053 C 
HETATM   19  C9  UNL     1       3.157  37.691  25.891  1.00  0.00     0.126 C 
HETATM   20  N3  UNL     1       2.452  37.462  24.627  1.00  0.00    -0.365 N 
HETATM   21  C19 UNL     1       2.848  38.327  23.565  1.00  0.00     0.126 C 
HETATM   22  C20 UNL     1       3.883  39.322  24.129  1.00  0.00     0.053 C 
BRANCH  20  23
HETATM   23  C10 UNL     1       1.473  36.439  24.577  1.00  0.00     0.142 A 
HETATM   24  N4  UNL     1       1.857  35.153  24.735  1.00  0.00    -0.175 N 
HETATM   25  C11 UNL     1       1.069  34.093  24.716  1.00  0.00     0.681 A 
ATOM     26  H4  UNL     1       2.852  34.984  24.883  1.00  0.00     0.186 HD
HETATM   27  N6  UNL     1      -0.267  34.310  24.518  1.00  0.00    -0.200 N 
HETATM   28  C17 UNL     1      -0.715  35.570  24.354  1.00  0.00     0.133 A 
ATOM     29  H6  UNL     1      -0.918  33.525  24.496  1.00  0.00     0.183 HD
HETATM   30  C18 UNL     1       0.142  36.650  24.380  1.00  0.00     0.094 A 
HETATM   31 CL1  UNL     1      -0.493  38.263  24.159  1.00  0.00    -0.079 Cl
BRANCH  25  32
HETATM   32  N5  UNL     1       1.505  32.758  24.886  1.00  0.00    -0.218 N 
HETATM   33  C12 UNL     1       0.626  31.636  24.711  1.00  0.00     0.141 C 
HETATM   34  C13 UNL     1       1.154  30.540  25.645  1.00  0.00     0.020 C 
HETATM   35  C14 UNL     1       2.440  30.033  25.055  1.00  0.00     0.003 C 
HETATM   36  C15 UNL     1       3.364  31.167  24.788  1.00  0.00     0.020 C 
HETATM   37  C16 UNL     1       2.879  32.502  25.248  1.00  0.00     0.141 C 
ENDBRANCH  25  32
ENDBRANCH  20  23
ENDBRANCH  14  17
ENDBRANCH  13  14
ENDBRANCH   6  13
TORSDOF 5
ENDMDL
