MODEL 1
REMARK VINA RESULT: -7.944384994      0.000      0.000
REMARK  9 active torsions:
REMARK  status: ('A' for Active; 'I' for Inactive)
REMARK    1  A    between atoms: C2_2  and  C3_3 
REMARK    2  A    between atoms: C13_13  and  O1_14 
REMARK    3  A    between atoms: C13_13  and  C14_16 
REMARK    4  A    between atoms: C14_16  and  O2_17 
REMARK    5  A    between atoms: O2_17  and  C15_18 
REMARK    6  A    between atoms: C15_18  and  C16_20 
REMARK    7  A    between atoms: C16_20  and  C17_21 
REMARK    8  A    between atoms: C17_21  and  O4_23 
REMARK    9  A    between atoms: C22_30  and  O7_31 
ROOT
HETATM    1  C3  UNL     1     -35.554  -4.982  23.356  1.00  0.00     0.007 C 
HETATM    2  C4  UNL     1     -34.582  -5.935  23.938  1.00  0.00     0.009 C 
HETATM    3  C5  UNL     1     -35.000  -6.582  25.225  1.00  0.00     0.005 C 
HETATM    4  C6  UNL     1     -33.820  -7.353  25.791  1.00  0.00    -0.018 C 
HETATM    5  C7  UNL     1     -32.493  -6.672  25.514  1.00  0.00     0.010 C 
HETATM    6  C8  UNL     1     -33.746  -8.714  25.183  1.00  0.00     0.008 C 
HETATM    7  C9  UNL     1     -34.748  -9.702  25.775  1.00  0.00     0.028 C 
HETATM    8  C10 UNL     1     -34.439 -11.053  25.290  1.00  0.00    -0.021 C 
HETATM    9  C11 UNL     1     -35.133 -11.882  24.568  1.00  0.00    -0.049 C 
HETATM   10  C12 UNL     1     -34.507 -13.227  24.239  1.00  0.00     0.046 C 
HETATM   11  C13 UNL     1     -36.505 -11.699  24.003  1.00  0.00     0.124 C 
HETATM   12  C19 UNL     1     -36.763 -10.311  23.467  1.00  0.00     0.223 C 
HETATM   13  O5  UNL     1     -37.540 -10.446  22.262  1.00  0.00    -0.318 OA
HETATM   14  C20 UNL     1     -38.411  -9.437  21.896  1.00  0.00     0.261 C 
HETATM   15  O6  UNL     1     -39.243  -9.757  20.979  1.00  0.00    -0.265 OA
HETATM   16  C21 UNL     1     -38.437  -8.081  22.470  1.00  0.00     0.142 C 
HETATM   17  C22 UNL     1     -37.451  -7.222  21.712  1.00  0.00     0.127 C 
HETATM   18  C23 UNL     1     -37.562  -5.771  22.047  1.00  0.00     0.033 C 
HETATM   19  C24 UNL     1     -36.996  -5.429  23.409  1.00  0.00     0.011 C 
ENDROOT
BRANCH  11  20
HETATM   20  O1  UNL     1     -36.638 -12.554  22.903  1.00  0.00    -0.381 OA
ATOM     21  H1  UNL     1     -37.554 -12.568  22.652  1.00  0.00     0.211 HD
ENDBRANCH  11  20
BRANCH  11  22
HETATM   22  C14 UNL     1     -37.573 -12.007  24.993  1.00  0.00     0.223 C 
BRANCH  22  23
HETATM   23  O2  UNL     1     -37.720 -13.284  25.461  1.00  0.00    -0.318 OA
BRANCH  23  24
HETATM   24  C15 UNL     1     -38.093 -14.447  24.898  1.00  0.00     0.261 C 
HETATM   25  O3  UNL     1     -37.241 -15.186  24.389  1.00  0.00    -0.265 OA
BRANCH  24  26
HETATM   26  C16 UNL     1     -39.557 -14.811  24.910  1.00  0.00     0.142 C 
BRANCH  26  27
HETATM   27  C17 UNL     1     -40.222 -14.378  26.174  1.00  0.00     0.123 C 
HETATM   28  C18 UNL     1     -41.698 -14.726  26.152  1.00  0.00     0.040 C 
BRANCH  27  29
HETATM   29  O4  UNL     1     -39.641 -15.074  27.234  1.00  0.00    -0.395 OA
ATOM     30  H4  UNL     1     -40.316 -15.593  27.655  1.00  0.00     0.210 HD
ENDBRANCH  27  29
ENDBRANCH  26  27
ENDBRANCH  24  26
ENDBRANCH  23  24
ENDBRANCH  22  23
ENDBRANCH  11  22
BRANCH  17  31
HETATM   31  O7  UNL     1     -37.538  -7.394  20.336  1.00  0.00    -0.395 OA
ATOM     32  H7  UNL     1     -37.110  -6.697  19.853  1.00  0.00     0.210 HD
ENDBRANCH  17  31
BRANCH   1  33
HETATM   33  C2  UNL     1     -35.387  -3.580  23.825  1.00  0.00    -0.032 C 
HETATM   34  C1  UNL     1     -36.230  -2.940  24.623  1.00  0.00     0.007 C 
ENDBRANCH   1  33
TORSDOF 9
ENDMDL
MODEL 2
REMARK VINA RESULT: -7.406910841      2.611      3.879
REMARK  9 active torsions:
REMARK  status: ('A' for Active; 'I' for Inactive)
REMARK    1  A    between atoms: C2_2  and  C3_3 
REMARK    2  A    between atoms: C13_13  and  O1_14 
REMARK    3  A    between atoms: C13_13  and  C14_16 
REMARK    4  A    between atoms: C14_16  and  O2_17 
REMARK    5  A    between atoms: O2_17  and  C15_18 
REMARK    6  A    between atoms: C15_18  and  C16_20 
REMARK    7  A    between atoms: C16_20  and  C17_21 
REMARK    8  A    between atoms: C17_21  and  O4_23 
REMARK    9  A    between atoms: C22_30  and  O7_31 
ROOT
HETATM    1  C3  UNL     1     -39.370  -3.141  25.134  1.00  0.00     0.007 C 
HETATM    2  C4  UNL     1     -38.312  -3.505  26.103  1.00  0.00     0.009 C 
HETATM    3  C5  UNL     1     -38.600  -4.705  26.956  1.00  0.00     0.005 C 
HETATM    4  C6  UNL     1     -37.530  -4.811  28.029  1.00  0.00    -0.018 C 
HETATM    5  C7  UNL     1     -37.054  -3.454  28.513  1.00  0.00     0.010 C 
HETATM    6  C8  UNL     1     -36.332  -5.529  27.501  1.00  0.00     0.008 C 
HETATM    7  C9  UNL     1     -36.506  -7.044  27.445  1.00  0.00     0.028 C 
HETATM    8  C10 UNL     1     -35.211  -7.668  27.145  1.00  0.00    -0.021 C 
HETATM    9  C11 UNL     1     -34.823  -8.393  26.138  1.00  0.00    -0.049 C 
HETATM   10  C12 UNL     1     -33.388  -8.891  26.137  1.00  0.00     0.046 C 
HETATM   11  C13 UNL     1     -35.614  -8.825  24.944  1.00  0.00     0.124 C 
HETATM   12  C19 UNL     1     -36.532  -7.756  24.403  1.00  0.00     0.223 C 
HETATM   13  O5  UNL     1     -36.497  -7.837  22.966  1.00  0.00    -0.318 OA
HETATM   14  C20 UNL     1     -37.607  -7.457  22.234  1.00  0.00     0.261 C 
HETATM   15  O6  UNL     1     -37.585  -7.815  21.006  1.00  0.00    -0.265 OA
HETATM   16  C21 UNL     1     -38.758  -6.703  22.757  1.00  0.00     0.142 C 
HETATM   17  C22 UNL     1     -38.447  -5.227  22.660  1.00  0.00     0.127 C 
HETATM   18  C23 UNL     1     -39.630  -4.360  22.939  1.00  0.00     0.033 C 
HETATM   19  C24 UNL     1     -39.998  -4.308  24.406  1.00  0.00     0.011 C 
ENDROOT
BRANCH  11  20
HETATM   20  O1  UNL     1     -34.716  -9.104  23.908  1.00  0.00    -0.381 OA
ATOM     21  H1  UNL     1     -34.150  -8.348  23.799  1.00  0.00     0.211 HD
ENDBRANCH  11  20
BRANCH  11  22
HETATM   22  C14 UNL     1     -36.438 -10.034  25.216  1.00  0.00     0.223 C 
BRANCH  22  23
HETATM   23  O2  UNL     1     -35.997 -11.264  24.810  1.00  0.00    -0.318 OA
BRANCH  23  24
HETATM   24  C15 UNL     1     -36.284 -12.059  23.764  1.00  0.00     0.261 C 
HETATM   25  O3  UNL     1     -35.669 -11.921  22.699  1.00  0.00    -0.265 OA
BRANCH  24  26
HETATM   26  C16 UNL     1     -37.359 -13.103  23.932  1.00  0.00     0.142 C 
BRANCH  26  27
HETATM   27  C17 UNL     1     -36.996 -14.104  24.979  1.00  0.00     0.123 C 
HETATM   28  C18 UNL     1     -37.765 -15.396  24.778  1.00  0.00     0.040 C 
BRANCH  27  29
HETATM   29  O4  UNL     1     -35.639 -14.397  24.852  1.00  0.00    -0.395 OA
ATOM     30  H4  UNL     1     -35.176 -13.986  25.572  1.00  0.00     0.210 HD
ENDBRANCH  27  29
ENDBRANCH  26  27
ENDBRANCH  24  26
ENDBRANCH  23  24
ENDBRANCH  22  23
ENDBRANCH  11  22
BRANCH  17  31
HETATM   31  O7  UNL     1     -37.887  -4.878  21.437  1.00  0.00    -0.395 OA
ATOM     32  H7  UNL     1     -38.436  -5.122  20.702  1.00  0.00     0.210 HD
ENDBRANCH  17  31
BRANCH   1  33
HETATM   33  C2  UNL     1     -40.392  -2.204  25.670  1.00  0.00    -0.032 C 
HETATM   34  C1  UNL     1     -41.547  -1.921  25.084  1.00  0.00     0.007 C 
ENDBRANCH   1  33
TORSDOF 9
ENDMDL
MODEL 3
REMARK VINA RESULT: -7.382954361      3.730      8.269
REMARK  9 active torsions:
REMARK  status: ('A' for Active; 'I' for Inactive)
REMARK    1  A    between atoms: C2_2  and  C3_3 
REMARK    2  A    between atoms: C13_13  and  O1_14 
REMARK    3  A    between atoms: C13_13  and  C14_16 
REMARK    4  A    between atoms: C14_16  and  O2_17 
REMARK    5  A    between atoms: O2_17  and  C15_18 
REMARK    6  A    between atoms: C15_18  and  C16_20 
REMARK    7  A    between atoms: C16_20  and  C17_21 
REMARK    8  A    between atoms: C17_21  and  O4_23 
REMARK    9  A    between atoms: C22_30  and  O7_31 
ROOT
HETATM    1  C3  UNL     1     -36.301 -11.223  23.737  1.00  0.00     0.007 C 
HETATM    2  C4  UNL     1     -36.942 -10.306  22.768  1.00  0.00     0.009 C 
HETATM    3  C5  UNL     1     -37.972  -9.377  23.340  1.00  0.00     0.005 C 
HETATM    4  C6  UNL     1     -38.678  -8.668  22.197  1.00  0.00    -0.018 C 
HETATM    5  C7  UNL     1     -38.840  -9.551  20.974  1.00  0.00     0.010 C 
HETATM    6  C8  UNL     1     -37.900  -7.468  21.768  1.00  0.00     0.008 C 
HETATM    7  C9  UNL     1     -38.070  -6.267  22.694  1.00  0.00     0.028 C 
HETATM    8  C10 UNL     1     -37.468  -5.084  22.067  1.00  0.00    -0.021 C 
HETATM    9  C11 UNL     1     -36.480  -4.327  22.442  1.00  0.00    -0.049 C 
HETATM   10  C12 UNL     1     -36.104  -3.161  21.545  1.00  0.00     0.046 C 
HETATM   11  C13 UNL     1     -35.636  -4.441  23.672  1.00  0.00     0.124 C 
HETATM   12  C19 UNL     1     -35.278  -5.862  24.035  1.00  0.00     0.223 C 
HETATM   13  O5  UNL     1     -33.916  -5.863  24.502  1.00  0.00    -0.318 OA
HETATM   14  C20 UNL     1     -33.514  -6.806  25.429  1.00  0.00     0.261 C 
HETATM   15  O6  UNL     1     -32.384  -6.565  25.980  1.00  0.00    -0.265 OA
HETATM   16  C21 UNL     1     -34.269  -8.013  25.804  1.00  0.00     0.142 C 
HETATM   17  C22 UNL     1     -33.917  -9.118  24.835  1.00  0.00     0.127 C 
HETATM   18  C23 UNL     1     -34.439 -10.453  25.256  1.00  0.00     0.033 C 
HETATM   19  C24 UNL     1     -35.933 -10.597  25.062  1.00  0.00     0.011 C 
ENDROOT
BRANCH  11  20
HETATM   20  O1  UNL     1     -34.416  -3.802  23.420  1.00  0.00    -0.381 OA
ATOM     21  H1  UNL     1     -33.718  -4.407  23.641  1.00  0.00     0.211 HD
ENDBRANCH  11  20
BRANCH  11  22
HETATM   22  C14 UNL     1     -36.278  -3.817  24.861  1.00  0.00     0.223 C 
BRANCH  22  23
HETATM   23  O2  UNL     1     -36.903  -4.603  25.789  1.00  0.00    -0.318 OA
BRANCH  23  24
HETATM   24  C15 UNL     1     -38.140  -4.621  26.316  1.00  0.00     0.261 C 
HETATM   25  O3  UNL     1     -38.352  -5.235  27.369  1.00  0.00    -0.265 OA
BRANCH  24  26
HETATM   26  C16 UNL     1     -39.237  -3.881  25.591  1.00  0.00     0.142 C 
BRANCH  26  27
HETATM   27  C17 UNL     1     -39.335  -2.462  26.043  1.00  0.00     0.123 C 
HETATM   28  C18 UNL     1     -40.773  -2.093  26.353  1.00  0.00     0.040 C 
BRANCH  27  29
HETATM   29  O4  UNL     1     -38.602  -2.326  27.222  1.00  0.00    -0.395 OA
ATOM     30  H4  UNL     1     -39.177  -1.973  27.891  1.00  0.00     0.210 HD
ENDBRANCH  27  29
ENDBRANCH  26  27
ENDBRANCH  24  26
ENDBRANCH  23  24
ENDBRANCH  22  23
ENDBRANCH  11  22
BRANCH  17  31
HETATM   31  O7  UNL     1     -32.551  -9.203  24.595  1.00  0.00    -0.395 OA
ATOM     32  H7  UNL     1     -32.294 -10.047  24.243  1.00  0.00     0.210 HD
ENDBRANCH  17  31
BRANCH   1  33
HETATM   33  C2  UNL     1     -37.010 -12.519  23.912  1.00  0.00    -0.032 C 
HETATM   34  C1  UNL     1     -36.419 -13.699  24.036  1.00  0.00     0.007 C 
ENDBRANCH   1  33
TORSDOF 9
ENDMDL
MODEL 4
REMARK VINA RESULT: -7.181359320      5.124      8.564
REMARK  9 active torsions:
REMARK  status: ('A' for Active; 'I' for Inactive)
REMARK    1  A    between atoms: C2_2  and  C3_3 
REMARK    2  A    between atoms: C13_13  and  O1_14 
REMARK    3  A    between atoms: C13_13  and  C14_16 
REMARK    4  A    between atoms: C14_16  and  O2_17 
REMARK    5  A    between atoms: O2_17  and  C15_18 
REMARK    6  A    between atoms: C15_18  and  C16_20 
REMARK    7  A    between atoms: C16_20  and  C17_21 
REMARK    8  A    between atoms: C17_21  and  O4_23 
REMARK    9  A    between atoms: C22_30  and  O7_31 
ROOT
HETATM    1  C3  UNL     1     -34.050  -4.362  32.087  1.00  0.00     0.007 C 
HETATM    2  C4  UNL     1     -35.032  -3.316  31.723  1.00  0.00     0.009 C 
HETATM    3  C5  UNL     1     -34.677  -2.482  30.528  1.00  0.00     0.005 C 
HETATM    4  C6  UNL     1     -35.664  -1.332  30.422  1.00  0.00    -0.018 C 
HETATM    5  C7  UNL     1     -36.108  -0.820  31.779  1.00  0.00     0.010 C 
HETATM    6  C8  UNL     1     -36.895  -1.767  29.697  1.00  0.00     0.008 C 
HETATM    7  C9  UNL     1     -36.719  -1.830  28.182  1.00  0.00     0.028 C 
HETATM    8  C10 UNL     1     -38.030  -2.031  27.551  1.00  0.00    -0.021 C 
HETATM    9  C11 UNL     1     -38.488  -3.004  26.821  1.00  0.00    -0.049 C 
HETATM   10  C12 UNL     1     -39.917  -2.896  26.317  1.00  0.00     0.046 C 
HETATM   11  C13 UNL     1     -37.786  -4.251  26.387  1.00  0.00     0.124 C 
HETATM   12  C19 UNL     1     -36.915  -4.863  27.458  1.00  0.00     0.223 C 
HETATM   13  O5  UNL     1     -37.055  -6.294  27.371  1.00  0.00    -0.318 OA
HETATM   14  C20 UNL     1     -36.004  -7.107  27.752  1.00  0.00     0.261 C 
HETATM   15  O6  UNL     1     -36.116  -8.328  27.389  1.00  0.00    -0.265 OA
HETATM   16  C21 UNL     1     -34.822  -6.673  28.513  1.00  0.00     0.142 C 
HETATM   17  C22 UNL     1     -35.145  -6.752  29.988  1.00  0.00     0.127 C 
HETATM   18  C23 UNL     1     -33.948  -6.565  30.860  1.00  0.00     0.033 C 
HETATM   19  C24 UNL     1     -33.473  -5.130  30.920  1.00  0.00     0.011 C 
ENDROOT
BRANCH  11  20
HETATM   20  O1  UNL     1     -38.757  -5.217  26.100  1.00  0.00    -0.381 OA
ATOM     21  H1  UNL     1     -39.372  -5.239  26.824  1.00  0.00     0.211 HD
ENDBRANCH  11  20
BRANCH  11  22
HETATM   22  C14 UNL     1     -36.939  -4.036  25.182  1.00  0.00     0.223 C 
BRANCH  22  23
HETATM   23  O2  UNL     1     -36.818  -5.029  24.250  1.00  0.00    -0.318 OA
BRANCH  23  24
HETATM   24  C15 UNL     1     -35.978  -6.069  24.097  1.00  0.00     0.261 C 
HETATM   25  O3  UNL     1     -34.912  -6.097  24.724  1.00  0.00    -0.265 OA
BRANCH  24  26
HETATM   26  C16 UNL     1     -36.376  -7.176  23.152  1.00  0.00     0.142 C 
BRANCH  26  27
HETATM   27  C17 UNL     1     -37.349  -8.116  23.783  1.00  0.00     0.123 C 
HETATM   28  C18 UNL     1     -36.690  -9.447  24.090  1.00  0.00     0.040 C 
BRANCH  27  29
HETATM   29  O4  UNL     1     -37.768  -7.564  24.994  1.00  0.00    -0.395 OA
ATOM     30  H4  UNL     1     -37.546  -8.171  25.691  1.00  0.00     0.210 HD
ENDBRANCH  27  29
ENDBRANCH  26  27
ENDBRANCH  24  26
ENDBRANCH  23  24
ENDBRANCH  22  23
ENDBRANCH  11  22
BRANCH  17  31
HETATM   31  O7  UNL     1     -35.796  -7.932  30.329  1.00  0.00    -0.395 OA
ATOM     32  H7  UNL     1     -36.498  -7.794  30.954  1.00  0.00     0.210 HD
ENDBRANCH  17  31
BRANCH   1  33
HETATM   33  C2  UNL     1     -32.995  -3.906  33.030  1.00  0.00    -0.032 C 
HETATM   34  C1  UNL     1     -32.680  -4.509  34.168  1.00  0.00     0.007 C 
ENDBRANCH   1  33
TORSDOF 9
ENDMDL
MODEL 5
REMARK VINA RESULT: -7.174815689      2.699      7.001
REMARK  9 active torsions:
REMARK  status: ('A' for Active; 'I' for Inactive)
REMARK    1  A    between atoms: C2_2  and  C3_3 
REMARK    2  A    between atoms: C13_13  and  O1_14 
REMARK    3  A    between atoms: C13_13  and  C14_16 
REMARK    4  A    between atoms: C14_16  and  O2_17 
REMARK    5  A    between atoms: O2_17  and  C15_18 
REMARK    6  A    between atoms: C15_18  and  C16_20 
REMARK    7  A    between atoms: C16_20  and  C17_21 
REMARK    8  A    between atoms: C17_21  and  O4_23 
REMARK    9  A    between atoms: C22_30  and  O7_31 
ROOT
HETATM    1  C3  UNL     1     -34.045 -13.160  23.158  1.00  0.00     0.007 C 
HETATM    2  C4  UNL     1     -33.052 -12.407  23.957  1.00  0.00     0.009 C 
HETATM    3  C5  UNL     1     -32.943 -10.945  23.643  1.00  0.00     0.005 C 
HETATM    4  C6  UNL     1     -31.747 -10.373  24.384  1.00  0.00    -0.018 C 
HETATM    5  C7  UNL     1     -30.600 -11.360  24.489  1.00  0.00     0.010 C 
HETATM    6  C8  UNL     1     -32.128  -9.999  25.779  1.00  0.00     0.008 C 
HETATM    7  C9  UNL     1     -32.888  -8.678  25.869  1.00  0.00     0.028 C 
HETATM    8  C10 UNL     1     -33.005  -8.284  27.279  1.00  0.00    -0.021 C 
HETATM    9  C11 UNL     1     -34.049  -8.113  28.035  1.00  0.00    -0.049 C 
HETATM   10  C12 UNL     1     -33.815  -7.694  29.476  1.00  0.00     0.046 C 
HETATM   11  C13 UNL     1     -35.492  -8.267  27.676  1.00  0.00     0.124 C 
HETATM   12  C19 UNL     1     -35.774  -9.451  26.782  1.00  0.00     0.223 C 
HETATM   13  O5  UNL     1     -37.012 -10.043  27.218  1.00  0.00    -0.318 OA
HETATM   14  C20 UNL     1     -37.813 -10.699  26.303  1.00  0.00     0.261 C 
HETATM   15  O6  UNL     1     -38.998 -10.950  26.714  1.00  0.00    -0.265 OA
HETATM   16  C21 UNL     1     -37.405 -11.108  24.949  1.00  0.00     0.142 C 
HETATM   17  C22 UNL     1     -36.749 -12.467  25.036  1.00  0.00     0.127 C 
HETATM   18  C23 UNL     1     -36.509 -13.088  23.700  1.00  0.00     0.033 C 
HETATM   19  C24 UNL     1     -35.362 -12.451  22.944  1.00  0.00     0.011 C 
ENDROOT
BRANCH  11  20
HETATM   20  O1  UNL     1     -36.207  -8.513  28.855  1.00  0.00    -0.381 OA
ATOM     21  H1  UNL     1     -35.729  -9.162  29.357  1.00  0.00     0.211 HD
ENDBRANCH  11  20
BRANCH  11  22
HETATM   22  C14 UNL     1     -36.046  -7.056  27.012  1.00  0.00     0.223 C 
BRANCH  22  23
HETATM   23  O2  UNL     1     -37.111  -7.172  26.162  1.00  0.00    -0.318 OA
BRANCH  23  24
HETATM   24  C15 UNL     1     -37.380  -6.697  24.933  1.00  0.00     0.261 C 
HETATM   25  O3  UNL     1     -38.487  -6.904  24.422  1.00  0.00    -0.265 OA
BRANCH  24  26
HETATM   26  C16 UNL     1     -36.305  -5.918  24.216  1.00  0.00     0.142 C 
BRANCH  26  27
HETATM   27  C17 UNL     1     -35.588  -6.761  23.215  1.00  0.00     0.123 C 
HETATM   28  C18 UNL     1     -34.086  -6.633  23.380  1.00  0.00     0.040 C 
BRANCH  27  29
HETATM   29  O4  UNL     1     -35.924  -8.095  23.446  1.00  0.00    -0.395 OA
ATOM     30  H4  UNL     1     -35.993  -8.535  22.607  1.00  0.00     0.210 HD
ENDBRANCH  27  29
ENDBRANCH  26  27
ENDBRANCH  24  26
ENDBRANCH  23  24
ENDBRANCH  22  23
ENDBRANCH  11  22
BRANCH  17  31
HETATM   31  O7  UNL     1     -37.455 -13.351  25.844  1.00  0.00    -0.395 OA
ATOM     32  H7  UNL     1     -38.174 -13.769  25.386  1.00  0.00     0.210 HD
ENDBRANCH  17  31
BRANCH   1  33
HETATM   33  C2  UNL     1     -33.506 -13.727  21.893  1.00  0.00    -0.032 C 
HETATM   34  C1  UNL     1     -32.531 -13.189  21.173  1.00  0.00     0.007 C 
ENDBRANCH   1  33
TORSDOF 9
ENDMDL
