MODEL 1
REMARK VINA RESULT: -8.681353158      0.000      0.000
REMARK  3 active torsions:
REMARK  status: ('A' for Active; 'I' for Inactive)
REMARK    1  A    between atoms: C2_2  and  C3_3 
REMARK    2  A    between atoms: C7_9  and  S1_10 
REMARK    3  A    between atoms: S1_10  and  C8_11 
REMARK       I    between atoms: N3_22  and  C14_23 
ROOT
HETATM    1  C3  UNL     1     -44.049   3.019  14.274  1.00  0.00     0.087 C 
HETATM    2  C4  UNL     1     -43.512   1.733  13.714  1.00  0.00     0.036 C 
HETATM    3  C5  UNL     1     -42.872   1.928  12.342  1.00  0.00     0.042 C 
HETATM    4  C6  UNL     1     -42.462   0.591  11.846  1.00  0.00     0.068 C 
HETATM    5  N1  UNL     1     -41.551   0.550  10.793  1.00  0.00    -0.358 N 
ATOM      6  H1  UNL     1     -41.455  -0.374  10.373  1.00  0.00     0.166 HD
HETATM    7  C7  UNL     1     -40.831   1.417  10.262  1.00  0.00     0.112 C 
HETATM    8  S2  UNL     1     -40.919   3.084  10.920  1.00  0.00    -0.098 SA
HETATM    9  C12 UNL     1     -41.733   2.892  12.532  1.00  0.00     0.081 C 
HETATM   10  C13 UNL     1     -42.255   4.208  13.030  1.00  0.00     0.142 C 
HETATM   11  N3  UNL     1     -43.608   4.162  13.498  1.00  0.00    -0.350 N 
HETATM   12  C14 UNL     1     -44.472   5.246  13.181  1.00  0.00     0.184 C 
HETATM   13  N4  UNL     1     -43.984   6.433  13.088  1.00  0.00    -0.374 N 
ATOM     14  H41 UNL     1     -44.604   7.211  12.860  1.00  0.00     0.158 HD
ATOM     15  H42 UNL     1     -42.987   6.580  13.241  1.00  0.00     0.158 HD
HETATM   16  N5  UNL     1     -45.856   5.043  12.967  1.00  0.00    -0.064 NA
ENDROOT
BRANCH   7  17
HETATM   17  S1  UNL     1     -39.707   1.170   8.898  1.00  0.00    -0.061 SA
BRANCH  17  18
HETATM   18  C8  UNL     1     -38.680  -0.260   9.101  1.00  0.00     0.066 A 
HETATM   19  C9  UNL     1     -38.974  -1.589   9.149  1.00  0.00     0.112 A 
HETATM   20  N2  UNL     1     -37.811  -2.264   9.323  1.00  0.00    -0.339 N 
HETATM   21  C10 UNL     1     -36.790  -1.416   9.386  1.00  0.00     0.228 A 
ATOM     22  H2  UNL     1     -37.732  -3.278   9.394  1.00  0.00     0.167 HD
HETATM   23  F1  UNL     1     -35.494  -1.787   9.555  1.00  0.00    -0.183 F 
HETATM   24  C11 UNL     1     -37.307  -0.166   9.251  1.00  0.00     0.190 A 
HETATM   25  F2  UNL     1     -36.545   0.971   9.268  1.00  0.00    -0.200 F 
ENDBRANCH  17  18
ENDBRANCH   7  17
BRANCH   1  26
HETATM   26  C2  UNL     1     -43.569   3.130  15.717  1.00  0.00     0.021 C 
HETATM   27  C1  UNL     1     -44.494   3.930  16.573  1.00  0.00     0.007 C 
ENDBRANCH   1  26
TORSDOF 3
ENDMDL
MODEL 2
REMARK VINA RESULT: -8.618127213      1.392      1.575
REMARK  3 active torsions:
REMARK  status: ('A' for Active; 'I' for Inactive)
REMARK    1  A    between atoms: C2_2  and  C3_3 
REMARK    2  A    between atoms: C7_9  and  S1_10 
REMARK    3  A    between atoms: S1_10  and  C8_11 
REMARK       I    between atoms: N3_22  and  C14_23 
ROOT
HETATM    1  C3  UNL     1     -42.465   3.982  15.401  1.00  0.00     0.087 C 
HETATM    2  C4  UNL     1     -42.150   2.595  14.918  1.00  0.00     0.036 C 
HETATM    3  C5  UNL     1     -42.157   2.503  13.394  1.00  0.00     0.042 C 
HETATM    4  C6  UNL     1     -41.928   1.082  13.032  1.00  0.00     0.068 C 
HETATM    5  N1  UNL     1     -41.543   0.810  11.721  1.00  0.00    -0.358 N 
ATOM      6  H1  UNL     1     -41.587  -0.180  11.480  1.00  0.00     0.166 HD
HETATM    7  C7  UNL     1     -41.156   1.534  10.783  1.00  0.00     0.112 C 
HETATM    8  S2  UNL     1     -41.042   3.297  11.093  1.00  0.00    -0.098 SA
HETATM    9  C12 UNL     1     -41.092   3.444  12.902  1.00  0.00     0.081 C 
HETATM   10  C13 UNL     1     -41.420   4.849  13.318  1.00  0.00     0.142 C 
HETATM   11  N3  UNL     1     -42.447   4.940  14.312  1.00  0.00    -0.350 N 
HETATM   12  C14 UNL     1     -43.416   5.974  14.193  1.00  0.00     0.184 C 
HETATM   13  N4  UNL     1     -43.072   7.104  13.682  1.00  0.00    -0.374 N 
ATOM     14  H41 UNL     1     -43.767   7.845  13.597  1.00  0.00     0.158 HD
ATOM     15  H42 UNL     1     -42.111   7.241  13.371  1.00  0.00     0.158 HD
HETATM   16  N5  UNL     1     -44.750   5.782  14.625  1.00  0.00    -0.064 NA
ENDROOT
BRANCH   7  17
HETATM   17  S1  UNL     1     -40.699   0.993   9.146  1.00  0.00    -0.061 SA
BRANCH  17  18
HETATM   18  C8  UNL     1     -39.538  -0.346   9.162  1.00  0.00     0.066 A 
HETATM   19  C9  UNL     1     -39.710  -1.696   9.200  1.00  0.00     0.112 A 
HETATM   20  N2  UNL     1     -38.483  -2.271   9.195  1.00  0.00    -0.339 N 
HETATM   21  C10 UNL     1     -37.537  -1.339   9.155  1.00  0.00     0.228 A 
ATOM     22  H2  UNL     1     -38.310  -3.276   9.219  1.00  0.00     0.167 HD
HETATM   23  F1  UNL     1     -36.203  -1.599   9.140  1.00  0.00    -0.183 F 
HETATM   24  C11 UNL     1     -38.170  -0.135   9.134  1.00  0.00     0.190 A 
HETATM   25  F2  UNL     1     -37.510   1.063   9.092  1.00  0.00    -0.200 F 
ENDBRANCH  17  18
ENDBRANCH   7  17
BRANCH   1  26
HETATM   26  C2  UNL     1     -41.429   4.348  16.458  1.00  0.00     0.021 C 
HETATM   27  C1  UNL     1     -40.431   3.263  16.690  1.00  0.00     0.007 C 
ENDBRANCH   1  26
TORSDOF 3
ENDMDL
MODEL 3
REMARK VINA RESULT: -8.573158210      1.704      2.661
REMARK  3 active torsions:
REMARK  status: ('A' for Active; 'I' for Inactive)
REMARK    1  A    between atoms: C2_2  and  C3_3 
REMARK    2  A    between atoms: C7_9  and  S1_10 
REMARK    3  A    between atoms: S1_10  and  C8_11 
REMARK       I    between atoms: N3_22  and  C14_23 
ROOT
HETATM    1  C3  UNL     1     -42.171   5.128  14.180  1.00  0.00     0.087 C 
HETATM    2  C4  UNL     1     -41.418   5.155  12.881  1.00  0.00     0.036 C 
HETATM    3  C5  UNL     1     -41.229   3.757  12.297  1.00  0.00     0.042 C 
HETATM    4  C6  UNL     1     -40.400   3.891  11.074  1.00  0.00     0.068 C 
HETATM    5  N1  UNL     1     -40.391   2.818  10.186  1.00  0.00    -0.358 N 
ATOM      6  H1  UNL     1     -39.666   2.886   9.472  1.00  0.00     0.166 HD
HETATM    7  C7  UNL     1     -41.092   1.792  10.089  1.00  0.00     0.112 C 
HETATM    8  S2  UNL     1     -42.401   1.567  11.295  1.00  0.00    -0.098 SA
HETATM    9  C12 UNL     1     -42.607   3.205  12.051  1.00  0.00     0.081 C 
HETATM   10  C13 UNL     1     -43.357   3.108  13.348  1.00  0.00     0.142 C 
HETATM   11  N3  UNL     1     -42.751   3.822  14.430  1.00  0.00    -0.350 N 
HETATM   12  C14 UNL     1     -42.740   3.219  15.718  1.00  0.00     0.184 C 
HETATM   13  N4  UNL     1     -43.720   2.462  16.067  1.00  0.00    -0.374 N 
ATOM     14  H41 UNL     1     -43.712   2.030  16.991  1.00  0.00     0.158 HD
ATOM     15  H42 UNL     1     -44.489   2.304  15.416  1.00  0.00     0.158 HD
HETATM   16  N5  UNL     1     -41.673   3.438  16.621  1.00  0.00    -0.064 NA
ENDROOT
BRANCH   7  17
HETATM   17  S1  UNL     1     -40.928   0.509   8.861  1.00  0.00    -0.061 SA
BRANCH  17  18
HETATM   18  C8  UNL     1     -39.478  -0.485   9.092  1.00  0.00     0.066 A 
HETATM   19  C9  UNL     1     -39.314  -1.825   9.264  1.00  0.00     0.112 A 
HETATM   20  N2  UNL     1     -37.987  -2.067   9.398  1.00  0.00    -0.339 N 
HETATM   21  C10 UNL     1     -37.302  -0.932   9.318  1.00  0.00     0.228 A 
ATOM     22  H2  UNL     1     -37.574  -2.988   9.540  1.00  0.00     0.167 HD
HETATM   23  F1  UNL     1     -35.948  -0.844   9.414  1.00  0.00    -0.183 F 
HETATM   24  C11 UNL     1     -38.208   0.064   9.128  1.00  0.00     0.190 A 
HETATM   25  F2  UNL     1     -37.863   1.382   9.000  1.00  0.00    -0.200 F 
ENDBRANCH  17  18
ENDBRANCH   7  17
BRANCH   1  26
HETATM   26  C2  UNL     1     -43.258   6.194  14.105  1.00  0.00     0.021 C 
HETATM   27  C1  UNL     1     -43.890   6.469  15.429  1.00  0.00     0.007 C 
ENDBRANCH   1  26
TORSDOF 3
ENDMDL
MODEL 4
REMARK VINA RESULT: -8.458712692      2.086      3.098
REMARK  3 active torsions:
REMARK  status: ('A' for Active; 'I' for Inactive)
REMARK    1  A    between atoms: C2_2  and  C3_3 
REMARK    2  A    between atoms: C7_9  and  S1_10 
REMARK    3  A    between atoms: S1_10  and  C8_11 
REMARK       I    between atoms: N3_22  and  C14_23 
ROOT
HETATM    1  C3  UNL     1     -41.493   5.093  14.339  1.00  0.00     0.087 C 
HETATM    2  C4  UNL     1     -41.351   5.148  12.845  1.00  0.00     0.036 C 
HETATM    3  C5  UNL     1     -40.957   3.796  12.256  1.00  0.00     0.042 C 
HETATM    4  C6  UNL     1     -40.756   3.986  10.798  1.00  0.00     0.068 C 
HETATM    5  N1  UNL     1     -40.741   2.844  10.000  1.00  0.00    -0.358 N 
ATOM      6  H1  UNL     1     -40.412   3.015   9.050  1.00  0.00     0.166 HD
HETATM    7  C7  UNL     1     -41.049   1.656  10.214  1.00  0.00     0.112 C 
HETATM    8  S2  UNL     1     -41.641   1.238  11.855  1.00  0.00    -0.098 SA
HETATM    9  C12 UNL     1     -42.062   2.836  12.606  1.00  0.00     0.081 C 
HETATM   10  C13 UNL     1     -42.178   2.715  14.098  1.00  0.00     0.142 C 
HETATM   11  N3  UNL     1     -41.471   3.726  14.824  1.00  0.00    -0.350 N 
HETATM   12  C14 UNL     1     -40.769   3.347  16.002  1.00  0.00     0.184 C 
HETATM   13  N4  UNL     1     -41.233   2.397  16.734  1.00  0.00    -0.374 N 
ATOM     14  H41 UNL     1     -40.730   2.126  17.579  1.00  0.00     0.158 HD
ATOM     15  H42 UNL     1     -42.096   1.928  16.460  1.00  0.00     0.158 HD
HETATM   16  N5  UNL     1     -39.571   3.998  16.382  1.00  0.00    -0.064 NA
ENDROOT
BRANCH   7  17
HETATM   17  S1  UNL     1     -40.961   0.311   9.045  1.00  0.00    -0.061 SA
BRANCH  17  18
HETATM   18  C8  UNL     1     -39.454  -0.614   9.171  1.00  0.00     0.066 A 
HETATM   19  C9  UNL     1     -39.215  -1.949   9.291  1.00  0.00     0.112 A 
HETATM   20  N2  UNL     1     -37.873  -2.126   9.349  1.00  0.00    -0.339 N 
HETATM   21  C10 UNL     1     -37.249  -0.956   9.270  1.00  0.00     0.228 A 
ATOM     22  H2  UNL     1     -37.408  -3.029   9.440  1.00  0.00     0.167 HD
HETATM   23  F1  UNL     1     -35.899  -0.802   9.300  1.00  0.00    -0.183 F 
HETATM   24  C11 UNL     1     -38.212  -0.002   9.159  1.00  0.00     0.190 A 
HETATM   25  F2  UNL     1     -37.941   1.335   9.056  1.00  0.00    -0.200 F 
ENDBRANCH  17  18
ENDBRANCH   7  17
BRANCH   1  26
HETATM   26  C2  UNL     1     -42.808   5.772  14.704  1.00  0.00     0.021 C 
HETATM   27  C1  UNL     1     -43.346   6.619  13.598  1.00  0.00     0.007 C 
ENDBRANCH   1  26
TORSDOF 3
ENDMDL
MODEL 5
REMARK VINA RESULT: -8.309075817      3.337      7.370
REMARK  3 active torsions:
REMARK  status: ('A' for Active; 'I' for Inactive)
REMARK    1  A    between atoms: C2_2  and  C3_3 
REMARK    2  A    between atoms: C7_9  and  S1_10 
REMARK    3  A    between atoms: S1_10  and  C8_11 
REMARK       I    between atoms: N3_22  and  C14_23 
ROOT
HETATM    1  C3  UNL     1     -40.820  -0.702   8.969  1.00  0.00     0.087 C 
HETATM    2  C4  UNL     1     -41.765  -0.411  10.101  1.00  0.00     0.036 C 
HETATM    3  C5  UNL     1     -41.314   0.786  10.932  1.00  0.00     0.042 C 
HETATM    4  C6  UNL     1     -42.261   0.925  12.066  1.00  0.00     0.068 C 
HETATM    5  N1  UNL     1     -42.266   2.139  12.750  1.00  0.00    -0.358 N 
ATOM      6  H1  UNL     1     -42.789   2.111  13.625  1.00  0.00     0.166 HD
HETATM    7  C7  UNL     1     -41.761   3.251  12.507  1.00  0.00     0.112 C 
HETATM    8  S2  UNL     1     -40.815   3.417  10.991  1.00  0.00    -0.098 SA
HETATM    9  C12 UNL     1     -41.287   1.969  10.002  1.00  0.00     0.081 C 
HETATM   10  C13 UNL     1     -40.299   1.727   8.898  1.00  0.00     0.142 C 
HETATM   11  N3  UNL     1     -39.859   0.369   8.793  1.00  0.00    -0.350 N 
HETATM   12  C14 UNL     1     -38.486   0.121   8.517  1.00  0.00     0.184 C 
HETATM   13  N4  UNL     1     -37.833   0.948   7.778  1.00  0.00    -0.374 N 
ATOM     14  H41 UNL     1     -36.848   0.770   7.580  1.00  0.00     0.158 HD
ATOM     15  H42 UNL     1     -38.308   1.768   7.402  1.00  0.00     0.158 HD
HETATM   16  N5  UNL     1     -37.827  -1.017   9.039  1.00  0.00    -0.064 NA
ENDROOT
BRANCH   7  17
HETATM   17  S1  UNL     1     -41.880   4.715  13.521  1.00  0.00    -0.061 SA
BRANCH  17  18
HETATM   18  C8  UNL     1     -40.906   4.610  14.998  1.00  0.00     0.066 A 
HETATM   19  C9  UNL     1     -41.254   4.505  16.309  1.00  0.00     0.112 A 
HETATM   20  N2  UNL     1     -40.113   4.462  17.039  1.00  0.00    -0.339 N 
HETATM   21  C10 UNL     1     -39.053   4.534  16.242  1.00  0.00     0.228 A 
ATOM     22  H2  UNL     1     -40.074   4.384  18.055  1.00  0.00     0.167 HD
HETATM   23  F1  UNL     1     -37.764   4.515  16.674  1.00  0.00    -0.183 F 
HETATM   24  C11 UNL     1     -39.522   4.628  14.969  1.00  0.00     0.190 A 
HETATM   25  F2  UNL     1     -38.710   4.722  13.871  1.00  0.00    -0.200 F 
ENDBRANCH  17  18
ENDBRANCH   7  17
BRANCH   1  26
HETATM   26  C2  UNL     1     -41.655  -0.890   7.708  1.00  0.00     0.021 C 
HETATM   27  C1  UNL     1     -43.122  -0.898   7.982  1.00  0.00     0.007 C 
ENDBRANCH   1  26
TORSDOF 3
ENDMDL
