MODEL 1
REMARK VINA RESULT: -9.822045301      0.000      0.000
REMARK  14 active torsions:
REMARK  status: ('A' for Active; 'I' for Inactive)
REMARK    1  A    between atoms: N1_2  and  C3_4 
REMARK    2  A    between atoms: C3_4  and  C4_5 
REMARK    3  A    between atoms: C4_5  and  C5_6 
REMARK    4  A    between atoms: C7_8  and  C8_9 
REMARK       I    between atoms: C8_9  and  N2_11 
REMARK    5  A    between atoms: N2_11  and  C9_13 
REMARK    6  A    between atoms: C10_18  and  C11_19 
REMARK    7  A    between atoms: C11_19  and  C12_20 
REMARK    8  A    between atoms: C12_20  and  C13_21 
REMARK    9  A    between atoms: C13_21  and  C14_22 
REMARK   10  A    between atoms: C14_22  and  C15_23 
REMARK   11  A    between atoms: C18_26  and  N5_27 
REMARK       I    between atoms: N5_27  and  C19_29 
REMARK   12  A    between atoms: C19_29  and  C20_31 
REMARK   13  A    between atoms: C20_31  and  C21_32 
REMARK   14  A    between atoms: C29_45  and  C30_46 
ROOT
HETATM    1  C9  UNL     1      14.654  21.608  16.849  1.00  0.00     0.168 A 
HETATM    2  N3  UNL     1      14.634  20.298  16.593  1.00  0.00    -0.279 N 
ATOM      3  H3  UNL     1      14.840  19.950  15.657  1.00  0.00     0.189 HD
HETATM    4  N4  UNL     1      14.358  19.496  17.526  1.00  0.00    -0.296 N 
ATOM      5  H4  UNL     1      14.341  18.494  17.337  1.00  0.00     0.187 HD
HETATM    6  C10 UNL     1      14.086  19.934  18.757  1.00  0.00     0.069 A 
HETATM    7  S1  UNL     1      14.253  21.643  18.505  1.00  0.00    -0.038 SA
ENDROOT
BRANCH   6   8
HETATM    8  C11 UNL     1      13.822  19.166  19.985  1.00  0.00     0.066 C 
BRANCH   8   9
HETATM    9  C12 UNL     1      13.487  17.755  19.930  1.00  0.00     0.007 C 
BRANCH   9  10
HETATM   10  C13 UNL     1      12.145  17.212  20.149  1.00  0.00     0.006 C 
BRANCH  10  11
HETATM   11  C14 UNL     1      10.968  17.881  19.559  1.00  0.00     0.058 C 
BRANCH  11  12
HETATM   12  C15 UNL     1      10.949  17.677  18.067  1.00  0.00     0.026 A 
HETATM   13  C16 UNL     1      10.941  16.420  17.560  1.00  0.00     0.030 A 
HETATM   14  C17 UNL     1      10.920  16.266  16.172  1.00  0.00     0.052 A 
HETATM   15  C18 UNL     1      10.908  17.381  15.382  1.00  0.00     0.122 A 
HETATM   16  N6  UNL     1      10.917  18.617  15.942  1.00  0.00    -0.285 N 
HETATM   17  N7  UNL     1      10.937  18.734  17.247  1.00  0.00    -0.303 N 
ATOM     18  H6  UNL     1      10.908  19.448  15.351  1.00  0.00     0.188 HD
ATOM     19  H7  UNL     1      10.944  19.670  17.654  1.00  0.00     0.186 HD
BRANCH  15  20
HETATM   20  N5  UNL     1      10.886  17.261  14.076  1.00  0.00    -0.312 N 
HETATM   21  C19 UNL     1      11.129  18.427  13.312  1.00  0.00     0.227 C 
HETATM   22  O2  UNL     1      10.146  19.118  12.919  1.00  0.00    -0.273 OA
ATOM     23  H5  UNL     1      10.701  16.363  13.630  1.00  0.00     0.170 HD
BRANCH  21  24
HETATM   24  C20 UNL     1      12.529  18.802  12.994  1.00  0.00     0.141 C 
BRANCH  24  25
HETATM   25  C21 UNL     1      12.592  20.280  12.891  1.00  0.00    -0.050 A 
HETATM   26  C22 UNL     1      12.238  21.063  13.943  1.00  0.00     0.007 A 
HETATM   27  C23 UNL     1      12.324  22.446  13.772  1.00  0.00     0.001 A 
HETATM   28  C24 UNL     1      12.745  22.991  12.596  1.00  0.00     0.000 A 
HETATM   29  C25 UNL     1      13.096  22.167  11.550  1.00  0.00     0.001 A 
HETATM   30  C26 UNL     1      13.025  20.796  11.681  1.00  0.00     0.007 A 
ENDBRANCH  24  25
ENDBRANCH  21  24
ENDBRANCH  15  20
ENDBRANCH  11  12
ENDBRANCH  10  11
ENDBRANCH   9  10
ENDBRANCH   8   9
ENDBRANCH   6   8
BRANCH   1  31
HETATM   31  N2  UNL     1      14.918  22.591  16.018  1.00  0.00    -0.302 N 
HETATM   32  C8  UNL     1      16.040  22.573  15.175  1.00  0.00     0.257 C 
HETATM   33  O1  UNL     1      16.073  21.707  14.248  1.00  0.00    -0.267 OA
ATOM     34  H2  UNL     1      14.288  23.393  15.986  1.00  0.00     0.171 HD
BRANCH  32  35
HETATM   35  C7  UNL     1      17.165  23.486  15.300  1.00  0.00     0.033 A 
HETATM   36  C6  UNL     1      17.852  23.680  16.471  1.00  0.00     0.025 A 
HETATM   37  C5  UNL     1      18.940  24.565  16.583  1.00  0.00    -0.043 A 
HETATM   38  C29 UNL     1      19.362  25.279  15.499  1.00  0.00     0.004 A 
HETATM   39  C28 UNL     1      18.655  25.078  14.302  1.00  0.00     0.016 A 
HETATM   40  C27 UNL     1      17.593  24.211  14.209  1.00  0.00     0.018 A 
BRANCH  37  41
HETATM   41  C4  UNL     1      19.542  24.722  17.907  1.00  0.00     0.069 C 
BRANCH  41  42
HETATM   42  C3  UNL     1      19.493  23.496  18.779  1.00  0.00     0.276 C 
BRANCH  42  43
HETATM   43  N1  UNL     1      19.431  23.841  20.202  1.00  0.00     0.080 N 
HETATM   44  C1  UNL     1      18.039  24.304  20.394  1.00  0.00     0.309 C 
HETATM   45  C2  UNL     1      20.255  25.024  20.462  1.00  0.00     0.309 C 
ENDBRANCH  42  43
ENDBRANCH  41  42
ENDBRANCH  37  41
BRANCH  38  46
HETATM   46  C30 UNL     1      20.517  26.171  15.472  1.00  0.00     0.084 A 
HETATM   47  N8  UNL     1      21.771  25.734  15.545  1.00  0.00    -0.359 N 
HETATM   48  C31 UNL     1      22.752  26.561  15.509  1.00  0.00     0.096 A 
ATOM     49  H8  UNL     1      21.954  24.734  15.632  1.00  0.00     0.166 HD
HETATM   50  C32 UNL     1      22.471  27.899  15.395  1.00  0.00     0.069 A 
HETATM   51  S2  UNL     1      20.765  27.844  15.347  1.00  0.00    -0.082 SA
ENDBRANCH  38  46
ENDBRANCH  32  35
ENDBRANCH   1  31
TORSDOF 14
ENDMDL
MODEL 2
REMARK VINA RESULT: -9.783890332      1.141      1.583
REMARK  14 active torsions:
REMARK  status: ('A' for Active; 'I' for Inactive)
REMARK    1  A    between atoms: N1_2  and  C3_4 
REMARK    2  A    between atoms: C3_4  and  C4_5 
REMARK    3  A    between atoms: C4_5  and  C5_6 
REMARK    4  A    between atoms: C7_8  and  C8_9 
REMARK       I    between atoms: C8_9  and  N2_11 
REMARK    5  A    between atoms: N2_11  and  C9_13 
REMARK    6  A    between atoms: C10_18  and  C11_19 
REMARK    7  A    between atoms: C11_19  and  C12_20 
REMARK    8  A    between atoms: C12_20  and  C13_21 
REMARK    9  A    between atoms: C13_21  and  C14_22 
REMARK   10  A    between atoms: C14_22  and  C15_23 
REMARK   11  A    between atoms: C18_26  and  N5_27 
REMARK       I    between atoms: N5_27  and  C19_29 
REMARK   12  A    between atoms: C19_29  and  C20_31 
REMARK   13  A    between atoms: C20_31  and  C21_32 
REMARK   14  A    between atoms: C29_45  and  C30_46 
ROOT
HETATM    1  C9  UNL     1      15.006  22.894  16.633  1.00  0.00     0.168 A 
HETATM    2  N3  UNL     1      13.975  22.840  17.480  1.00  0.00    -0.279 N 
ATOM      3  H3  UNL     1      13.345  23.636  17.580  1.00  0.00     0.189 HD
HETATM    4  N4  UNL     1      13.791  21.792  18.156  1.00  0.00    -0.296 N 
ATOM      5  H4  UNL     1      13.006  21.745  18.805  1.00  0.00     0.187 HD
HETATM    6  C10 UNL     1      14.606  20.742  18.038  1.00  0.00     0.069 A 
HETATM    7  S1  UNL     1      15.711  21.357  16.849  1.00  0.00    -0.038 SA
ENDROOT
BRANCH   6   8
HETATM    8  C11 UNL     1      14.517  19.415  18.669  1.00  0.00     0.066 C 
BRANCH   8   9
HETATM    9  C12 UNL     1      13.728  19.206  19.869  1.00  0.00     0.007 C 
BRANCH   9  10
HETATM   10  C13 UNL     1      12.894  18.028  20.117  1.00  0.00     0.006 C 
BRANCH  10  11
HETATM   11  C14 UNL     1      11.461  18.043  19.762  1.00  0.00     0.058 C 
BRANCH  11  12
HETATM   12  C15 UNL     1      11.294  17.908  18.271  1.00  0.00     0.026 A 
HETATM   13  C16 UNL     1      10.816  18.952  17.552  1.00  0.00     0.030 A 
HETATM   14  C17 UNL     1      10.677  18.795  16.170  1.00  0.00     0.052 A 
HETATM   15  C18 UNL     1      11.029  17.603  15.600  1.00  0.00     0.122 A 
HETATM   16  N6  UNL     1      11.504  16.591  16.368  1.00  0.00    -0.285 N 
HETATM   17  N7  UNL     1      11.623  16.764  17.662  1.00  0.00    -0.303 N 
ATOM     18  H6  UNL     1      11.765  15.703  15.942  1.00  0.00     0.188 HD
ATOM     19  H7  UNL     1      11.981  15.993  18.227  1.00  0.00     0.186 HD
BRANCH  15  20
HETATM   20  N5  UNL     1      10.909  17.434  14.306  1.00  0.00    -0.312 N 
HETATM   21  C19 UNL     1      11.139  18.561  13.479  1.00  0.00     0.227 C 
HETATM   22  O2  UNL     1      10.156  19.273  13.128  1.00  0.00    -0.273 OA
ATOM     23  H5  UNL     1      10.661  16.528  13.910  1.00  0.00     0.170 HD
BRANCH  21  24
HETATM   24  C20 UNL     1      12.525  18.869  13.049  1.00  0.00     0.141 C 
BRANCH  24  25
HETATM   25  C21 UNL     1      12.648  20.342  12.933  1.00  0.00    -0.050 A 
HETATM   26  C22 UNL     1      12.871  20.924  11.725  1.00  0.00     0.007 A 
HETATM   27  C23 UNL     1      12.975  22.316  11.693  1.00  0.00     0.001 A 
HETATM   28  C24 UNL     1      12.857  23.063  12.827  1.00  0.00     0.000 A 
HETATM   29  C25 UNL     1      12.631  22.439  14.034  1.00  0.00     0.001 A 
HETATM   30  C26 UNL     1      12.522  21.067  14.106  1.00  0.00     0.007 A 
ENDBRANCH  24  25
ENDBRANCH  21  24
ENDBRANCH  15  20
ENDBRANCH  11  12
ENDBRANCH  10  11
ENDBRANCH   9  10
ENDBRANCH   8   9
ENDBRANCH   6   8
BRANCH   1  31
HETATM   31  N2  UNL     1      15.359  23.887  15.849  1.00  0.00    -0.302 N 
HETATM   32  C8  UNL     1      16.450  23.792  14.972  1.00  0.00     0.257 C 
HETATM   33  O1  UNL     1      16.363  22.983  13.999  1.00  0.00    -0.267 OA
ATOM     34  H2  UNL     1      14.823  24.755  15.879  1.00  0.00     0.171 HD
BRANCH  32  35
HETATM   35  C7  UNL     1      17.674  24.565  15.111  1.00  0.00     0.033 A 
HETATM   36  C6  UNL     1      18.241  24.868  16.323  1.00  0.00     0.025 A 
HETATM   37  C5  UNL     1      19.426  25.616  16.449  1.00  0.00    -0.043 A 
HETATM   38  C29 UNL     1      20.071  26.078  15.338  1.00  0.00     0.004 A 
HETATM   39  C28 UNL     1      19.486  25.767  14.099  1.00  0.00     0.016 A 
HETATM   40  C27 UNL     1      18.327  25.036  13.993  1.00  0.00     0.018 A 
BRANCH  37  41
HETATM   41  C4  UNL     1      19.886  25.918  17.804  1.00  0.00     0.069 C 
BRANCH  41  42
HETATM   42  C3  UNL     1      20.041  24.723  18.706  1.00  0.00     0.276 C 
BRANCH  42  43
HETATM   43  N1  UNL     1      20.013  25.101  20.122  1.00  0.00     0.080 N 
HETATM   44  C1  UNL     1      21.270  24.537  20.663  1.00  0.00     0.309 C 
HETATM   45  C2  UNL     1      18.950  24.367  20.811  1.00  0.00     0.309 C 
ENDBRANCH  42  43
ENDBRANCH  41  42
ENDBRANCH  37  41
BRANCH  38  46
HETATM   46  C30 UNL     1      21.338  26.801  15.335  1.00  0.00     0.084 A 
HETATM   47  N8  UNL     1      22.499  26.228  15.637  1.00  0.00    -0.359 N 
HETATM   48  C31 UNL     1      23.588  26.907  15.612  1.00  0.00     0.096 A 
ATOM     49  H8  UNL     1      22.525  25.239  15.890  1.00  0.00     0.166 HD
HETATM   50  C32 UNL     1      23.518  28.234  15.270  1.00  0.00     0.069 A 
HETATM   51  S2  UNL     1      21.839  28.387  15.005  1.00  0.00    -0.082 SA
ENDBRANCH  38  46
ENDBRANCH  32  35
ENDBRANCH   1  31
TORSDOF 14
ENDMDL
MODEL 3
REMARK VINA RESULT: -9.690615387      1.258      1.870
REMARK  14 active torsions:
REMARK  status: ('A' for Active; 'I' for Inactive)
REMARK    1  A    between atoms: N1_2  and  C3_4 
REMARK    2  A    between atoms: C3_4  and  C4_5 
REMARK    3  A    between atoms: C4_5  and  C5_6 
REMARK    4  A    between atoms: C7_8  and  C8_9 
REMARK       I    between atoms: C8_9  and  N2_11 
REMARK    5  A    between atoms: N2_11  and  C9_13 
REMARK    6  A    between atoms: C10_18  and  C11_19 
REMARK    7  A    between atoms: C11_19  and  C12_20 
REMARK    8  A    between atoms: C12_20  and  C13_21 
REMARK    9  A    between atoms: C13_21  and  C14_22 
REMARK   10  A    between atoms: C14_22  and  C15_23 
REMARK   11  A    between atoms: C18_26  and  N5_27 
REMARK       I    between atoms: N5_27  and  C19_29 
REMARK   12  A    between atoms: C19_29  and  C20_31 
REMARK   13  A    between atoms: C20_31  and  C21_32 
REMARK   14  A    between atoms: C29_45  and  C30_46 
ROOT
HETATM    1  C9  UNL     1      14.879  21.500  17.155  1.00  0.00     0.168 A 
HETATM    2  N3  UNL     1      15.489  20.313  17.197  1.00  0.00    -0.279 N 
ATOM      3  H3  UNL     1      16.190  20.066  16.498  1.00  0.00     0.189 HD
HETATM    4  N4  UNL     1      15.187  19.501  18.113  1.00  0.00    -0.296 N 
ATOM      5  H4  UNL     1      15.650  18.593  18.151  1.00  0.00     0.187 HD
HETATM    6  C10 UNL     1      14.273  19.809  19.036  1.00  0.00     0.069 A 
HETATM    7  S1  UNL     1      13.839  21.402  18.501  1.00  0.00    -0.038 SA
ENDROOT
BRANCH   6   8
HETATM    8  C11 UNL     1      13.843  19.042  20.217  1.00  0.00     0.066 C 
BRANCH   8   9
HETATM    9  C12 UNL     1      13.471  17.643  20.109  1.00  0.00     0.007 C 
BRANCH   9  10
HETATM   10  C13 UNL     1      12.209  17.163  19.543  1.00  0.00     0.006 C 
BRANCH  10  11
HETATM   11  C14 UNL     1      12.111  16.852  18.103  1.00  0.00     0.058 C 
BRANCH  11  12
HETATM   12  C15 UNL     1      11.659  18.069  17.340  1.00  0.00     0.026 A 
HETATM   13  C16 UNL     1      10.457  18.629  17.618  1.00  0.00     0.030 A 
HETATM   14  C17 UNL     1      10.070  19.759  16.894  1.00  0.00     0.052 A 
HETATM   15  C18 UNL     1      10.913  20.256  15.940  1.00  0.00     0.122 A 
HETATM   16  N6  UNL     1      12.107  19.656  15.702  1.00  0.00    -0.285 N 
HETATM   17  N7  UNL     1      12.446  18.596  16.395  1.00  0.00    -0.303 N 
ATOM     18  H6  UNL     1      12.735  20.028  14.991  1.00  0.00     0.188 HD
ATOM     19  H7  UNL     1      13.346  18.156  16.205  1.00  0.00     0.186 HD
BRANCH  15  20
HETATM   20  N5  UNL     1      10.572  21.317  15.250  1.00  0.00    -0.312 N 
HETATM   21  C19 UNL     1      11.429  21.709  14.193  1.00  0.00     0.227 C 
HETATM   22  O2  UNL     1      12.326  22.570  14.420  1.00  0.00    -0.273 OA
ATOM     23  H5  UNL     1       9.723  21.840  15.466  1.00  0.00     0.170 HD
BRANCH  21  24
HETATM   24  C20 UNL     1      11.246  21.099  12.854  1.00  0.00     0.141 C 
BRANCH  24  25
HETATM   25  C21 UNL     1      12.567  20.606  12.395  1.00  0.00    -0.050 A 
HETATM   26  C22 UNL     1      12.898  19.293  12.520  1.00  0.00     0.007 A 
HETATM   27  C23 UNL     1      14.158  18.902  12.065  1.00  0.00     0.001 A 
HETATM   28  C24 UNL     1      15.025  19.800  11.516  1.00  0.00     0.000 A 
HETATM   29  C25 UNL     1      14.657  21.123  11.405  1.00  0.00     0.001 A 
HETATM   30  C26 UNL     1      13.420  21.547  11.843  1.00  0.00     0.007 A 
ENDBRANCH  24  25
ENDBRANCH  21  24
ENDBRANCH  15  20
ENDBRANCH  11  12
ENDBRANCH  10  11
ENDBRANCH   9  10
ENDBRANCH   8   9
ENDBRANCH   6   8
BRANCH   1  31
HETATM   31  N2  UNL     1      15.056  22.471  16.287  1.00  0.00    -0.302 N 
HETATM   32  C8  UNL     1      16.120  22.468  15.373  1.00  0.00     0.257 C 
HETATM   33  O1  UNL     1      16.123  21.582  14.465  1.00  0.00    -0.267 OA
ATOM     34  H2  UNL     1      14.399  23.251  16.278  1.00  0.00     0.171 HD
BRANCH  32  35
HETATM   35  C7  UNL     1      17.220  23.418  15.403  1.00  0.00     0.033 A 
HETATM   36  C6  UNL     1      17.923  23.723  16.542  1.00  0.00     0.025 A 
HETATM   37  C5  UNL     1      18.986  24.644  16.563  1.00  0.00    -0.043 A 
HETATM   38  C29 UNL     1      19.367  25.283  15.419  1.00  0.00     0.004 A 
HETATM   39  C28 UNL     1      18.645  24.970  14.255  1.00  0.00     0.016 A 
HETATM   40  C27 UNL     1      17.607  24.068  14.252  1.00  0.00     0.018 A 
BRANCH  37  41
HETATM   41  C4  UNL     1      19.607  24.920  17.858  1.00  0.00     0.069 C 
BRANCH  41  42
HETATM   42  C3  UNL     1      19.671  23.746  18.798  1.00  0.00     0.276 C 
BRANCH  42  43
HETATM   43  N1  UNL     1      19.015  24.035  20.077  1.00  0.00     0.080 N 
HETATM   44  C1  UNL     1      19.888  25.054  20.700  1.00  0.00     0.309 C 
HETATM   45  C2  UNL     1      19.115  22.871  20.960  1.00  0.00     0.309 C 
ENDBRANCH  42  43
ENDBRANCH  41  42
ENDBRANCH  37  41
BRANCH  38  46
HETATM   46  C30 UNL     1      20.495  26.202  15.299  1.00  0.00     0.084 A 
HETATM   47  N8  UNL     1      21.756  25.828  15.490  1.00  0.00    -0.359 N 
HETATM   48  C31 UNL     1      22.713  26.675  15.364  1.00  0.00     0.096 A 
ATOM     49  H8  UNL     1      21.966  24.861  15.738  1.00  0.00     0.166 HD
HETATM   50  C32 UNL     1      22.397  27.968  15.032  1.00  0.00     0.069 A 
HETATM   51  S2  UNL     1      20.697  27.843  14.925  1.00  0.00    -0.082 SA
ENDBRANCH  38  46
ENDBRANCH  32  35
ENDBRANCH   1  31
TORSDOF 14
ENDMDL
MODEL 4
REMARK VINA RESULT: -9.685648306      1.604      2.173
REMARK  14 active torsions:
REMARK  status: ('A' for Active; 'I' for Inactive)
REMARK    1  A    between atoms: N1_2  and  C3_4 
REMARK    2  A    between atoms: C3_4  and  C4_5 
REMARK    3  A    between atoms: C4_5  and  C5_6 
REMARK    4  A    between atoms: C7_8  and  C8_9 
REMARK       I    between atoms: C8_9  and  N2_11 
REMARK    5  A    between atoms: N2_11  and  C9_13 
REMARK    6  A    between atoms: C10_18  and  C11_19 
REMARK    7  A    between atoms: C11_19  and  C12_20 
REMARK    8  A    between atoms: C12_20  and  C13_21 
REMARK    9  A    between atoms: C13_21  and  C14_22 
REMARK   10  A    between atoms: C14_22  and  C15_23 
REMARK   11  A    between atoms: C18_26  and  N5_27 
REMARK       I    between atoms: N5_27  and  C19_29 
REMARK   12  A    between atoms: C19_29  and  C20_31 
REMARK   13  A    between atoms: C20_31  and  C21_32 
REMARK   14  A    between atoms: C29_45  and  C30_46 
ROOT
HETATM    1  C9  UNL     1      15.018  23.034  16.747  1.00  0.00     0.168 A 
HETATM    2  N3  UNL     1      13.778  22.628  17.032  1.00  0.00    -0.279 N 
ATOM      3  H3  UNL     1      12.975  23.045  16.560  1.00  0.00     0.189 HD
HETATM    4  N4  UNL     1      13.613  21.723  17.894  1.00  0.00    -0.296 N 
ATOM      5  H4  UNL     1      12.668  21.409  18.116  1.00  0.00     0.187 HD
HETATM    6  C10 UNL     1      14.652  21.167  18.521  1.00  0.00     0.069 A 
HETATM    7  S1  UNL     1      15.950  22.050  17.780  1.00  0.00    -0.038 SA
ENDROOT
BRANCH   6   8
HETATM    8  C11 UNL     1      14.675  20.056  19.486  1.00  0.00     0.066 C 
BRANCH   8   9
HETATM    9  C12 UNL     1      13.570  19.120  19.579  1.00  0.00     0.007 C 
BRANCH   9  10
HETATM   10  C13 UNL     1      13.633  17.719  19.157  1.00  0.00     0.006 C 
BRANCH  10  11
HETATM   11  C14 UNL     1      12.586  17.159  18.279  1.00  0.00     0.058 C 
BRANCH  11  12
HETATM   12  C15 UNL     1      11.970  18.252  17.445  1.00  0.00     0.026 A 
HETATM   13  C16 UNL     1      10.701  18.655  17.697  1.00  0.00     0.030 A 
HETATM   14  C17 UNL     1      10.161  19.673  16.907  1.00  0.00     0.052 A 
HETATM   15  C18 UNL     1      10.928  20.221  15.918  1.00  0.00     0.122 A 
HETATM   16  N6  UNL     1      12.194  19.780  15.709  1.00  0.00    -0.285 N 
HETATM   17  N7  UNL     1      12.676  18.823  16.463  1.00  0.00    -0.303 N 
ATOM     18  H6  UNL     1      12.765  20.190  14.971  1.00  0.00     0.188 HD
ATOM     19  H7  UNL     1      13.630  18.501  16.295  1.00  0.00     0.186 HD
BRANCH  15  20
HETATM   20  N5  UNL     1      10.443  21.179  15.166  1.00  0.00    -0.312 N 
HETATM   21  C19 UNL     1      11.234  21.612  14.074  1.00  0.00     0.227 C 
HETATM   22  O2  UNL     1      12.008  22.598  14.231  1.00  0.00    -0.273 OA
ATOM     23  H5  UNL     1       9.533  21.596  15.360  1.00  0.00     0.170 HD
BRANCH  21  24
HETATM   24  C20 UNL     1      11.127  20.896  12.779  1.00  0.00     0.141 C 
BRANCH  24  25
HETATM   25  C21 UNL     1      12.497  20.525  12.351  1.00  0.00    -0.050 A 
HETATM   26  C22 UNL     1      13.356  21.469  11.881  1.00  0.00     0.007 A 
HETATM   27  C23 UNL     1      14.629  21.045  11.498  1.00  0.00     0.001 A 
HETATM   28  C24 UNL     1      15.000  19.737  11.591  1.00  0.00     0.000 A 
HETATM   29  C25 UNL     1      14.105  18.807  12.071  1.00  0.00     0.001 A 
HETATM   30  C26 UNL     1      12.838  19.187  12.460  1.00  0.00     0.007 A 
ENDBRANCH  24  25
ENDBRANCH  21  24
ENDBRANCH  15  20
ENDBRANCH  11  12
ENDBRANCH  10  11
ENDBRANCH   9  10
ENDBRANCH   8   9
ENDBRANCH   6   8
BRANCH   1  31
HETATM   31  N2  UNL     1      15.391  23.955  15.887  1.00  0.00    -0.302 N 
HETATM   32  C8  UNL     1      16.509  23.788  15.055  1.00  0.00     0.257 C 
HETATM   33  O1  UNL     1      16.455  22.893  14.157  1.00  0.00    -0.267 OA
ATOM     34  H2  UNL     1      14.851  24.818  15.822  1.00  0.00     0.171 HD
BRANCH  32  35
HETATM   35  C7  UNL     1      17.724  24.579  15.161  1.00  0.00     0.033 A 
HETATM   36  C6  UNL     1      18.314  24.901  16.357  1.00  0.00     0.025 A 
HETATM   37  C5  UNL     1      19.491  25.666  16.451  1.00  0.00    -0.043 A 
HETATM   38  C29 UNL     1      20.105  26.126  15.322  1.00  0.00     0.004 A 
HETATM   39  C28 UNL     1      19.498  25.795  14.099  1.00  0.00     0.016 A 
HETATM   40  C27 UNL     1      18.346  25.047  14.025  1.00  0.00     0.018 A 
BRANCH  37  41
HETATM   41  C4  UNL     1      19.976  25.987  17.792  1.00  0.00     0.069 C 
BRANCH  41  42
HETATM   42  C3  UNL     1      20.207  24.800  18.688  1.00  0.00     0.276 C 
BRANCH  42  43
HETATM   43  N1  UNL     1      20.126  25.162  20.106  1.00  0.00     0.080 N 
HETATM   44  C1  UNL     1      21.330  24.539  20.699  1.00  0.00     0.309 C 
HETATM   45  C2  UNL     1      19.001  24.466  20.733  1.00  0.00     0.309 C 
ENDBRANCH  42  43
ENDBRANCH  41  42
ENDBRANCH  37  41
BRANCH  38  46
HETATM   46  C30 UNL     1      21.362  26.866  15.285  1.00  0.00     0.084 A 
HETATM   47  N8  UNL     1      22.532  26.322  15.606  1.00  0.00    -0.359 N 
HETATM   48  C31 UNL     1      23.611  27.015  15.550  1.00  0.00     0.096 A 
ATOM     49  H8  UNL     1      22.572  25.345  15.900  1.00  0.00     0.166 HD
HETATM   50  C32 UNL     1      23.521  28.325  15.153  1.00  0.00     0.069 A 
HETATM   51  S2  UNL     1      21.839  28.444  14.887  1.00  0.00    -0.082 SA
ENDBRANCH  38  46
ENDBRANCH  32  35
ENDBRANCH   1  31
TORSDOF 14
ENDMDL
MODEL 5
REMARK VINA RESULT: -9.525645320      2.709     10.772
REMARK  14 active torsions:
REMARK  status: ('A' for Active; 'I' for Inactive)
REMARK    1  A    between atoms: N1_2  and  C3_4 
REMARK    2  A    between atoms: C3_4  and  C4_5 
REMARK    3  A    between atoms: C4_5  and  C5_6 
REMARK    4  A    between atoms: C7_8  and  C8_9 
REMARK       I    between atoms: C8_9  and  N2_11 
REMARK    5  A    between atoms: N2_11  and  C9_13 
REMARK    6  A    between atoms: C10_18  and  C11_19 
REMARK    7  A    between atoms: C11_19  and  C12_20 
REMARK    8  A    between atoms: C12_20  and  C13_21 
REMARK    9  A    between atoms: C13_21  and  C14_22 
REMARK   10  A    between atoms: C14_22  and  C15_23 
REMARK   11  A    between atoms: C18_26  and  N5_27 
REMARK       I    between atoms: N5_27  and  C19_29 
REMARK   12  A    between atoms: C19_29  and  C20_31 
REMARK   13  A    between atoms: C20_31  and  C21_32 
REMARK   14  A    between atoms: C29_45  and  C30_46 
ROOT
HETATM    1  C9  UNL     1      18.194  24.427  15.499  1.00  0.00     0.168 A 
HETATM    2  N3  UNL     1      19.468  24.154  15.206  1.00  0.00    -0.279 N 
ATOM      3  H3  UNL     1      19.900  23.289  15.530  1.00  0.00     0.189 HD
HETATM    4  N4  UNL     1      20.130  24.982  14.522  1.00  0.00    -0.296 N 
ATOM      5  H4  UNL     1      21.103  24.779  14.295  1.00  0.00     0.187 HD
HETATM    6  C10 UNL     1      19.580  26.118  14.090  1.00  0.00     0.069 A 
HETATM    7  S1  UNL     1      17.982  25.940  14.744  1.00  0.00    -0.038 SA
ENDROOT
BRANCH   6   8
HETATM    8  C11 UNL     1      20.152  27.162  13.224  1.00  0.00     0.066 C 
BRANCH   8   9
HETATM    9  C12 UNL     1      20.728  28.371  13.785  1.00  0.00     0.007 C 
BRANCH   9  10
HETATM   10  C13 UNL     1      22.070  28.457  14.364  1.00  0.00     0.006 C 
BRANCH  10  11
HETATM   11  C14 UNL     1      22.246  28.865  15.772  1.00  0.00     0.058 C 
BRANCH  11  12
HETATM   12  C15 UNL     1      21.990  27.696  16.687  1.00  0.00     0.026 A 
HETATM   13  C16 UNL     1      20.726  27.423  17.091  1.00  0.00     0.030 A 
HETATM   14  C17 UNL     1      20.523  26.330  17.936  1.00  0.00     0.052 A 
HETATM   15  C18 UNL     1      21.599  25.580  18.320  1.00  0.00     0.122 A 
HETATM   16  N6  UNL     1      22.844  25.897  17.885  1.00  0.00    -0.285 N 
HETATM   17  N7  UNL     1      23.008  26.929  17.093  1.00  0.00    -0.303 N 
ATOM     18  H6  UNL     1      23.646  25.337  18.172  1.00  0.00     0.188 HD
ATOM     19  H7  UNL     1      23.950  27.155  16.774  1.00  0.00     0.186 HD
BRANCH  15  20
HETATM   20  N5  UNL     1      21.432  24.548  19.111  1.00  0.00    -0.312 N 
HETATM   21  C19 UNL     1      21.207  24.810  20.484  1.00  0.00     0.227 C 
HETATM   22  O2  UNL     1      22.193  24.819  21.275  1.00  0.00    -0.273 OA
ATOM     23  H5  UNL     1      21.462  23.594  18.751  1.00  0.00     0.170 HD
BRANCH  21  24
HETATM   24  C20 UNL     1      19.823  25.065  20.952  1.00  0.00     0.141 C 
BRANCH  24  25
HETATM   25  C21 UNL     1      19.002  23.879  20.608  1.00  0.00    -0.050 A 
HETATM   26  C22 UNL     1      17.925  23.996  19.786  1.00  0.00     0.007 A 
HETATM   27  C23 UNL     1      17.201  22.837  19.507  1.00  0.00     0.001 A 
HETATM   28  C24 UNL     1      17.558  21.632  20.035  1.00  0.00     0.000 A 
HETATM   29  C25 UNL     1      18.655  21.549  20.864  1.00  0.00     0.001 A 
HETATM   30  C26 UNL     1      19.395  22.673  21.163  1.00  0.00     0.007 A 
ENDBRANCH  24  25
ENDBRANCH  21  24
ENDBRANCH  15  20
ENDBRANCH  11  12
ENDBRANCH  10  11
ENDBRANCH   9  10
ENDBRANCH   8   9
ENDBRANCH   6   8
BRANCH   1  31
HETATM   31  N2  UNL     1      17.349  23.698  16.191  1.00  0.00    -0.302 N 
HETATM   32  C8  UNL     1      17.249  22.308  16.020  1.00  0.00     0.257 C 
HETATM   33  O1  UNL     1      18.237  21.593  16.368  1.00  0.00    -0.267 OA
ATOM     34  H2  UNL     1      16.746  24.156  16.875  1.00  0.00     0.171 HD
BRANCH  32  35
HETATM   35  C7  UNL     1      16.082  21.640  15.467  1.00  0.00     0.033 A 
HETATM   36  C6  UNL     1      15.179  20.944  16.230  1.00  0.00     0.025 A 
HETATM   37  C5  UNL     1      14.052  20.300  15.687  1.00  0.00    -0.043 A 
HETATM   38  C29 UNL     1      13.810  20.349  14.345  1.00  0.00     0.004 A 
HETATM   39  C28 UNL     1      14.738  21.061  13.566  1.00  0.00     0.016 A 
HETATM   40  C27 UNL     1      15.835  21.684  14.112  1.00  0.00     0.018 A 
BRANCH  37  41
HETATM   41  C4  UNL     1      13.206  19.541  16.608  1.00  0.00     0.069 C 
BRANCH  41  42
HETATM   42  C3  UNL     1      13.587  19.650  18.060  1.00  0.00     0.276 C 
BRANCH  42  43
HETATM   43  N1  UNL     1      13.234  18.440  18.809  1.00  0.00     0.080 N 
HETATM   44  C1  UNL     1      13.419  18.834  20.224  1.00  0.00     0.309 C 
HETATM   45  C2  UNL     1      14.240  17.402  18.578  1.00  0.00     0.309 C 
ENDBRANCH  42  43
ENDBRANCH  41  42
ENDBRANCH  37  41
BRANCH  38  46
HETATM   46  C30 UNL     1      12.644  19.784  13.674  1.00  0.00     0.084 A 
HETATM   47  N8  UNL     1      12.598  18.529  13.236  1.00  0.00    -0.359 N 
HETATM   48  C31 UNL     1      11.544  18.079  12.659  1.00  0.00     0.096 A 
ATOM     49  H8  UNL     1      13.408  17.920  13.360  1.00  0.00     0.166 HD
HETATM   50  C32 UNL     1      10.474  18.924  12.507  1.00  0.00     0.069 A 
HETATM   51  S2  UNL     1      11.102  20.336  13.233  1.00  0.00    -0.082 SA
ENDBRANCH  38  46
ENDBRANCH  32  35
ENDBRANCH   1  31
TORSDOF 14
ENDMDL
