MODEL 1
REMARK VINA RESULT: -10.479804042      0.000      0.000
REMARK  13 active torsions:
REMARK  status: ('A' for Active; 'I' for Inactive)
REMARK    1  A    between atoms: O1_2  and  C2_3 
REMARK    2  A    between atoms: C2_3  and  C3_4 
REMARK    3  A    between atoms: C7_8  and  C8_9 
REMARK    4  A    between atoms: C8_9  and  N1_10 
REMARK    5  A    between atoms: N1_10  and  C9_12 
REMARK    6  A    between atoms: C10_15  and  N3_16 
REMARK    7  A    between atoms: N3_16  and  C12_18 
REMARK    8  A    between atoms: C12_18  and  C13_19 
REMARK    9  A    between atoms: C13_19  and  C14_20 
REMARK   10  A    between atoms: C20_26  and  C21_27 
REMARK   11  A    between atoms: C21_27  and  C22_28 
REMARK   12  A    between atoms: C23_29  and  C24_30 
REMARK       I    between atoms: C24_30  and  N4_32 
REMARK   13  A    between atoms: N6_37  and  C27_38 
ROOT
HETATM    1  C9  UNL     1      15.160  21.596  18.227  1.00  0.00     0.682 A 
HETATM    2  N2  UNL     1      15.227  22.284  17.107  1.00  0.00    -0.176 N 
ATOM      3  H2  UNL     1      14.344  22.535  16.662  1.00  0.00     0.186 HD
HETATM    4  C10 UNL     1      16.379  22.691  16.488  1.00  0.00     0.131 A 
HETATM    5  C20 UNL     1      17.568  22.326  17.129  1.00  0.00     0.059 A 
HETATM    6  C35 UNL     1      17.527  21.608  18.300  1.00  0.00     0.270 A 
HETATM    7  O3  UNL     1      18.562  21.240  18.940  1.00  0.00    -0.267 OA
HETATM    8  N7  UNL     1      16.328  21.267  18.812  1.00  0.00    -0.156 N 
ATOM      9  H7  UNL     1      16.303  20.735  19.682  1.00  0.00     0.187 HD
ENDROOT
BRANCH   5  10
HETATM   10  C21 UNL     1      18.828  22.702  16.509  1.00  0.00     0.091 C 
BRANCH  10  11
HETATM   11  C22 UNL     1      19.266  24.111  16.607  1.00  0.00     0.004 A 
HETATM   12  C23 UNL     1      19.041  25.009  17.638  1.00  0.00     0.125 A 
HETATM   13  N5  UNL     1      19.628  26.153  17.266  1.00  0.00    -0.288 N 
HETATM   14  N6  UNL     1      20.206  26.065  16.092  1.00  0.00    -0.260 N 
ATOM     15  H5  UNL     1      19.626  27.001  17.833  1.00  0.00     0.188 HD
HETATM   16  C33 UNL     1      20.007  24.817  15.646  1.00  0.00     0.040 A 
HETATM   17  C34 UNL     1      20.480  24.239  14.341  1.00  0.00     0.071 C 
BRANCH  12  18
HETATM   18  C24 UNL     1      18.302  24.759  18.889  1.00  0.00     0.271 C 
HETATM   19  O2  UNL     1      17.053  24.905  18.955  1.00  0.00    -0.266 OA
HETATM   20  N4  UNL     1      19.004  24.346  20.036  1.00  0.00    -0.355 N 
HETATM   21  C25 UNL     1      18.283  24.093  21.287  1.00  0.00     0.152 C 
HETATM   22  C26 UNL     1      20.426  24.145  20.080  1.00  0.00     0.152 C 
ENDBRANCH  12  18
BRANCH  14  23
HETATM   23  C27 UNL     1      20.926  27.132  15.435  1.00  0.00     0.056 A 
HETATM   24  C28 UNL     1      20.536  27.632  14.240  1.00  0.00     0.031 A 
HETATM   25  C29 UNL     1      21.238  28.657  13.631  1.00  0.00     0.002 A 
HETATM   26  C30 UNL     1      22.355  29.182  14.244  1.00  0.00     0.000 A 
HETATM   27  C31 UNL     1      22.778  28.682  15.478  1.00  0.00     0.002 A 
HETATM   28  C32 UNL     1      22.049  27.659  16.052  1.00  0.00     0.031 A 
ENDBRANCH  14  23
ENDBRANCH  10  11
ENDBRANCH   5  10
BRANCH   4  29
HETATM   29  N3  UNL     1      16.284  23.422  15.278  1.00  0.00    -0.370 N 
HETATM   30  C11 UNL     1      16.225  24.849  15.298  1.00  0.00     0.151 C 
BRANCH  29  31
HETATM   31  C12 UNL     1      16.171  22.714  14.050  1.00  0.00     0.128 C 
BRANCH  31  32
HETATM   32  C13 UNL     1      15.372  21.490  13.951  1.00  0.00     0.058 C 
BRANCH  32  33
HETATM   33  C14 UNL     1      13.924  21.603  13.753  1.00  0.00    -0.057 A 
HETATM   34  C15 UNL     1      13.071  20.820  14.477  1.00  0.00     0.007 A 
HETATM   35  C16 UNL     1      11.718  20.889  14.336  1.00  0.00     0.001 A 
HETATM   36  C17 UNL     1      11.180  21.797  13.414  1.00  0.00     0.000 A 
HETATM   37  C18 UNL     1      12.043  22.576  12.694  1.00  0.00     0.001 A 
HETATM   38  C19 UNL     1      13.407  22.499  12.845  1.00  0.00     0.007 A 
ENDBRANCH  32  33
ENDBRANCH  31  32
ENDBRANCH  29  31
ENDBRANCH   4  29
BRANCH   1  39
HETATM   39  N1  UNL     1      14.108  21.204  18.811  1.00  0.00    -0.222 N 
ATOM     40  H1  UNL     1      14.029  21.367  19.815  1.00  0.00     0.178 HD
BRANCH  39  41
HETATM   41  C8  UNL     1      13.033  20.551  18.157  1.00  0.00     0.176 C 
BRANCH  41  42
HETATM   42  C7  UNL     1      12.720  19.258  18.855  1.00  0.00    -0.039 A 
HETATM   43  C6  UNL     1      13.216  19.000  20.116  1.00  0.00     0.009 A 
HETATM   44  C5  UNL     1      12.921  17.823  20.728  1.00  0.00     0.001 A 
HETATM   45  C4  UNL     1      12.134  16.881  20.110  1.00  0.00     0.009 A 
HETATM   46  C3  UNL     1      11.641  17.146  18.847  1.00  0.00    -0.034 A 
HETATM   47  C36 UNL     1      11.933  18.321  18.229  1.00  0.00     0.018 A 
BRANCH  46  48
HETATM   48  C2  UNL     1      10.793  16.132  18.195  1.00  0.00     0.205 C 
BRANCH  48  49
HETATM   49  O1  UNL     1      11.481  15.662  17.077  1.00  0.00    -0.391 OA
HETATM   50  C1  UNL     1      10.582  15.594  16.003  1.00  0.00     0.201 C 
ENDBRANCH  48  49
ENDBRANCH  46  48
ENDBRANCH  41  42
ENDBRANCH  39  41
ENDBRANCH   1  39
TORSDOF 13
ENDMDL
MODEL 2
REMARK VINA RESULT: -10.316050109      1.723      4.714
REMARK  13 active torsions:
REMARK  status: ('A' for Active; 'I' for Inactive)
REMARK    1  A    between atoms: O1_2  and  C2_3 
REMARK    2  A    between atoms: C2_3  and  C3_4 
REMARK    3  A    between atoms: C7_8  and  C8_9 
REMARK    4  A    between atoms: C8_9  and  N1_10 
REMARK    5  A    between atoms: N1_10  and  C9_12 
REMARK    6  A    between atoms: C10_15  and  N3_16 
REMARK    7  A    between atoms: N3_16  and  C12_18 
REMARK    8  A    between atoms: C12_18  and  C13_19 
REMARK    9  A    between atoms: C13_19  and  C14_20 
REMARK   10  A    between atoms: C20_26  and  C21_27 
REMARK   11  A    between atoms: C21_27  and  C22_28 
REMARK   12  A    between atoms: C23_29  and  C24_30 
REMARK       I    between atoms: C24_30  and  N4_32 
REMARK   13  A    between atoms: N6_37  and  C27_38 
ROOT
HETATM    1  C9  UNL     1      14.398  23.357  15.622  1.00  0.00     0.682 A 
HETATM    2  N2  UNL     1      14.931  22.497  16.462  1.00  0.00    -0.176 N 
ATOM      3  H2  UNL     1      14.291  21.906  16.992  1.00  0.00     0.186 HD
HETATM    4  C10 UNL     1      16.272  22.327  16.687  1.00  0.00     0.131 A 
HETATM    5  C20 UNL     1      17.117  23.156  15.942  1.00  0.00     0.059 A 
HETATM    6  C35 UNL     1      16.587  24.063  15.056  1.00  0.00     0.270 A 
HETATM    7  O3  UNL     1      17.288  24.850  14.345  1.00  0.00    -0.267 OA
HETATM    8  N7  UNL     1      15.247  24.136  14.924  1.00  0.00    -0.156 N 
ATOM      9  H7  UNL     1      14.858  24.810  14.264  1.00  0.00     0.187 HD
ENDROOT
BRANCH   5  10
HETATM   10  C21 UNL     1      18.551  23.046  16.152  1.00  0.00     0.091 C 
BRANCH  10  11
HETATM   11  C22 UNL     1      19.309  24.274  16.478  1.00  0.00     0.004 A 
HETATM   12  C23 UNL     1      19.270  25.020  17.645  1.00  0.00     0.125 A 
HETATM   13  N5  UNL     1      20.124  26.035  17.462  1.00  0.00    -0.288 N 
HETATM   14  N6  UNL     1      20.703  26.001  16.286  1.00  0.00    -0.260 N 
ATOM     15  H5  UNL     1      20.306  26.755  18.162  1.00  0.00     0.188 HD
HETATM   16  C33 UNL     1      20.228  24.927  15.643  1.00  0.00     0.040 A 
HETATM   17  C34 UNL     1      20.594  24.471  14.256  1.00  0.00     0.071 C 
BRANCH  12  18
HETATM   18  C24 UNL     1      18.451  24.757  18.842  1.00  0.00     0.271 C 
HETATM   19  O2  UNL     1      17.199  24.895  18.826  1.00  0.00    -0.266 OA
HETATM   20  N4  UNL     1      19.078  24.340  20.030  1.00  0.00    -0.355 N 
HETATM   21  C25 UNL     1      18.277  24.073  21.229  1.00  0.00     0.152 C 
HETATM   22  C26 UNL     1      20.496  24.147  20.167  1.00  0.00     0.152 C 
ENDBRANCH  12  18
BRANCH  14  23
HETATM   23  C27 UNL     1      21.679  26.956  15.809  1.00  0.00     0.056 A 
HETATM   24  C28 UNL     1      22.994  26.845  16.101  1.00  0.00     0.031 A 
HETATM   25  C29 UNL     1      23.911  27.767  15.631  1.00  0.00     0.002 A 
HETATM   26  C30 UNL     1      23.485  28.822  14.851  1.00  0.00     0.000 A 
HETATM   27  C31 UNL     1      22.130  28.958  14.537  1.00  0.00     0.002 A 
HETATM   28  C32 UNL     1      21.248  28.015  15.027  1.00  0.00     0.031 A 
ENDBRANCH  14  23
ENDBRANCH  10  11
ENDBRANCH   5  10
BRANCH   4  29
HETATM   29  N3  UNL     1      16.690  21.358  17.633  1.00  0.00    -0.370 N 
HETATM   30  C11 UNL     1      17.980  21.449  18.239  1.00  0.00     0.151 C 
BRANCH  29  31
HETATM   31  C12 UNL     1      15.839  20.254  17.913  1.00  0.00     0.128 C 
BRANCH  31  32
HETATM   32  C13 UNL     1      14.986  20.237  19.104  1.00  0.00     0.058 C 
BRANCH  32  33
HETATM   33  C14 UNL     1      14.070  19.110  19.305  1.00  0.00    -0.057 A 
HETATM   34  C15 UNL     1      13.249  19.080  20.396  1.00  0.00     0.007 A 
HETATM   35  C16 UNL     1      12.378  18.059  20.626  1.00  0.00     0.001 A 
HETATM   36  C17 UNL     1      12.320  17.001  19.711  1.00  0.00     0.000 A 
HETATM   37  C18 UNL     1      13.146  17.040  18.622  1.00  0.00     0.001 A 
HETATM   38  C19 UNL     1      14.022  18.075  18.398  1.00  0.00     0.007 A 
ENDBRANCH  32  33
ENDBRANCH  31  32
ENDBRANCH  29  31
ENDBRANCH   4  29
BRANCH   1  39
HETATM   39  N1  UNL     1      13.164  23.536  15.405  1.00  0.00    -0.222 N 
ATOM     40  H1  UNL     1      12.521  23.438  16.191  1.00  0.00     0.178 HD
BRANCH  39  41
HETATM   41  C8  UNL     1      12.620  23.865  14.138  1.00  0.00     0.176 C 
BRANCH  41  42
HETATM   42  C7  UNL     1      12.548  22.635  13.279  1.00  0.00    -0.039 A 
HETATM   43  C6  UNL     1      13.198  22.586  12.063  1.00  0.00     0.009 A 
HETATM   44  C5  UNL     1      13.118  21.464  11.301  1.00  0.00     0.001 A 
HETATM   45  C4  UNL     1      12.400  20.370  11.723  1.00  0.00     0.009 A 
HETATM   46  C3  UNL     1      11.751  20.426  12.942  1.00  0.00    -0.034 A 
HETATM   47  C36 UNL     1      11.826  21.547  13.708  1.00  0.00     0.018 A 
BRANCH  46  48
HETATM   48  C2  UNL     1      10.987  19.247  13.388  1.00  0.00     0.205 C 
BRANCH  48  49
HETATM   49  O1  UNL     1       9.939  19.058  12.489  1.00  0.00    -0.391 OA
HETATM   50  C1  UNL     1       9.889  17.698  12.150  1.00  0.00     0.201 C 
ENDBRANCH  48  49
ENDBRANCH  46  48
ENDBRANCH  41  42
ENDBRANCH  39  41
ENDBRANCH   1  39
TORSDOF 13
ENDMDL
MODEL 3
REMARK VINA RESULT: -10.226852972      1.014      1.531
REMARK  13 active torsions:
REMARK  status: ('A' for Active; 'I' for Inactive)
REMARK    1  A    between atoms: O1_2  and  C2_3 
REMARK    2  A    between atoms: C2_3  and  C3_4 
REMARK    3  A    between atoms: C7_8  and  C8_9 
REMARK    4  A    between atoms: C8_9  and  N1_10 
REMARK    5  A    between atoms: N1_10  and  C9_12 
REMARK    6  A    between atoms: C10_15  and  N3_16 
REMARK    7  A    between atoms: N3_16  and  C12_18 
REMARK    8  A    between atoms: C12_18  and  C13_19 
REMARK    9  A    between atoms: C13_19  and  C14_20 
REMARK   10  A    between atoms: C20_26  and  C21_27 
REMARK   11  A    between atoms: C21_27  and  C22_28 
REMARK   12  A    between atoms: C23_29  and  C24_30 
REMARK       I    between atoms: C24_30  and  N4_32 
REMARK   13  A    between atoms: N6_37  and  C27_38 
ROOT
HETATM    1  C9  UNL     1      15.067  21.592  18.239  1.00  0.00     0.682 A 
HETATM    2  N2  UNL     1      15.136  22.284  17.122  1.00  0.00    -0.176 N 
ATOM      3  H2  UNL     1      14.254  22.544  16.680  1.00  0.00     0.186 HD
HETATM    4  C10 UNL     1      16.290  22.684  16.501  1.00  0.00     0.131 A 
HETATM    5  C20 UNL     1      17.477  22.308  17.138  1.00  0.00     0.059 A 
HETATM    6  C35 UNL     1      17.434  21.586  18.307  1.00  0.00     0.270 A 
HETATM    7  O3  UNL     1      18.468  21.207  18.943  1.00  0.00    -0.267 OA
HETATM    8  N7  UNL     1      16.233  21.252  18.820  1.00  0.00    -0.156 N 
ATOM      9  H7  UNL     1      16.206  20.717  19.688  1.00  0.00     0.187 HD
ENDROOT
BRANCH   5  10
HETATM   10  C21 UNL     1      18.739  22.676  16.517  1.00  0.00     0.091 C 
BRANCH  10  11
HETATM   11  C22 UNL     1      19.184  24.084  16.610  1.00  0.00     0.004 A 
HETATM   12  C23 UNL     1      18.965  24.984  17.640  1.00  0.00     0.125 A 
HETATM   13  N5  UNL     1      19.556  26.125  17.264  1.00  0.00    -0.288 N 
HETATM   14  N6  UNL     1      20.130  26.032  16.089  1.00  0.00    -0.260 N 
ATOM     15  H5  UNL     1      19.559  26.974  17.829  1.00  0.00     0.188 HD
HETATM   16  C33 UNL     1      19.925  24.784  15.647  1.00  0.00     0.040 A 
HETATM   17  C34 UNL     1      20.393  24.201  14.341  1.00  0.00     0.071 C 
BRANCH  12  18
HETATM   18  C24 UNL     1      18.228  24.741  18.893  1.00  0.00     0.271 C 
HETATM   19  O2  UNL     1      16.983  24.916  18.968  1.00  0.00    -0.266 OA
HETATM   20  N4  UNL     1      18.926  24.300  20.032  1.00  0.00    -0.355 N 
HETATM   21  C25 UNL     1      18.207  24.053  21.286  1.00  0.00     0.152 C 
HETATM   22  C26 UNL     1      20.344  24.065  20.065  1.00  0.00     0.152 C 
ENDBRANCH  12  18
BRANCH  14  23
HETATM   23  C27 UNL     1      20.854  27.094  15.427  1.00  0.00     0.056 A 
HETATM   24  C28 UNL     1      21.968  27.645  15.960  1.00  0.00     0.031 A 
HETATM   25  C29 UNL     1      22.646  28.659  15.308  1.00  0.00     0.002 A 
HETATM   26  C30 UNL     1      22.186  29.122  14.094  1.00  0.00     0.000 A 
HETATM   27  C31 UNL     1      21.037  28.569  13.523  1.00  0.00     0.002 A 
HETATM   28  C32 UNL     1      20.389  27.559  14.207  1.00  0.00     0.031 A 
ENDBRANCH  14  23
ENDBRANCH  10  11
ENDBRANCH   5  10
BRANCH   4  29
HETATM   29  N3  UNL     1      16.198  23.420  15.295  1.00  0.00    -0.370 N 
HETATM   30  C11 UNL     1      16.123  24.846  15.321  1.00  0.00     0.151 C 
BRANCH  29  31
HETATM   31  C12 UNL     1      16.104  22.717  14.062  1.00  0.00     0.128 C 
BRANCH  31  32
HETATM   32  C13 UNL     1      15.377  21.449  13.966  1.00  0.00     0.058 C 
BRANCH  32  33
HETATM   33  C14 UNL     1      13.980  21.466  13.520  1.00  0.00    -0.057 A 
HETATM   34  C15 UNL     1      13.596  20.721  12.442  1.00  0.00     0.007 A 
HETATM   35  C16 UNL     1      12.311  20.697  11.991  1.00  0.00     0.001 A 
HETATM   36  C17 UNL     1      11.347  21.464  12.657  1.00  0.00     0.000 A 
HETATM   37  C18 UNL     1      11.741  22.206  13.736  1.00  0.00     0.001 A 
HETATM   38  C19 UNL     1      13.040  22.223  14.183  1.00  0.00     0.007 A 
ENDBRANCH  32  33
ENDBRANCH  31  32
ENDBRANCH  29  31
ENDBRANCH   4  29
BRANCH   1  39
HETATM   39  N1  UNL     1      14.013  21.206  18.825  1.00  0.00    -0.222 N 
ATOM     40  H1  UNL     1      13.240  21.866  18.904  1.00  0.00     0.178 HD
BRANCH  39  41
HETATM   41  C8  UNL     1      13.841  19.912  19.377  1.00  0.00     0.176 C 
BRANCH  41  42
HETATM   42  C7  UNL     1      12.685  19.222  18.710  1.00  0.00    -0.039 A 
HETATM   43  C6  UNL     1      11.822  18.430  19.438  1.00  0.00     0.009 A 
HETATM   44  C5  UNL     1      10.784  17.814  18.814  1.00  0.00     0.001 A 
HETATM   45  C4  UNL     1      10.577  17.968  17.464  1.00  0.00     0.009 A 
HETATM   46  C3  UNL     1      11.445  18.762  16.741  1.00  0.00    -0.034 A 
HETATM   47  C36 UNL     1      12.487  19.380  17.359  1.00  0.00     0.018 A 
BRANCH  46  48
HETATM   48  C2  UNL     1      11.212  18.925  15.294  1.00  0.00     0.205 C 
BRANCH  48  49
HETATM   49  O1  UNL     1      10.458  17.835  14.863  1.00  0.00    -0.391 OA
HETATM   50  C1  UNL     1      10.829  17.537  13.543  1.00  0.00     0.201 C 
ENDBRANCH  48  49
ENDBRANCH  46  48
ENDBRANCH  41  42
ENDBRANCH  39  41
ENDBRANCH   1  39
TORSDOF 13
ENDMDL
MODEL 4
REMARK VINA RESULT: -10.069967825      1.770      4.787
REMARK  13 active torsions:
REMARK  status: ('A' for Active; 'I' for Inactive)
REMARK    1  A    between atoms: O1_2  and  C2_3 
REMARK    2  A    between atoms: C2_3  and  C3_4 
REMARK    3  A    between atoms: C7_8  and  C8_9 
REMARK    4  A    between atoms: C8_9  and  N1_10 
REMARK    5  A    between atoms: N1_10  and  C9_12 
REMARK    6  A    between atoms: C10_15  and  N3_16 
REMARK    7  A    between atoms: N3_16  and  C12_18 
REMARK    8  A    between atoms: C12_18  and  C13_19 
REMARK    9  A    between atoms: C13_19  and  C14_20 
REMARK   10  A    between atoms: C20_26  and  C21_27 
REMARK   11  A    between atoms: C21_27  and  C22_28 
REMARK   12  A    between atoms: C23_29  and  C24_30 
REMARK       I    between atoms: C24_30  and  N4_32 
REMARK   13  A    between atoms: N6_37  and  C27_38 
ROOT
HETATM    1  C9  UNL     1      14.342  23.346  15.762  1.00  0.00     0.682 A 
HETATM    2  N2  UNL     1      14.901  22.478  16.576  1.00  0.00    -0.176 N 
ATOM      3  H2  UNL     1      14.278  21.878  17.116  1.00  0.00     0.186 HD
HETATM    4  C10 UNL     1      16.248  22.311  16.762  1.00  0.00     0.131 A 
HETATM    5  C20 UNL     1      17.069  23.153  16.005  1.00  0.00     0.059 A 
HETATM    6  C35 UNL     1      16.511  24.069  15.145  1.00  0.00     0.270 A 
HETATM    7  O3  UNL     1      17.190  24.867  14.425  1.00  0.00    -0.267 OA
HETATM    8  N7  UNL     1      15.168  24.137  15.050  1.00  0.00    -0.156 N 
ATOM      9  H7  UNL     1      14.759  24.817  14.410  1.00  0.00     0.187 HD
ENDROOT
BRANCH   5  10
HETATM   10  C21 UNL     1      18.509  23.047  16.175  1.00  0.00     0.091 C 
BRANCH  10  11
HETATM   11  C22 UNL     1      19.271  24.274  16.495  1.00  0.00     0.004 A 
HETATM   12  C23 UNL     1      19.243  25.020  17.662  1.00  0.00     0.125 A 
HETATM   13  N5  UNL     1      20.096  26.034  17.472  1.00  0.00    -0.288 N 
HETATM   14  N6  UNL     1      20.664  26.000  16.290  1.00  0.00    -0.260 N 
ATOM     15  H5  UNL     1      20.284  26.754  18.170  1.00  0.00     0.188 HD
HETATM   16  C33 UNL     1      20.182  24.927  15.651  1.00  0.00     0.040 A 
HETATM   17  C34 UNL     1      20.534  24.472  14.261  1.00  0.00     0.071 C 
BRANCH  12  18
HETATM   18  C24 UNL     1      18.435  24.757  18.867  1.00  0.00     0.271 C 
HETATM   19  O2  UNL     1      17.183  24.893  18.861  1.00  0.00    -0.266 OA
HETATM   20  N4  UNL     1      19.073  24.342  20.050  1.00  0.00    -0.355 N 
HETATM   21  C25 UNL     1      18.284  24.075  21.256  1.00  0.00     0.152 C 
HETATM   22  C26 UNL     1      20.493  24.152  20.174  1.00  0.00     0.152 C 
ENDBRANCH  12  18
BRANCH  14  23
HETATM   23  C27 UNL     1      21.635  26.955  15.805  1.00  0.00     0.056 A 
HETATM   24  C28 UNL     1      22.953  26.846  16.088  1.00  0.00     0.031 A 
HETATM   25  C29 UNL     1      23.866  27.769  15.610  1.00  0.00     0.002 A 
HETATM   26  C30 UNL     1      23.433  28.820  14.830  1.00  0.00     0.000 A 
HETATM   27  C31 UNL     1      22.077  28.955  14.524  1.00  0.00     0.002 A 
HETATM   28  C32 UNL     1      21.199  28.012  15.022  1.00  0.00     0.031 A 
ENDBRANCH  14  23
ENDBRANCH  10  11
ENDBRANCH   5  10
BRANCH   4  29
HETATM   29  N3  UNL     1      16.695  21.333  17.684  1.00  0.00    -0.370 N 
HETATM   30  C11 UNL     1      17.996  21.428  18.266  1.00  0.00     0.151 C 
BRANCH  29  31
HETATM   31  C12 UNL     1      15.862  20.215  17.964  1.00  0.00     0.128 C 
BRANCH  31  32
HETATM   32  C13 UNL     1      14.992  20.194  19.143  1.00  0.00     0.058 C 
BRANCH  32  33
HETATM   33  C14 UNL     1      14.063  19.073  19.318  1.00  0.00    -0.057 A 
HETATM   34  C15 UNL     1      13.244  19.027  20.410  1.00  0.00     0.007 A 
HETATM   35  C16 UNL     1      12.360  18.012  20.618  1.00  0.00     0.001 A 
HETATM   36  C17 UNL     1      12.288  16.976  19.678  1.00  0.00     0.000 A 
HETATM   37  C18 UNL     1      13.114  17.031  18.589  1.00  0.00     0.001 A 
HETATM   38  C19 UNL     1      14.001  18.060  18.388  1.00  0.00     0.007 A 
ENDBRANCH  32  33
ENDBRANCH  31  32
ENDBRANCH  29  31
ENDBRANCH   4  29
BRANCH   1  39
HETATM   39  N1  UNL     1      13.101  23.523  15.581  1.00  0.00    -0.222 N 
ATOM     40  H1  UNL     1      12.709  24.435  15.812  1.00  0.00     0.178 HD
BRANCH  39  41
HETATM   41  C8  UNL     1      12.224  22.530  15.076  1.00  0.00     0.176 C 
BRANCH  41  42
HETATM   42  C7  UNL     1      12.701  22.063  13.730  1.00  0.00    -0.039 A 
HETATM   43  C6  UNL     1      12.666  22.905  12.639  1.00  0.00     0.009 A 
HETATM   44  C5  UNL     1      13.101  22.461  11.431  1.00  0.00     0.001 A 
HETATM   45  C4  UNL     1      13.580  21.182  11.277  1.00  0.00     0.009 A 
HETATM   46  C3  UNL     1      13.612  20.343  12.374  1.00  0.00    -0.034 A 
HETATM   47  C36 UNL     1      13.176  20.782  13.585  1.00  0.00     0.018 A 
BRANCH  46  48
HETATM   48  C2  UNL     1      14.131  18.975  12.200  1.00  0.00     0.205 C 
BRANCH  48  49
HETATM   49  O1  UNL     1      13.043  18.138  11.961  1.00  0.00    -0.391 OA
HETATM   50  C1  UNL     1      13.529  16.855  11.668  1.00  0.00     0.201 C 
ENDBRANCH  48  49
ENDBRANCH  46  48
ENDBRANCH  41  42
ENDBRANCH  39  41
ENDBRANCH   1  39
TORSDOF 13
ENDMDL
MODEL 5
REMARK VINA RESULT: -9.816415629      2.137      9.240
REMARK  13 active torsions:
REMARK  status: ('A' for Active; 'I' for Inactive)
REMARK    1  A    between atoms: O1_2  and  C2_3 
REMARK    2  A    between atoms: C2_3  and  C3_4 
REMARK    3  A    between atoms: C7_8  and  C8_9 
REMARK    4  A    between atoms: C8_9  and  N1_10 
REMARK    5  A    between atoms: N1_10  and  C9_12 
REMARK    6  A    between atoms: C10_15  and  N3_16 
REMARK    7  A    between atoms: N3_16  and  C12_18 
REMARK    8  A    between atoms: C12_18  and  C13_19 
REMARK    9  A    between atoms: C13_19  and  C14_20 
REMARK   10  A    between atoms: C20_26  and  C21_27 
REMARK   11  A    between atoms: C21_27  and  C22_28 
REMARK   12  A    between atoms: C23_29  and  C24_30 
REMARK       I    between atoms: C24_30  and  N4_32 
REMARK   13  A    between atoms: N6_37  and  C27_38 
ROOT
HETATM    1  C9  UNL     1      18.159  25.256  15.199  1.00  0.00     0.682 A 
HETATM    2  N2  UNL     1      17.112  24.514  14.907  1.00  0.00    -0.176 N 
ATOM      3  H2  UNL     1      16.431  24.906  14.257  1.00  0.00     0.186 HD
HETATM    4  C10 UNL     1      16.858  23.262  15.401  1.00  0.00     0.131 A 
HETATM    5  C20 UNL     1      17.815  22.760  16.290  1.00  0.00     0.059 A 
HETATM    6  C35 UNL     1      18.919  23.514  16.612  1.00  0.00     0.270 A 
HETATM    7  O3  UNL     1      19.830  23.128  17.411  1.00  0.00    -0.267 OA
HETATM    8  N7  UNL     1      19.056  24.735  16.058  1.00  0.00    -0.156 N 
ATOM      9  H7  UNL     1      19.877  25.290  16.299  1.00  0.00     0.187 HD
ENDROOT
BRANCH   5  10
HETATM   10  C21 UNL     1      17.593  21.447  16.874  1.00  0.00     0.091 C 
BRANCH  10  11
HETATM   11  C22 UNL     1      16.497  21.291  17.855  1.00  0.00     0.004 A 
HETATM   12  C23 UNL     1      16.199  22.097  18.942  1.00  0.00     0.125 A 
HETATM   13  N5  UNL     1      15.126  21.548  19.525  1.00  0.00    -0.288 N 
HETATM   14  N6  UNL     1      14.715  20.467  18.907  1.00  0.00    -0.260 N 
ATOM     15  H5  UNL     1      14.677  21.929  20.358  1.00  0.00     0.188 HD
HETATM   16  C33 UNL     1      15.535  20.270  17.867  1.00  0.00     0.040 A 
HETATM   17  C34 UNL     1      15.467  19.151  16.864  1.00  0.00     0.071 C 
BRANCH  12  18
HETATM   18  C24 UNL     1      16.918  23.310  19.374  1.00  0.00     0.271 C 
HETATM   19  O2  UNL     1      16.560  24.456  18.994  1.00  0.00    -0.266 OA
HETATM   20  N4  UNL     1      18.026  23.188  20.232  1.00  0.00    -0.355 N 
HETATM   21  C25 UNL     1      18.750  24.384  20.672  1.00  0.00     0.152 C 
HETATM   22  C26 UNL     1      18.523  21.934  20.730  1.00  0.00     0.152 C 
ENDBRANCH  12  18
BRANCH  14  23
HETATM   23  C27 UNL     1      13.576  19.666  19.298  1.00  0.00     0.056 A 
HETATM   24  C28 UNL     1      13.523  19.023  20.486  1.00  0.00     0.031 A 
HETATM   25  C29 UNL     1      12.422  18.265  20.841  1.00  0.00     0.002 A 
HETATM   26  C30 UNL     1      11.356  18.158  19.974  1.00  0.00     0.000 A 
HETATM   27  C31 UNL     1      11.387  18.812  18.740  1.00  0.00     0.002 A 
HETATM   28  C32 UNL     1      12.505  19.558  18.425  1.00  0.00     0.031 A 
ENDBRANCH  14  23
ENDBRANCH  10  11
ENDBRANCH   5  10
BRANCH   4  29
HETATM   29  N3  UNL     1      15.679  22.592  14.994  1.00  0.00    -0.370 N 
HETATM   30  C11 UNL     1      15.726  21.611  13.956  1.00  0.00     0.151 C 
BRANCH  29  31
HETATM   31  C12 UNL     1      14.436  22.963  15.577  1.00  0.00     0.128 C 
BRANCH  31  32
HETATM   32  C13 UNL     1      13.264  23.248  14.746  1.00  0.00     0.058 C 
BRANCH  32  33
HETATM   33  C14 UNL     1      12.433  22.131  14.286  1.00  0.00    -0.057 A 
HETATM   34  C15 UNL     1      12.312  21.006  15.050  1.00  0.00     0.007 A 
HETATM   35  C16 UNL     1      11.550  19.944  14.671  1.00  0.00     0.001 A 
HETATM   36  C17 UNL     1      10.863  20.006  13.452  1.00  0.00     0.000 A 
HETATM   37  C18 UNL     1      10.990  21.137  12.694  1.00  0.00     0.001 A 
HETATM   38  C19 UNL     1      11.762  22.204  13.086  1.00  0.00     0.007 A 
ENDBRANCH  32  33
ENDBRANCH  31  32
ENDBRANCH  29  31
ENDBRANCH   4  29
BRANCH   1  39
HETATM   39  N1  UNL     1      18.409  26.416  14.761  1.00  0.00    -0.222 N 
ATOM     40  H1  UNL     1      17.989  27.211  15.244  1.00  0.00     0.178 HD
BRANCH  39  41
HETATM   41  C8  UNL     1      19.235  26.681  13.640  1.00  0.00     0.176 C 
BRANCH  41  42
HETATM   42  C7  UNL     1      20.514  27.329  14.090  1.00  0.00    -0.039 A 
HETATM   43  C6  UNL     1      20.921  28.532  13.553  1.00  0.00     0.009 A 
HETATM   44  C5  UNL     1      22.082  29.099  13.974  1.00  0.00     0.001 A 
HETATM   45  C4  UNL     1      22.861  28.493  14.930  1.00  0.00     0.009 A 
HETATM   46  C3  UNL     1      22.447  27.287  15.463  1.00  0.00    -0.034 A 
HETATM   47  C36 UNL     1      21.287  26.714  15.046  1.00  0.00     0.018 A 
BRANCH  46  48
HETATM   48  C2  UNL     1      23.287  26.647  16.492  1.00  0.00     0.205 C 
BRANCH  48  49
HETATM   49  O1  UNL     1      24.483  26.269  15.885  1.00  0.00    -0.391 OA
HETATM   50  C1  UNL     1      25.479  26.212  16.871  1.00  0.00     0.201 C 
ENDBRANCH  48  49
ENDBRANCH  46  48
ENDBRANCH  41  42
ENDBRANCH  39  41
ENDBRANCH   1  39
TORSDOF 13
ENDMDL
