MODEL 1
REMARK VINA RESULT: -8.687839480      0.000      0.000
REMARK  13 active torsions:
REMARK  status: ('A' for Active; 'I' for Inactive)
REMARK    1  A    between atoms: C2_2  and  C3_3 
REMARK    2  A    between atoms: C3_3  and  C4_4 
REMARK    3  A    between atoms: C4_4  and  C5_5 
REMARK    4  A    between atoms: N1_8  and  C7_9 
REMARK    5  A    between atoms: C7_9  and  C8_10 
REMARK    6  A    between atoms: C11_13  and  C12_14 
REMARK    7  A    between atoms: C17_19  and  C18_20 
REMARK    8  A    between atoms: C21_30  and  C22_31 
REMARK    9  A    between atoms: C22_31  and  C23_32 
REMARK   10  A    between atoms: N6_39  and  C30_40 
REMARK   11  A    between atoms: C30_40  and  O2_41 
REMARK   12  A    between atoms: N7_44  and  C32_45 
REMARK   13  A    between atoms: C32_45  and  C33_46 
ROOT
HETATM    1  C5  UNL     1      12.833  18.006  12.491  1.00  0.00     0.317 C 
HETATM    2  C6  UNL     1      13.123  19.461  12.727  1.00  0.00     0.258 C 
HETATM    3  O1  UNL     1      13.636  20.082  11.778  1.00  0.00    -0.271 OA
HETATM    4  N1  UNL     1      12.925  20.329  13.857  1.00  0.00    -0.319 N 
HETATM    5  C21 UNL     1      12.702  20.011  15.262  1.00  0.00     0.125 C 
HETATM    6  C29 UNL     1      11.425  19.266  15.470  1.00  0.00     0.303 C 
HETATM    7  N6  UNL     1      11.155  18.156  14.632  1.00  0.00     0.141 N 
HETATM    8  C31 UNL     1      10.680  18.467  13.298  1.00  0.00     0.547 C 
HETATM    9  N7  UNL     1      11.421  17.805  12.244  1.00  0.00     0.134 N 
ENDROOT
BRANCH   4  10
HETATM   10  C7  UNL     1      12.881  21.693  13.513  1.00  0.00     0.106 C 
BRANCH  10  11
HETATM   11  C8  UNL     1      13.894  22.612  13.988  1.00  0.00    -0.021 A 
HETATM   12  C9  UNL     1      13.730  23.814  14.606  1.00  0.00     0.013 A 
HETATM   13  C10 UNL     1      14.798  24.573  15.011  1.00  0.00     0.013 A 
HETATM   14  C11 UNL     1      16.113  24.183  14.825  1.00  0.00    -0.025 A 
HETATM   15  C19 UNL     1      16.286  22.964  14.197  1.00  0.00     0.013 A 
HETATM   16  C20 UNL     1      15.222  22.199  13.790  1.00  0.00     0.013 A 
BRANCH  14  17
HETATM   17  C12 UNL     1      17.238  24.976  15.258  1.00  0.00    -0.012 A 
HETATM   18  C13 UNL     1      17.791  25.874  14.361  1.00  0.00     0.013 A 
HETATM   19  C14 UNL     1      18.884  26.663  14.718  1.00  0.00     0.001 A 
HETATM   20  C15 UNL     1      19.422  26.552  15.975  1.00  0.00     0.001 A 
HETATM   21  C16 UNL     1      18.888  25.674  16.866  1.00  0.00     0.016 A 
HETATM   22  C17 UNL     1      17.785  24.880  16.501  1.00  0.00     0.021 A 
BRANCH  22  23
HETATM   23  C18 UNL     1      17.247  23.964  17.480  1.00  0.00     0.145 A 
HETATM   24  N2  UNL     1      16.299  24.269  18.410  1.00  0.00    -0.271 N 
HETATM   25  N3  UNL     1      16.050  23.193  19.128  1.00  0.00    -0.225 N 
ATOM     26  H2  UNL     1      15.855  25.180  18.530  1.00  0.00     0.190 HD
HETATM   27  N4  UNL     1      16.801  22.192  18.704  1.00  0.00    -0.005 NA
ATOM     28  H3  UNL     1      15.378  23.140  19.894  1.00  0.00     0.205 HD
HETATM   29  N5  UNL     1      17.519  22.675  17.707  1.00  0.00    -0.266 N 
ATOM     30  H5  UNL     1      18.198  22.132  17.175  1.00  0.00     0.186 HD
ENDBRANCH  22  23
ENDBRANCH  14  17
ENDBRANCH  10  11
ENDBRANCH   4  10
BRANCH   5  31
HETATM   31  C22 UNL     1      13.925  19.428  15.848  1.00  0.00     0.066 C 
BRANCH  31  32
HETATM   32  C23 UNL     1      13.918  19.132  17.276  1.00  0.00    -0.056 A 
HETATM   33  C24 UNL     1      13.952  17.838  17.709  1.00  0.00     0.007 A 
HETATM   34  C25 UNL     1      13.948  17.497  19.047  1.00  0.00     0.001 A 
HETATM   35  C26 UNL     1      13.908  18.522  19.970  1.00  0.00     0.000 A 
HETATM   36  C27 UNL     1      13.873  19.843  19.569  1.00  0.00     0.001 A 
HETATM   37  C28 UNL     1      13.879  20.138  18.208  1.00  0.00     0.007 A 
ENDBRANCH  31  32
ENDBRANCH   5  31
BRANCH   1  38
HETATM   38  C4  UNL     1      13.724  17.444  11.416  1.00  0.00     0.046 C 
BRANCH  38  39
HETATM   39  C3  UNL     1      13.529  15.943  11.413  1.00  0.00     0.002 C 
BRANCH  39  40
HETATM   40  C2  UNL     1      14.442  15.284  10.380  1.00  0.00    -0.004 C 
HETATM   41  C1  UNL     1      13.916  15.472   8.987  1.00  0.00     0.005 C 
ENDBRANCH  39  40
ENDBRANCH  38  39
ENDBRANCH   1  38
BRANCH   9  42
HETATM   42  C32 UNL     1      11.074  18.439  10.990  1.00  0.00     0.315 C 
BRANCH  42  43
HETATM   43  C33 UNL     1      10.058  17.695  10.211  1.00  0.00    -0.015 A 
HETATM   44  C34 UNL     1      10.440  16.548   9.551  1.00  0.00     0.011 A 
HETATM   45  C35 UNL     1       9.557  15.795   8.801  1.00  0.00     0.018 A 
HETATM   46  C36 UNL     1       8.252  16.268   8.754  1.00  0.00     0.087 A 
HETATM   47  N8  UNL     1       7.873  17.379   9.392  1.00  0.00    -0.375 N 
HETATM   48  C37 UNL     1       8.742  18.082  10.103  1.00  0.00     0.096 A 
ATOM     49  H8  UNL     1       6.903  17.689   9.330  1.00  0.00     0.164 HD
ENDBRANCH  42  43
ENDBRANCH   9  42
BRANCH   7  50
HETATM   50  C30 UNL     1      10.018  17.439  15.249  1.00  0.00     0.439 C 
BRANCH  50  51
HETATM   51  O2  UNL     1       9.725  17.833  16.516  1.00  0.00    -0.373 OA
ATOM     52  H2  UNL     1       8.983  18.422  16.582  1.00  0.00     0.211 HD
ENDBRANCH  50  51
ENDBRANCH   7  50
TORSDOF 13
ENDMDL
MODEL 2
REMARK VINA RESULT: -8.665137209      1.416      1.931
REMARK  13 active torsions:
REMARK  status: ('A' for Active; 'I' for Inactive)
REMARK    1  A    between atoms: C2_2  and  C3_3 
REMARK    2  A    between atoms: C3_3  and  C4_4 
REMARK    3  A    between atoms: C4_4  and  C5_5 
REMARK    4  A    between atoms: N1_8  and  C7_9 
REMARK    5  A    between atoms: C7_9  and  C8_10 
REMARK    6  A    between atoms: C11_13  and  C12_14 
REMARK    7  A    between atoms: C17_19  and  C18_20 
REMARK    8  A    between atoms: C21_30  and  C22_31 
REMARK    9  A    between atoms: C22_31  and  C23_32 
REMARK   10  A    between atoms: N6_39  and  C30_40 
REMARK   11  A    between atoms: C30_40  and  O2_41 
REMARK   12  A    between atoms: N7_44  and  C32_45 
REMARK   13  A    between atoms: C32_45  and  C33_46 
ROOT
HETATM    1  C5  UNL     1      12.788  18.516  13.072  1.00  0.00     0.317 C 
HETATM    2  C6  UNL     1      13.241  19.927  13.318  1.00  0.00     0.258 C 
HETATM    3  O1  UNL     1      13.628  20.563  12.321  1.00  0.00    -0.271 OA
HETATM    4  N1  UNL     1      13.326  20.737  14.503  1.00  0.00    -0.319 N 
HETATM    5  C21 UNL     1      13.331  20.352  15.910  1.00  0.00     0.125 C 
HETATM    6  C29 UNL     1      12.052  19.697  16.314  1.00  0.00     0.303 C 
HETATM    7  N6  UNL     1      11.541  18.664  15.490  1.00  0.00     0.141 N 
HETATM    8  C31 UNL     1      10.863  19.092  14.282  1.00  0.00     0.547 C 
HETATM    9  N7  UNL     1      11.342  18.440  13.080  1.00  0.00     0.134 N 
ENDROOT
BRANCH   4  10
HETATM   10  C7  UNL     1      13.340  22.119  14.237  1.00  0.00     0.106 C 
BRANCH  10  11
HETATM   11  C8  UNL     1      14.547  22.898  14.414  1.00  0.00    -0.021 A 
HETATM   12  C9  UNL     1      15.843  22.482  14.374  1.00  0.00     0.013 A 
HETATM   13  C10 UNL     1      16.889  23.350  14.551  1.00  0.00     0.013 A 
HETATM   14  C11 UNL     1      16.715  24.703  14.782  1.00  0.00    -0.025 A 
HETATM   15  C19 UNL     1      15.402  25.132  14.825  1.00  0.00     0.013 A 
HETATM   16  C20 UNL     1      14.349  24.269  14.648  1.00  0.00     0.013 A 
BRANCH  14  17
HETATM   17  C12 UNL     1      17.815  25.620  14.960  1.00  0.00    -0.012 A 
HETATM   18  C13 UNL     1      18.424  26.138  13.830  1.00  0.00     0.013 A 
HETATM   19  C14 UNL     1      19.496  27.023  13.935  1.00  0.00     0.001 A 
HETATM   20  C15 UNL     1      19.958  27.389  15.174  1.00  0.00     0.001 A 
HETATM   21  C16 UNL     1      19.369  26.886  16.292  1.00  0.00     0.016 A 
HETATM   22  C17 UNL     1      18.287  25.994  16.180  1.00  0.00     0.021 A 
BRANCH  22  23
HETATM   23  C18 UNL     1      17.688  25.488  17.395  1.00  0.00     0.145 A 
HETATM   24  N2  UNL     1      16.379  25.625  17.745  1.00  0.00    -0.271 N 
HETATM   25  N3  UNL     1      16.190  25.039  18.910  1.00  0.00    -0.225 N 
ATOM     26  H2  UNL     1      15.663  26.103  17.197  1.00  0.00     0.190 HD
HETATM   27  N4  UNL     1      17.328  24.522  19.337  1.00  0.00    -0.005 NA
ATOM     28  H3  UNL     1      15.300  24.990  19.407  1.00  0.00     0.205 HD
HETATM   29  N5  UNL     1      18.224  24.802  18.408  1.00  0.00    -0.266 N 
ATOM     30  H5  UNL     1      19.206  24.529  18.458  1.00  0.00     0.186 HD
ENDBRANCH  22  23
ENDBRANCH  14  17
ENDBRANCH  10  11
ENDBRANCH   4  10
BRANCH   5  31
HETATM   31  C22 UNL     1      14.583  19.642  16.233  1.00  0.00     0.066 C 
BRANCH  31  32
HETATM   32  C23 UNL     1      15.474  20.249  17.216  1.00  0.00    -0.056 A 
HETATM   33  C24 UNL     1      14.995  20.627  18.436  1.00  0.00     0.007 A 
HETATM   34  C25 UNL     1      15.789  21.207  19.405  1.00  0.00     0.001 A 
HETATM   35  C26 UNL     1      17.123  21.404  19.108  1.00  0.00     0.000 A 
HETATM   36  C27 UNL     1      17.643  21.034  17.883  1.00  0.00     0.001 A 
HETATM   37  C28 UNL     1      16.802  20.453  16.938  1.00  0.00     0.007 A 
ENDBRANCH  31  32
ENDBRANCH   5  31
BRANCH   1  38
HETATM   38  C4  UNL     1      13.419  17.953  11.827  1.00  0.00     0.046 C 
BRANCH  38  39
HETATM   39  C3  UNL     1      13.050  16.487  11.762  1.00  0.00     0.002 C 
BRANCH  39  40
HETATM   40  C2  UNL     1      12.774  16.065  10.320  1.00  0.00    -0.004 C 
HETATM   41  C1  UNL     1      11.526  15.236  10.223  1.00  0.00     0.005 C 
ENDBRANCH  39  40
ENDBRANCH  38  39
ENDBRANCH   1  38
BRANCH   9  42
HETATM   42  C32 UNL     1      10.833  19.175  11.942  1.00  0.00     0.315 C 
BRANCH  42  43
HETATM   43  C33 UNL     1       9.856  18.411  11.132  1.00  0.00    -0.015 A 
HETATM   44  C34 UNL     1       9.847  18.588   9.766  1.00  0.00     0.011 A 
HETATM   45  C35 UNL     1       8.968  17.916   8.938  1.00  0.00     0.018 A 
HETATM   46  C36 UNL     1       8.090  17.045   9.570  1.00  0.00     0.087 A 
HETATM   47  N8  UNL     1       8.093  16.867  10.894  1.00  0.00    -0.375 N 
HETATM   48  C37 UNL     1       8.947  17.526  11.665  1.00  0.00     0.096 A 
ATOM     49  H8  UNL     1       7.431  16.217  11.317  1.00  0.00     0.164 HD
ENDBRANCH  42  43
ENDBRANCH   9  42
BRANCH   7  50
HETATM   50  C30 UNL     1      10.475  18.001  16.271  1.00  0.00     0.439 C 
BRANCH  50  51
HETATM   51  O2  UNL     1       9.737  18.843  17.043  1.00  0.00    -0.373 OA
ATOM     52  H2  UNL     1       8.823  18.906  16.793  1.00  0.00     0.211 HD
ENDBRANCH  50  51
ENDBRANCH   7  50
TORSDOF 13
ENDMDL
MODEL 3
REMARK VINA RESULT: -8.652185173      2.491      5.176
REMARK  13 active torsions:
REMARK  status: ('A' for Active; 'I' for Inactive)
REMARK    1  A    between atoms: C2_2  and  C3_3 
REMARK    2  A    between atoms: C3_3  and  C4_4 
REMARK    3  A    between atoms: C4_4  and  C5_5 
REMARK    4  A    between atoms: N1_8  and  C7_9 
REMARK    5  A    between atoms: C7_9  and  C8_10 
REMARK    6  A    between atoms: C11_13  and  C12_14 
REMARK    7  A    between atoms: C17_19  and  C18_20 
REMARK    8  A    between atoms: C21_30  and  C22_31 
REMARK    9  A    between atoms: C22_31  and  C23_32 
REMARK   10  A    between atoms: N6_39  and  C30_40 
REMARK   11  A    between atoms: C30_40  and  O2_41 
REMARK   12  A    between atoms: N7_44  and  C32_45 
REMARK   13  A    between atoms: C32_45  and  C33_46 
ROOT
HETATM    1  C5  UNL     1      13.773  20.641  15.682  1.00  0.00     0.317 C 
HETATM    2  C6  UNL     1      15.206  21.085  15.767  1.00  0.00     0.258 C 
HETATM    3  O1  UNL     1      16.056  20.183  15.882  1.00  0.00    -0.271 OA
HETATM    4  N1  UNL     1      15.836  22.377  15.741  1.00  0.00    -0.319 N 
HETATM    5  C21 UNL     1      15.275  23.704  15.974  1.00  0.00     0.125 C 
HETATM    6  C29 UNL     1      14.245  24.061  14.954  1.00  0.00     0.303 C 
HETATM    7  N6  UNL     1      13.237  23.110  14.661  1.00  0.00     0.141 N 
HETATM    8  C31 UNL     1      13.626  22.019  13.789  1.00  0.00     0.547 C 
HETATM    9  N7  UNL     1      13.304  20.707  14.313  1.00  0.00     0.134 N 
ENDROOT
BRANCH   4  10
HETATM   10  C7  UNL     1      17.192  22.332  15.368  1.00  0.00     0.106 C 
BRANCH  10  11
HETATM   11  C8  UNL     1      17.975  23.545  15.262  1.00  0.00    -0.021 A 
HETATM   12  C9  UNL     1      17.598  24.763  14.788  1.00  0.00     0.013 A 
HETATM   13  C10 UNL     1      18.459  25.830  14.762  1.00  0.00     0.013 A 
HETATM   14  C11 UNL     1      19.766  25.754  15.211  1.00  0.00    -0.025 A 
HETATM   15  C19 UNL     1      20.156  24.519  15.693  1.00  0.00     0.013 A 
HETATM   16  C20 UNL     1      19.299  23.447  15.723  1.00  0.00     0.013 A 
BRANCH  14  17
HETATM   17  C12 UNL     1      20.671  26.878  15.193  1.00  0.00    -0.012 A 
HETATM   18  C13 UNL     1      20.889  27.525  13.989  1.00  0.00     0.013 A 
HETATM   19  C14 UNL     1      21.757  28.612  13.905  1.00  0.00     0.001 A 
HETATM   20  C15 UNL     1      22.408  29.052  15.030  1.00  0.00     0.001 A 
HETATM   21  C16 UNL     1      22.203  28.425  16.220  1.00  0.00     0.016 A 
HETATM   22  C17 UNL     1      21.325  27.328  16.299  1.00  0.00     0.021 A 
BRANCH  22  23
HETATM   23  C18 UNL     1      21.134  26.695  17.584  1.00  0.00     0.145 A 
HETATM   24  N2  UNL     1      20.054  26.866  18.395  1.00  0.00    -0.271 N 
HETATM   25  N3  UNL     1      20.218  26.133  19.478  1.00  0.00    -0.225 N 
ATOM     26  H2  UNL     1      19.250  27.463  18.198  1.00  0.00     0.190 HD
HETATM   27  N4  UNL     1      21.368  25.488  19.407  1.00  0.00    -0.005 NA
ATOM     28  H3  UNL     1      19.558  26.073  20.253  1.00  0.00     0.205 HD
HETATM   29  N5  UNL     1      21.910  25.838  18.255  1.00  0.00    -0.266 N 
ATOM     30  H5  UNL     1      22.810  25.497  17.918  1.00  0.00     0.186 HD
ENDBRANCH  22  23
ENDBRANCH  14  17
ENDBRANCH  10  11
ENDBRANCH   4  10
BRANCH   5  31
HETATM   31  C22 UNL     1      14.897  23.849  17.393  1.00  0.00     0.066 C 
BRANCH  31  32
HETATM   32  C23 UNL     1      15.892  23.496  18.400  1.00  0.00    -0.056 A 
HETATM   33  C24 UNL     1      16.837  24.404  18.781  1.00  0.00     0.007 A 
HETATM   34  C25 UNL     1      17.802  24.126  19.727  1.00  0.00     0.001 A 
HETATM   35  C26 UNL     1      17.795  22.872  20.303  1.00  0.00     0.000 A 
HETATM   36  C27 UNL     1      16.854  21.927  19.942  1.00  0.00     0.001 A 
HETATM   37  C28 UNL     1      15.900  22.254  18.982  1.00  0.00     0.007 A 
ENDBRANCH  31  32
ENDBRANCH   5  31
BRANCH   1  38
HETATM   38  C4  UNL     1      13.584  19.294  16.324  1.00  0.00     0.046 C 
BRANCH  38  39
HETATM   39  C3  UNL     1      13.207  19.537  17.770  1.00  0.00     0.002 C 
BRANCH  39  40
HETATM   40  C2  UNL     1      14.199  18.850  18.708  1.00  0.00    -0.004 C 
HETATM   41  C1  UNL     1      14.575  17.488  18.202  1.00  0.00     0.005 C 
ENDBRANCH  39  40
ENDBRANCH  38  39
ENDBRANCH   1  38
BRANCH   9  42
HETATM   42  C32 UNL     1      14.022  19.726  13.529  1.00  0.00     0.315 C 
BRANCH  42  43
HETATM   43  C33 UNL     1      13.142  18.870  12.700  1.00  0.00    -0.015 A 
HETATM   44  C34 UNL     1      11.778  19.045  12.787  1.00  0.00     0.011 A 
HETATM   45  C35 UNL     1      10.886  18.289  12.050  1.00  0.00     0.018 A 
HETATM   46  C36 UNL     1      11.452  17.337  11.211  1.00  0.00     0.087 A 
HETATM   47  N8  UNL     1      12.773  17.162  11.121  1.00  0.00    -0.375 N 
HETATM   48  C37 UNL     1      13.606  17.902  11.841  1.00  0.00     0.096 A 
ATOM     49  H8  UNL     1      13.146  16.451  10.492  1.00  0.00     0.164 HD
ENDBRANCH  42  43
ENDBRANCH   9  42
BRANCH   7  50
HETATM   50  C30 UNL     1      12.205  23.827  13.881  1.00  0.00     0.439 C 
BRANCH  50  51
HETATM   51  O2  UNL     1      12.180  23.513  12.559  1.00  0.00    -0.373 OA
ATOM     52  H2  UNL     1      11.310  23.379  12.204  1.00  0.00     0.211 HD
ENDBRANCH  50  51
ENDBRANCH   7  50
TORSDOF 13
ENDMDL
MODEL 4
REMARK VINA RESULT: -8.340437310      3.312      4.701
REMARK  13 active torsions:
REMARK  status: ('A' for Active; 'I' for Inactive)
REMARK    1  A    between atoms: C2_2  and  C3_3 
REMARK    2  A    between atoms: C3_3  and  C4_4 
REMARK    3  A    between atoms: C4_4  and  C5_5 
REMARK    4  A    between atoms: N1_8  and  C7_9 
REMARK    5  A    between atoms: C7_9  and  C8_10 
REMARK    6  A    between atoms: C11_13  and  C12_14 
REMARK    7  A    between atoms: C17_19  and  C18_20 
REMARK    8  A    between atoms: C21_30  and  C22_31 
REMARK    9  A    between atoms: C22_31  and  C23_32 
REMARK   10  A    between atoms: N6_39  and  C30_40 
REMARK   11  A    between atoms: C30_40  and  O2_41 
REMARK   12  A    between atoms: N7_44  and  C32_45 
REMARK   13  A    between atoms: C32_45  and  C33_46 
ROOT
HETATM    1  C5  UNL     1       9.797  14.782  14.810  1.00  0.00     0.317 C 
HETATM    2  C6  UNL     1      10.306  16.174  15.054  1.00  0.00     0.258 C 
HETATM    3  O1  UNL     1      10.800  16.759  14.073  1.00  0.00    -0.271 OA
HETATM    4  N1  UNL     1      10.346  17.013  16.221  1.00  0.00    -0.319 N 
HETATM    5  C21 UNL     1      10.226  16.670  17.633  1.00  0.00     0.125 C 
HETATM    6  C29 UNL     1       8.886  16.095  17.956  1.00  0.00     0.303 C 
HETATM    7  N6  UNL     1       8.383  15.066  17.122  1.00  0.00     0.141 N 
HETATM    8  C31 UNL     1       7.821  15.493  15.855  1.00  0.00     0.547 C 
HETATM    9  N7  UNL     1       8.352  14.782  14.710  1.00  0.00     0.134 N 
ENDROOT
BRANCH   4  10
HETATM   10  C7  UNL     1      10.455  18.384  15.921  1.00  0.00     0.106 C 
BRANCH  10  11
HETATM   11  C8  UNL     1      11.528  19.183  16.475  1.00  0.00    -0.021 A 
HETATM   12  C9  UNL     1      11.564  19.858  17.656  1.00  0.00     0.013 A 
HETATM   13  C10 UNL     1      12.667  20.569  18.052  1.00  0.00     0.013 A 
HETATM   14  C11 UNL     1      13.820  20.657  17.290  1.00  0.00    -0.025 A 
HETATM   15  C19 UNL     1      13.790  19.975  16.089  1.00  0.00     0.013 A 
HETATM   16  C20 UNL     1      12.688  19.260  15.687  1.00  0.00     0.013 A 
BRANCH  14  17
HETATM   17  C12 UNL     1      14.985  21.398  17.709  1.00  0.00    -0.012 A 
HETATM   18  C13 UNL     1      15.729  20.904  18.767  1.00  0.00     0.013 A 
HETATM   19  C14 UNL     1      16.862  21.577  19.223  1.00  0.00     0.001 A 
HETATM   20  C15 UNL     1      17.249  22.746  18.618  1.00  0.00     0.001 A 
HETATM   21  C16 UNL     1      16.527  23.242  17.578  1.00  0.00     0.016 A 
HETATM   22  C17 UNL     1      15.385  22.558  17.121  1.00  0.00     0.021 A 
BRANCH  22  23
HETATM   23  C18 UNL     1      14.649  23.119  16.010  1.00  0.00     0.145 A 
HETATM   24  N2  UNL     1      13.469  23.793  16.105  1.00  0.00    -0.271 N 
HETATM   25  N3  UNL     1      13.094  24.161  14.897  1.00  0.00    -0.225 N 
ATOM     26  H2  UNL     1      12.960  23.982  16.969  1.00  0.00     0.190 HD
HETATM   27  N4  UNL     1      13.985  23.752  14.012  1.00  0.00    -0.005 NA
ATOM     28  H3  UNL     1      12.245  24.683  14.678  1.00  0.00     0.205 HD
HETATM   29  N5  UNL     1      14.919  23.124  14.702  1.00  0.00    -0.266 N 
ATOM     30  H5  UNL     1      15.746  22.694  14.287  1.00  0.00     0.186 HD
ENDBRANCH  22  23
ENDBRANCH  14  17
ENDBRANCH  10  11
ENDBRANCH   4  10
BRANCH   5  31
HETATM   31  C22 UNL     1      11.410  15.905  18.069  1.00  0.00     0.066 C 
BRANCH  31  32
HETATM   32  C23 UNL     1      12.484  16.637  18.732  1.00  0.00    -0.056 A 
HETATM   33  C24 UNL     1      13.695  16.783  18.120  1.00  0.00     0.007 A 
HETATM   34  C25 UNL     1      14.747  17.464  18.697  1.00  0.00     0.001 A 
HETATM   35  C26 UNL     1      14.547  18.013  19.948  1.00  0.00     0.000 A 
HETATM   36  C27 UNL     1      13.336  17.884  20.598  1.00  0.00     0.001 A 
HETATM   37  C28 UNL     1      12.303  17.188  19.975  1.00  0.00     0.007 A 
ENDBRANCH  31  32
ENDBRANCH   5  31
BRANCH   1  38
HETATM   38  C4  UNL     1      10.487  14.150  13.632  1.00  0.00     0.046 C 
BRANCH  38  39
HETATM   39  C3  UNL     1      10.072  12.695  13.597  1.00  0.00     0.002 C 
BRANCH  39  40
HETATM   40  C2  UNL     1       9.687  12.279  12.178  1.00  0.00    -0.004 C 
HETATM   41  C1  UNL     1      10.118  13.306  11.172  1.00  0.00     0.005 C 
ENDBRANCH  39  40
ENDBRANCH  38  39
ENDBRANCH   1  38
BRANCH   9  42
HETATM   42  C32 UNL     1       7.969  15.508  13.518  1.00  0.00     0.315 C 
BRANCH  42  43
HETATM   43  C33 UNL     1       7.022  14.769  12.652  1.00  0.00    -0.015 A 
HETATM   44  C34 UNL     1       6.854  15.186  11.351  1.00  0.00     0.011 A 
HETATM   45  C35 UNL     1       5.990  14.554  10.476  1.00  0.00     0.018 A 
HETATM   46  C36 UNL     1       5.299  13.465  10.993  1.00  0.00     0.087 A 
HETATM   47  N8  UNL     1       5.459  13.054  12.254  1.00  0.00    -0.375 N 
HETATM   48  C37 UNL     1       6.294  13.680  13.071  1.00  0.00     0.096 A 
ATOM     49  H8  UNL     1       4.931  12.249  12.592  1.00  0.00     0.164 HD
ENDBRANCH  42  43
ENDBRANCH   9  42
BRANCH   7  50
HETATM   50  C30 UNL     1       7.226  14.483  17.837  1.00  0.00     0.439 C 
BRANCH  50  51
HETATM   51  O2  UNL     1       7.216  14.720  19.175  1.00  0.00    -0.373 OA
ATOM     52  H2  UNL     1       7.335  13.945  19.711  1.00  0.00     0.211 HD
ENDBRANCH  50  51
ENDBRANCH   7  50
TORSDOF 13
ENDMDL
MODEL 5
REMARK VINA RESULT: -8.283362073      3.283      4.729
REMARK  13 active torsions:
REMARK  status: ('A' for Active; 'I' for Inactive)
REMARK    1  A    between atoms: C2_2  and  C3_3 
REMARK    2  A    between atoms: C3_3  and  C4_4 
REMARK    3  A    between atoms: C4_4  and  C5_5 
REMARK    4  A    between atoms: N1_8  and  C7_9 
REMARK    5  A    between atoms: C7_9  and  C8_10 
REMARK    6  A    between atoms: C11_13  and  C12_14 
REMARK    7  A    between atoms: C17_19  and  C18_20 
REMARK    8  A    between atoms: C21_30  and  C22_31 
REMARK    9  A    between atoms: C22_31  and  C23_32 
REMARK   10  A    between atoms: N6_39  and  C30_40 
REMARK   11  A    between atoms: C30_40  and  O2_41 
REMARK   12  A    between atoms: N7_44  and  C32_45 
REMARK   13  A    between atoms: C32_45  and  C33_46 
ROOT
HETATM    1  C5  UNL     1       9.791  14.735  14.722  1.00  0.00     0.317 C 
HETATM    2  C6  UNL     1      10.314  16.124  14.957  1.00  0.00     0.258 C 
HETATM    3  O1  UNL     1      10.857  16.680  13.985  1.00  0.00    -0.271 OA
HETATM    4  N1  UNL     1      10.322  16.987  16.108  1.00  0.00    -0.319 N 
HETATM    5  C21 UNL     1      10.139  16.676  17.521  1.00  0.00     0.125 C 
HETATM    6  C29 UNL     1       8.778  16.129  17.801  1.00  0.00     0.303 C 
HETATM    7  N6  UNL     1       8.291  15.092  16.968  1.00  0.00     0.141 N 
HETATM    8  C31 UNL     1       7.787  15.501  15.671  1.00  0.00     0.547 C 
HETATM    9  N7  UNL     1       8.352  14.757  14.563  1.00  0.00     0.134 N 
ENDROOT
BRANCH   4  10
HETATM   10  C7  UNL     1      10.466  18.349  15.785  1.00  0.00     0.106 C 
BRANCH  10  11
HETATM   11  C8  UNL     1      11.528  19.143  16.366  1.00  0.00    -0.021 A 
HETATM   12  C9  UNL     1      11.533  19.826  17.543  1.00  0.00     0.013 A 
HETATM   13  C10 UNL     1      12.629  20.530  17.968  1.00  0.00     0.013 A 
HETATM   14  C11 UNL     1      13.806  20.602  17.243  1.00  0.00    -0.025 A 
HETATM   15  C19 UNL     1      13.808  19.911  16.047  1.00  0.00     0.013 A 
HETATM   16  C20 UNL     1      12.714  19.204  15.615  1.00  0.00     0.013 A 
BRANCH  14  17
HETATM   17  C12 UNL     1      14.965  21.335  17.694  1.00  0.00    -0.012 A 
HETATM   18  C13 UNL     1      15.699  20.818  18.748  1.00  0.00     0.013 A 
HETATM   19  C14 UNL     1      16.824  21.482  19.233  1.00  0.00     0.001 A 
HETATM   20  C15 UNL     1      17.214  22.667  18.661  1.00  0.00     0.001 A 
HETATM   21  C16 UNL     1      16.503  23.187  17.626  1.00  0.00     0.016 A 
HETATM   22  C17 UNL     1      15.368  22.511  17.139  1.00  0.00     0.021 A 
BRANCH  22  23
HETATM   23  C18 UNL     1      14.643  23.098  16.034  1.00  0.00     0.145 A 
HETATM   24  N2  UNL     1      13.469  23.781  16.135  1.00  0.00    -0.271 N 
HETATM   25  N3  UNL     1      13.104  24.172  14.931  1.00  0.00    -0.225 N 
ATOM     26  H2  UNL     1      12.956  23.960  16.999  1.00  0.00     0.190 HD
HETATM   27  N4  UNL     1      13.995  23.770  14.043  1.00  0.00    -0.005 NA
ATOM     28  H3  UNL     1      12.261  24.706  14.717  1.00  0.00     0.205 HD
HETATM   29  N5  UNL     1      14.920  23.122  14.727  1.00  0.00    -0.266 N 
ATOM     30  H5  UNL     1      15.745  22.691  14.310  1.00  0.00     0.186 HD
ENDBRANCH  22  23
ENDBRANCH  14  17
ENDBRANCH  10  11
ENDBRANCH   4  10
BRANCH   5  31
HETATM   31  C22 UNL     1      11.291  15.901  18.019  1.00  0.00     0.066 C 
BRANCH  31  32
HETATM   32  C23 UNL     1      12.337  16.624  18.734  1.00  0.00    -0.056 A 
HETATM   33  C24 UNL     1      12.081  17.168  19.960  1.00  0.00     0.007 A 
HETATM   34  C25 UNL     1      13.030  17.862  20.683  1.00  0.00     0.001 A 
HETATM   35  C26 UNL     1      14.285  18.003  20.126  1.00  0.00     0.000 A 
HETATM   36  C27 UNL     1      14.580  17.467  18.888  1.00  0.00     0.001 A 
HETATM   37  C28 UNL     1      13.590  16.774  18.196  1.00  0.00     0.007 A 
ENDBRANCH  31  32
ENDBRANCH   5  31
BRANCH   1  38
HETATM   38  C4  UNL     1      10.518  14.068  13.585  1.00  0.00     0.046 C 
BRANCH  38  39
HETATM   39  C3  UNL     1      10.091  12.616  13.573  1.00  0.00     0.002 C 
BRANCH  39  40
HETATM   40  C2  UNL     1       9.719  12.177  12.157  1.00  0.00    -0.004 C 
HETATM   41  C1  UNL     1      10.040  13.244  11.152  1.00  0.00     0.005 C 
ENDBRANCH  39  40
ENDBRANCH  38  39
ENDBRANCH   1  38
BRANCH   9  42
HETATM   42  C32 UNL     1       8.030  15.464  13.342  1.00  0.00     0.315 C 
BRANCH  42  43
HETATM   43  C33 UNL     1       6.864  14.904  12.622  1.00  0.00    -0.015 A 
HETATM   44  C34 UNL     1       6.490  13.604  12.881  1.00  0.00     0.011 A 
HETATM   45  C35 UNL     1       5.415  13.003  12.253  1.00  0.00     0.018 A 
HETATM   46  C36 UNL     1       4.730  13.796  11.341  1.00  0.00     0.087 A 
HETATM   47  N8  UNL     1       5.086  15.058  11.085  1.00  0.00    -0.375 N 
HETATM   48  C37 UNL     1       6.123  15.608  11.702  1.00  0.00     0.096 A 
ATOM     49  H8  UNL     1       4.555  15.604  10.407  1.00  0.00     0.164 HD
ENDBRANCH  42  43
ENDBRANCH   9  42
BRANCH   7  50
HETATM   50  C30 UNL     1       7.097  14.543  17.647  1.00  0.00     0.439 C 
BRANCH  50  51
HETATM   51  O2  UNL     1       6.430  15.438  18.422  1.00  0.00    -0.373 OA
ATOM     52  H2  UNL     1       6.683  15.431  19.337  1.00  0.00     0.211 HD
ENDBRANCH  50  51
ENDBRANCH   7  50
TORSDOF 13
ENDMDL
