MODEL 1
REMARK VINA RESULT: -8.265687046      0.000      0.000
REMARK  7 active torsions:
REMARK  status: ('A' for Active; 'I' for Inactive)
REMARK    1  A    between atoms: O1_2  and  C2_3 
REMARK    2  A    between atoms: C2_3  and  C3_5 
REMARK    3  A    between atoms: C4_6  and  C5_7 
REMARK    4  A    between atoms: C5_7  and  C6_9 
REMARK    5  A    between atoms: C6_9  and  O4_10 
REMARK    6  A    between atoms: C8_15  and  C10_18 
REMARK       I    between atoms: C10_18  and  N3_20 
REMARK    7  A    between atoms: N3_20  and  C11_22 
ROOT
HETATM    1  C3  UNL     1      25.568   0.089  17.686  1.00  0.00     0.190 A 
HETATM    2  C4  UNL     1      24.852   1.324  17.982  1.00  0.00     0.077 A 
HETATM    3  N1  UNL     1      23.981   0.698  18.660  1.00  0.00    -0.356 N 
ATOM      4  H1  UNL     1      23.157   1.027  19.165  1.00  0.00     0.166 HD
HETATM    5  C7  UNL     1      24.502  -0.573  18.495  1.00  0.00     0.056 A 
HETATM    6  C8  UNL     1      24.238  -1.812  18.825  1.00  0.00     0.136 C 
HETATM    7  C9  UNL     1      25.131  -2.853  18.338  1.00  0.00     0.107 C 
HETATM    8  N2  UNL     1      25.830  -3.713  17.946  1.00  0.00    -0.191 NA
ENDROOT
BRANCH   6   9
HETATM    9  C10 UNL     1      23.126  -2.225  19.640  1.00  0.00     0.268 C 
HETATM   10  O5  UNL     1      22.880  -1.443  20.624  1.00  0.00    -0.266 OA
HETATM   11  N3  UNL     1      22.366  -3.362  19.411  1.00  0.00    -0.321 N 
ATOM     12  H3  UNL     1      22.619  -3.932  18.603  1.00  0.00     0.169 HD
BRANCH  11  13
HETATM   13  C11 UNL     1      21.240  -3.821  20.216  1.00  0.00     0.056 A 
HETATM   14  C12 UNL     1      20.040  -3.182  20.085  1.00  0.00     0.081 A 
HETATM   15  S1  UNL     1      19.036  -3.960  21.227  1.00  0.00    -0.097 SA
HETATM   16  C13 UNL     1      20.160  -5.077  21.842  1.00  0.00     0.045 A 
HETATM   17  C14 UNL     1      20.054  -6.075  22.827  1.00  0.00     0.093 A 
HETATM   18  C18 UNL     1      21.300  -4.824  21.147  1.00  0.00     0.052 A 
HETATM   19 CL1  UNL     1      18.501  -6.235  23.602  1.00  0.00    -0.079 Cl
HETATM   20  C15 UNL     1      21.129  -6.868  23.141  1.00  0.00     0.181 A 
HETATM   21  F1  UNL     1      21.034  -7.830  24.087  1.00  0.00    -0.201 F 
HETATM   22  C16 UNL     1      22.278  -6.607  22.432  1.00  0.00     0.196 A 
HETATM   23  F2  UNL     1      23.360  -7.388  22.733  1.00  0.00    -0.199 F 
HETATM   24  C17 UNL     1      22.406  -5.640  21.470  1.00  0.00     0.172 A 
HETATM   25  F3  UNL     1      23.614  -5.542  20.872  1.00  0.00    -0.202 F 
ENDBRANCH  11  13
ENDBRANCH   6   9
BRANCH   1  26
HETATM   26  C2  UNL     1      26.902   0.060  18.327  1.00  0.00     0.274 C 
HETATM   27  O2  UNL     1      26.969   0.341  19.568  1.00  0.00    -0.264 OA
BRANCH  26  28
HETATM   28  O1  UNL     1      28.093  -0.242  17.719  1.00  0.00    -0.326 OA
HETATM   29  C1  UNL     1      28.245  -0.330  16.310  1.00  0.00     0.213 C 
ENDBRANCH  26  28
ENDBRANCH   1  26
BRANCH   2  30
HETATM   30  C5  UNL     1      25.063   2.751  17.629  1.00  0.00     0.196 C 
HETATM   31  O3  UNL     1      24.509   3.160  16.598  1.00  0.00    -0.289 OA
BRANCH  30  32
HETATM   32  C6  UNL     1      25.910   3.574  18.523  1.00  0.00     0.249 C 
BRANCH  32  33
HETATM   33  O4  UNL     1      25.871   3.097  19.815  1.00  0.00    -0.393 OA
ATOM     34  H4  UNL     1      26.287   2.245  19.875  1.00  0.00     0.209 HD
ENDBRANCH  32  33
ENDBRANCH  30  32
ENDBRANCH   2  30
TORSDOF 7
ENDMDL
MODEL 2
REMARK VINA RESULT: -8.191475851      4.859      7.235
REMARK  7 active torsions:
REMARK  status: ('A' for Active; 'I' for Inactive)
REMARK    1  A    between atoms: O1_2  and  C2_3 
REMARK    2  A    between atoms: C2_3  and  C3_5 
REMARK    3  A    between atoms: C4_6  and  C5_7 
REMARK    4  A    between atoms: C5_7  and  C6_9 
REMARK    5  A    between atoms: C6_9  and  O4_10 
REMARK    6  A    between atoms: C8_15  and  C10_18 
REMARK       I    between atoms: C10_18  and  N3_20 
REMARK    7  A    between atoms: N3_20  and  C11_22 
ROOT
HETATM    1  C3  UNL     1      23.889  -6.187  20.297  1.00  0.00     0.190 A 
HETATM    2  C4  UNL     1      24.511  -5.600  19.116  1.00  0.00     0.077 A 
HETATM    3  N1  UNL     1      23.627  -4.692  19.060  1.00  0.00    -0.356 N 
ATOM      4  H1  UNL     1      23.501  -3.915  18.409  1.00  0.00     0.166 HD
HETATM    5  C7  UNL     1      22.887  -5.089  20.159  1.00  0.00     0.056 A 
HETATM    6  C8  UNL     1      21.806  -4.747  20.812  1.00  0.00     0.136 C 
HETATM    7  C9  UNL     1      21.407  -5.566  21.948  1.00  0.00     0.107 C 
HETATM    8  N2  UNL     1      21.058  -6.219  22.861  1.00  0.00    -0.191 NA
ENDROOT
BRANCH   6   9
HETATM    9  C10 UNL     1      20.976  -3.616  20.492  1.00  0.00     0.268 C 
HETATM   10  O5  UNL     1      20.819  -3.423  19.236  1.00  0.00    -0.266 OA
HETATM   11  N3  UNL     1      20.384  -2.786  21.432  1.00  0.00    -0.321 N 
ATOM     12  H3  UNL     1      20.550  -3.008  22.414  1.00  0.00     0.169 HD
BRANCH  11  13
HETATM   13  C11 UNL     1      19.546  -1.626  21.151  1.00  0.00     0.056 A 
HETATM   14  C12 UNL     1      18.203  -1.814  20.993  1.00  0.00     0.081 A 
HETATM   15  S1  UNL     1      17.615  -0.255  20.614  1.00  0.00    -0.097 SA
HETATM   16  C13 UNL     1      19.085   0.596  20.665  1.00  0.00     0.045 A 
HETATM   17  C14 UNL     1      19.397   1.952  20.459  1.00  0.00     0.093 A 
HETATM   18  C18 UNL     1      20.011  -0.349  20.976  1.00  0.00     0.052 A 
HETATM   19 CL1  UNL     1      18.062   3.002  20.066  1.00  0.00    -0.079 Cl
HETATM   20  C15 UNL     1      20.689   2.400  20.569  1.00  0.00     0.181 A 
HETATM   21  F1  UNL     1      20.996   3.703  20.373  1.00  0.00    -0.201 F 
HETATM   22  C16 UNL     1      21.619   1.437  20.887  1.00  0.00     0.196 A 
HETATM   23  F2  UNL     1      22.913   1.867  21.000  1.00  0.00    -0.199 F 
HETATM   24  C17 UNL     1      21.340   0.112  21.090  1.00  0.00     0.172 A 
HETATM   25  F3  UNL     1      22.387  -0.682  21.407  1.00  0.00    -0.202 F 
ENDBRANCH  11  13
ENDBRANCH   6   9
BRANCH   1  26
HETATM   26  C2  UNL     1      24.751  -6.055  21.494  1.00  0.00     0.274 C 
HETATM   27  O2  UNL     1      25.255  -4.911  21.738  1.00  0.00    -0.264 OA
BRANCH  26  28
HETATM   28  O1  UNL     1      25.068  -7.050  22.383  1.00  0.00    -0.326 OA
HETATM   29  C1  UNL     1      25.963  -8.109  22.078  1.00  0.00     0.213 C 
ENDBRANCH  26  28
ENDBRANCH   1  26
BRANCH   2  30
HETATM   30  C5  UNL     1      25.708  -5.936  18.304  1.00  0.00     0.196 C 
HETATM   31  O3  UNL     1      25.943  -5.209  17.328  1.00  0.00    -0.289 OA
BRANCH  30  32
HETATM   32  C6  UNL     1      26.526  -7.101  18.713  1.00  0.00     0.249 C 
BRANCH  32  33
HETATM   33  O4  UNL     1      27.671  -6.694  19.363  1.00  0.00    -0.393 OA
ATOM     34  H4  UNL     1      28.426  -7.190  19.065  1.00  0.00     0.209 HD
ENDBRANCH  32  33
ENDBRANCH  30  32
ENDBRANCH   2  30
TORSDOF 7
ENDMDL
MODEL 3
REMARK VINA RESULT: -8.160094761      2.110      2.624
REMARK  7 active torsions:
REMARK  status: ('A' for Active; 'I' for Inactive)
REMARK    1  A    between atoms: O1_2  and  C2_3 
REMARK    2  A    between atoms: C2_3  and  C3_5 
REMARK    3  A    between atoms: C4_6  and  C5_7 
REMARK    4  A    between atoms: C5_7  and  C6_9 
REMARK    5  A    between atoms: C6_9  and  O4_10 
REMARK    6  A    between atoms: C8_15  and  C10_18 
REMARK       I    between atoms: C10_18  and  N3_20 
REMARK    7  A    between atoms: N3_20  and  C11_22 
ROOT
HETATM    1  C3  UNL     1      25.457   0.350  17.907  1.00  0.00     0.190 A 
HETATM    2  C4  UNL     1      25.535   1.161  19.115  1.00  0.00     0.077 A 
HETATM    3  N1  UNL     1      25.221   0.170  19.843  1.00  0.00    -0.356 N 
ATOM      4  H1  UNL     1      25.102   0.088  20.853  1.00  0.00     0.166 HD
HETATM    5  C7  UNL     1      25.090  -0.764  18.831  1.00  0.00     0.056 A 
HETATM    6  C8  UNL     1      24.774  -2.023  18.668  1.00  0.00     0.136 C 
HETATM    7  C9  UNL     1      24.743  -2.549  17.311  1.00  0.00     0.107 C 
HETATM    8  N2  UNL     1      24.698  -2.995  16.224  1.00  0.00    -0.191 NA
ENDROOT
BRANCH   6   9
HETATM    9  C10 UNL     1      24.452  -2.933  19.736  1.00  0.00     0.268 C 
HETATM   10  O5  UNL     1      24.846  -2.544  20.890  1.00  0.00    -0.266 OA
HETATM   11  N3  UNL     1      23.777  -4.133  19.567  1.00  0.00    -0.321 N 
ATOM     12  H3  UNL     1      23.489  -4.371  18.617  1.00  0.00     0.169 HD
BRANCH  11  13
HETATM   13  C11 UNL     1      23.441  -5.087  20.618  1.00  0.00     0.056 A 
HETATM   14  C12 UNL     1      24.397  -5.972  21.027  1.00  0.00     0.081 A 
HETATM   15  S1  UNL     1      23.592  -6.933  22.188  1.00  0.00    -0.097 SA
HETATM   16  C13 UNL     1      22.065  -6.189  22.128  1.00  0.00     0.045 A 
HETATM   17  C14 UNL     1      20.867  -6.438  22.821  1.00  0.00     0.093 A 
HETATM   18  C18 UNL     1      22.207  -5.204  21.202  1.00  0.00     0.052 A 
HETATM   19 CL1  UNL     1      20.895  -7.752  23.966  1.00  0.00    -0.079 Cl
HETATM   20  C15 UNL     1      19.752  -5.672  22.593  1.00  0.00     0.181 A 
HETATM   21  F1  UNL     1      18.597  -5.906  23.257  1.00  0.00    -0.201 F 
HETATM   22  C16 UNL     1      19.905  -4.677  21.657  1.00  0.00     0.196 A 
HETATM   23  F2  UNL     1      18.802  -3.904  21.417  1.00  0.00    -0.199 F 
HETATM   24  C17 UNL     1      21.060  -4.416  20.967  1.00  0.00     0.172 A 
HETATM   25  F3  UNL     1      21.020  -3.384  20.095  1.00  0.00    -0.202 F 
ENDBRANCH  11  13
ENDBRANCH   6   9
BRANCH   1  26
HETATM   26  C2  UNL     1      26.784   0.180  17.273  1.00  0.00     0.274 C 
HETATM   27  O2  UNL     1      26.819  -0.030  16.017  1.00  0.00    -0.264 OA
BRANCH  26  28
HETATM   28  O1  UNL     1      28.001   0.227  17.904  1.00  0.00    -0.326 OA
HETATM   29  C1  UNL     1      29.112   0.953  17.398  1.00  0.00     0.213 C 
ENDBRANCH  26  28
ENDBRANCH   1  26
BRANCH   2  30
HETATM   30  C5  UNL     1      25.856   2.586  19.384  1.00  0.00     0.196 C 
HETATM   31  O3  UNL     1      25.045   3.429  18.976  1.00  0.00    -0.289 OA
BRANCH  30  32
HETATM   32  C6  UNL     1      27.109   2.894  20.114  1.00  0.00     0.249 C 
BRANCH  32  33
HETATM   33  O4  UNL     1      27.674   1.748  20.629  1.00  0.00    -0.393 OA
ATOM     34  H4  UNL     1      28.327   1.957  21.287  1.00  0.00     0.209 HD
ENDBRANCH  32  33
ENDBRANCH  30  32
ENDBRANCH   2  30
TORSDOF 7
ENDMDL
MODEL 4
REMARK VINA RESULT: -8.078044337      0.713      1.339
REMARK  7 active torsions:
REMARK  status: ('A' for Active; 'I' for Inactive)
REMARK    1  A    between atoms: O1_2  and  C2_3 
REMARK    2  A    between atoms: C2_3  and  C3_5 
REMARK    3  A    between atoms: C4_6  and  C5_7 
REMARK    4  A    between atoms: C5_7  and  C6_9 
REMARK    5  A    between atoms: C6_9  and  O4_10 
REMARK    6  A    between atoms: C8_15  and  C10_18 
REMARK       I    between atoms: C10_18  and  N3_20 
REMARK    7  A    between atoms: N3_20  and  C11_22 
ROOT
HETATM    1  C3  UNL     1      25.478   0.152  17.882  1.00  0.00     0.190 A 
HETATM    2  C4  UNL     1      24.766   1.379  18.213  1.00  0.00     0.077 A 
HETATM    3  N1  UNL     1      23.885   0.735  18.861  1.00  0.00    -0.356 N 
ATOM      4  H1  UNL     1      23.058   1.050  19.368  1.00  0.00     0.166 HD
HETATM    5  C7  UNL     1      24.401  -0.532  18.658  1.00  0.00     0.056 A 
HETATM    6  C8  UNL     1      24.129  -1.780  18.943  1.00  0.00     0.136 C 
HETATM    7  C9  UNL     1      25.022  -2.808  18.429  1.00  0.00     0.107 C 
HETATM    8  N2  UNL     1      25.721  -3.658  18.015  1.00  0.00    -0.191 NA
ENDROOT
BRANCH   6   9
HETATM    9  C10 UNL     1      23.007  -2.215  19.733  1.00  0.00     0.268 C 
HETATM   10  O5  UNL     1      22.730  -1.443  20.716  1.00  0.00    -0.266 OA
HETATM   11  N3  UNL     1      22.269  -3.362  19.481  1.00  0.00    -0.321 N 
ATOM     12  H3  UNL     1      22.547  -3.923  18.675  1.00  0.00     0.169 HD
BRANCH  11  13
HETATM   13  C11 UNL     1      21.134  -3.843  20.260  1.00  0.00     0.056 A 
HETATM   14  C12 UNL     1      19.923  -3.233  20.096  1.00  0.00     0.081 A 
HETATM   15  S1  UNL     1      18.910  -4.028  21.216  1.00  0.00    -0.097 SA
HETATM   16  C13 UNL     1      20.043  -5.116  21.866  1.00  0.00     0.045 A 
HETATM   17  C14 UNL     1      19.936  -6.111  22.854  1.00  0.00     0.093 A 
HETATM   18  C18 UNL     1      21.195  -4.840  21.198  1.00  0.00     0.052 A 
HETATM   19 CL1  UNL     1      18.369  -6.304  23.591  1.00  0.00    -0.079 Cl
HETATM   20  C15 UNL     1      21.021  -6.877  23.199  1.00  0.00     0.181 A 
HETATM   21  F1  UNL     1      20.925  -7.837  24.147  1.00  0.00    -0.201 F 
HETATM   22  C16 UNL     1      22.181  -6.593  22.517  1.00  0.00     0.196 A 
HETATM   23  F2  UNL     1      23.272  -7.348  22.849  1.00  0.00    -0.199 F 
HETATM   24  C17 UNL     1      22.310  -5.628  21.553  1.00  0.00     0.172 A 
HETATM   25  F3  UNL     1      23.531  -5.505  20.985  1.00  0.00    -0.202 F 
ENDBRANCH  11  13
ENDBRANCH   6   9
BRANCH   1  26
HETATM   26  C2  UNL     1      26.806   0.095  18.535  1.00  0.00     0.274 C 
HETATM   27  O2  UNL     1      27.782  -0.360  17.854  1.00  0.00    -0.264 OA
BRANCH  26  28
HETATM   28  O1  UNL     1      27.103   0.486  19.815  1.00  0.00    -0.326 OA
HETATM   29  C1  UNL     1      28.256   1.244  20.148  1.00  0.00     0.213 C 
ENDBRANCH  26  28
ENDBRANCH   1  26
BRANCH   2  30
HETATM   30  C5  UNL     1      24.987   2.816  17.911  1.00  0.00     0.196 C 
HETATM   31  O3  UNL     1      26.012   3.335  18.379  1.00  0.00    -0.289 OA
BRANCH  30  32
HETATM   32  C6  UNL     1      23.981   3.520  17.082  1.00  0.00     0.249 C 
BRANCH  32  33
HETATM   33  O4  UNL     1      22.726   2.981  17.267  1.00  0.00    -0.393 OA
ATOM     34  H4  UNL     1      22.413   2.569  16.469  1.00  0.00     0.209 HD
ENDBRANCH  32  33
ENDBRANCH  30  32
ENDBRANCH   2  30
TORSDOF 7
ENDMDL
MODEL 5
REMARK VINA RESULT: -8.018108241      4.400      6.305
REMARK  7 active torsions:
REMARK  status: ('A' for Active; 'I' for Inactive)
REMARK    1  A    between atoms: O1_2  and  C2_3 
REMARK    2  A    between atoms: C2_3  and  C3_5 
REMARK    3  A    between atoms: C4_6  and  C5_7 
REMARK    4  A    between atoms: C5_7  and  C6_9 
REMARK    5  A    between atoms: C6_9  and  O4_10 
REMARK    6  A    between atoms: C8_15  and  C10_18 
REMARK       I    between atoms: C10_18  and  N3_20 
REMARK    7  A    between atoms: N3_20  and  C11_22 
ROOT
HETATM    1  C3  UNL     1      18.676   0.257  20.944  1.00  0.00     0.190 A 
HETATM    2  C4  UNL     1      19.505   1.395  20.570  1.00  0.00     0.077 A 
HETATM    3  N1  UNL     1      20.454   0.631  20.215  1.00  0.00    -0.356 N 
ATOM      4  H1  UNL     1      21.378   0.839  19.834  1.00  0.00     0.166 HD
HETATM    5  C7  UNL     1      19.839  -0.572  20.509  1.00  0.00     0.056 A 
HETATM    6  C8  UNL     1      20.090  -1.856  20.481  1.00  0.00     0.136 C 
HETATM    7  C9  UNL     1      19.061  -2.763  20.966  1.00  0.00     0.107 C 
HETATM    8  N2  UNL     1      18.250  -3.516  21.365  1.00  0.00    -0.191 NA
ENDROOT
BRANCH   6   9
HETATM    9  C10 UNL     1      21.314  -2.442  20.002  1.00  0.00     0.268 C 
HETATM   10  O5  UNL     1      22.357  -1.737  20.235  1.00  0.00    -0.266 OA
HETATM   11  N3  UNL     1      21.395  -3.660  19.344  1.00  0.00    -0.321 N 
ATOM     12  H3  UNL     1      20.521  -4.168  19.202  1.00  0.00     0.169 HD
BRANCH  11  13
HETATM   13  C11 UNL     1      22.611  -4.285  18.836  1.00  0.00     0.056 A 
HETATM   14  C12 UNL     1      23.014  -3.990  17.564  1.00  0.00     0.081 A 
HETATM   15  S1  UNL     1      24.401  -4.961  17.341  1.00  0.00    -0.097 SA
HETATM   16  C13 UNL     1      24.438  -5.716  18.864  1.00  0.00     0.045 A 
HETATM   17  C14 UNL     1      25.315  -6.659  19.428  1.00  0.00     0.093 A 
HETATM   18  C18 UNL     1      23.366  -5.199  19.522  1.00  0.00     0.052 A 
HETATM   19 CL1  UNL     1      26.627  -7.197  18.414  1.00  0.00    -0.079 Cl
HETATM   20  C15 UNL     1      25.129  -7.115  20.708  1.00  0.00     0.181 A 
HETATM   21  F1  UNL     1      25.969  -8.021  21.257  1.00  0.00    -0.201 F 
HETATM   22  C16 UNL     1      24.044  -6.584  21.367  1.00  0.00     0.196 A 
HETATM   23  F2  UNL     1      23.843  -7.028  22.646  1.00  0.00    -0.199 F 
HETATM   24  C17 UNL     1      23.174  -5.667  20.839  1.00  0.00     0.172 A 
HETATM   25  F3  UNL     1      22.172  -5.253  21.646  1.00  0.00    -0.202 F 
ENDBRANCH  11  13
ENDBRANCH   6   9
BRANCH   1  26
HETATM   26  C2  UNL     1      17.493   0.126  20.063  1.00  0.00     0.274 C 
HETATM   27  O2  UNL     1      17.675   0.235  18.807  1.00  0.00    -0.264 OA
BRANCH  26  28
HETATM   28  O1  UNL     1      16.201  -0.104  20.461  1.00  0.00    -0.326 OA
HETATM   29  C1  UNL     1      15.865  -0.673  21.718  1.00  0.00     0.213 C 
ENDBRANCH  26  28
ENDBRANCH   1  26
BRANCH   2  30
HETATM   30  C5  UNL     1      19.312   2.867  20.595  1.00  0.00     0.196 C 
HETATM   31  O3  UNL     1      18.315   3.311  20.005  1.00  0.00    -0.289 OA
BRANCH  30  32
HETATM   32  C6  UNL     1      20.310   3.692  21.314  1.00  0.00     0.249 C 
BRANCH  32  33
HETATM   33  O4  UNL     1      21.387   2.929  21.708  1.00  0.00    -0.393 OA
ATOM     34  H4  UNL     1      21.846   2.573  20.955  1.00  0.00     0.209 HD
ENDBRANCH  32  33
ENDBRANCH  30  32
ENDBRANCH   2  30
TORSDOF 7
ENDMDL
