MODEL 1
REMARK VINA RESULT: -8.141124067      0.000      0.000
REMARK  8 active torsions:
REMARK  status: ('A' for Active; 'I' for Inactive)
REMARK    1  A    between atoms: C2_2  and  O1_3 
REMARK    2  A    between atoms: N1_8  and  C6_9 
REMARK    3  A    between atoms: C6_9  and  C7_10 
REMARK    4  A    between atoms: C7_10  and  C8_11 
REMARK    5  A    between atoms: C8_11  and  C9_12 
REMARK    6  A    between atoms: C9_12  and  C10_13 
REMARK    7  A    between atoms: C10_13  and  C11_14 
REMARK    8  A    between atoms: C11_14  and  N2_15 
ROOT
HETATM    1  C10 UNL     1     -37.751 -14.402 373.600  1.00  0.00     0.020 C 
ENDROOT
BRANCH   1   2
HETATM    2  C9  UNL     1     -38.355 -15.025 374.827  1.00  0.00     0.002 C 
BRANCH   2   3
HETATM    3  C8  UNL     1     -38.961 -14.079 375.801  1.00  0.00     0.002 C 
BRANCH   3   4
HETATM    4  C7  UNL     1     -39.290 -14.849 377.071  1.00  0.00     0.030 C 
BRANCH   4   5
HETATM    5  C6  UNL     1     -40.294 -15.939 376.864  1.00  0.00     0.276 C 
BRANCH   5   6
HETATM    6  N1  UNL     1     -40.794 -16.526 378.087  1.00  0.00     0.125 N 
HETATM    7  C5  UNL     1     -42.136 -17.041 377.934  1.00  0.00     0.276 C 
HETATM    8  C4  UNL     1     -42.573 -17.607 379.268  1.00  0.00     0.033 C 
HETATM    9  C3  UNL     1     -42.454 -16.606 380.391  1.00  0.00     0.044 C 
HETATM   10  C2  UNL     1     -41.928 -15.283 379.898  1.00  0.00     0.113 C 
HETATM   11  C1  UNL     1     -41.540 -14.472 381.132  1.00  0.00     0.051 C 
HETATM   12  C21 UNL     1     -40.679 -15.513 379.114  1.00  0.00     0.438 C 
HETATM   13  F1  UNL     1     -39.694 -15.929 379.993  1.00  0.00    -0.213 F 
BRANCH  10  14
HETATM   14  O1  UNL     1     -42.895 -14.545 379.220  1.00  0.00    -0.385 OA
ATOM     15  H1  UNL     1     -43.731 -14.957 379.400  1.00  0.00     0.210 HD
ENDBRANCH  10  14
ENDBRANCH   5   6
ENDBRANCH   4   5
ENDBRANCH   3   4
ENDBRANCH   2   3
ENDBRANCH   1   2
BRANCH   1  16
HETATM   16  C11 UNL     1     -37.090 -13.119 373.960  1.00  0.00     0.126 C 
BRANCH  16  17
HETATM   17  N2  UNL     1     -35.657 -13.235 374.153  1.00  0.00    -0.344 N 
HETATM   18  C12 UNL     1     -34.618 -13.197 373.139  1.00  0.00     0.100 A 
HETATM   19  C13 UNL     1     -34.576 -13.326 371.776  1.00  0.00     0.118 A 
HETATM   20  C15 UNL     1     -33.461 -12.982 373.774  1.00  0.00     0.129 A 
HETATM   21  N3  UNL     1     -35.644 -13.556 370.851  1.00  0.00    -0.092 NA
HETATM   22  S1  UNL     1     -32.906 -13.141 371.429  1.00  0.00    -0.058 SA
HETATM   23  C14 UNL     1     -32.323 -12.908 373.009  1.00  0.00     0.112 A 
HETATM   24 CL1  UNL     1     -30.648 -12.642 373.494  1.00  0.00    -0.073 Cl
HETATM   25  O2  UNL     1     -33.713 -12.875 375.164  1.00  0.00    -0.315 OA
HETATM   26  C16 UNL     1     -35.019 -13.394 375.423  1.00  0.00     0.143 C 
HETATM   27  C17 UNL     1     -35.597 -12.621 376.551  1.00  0.00     0.062 C 
HETATM   28  C20 UNL     1     -34.817 -14.811 375.873  1.00  0.00     0.062 C 
HETATM   29  C18 UNL     1     -35.817 -13.608 377.700  1.00  0.00     0.005 C 
HETATM   30  C19 UNL     1     -34.783 -14.670 377.379  1.00  0.00     0.005 C 
ENDBRANCH  16  17
ENDBRANCH   1  16
TORSDOF 8
ENDMDL
MODEL 2
REMARK VINA RESULT: -7.755379102      4.525      9.227
REMARK  8 active torsions:
REMARK  status: ('A' for Active; 'I' for Inactive)
REMARK    1  A    between atoms: C2_2  and  O1_3 
REMARK    2  A    between atoms: N1_8  and  C6_9 
REMARK    3  A    between atoms: C6_9  and  C7_10 
REMARK    4  A    between atoms: C7_10  and  C8_11 
REMARK    5  A    between atoms: C8_11  and  C9_12 
REMARK    6  A    between atoms: C9_12  and  C10_13 
REMARK    7  A    between atoms: C10_13  and  C11_14 
REMARK    8  A    between atoms: C11_14  and  N2_15 
ROOT
HETATM    1  C10 UNL     1     -36.540 -13.153 378.462  1.00  0.00     0.020 C 
ENDROOT
BRANCH   1   2
HETATM    2  C9  UNL     1     -35.677 -13.079 377.234  1.00  0.00     0.002 C 
BRANCH   2   3
HETATM    3  C8  UNL     1     -34.764 -14.232 377.016  1.00  0.00     0.002 C 
BRANCH   3   4
HETATM    4  C7  UNL     1     -33.957 -13.968 375.754  1.00  0.00     0.030 C 
BRANCH   4   5
HETATM    5  C6  UNL     1     -34.803 -13.649 374.562  1.00  0.00     0.276 C 
BRANCH   5   6
HETATM    6  N1  UNL     1     -34.099 -13.709 373.300  1.00  0.00     0.125 N 
HETATM    7  C5  UNL     1     -32.669 -13.820 373.480  1.00  0.00     0.276 C 
HETATM    8  C4  UNL     1     -32.028 -13.850 372.110  1.00  0.00     0.033 C 
HETATM    9  C3  UNL     1     -32.422 -12.668 371.258  1.00  0.00     0.044 C 
HETATM   10  C2  UNL     1     -33.360 -11.746 371.993  1.00  0.00     0.113 C 
HETATM   11  C1  UNL     1     -33.944 -10.790 370.956  1.00  0.00     0.051 C 
HETATM   12  C21 UNL     1     -34.496 -12.541 372.544  1.00  0.00     0.438 C 
HETATM   13  F1  UNL     1     -35.265 -12.981 371.481  1.00  0.00    -0.213 F 
BRANCH  10  14
HETATM   14  O1  UNL     1     -32.705 -10.962 372.939  1.00  0.00    -0.385 OA
ATOM     15  H1  UNL     1     -31.809 -11.274 372.980  1.00  0.00     0.210 HD
ENDBRANCH  10  14
ENDBRANCH   5   6
ENDBRANCH   4   5
ENDBRANCH   3   4
ENDBRANCH   2   3
ENDBRANCH   1   2
BRANCH   1  16
HETATM   16  C11 UNL     1     -37.968 -12.977 378.085  1.00  0.00     0.126 C 
BRANCH  16  17
HETATM   17  N2  UNL     1     -38.803 -14.119 378.407  1.00  0.00    -0.344 N 
HETATM   18  C12 UNL     1     -39.771 -14.236 379.484  1.00  0.00     0.100 A 
HETATM   19  C13 UNL     1     -40.036 -13.551 380.640  1.00  0.00     0.118 A 
HETATM   20  C15 UNL     1     -40.545 -15.288 379.198  1.00  0.00     0.129 A 
HETATM   21  N3  UNL     1     -39.380 -12.402 381.187  1.00  0.00    -0.092 NA
HETATM   22  S1  UNL     1     -41.371 -14.410 381.292  1.00  0.00    -0.058 SA
HETATM   23  C14 UNL     1     -41.546 -15.597 380.087  1.00  0.00     0.112 A 
HETATM   24 CL1  UNL     1     -42.740 -16.895 380.041  1.00  0.00    -0.073 Cl
HETATM   25  O2  UNL     1     -40.117 -15.855 377.973  1.00  0.00    -0.315 OA
HETATM   26  C16 UNL     1     -38.814 -15.348 377.677  1.00  0.00     0.143 C 
HETATM   27  C17 UNL     1     -38.696 -15.238 376.201  1.00  0.00     0.062 C 
HETATM   28  C20 UNL     1     -37.848 -16.394 378.153  1.00  0.00     0.062 C 
HETATM   29  C18 UNL     1     -37.581 -16.193 375.771  1.00  0.00     0.005 C 
HETATM   30  C19 UNL     1     -37.608 -17.206 376.900  1.00  0.00     0.005 C 
ENDBRANCH  16  17
ENDBRANCH   1  16
TORSDOF 8
ENDMDL
MODEL 3
REMARK VINA RESULT: -7.741895526      1.494      1.855
REMARK  8 active torsions:
REMARK  status: ('A' for Active; 'I' for Inactive)
REMARK    1  A    between atoms: C2_2  and  O1_3 
REMARK    2  A    between atoms: N1_8  and  C6_9 
REMARK    3  A    between atoms: C6_9  and  C7_10 
REMARK    4  A    between atoms: C7_10  and  C8_11 
REMARK    5  A    between atoms: C8_11  and  C9_12 
REMARK    6  A    between atoms: C9_12  and  C10_13 
REMARK    7  A    between atoms: C10_13  and  C11_14 
REMARK    8  A    between atoms: C11_14  and  N2_15 
ROOT
HETATM    1  C10 UNL     1     -39.437 -15.319 373.903  1.00  0.00     0.020 C 
ENDROOT
BRANCH   1   2
HETATM    2  C9  UNL     1     -40.147 -15.999 375.040  1.00  0.00     0.002 C 
BRANCH   2   3
HETATM    3  C8  UNL     1     -39.634 -17.344 375.411  1.00  0.00     0.002 C 
BRANCH   3   4
HETATM    4  C7  UNL     1     -39.991 -17.605 376.866  1.00  0.00     0.030 C 
BRANCH   4   5
HETATM    5  C6  UNL     1     -41.357 -17.124 377.241  1.00  0.00     0.276 C 
BRANCH   5   6
HETATM    6  N1  UNL     1     -41.611 -17.106 378.664  1.00  0.00     0.125 N 
HETATM    7  C5  UNL     1     -43.011 -17.297 378.970  1.00  0.00     0.276 C 
HETATM    8  C4  UNL     1     -43.172 -17.236 380.473  1.00  0.00     0.033 C 
HETATM    9  C3  UNL     1     -42.611 -15.967 381.067  1.00  0.00     0.044 C 
HETATM   10  C2  UNL     1     -42.028 -15.071 380.005  1.00  0.00     0.113 C 
HETATM   11  C1  UNL     1     -41.212 -14.002 380.726  1.00  0.00     0.051 C 
HETATM   12  C21 UNL     1     -41.077 -15.859 379.167  1.00  0.00     0.438 C 
HETATM   13  F1  UNL     1     -39.976 -16.168 379.949  1.00  0.00    -0.213 F 
BRANCH  10  14
HETATM   14  O1  UNL     1     -43.008 -14.404 379.274  1.00  0.00    -0.385 OA
ATOM     15  H1  UNL     1     -43.512 -15.069 378.819  1.00  0.00     0.210 HD
ENDBRANCH  10  14
ENDBRANCH   5   6
ENDBRANCH   4   5
ENDBRANCH   3   4
ENDBRANCH   2   3
ENDBRANCH   1   2
BRANCH   1  16
HETATM   16  C11 UNL     1     -38.909 -14.004 374.355  1.00  0.00     0.126 C 
BRANCH  16  17
HETATM   17  N2  UNL     1     -37.482 -14.003 374.611  1.00  0.00    -0.344 N 
HETATM   18  C12 UNL     1     -36.410 -13.731 373.670  1.00  0.00     0.100 A 
HETATM   19  C13 UNL     1     -36.297 -13.674 372.306  1.00  0.00     0.118 A 
HETATM   20  C15 UNL     1     -35.310 -13.490 374.390  1.00  0.00     0.129 A 
HETATM   21  N3  UNL     1     -37.295 -13.883 371.301  1.00  0.00    -0.092 NA
HETATM   22  S1  UNL     1     -34.642 -13.283 372.078  1.00  0.00    -0.058 SA
HETATM   23  C14 UNL     1     -34.154 -13.205 373.705  1.00  0.00     0.112 A 
HETATM   24 CL1  UNL     1     -32.538 -12.843 374.313  1.00  0.00    -0.073 Cl
HETATM   25  O2  UNL     1     -35.631 -13.593 375.766  1.00  0.00    -0.315 OA
HETATM   26  C16 UNL     1     -36.885 -14.266 375.883  1.00  0.00     0.143 C 
HETATM   27  C17 UNL     1     -37.588 -13.709 377.067  1.00  0.00     0.062 C 
HETATM   28  C20 UNL     1     -36.556 -15.704 376.161  1.00  0.00     0.062 C 
HETATM   29  C18 UNL     1     -37.753 -14.855 378.067  1.00  0.00     0.005 C 
HETATM   30  C19 UNL     1     -36.602 -15.760 377.672  1.00  0.00     0.005 C 
ENDBRANCH  16  17
ENDBRANCH   1  16
TORSDOF 8
ENDMDL
MODEL 4
REMARK VINA RESULT: -7.705700723      4.554      8.158
REMARK  8 active torsions:
REMARK  status: ('A' for Active; 'I' for Inactive)
REMARK    1  A    between atoms: C2_2  and  O1_3 
REMARK    2  A    between atoms: N1_8  and  C6_9 
REMARK    3  A    between atoms: C6_9  and  C7_10 
REMARK    4  A    between atoms: C7_10  and  C8_11 
REMARK    5  A    between atoms: C8_11  and  C9_12 
REMARK    6  A    between atoms: C9_12  and  C10_13 
REMARK    7  A    between atoms: C10_13  and  C11_14 
REMARK    8  A    between atoms: C11_14  and  N2_15 
ROOT
HETATM    1  C10 UNL     1     -39.400 -16.484 375.807  1.00  0.00     0.020 C 
ENDROOT
BRANCH   1   2
HETATM    2  C9  UNL     1     -38.976 -15.760 374.560  1.00  0.00     0.002 C 
BRANCH   2   3
HETATM    3  C8  UNL     1     -39.625 -14.442 374.326  1.00  0.00     0.002 C 
BRANCH   3   4
HETATM    4  C7  UNL     1     -38.580 -13.355 374.524  1.00  0.00     0.030 C 
BRANCH   4   5
HETATM    5  C6  UNL     1     -37.200 -13.775 374.127  1.00  0.00     0.276 C 
BRANCH   5   6
HETATM    6  N1  UNL     1     -36.192 -13.529 375.134  1.00  0.00     0.125 N 
HETATM    7  C5  UNL     1     -35.312 -14.662 375.311  1.00  0.00     0.276 C 
HETATM    8  C4  UNL     1     -34.316 -14.314 376.397  1.00  0.00     0.033 C 
HETATM    9  C3  UNL     1     -34.984 -13.885 377.681  1.00  0.00     0.044 C 
HETATM   10  C2  UNL     1     -36.485 -13.913 377.559  1.00  0.00     0.113 C 
HETATM   11  C1  UNL     1     -37.042 -13.162 378.766  1.00  0.00     0.051 C 
HETATM   12  C21 UNL     1     -36.893 -13.150 376.342  1.00  0.00     0.438 C 
HETATM   13  F1  UNL     1     -36.626 -11.811 376.570  1.00  0.00    -0.213 F 
BRANCH  10  14
HETATM   14  O1  UNL     1     -37.001 -15.205 377.616  1.00  0.00    -0.385 OA
ATOM     15  H1  UNL     1     -37.173 -15.392 378.532  1.00  0.00     0.210 HD
ENDBRANCH  10  14
ENDBRANCH   5   6
ENDBRANCH   4   5
ENDBRANCH   3   4
ENDBRANCH   2   3
ENDBRANCH   1   2
BRANCH   1  16
HETATM   16  C11 UNL     1     -40.378 -15.656 376.562  1.00  0.00     0.126 C 
BRANCH  16  17
HETATM   17  N2  UNL     1     -41.171 -16.411 377.513  1.00  0.00    -0.344 N 
HETATM   18  C12 UNL     1     -42.043 -17.541 377.244  1.00  0.00     0.100 A 
HETATM   19  C13 UNL     1     -42.625 -18.083 376.129  1.00  0.00     0.118 A 
HETATM   20  C15 UNL     1     -42.283 -18.136 378.416  1.00  0.00     0.129 A 
HETATM   21  N3  UNL     1     -42.542 -17.662 374.763  1.00  0.00    -0.092 NA
HETATM   22  S1  UNL     1     -43.497 -19.417 376.766  1.00  0.00    -0.058 SA
HETATM   23  C14 UNL     1     -43.096 -19.244 378.409  1.00  0.00     0.112 A 
HETATM   24 CL1  UNL     1     -43.626 -20.267 379.746  1.00  0.00    -0.073 Cl
HETATM   25  O2  UNL     1     -41.596 -17.434 379.437  1.00  0.00    -0.315 OA
HETATM   26  C16 UNL     1     -41.209 -16.161 378.920  1.00  0.00     0.143 C 
HETATM   27  C17 UNL     1     -39.919 -15.788 379.556  1.00  0.00     0.062 C 
HETATM   28  C20 UNL     1     -42.260 -15.193 379.379  1.00  0.00     0.062 C 
HETATM   29  C18 UNL     1     -40.176 -14.519 380.371  1.00  0.00     0.005 C 
HETATM   30  C19 UNL     1     -41.661 -14.644 380.654  1.00  0.00     0.005 C 
ENDBRANCH  16  17
ENDBRANCH   1  16
TORSDOF 8
ENDMDL
MODEL 5
REMARK VINA RESULT: -7.680388981      4.539      9.032
REMARK  8 active torsions:
REMARK  status: ('A' for Active; 'I' for Inactive)
REMARK    1  A    between atoms: C2_2  and  O1_3 
REMARK    2  A    between atoms: N1_8  and  C6_9 
REMARK    3  A    between atoms: C6_9  and  C7_10 
REMARK    4  A    between atoms: C7_10  and  C8_11 
REMARK    5  A    between atoms: C8_11  and  C9_12 
REMARK    6  A    between atoms: C9_12  and  C10_13 
REMARK    7  A    between atoms: C10_13  and  C11_14 
REMARK    8  A    between atoms: C11_14  and  N2_15 
ROOT
HETATM    1  C10 UNL     1     -36.518 -13.163 378.362  1.00  0.00     0.020 C 
ENDROOT
BRANCH   1   2
HETATM    2  C9  UNL     1     -35.598 -13.165 377.174  1.00  0.00     0.002 C 
BRANCH   2   3
HETATM    3  C8  UNL     1     -34.824 -14.416 376.957  1.00  0.00     0.002 C 
BRANCH   3   4
HETATM    4  C7  UNL     1     -34.755 -14.680 375.461  1.00  0.00     0.030 C 
BRANCH   4   5
HETATM    5  C6  UNL     1     -35.391 -13.606 374.636  1.00  0.00     0.276 C 
BRANCH   5   6
HETATM    6  N1  UNL     1     -34.512 -13.015 373.652  1.00  0.00     0.125 N 
HETATM    7  C5  UNL     1     -35.230 -12.568 372.479  1.00  0.00     0.276 C 
HETATM    8  C4  UNL     1     -34.223 -11.992 371.507  1.00  0.00     0.033 C 
HETATM    9  C3  UNL     1     -33.112 -12.961 371.180  1.00  0.00     0.044 C 
HETATM   10  C2  UNL     1     -33.288 -14.268 371.908  1.00  0.00     0.113 C 
HETATM   11  C1  UNL     1     -31.972 -15.030 371.772  1.00  0.00     0.051 C 
HETATM   12  C21 UNL     1     -33.490 -13.997 373.361  1.00  0.00     0.438 C 
HETATM   13  F1  UNL     1     -32.298 -13.515 373.875  1.00  0.00    -0.213 F 
BRANCH  10  14
HETATM   14  O1  UNL     1     -34.275 -15.067 371.338  1.00  0.00    -0.385 OA
ATOM     15  H1  UNL     1     -34.557 -15.677 372.009  1.00  0.00     0.210 HD
ENDBRANCH  10  14
ENDBRANCH   5   6
ENDBRANCH   4   5
ENDBRANCH   3   4
ENDBRANCH   2   3
ENDBRANCH   1   2
BRANCH   1  16
HETATM   16  C11 UNL     1     -37.929 -13.038 377.907  1.00  0.00     0.126 C 
BRANCH  16  17
HETATM   17  N2  UNL     1     -38.783 -14.125 378.346  1.00  0.00    -0.344 N 
HETATM   18  C12 UNL     1     -39.695 -14.138 379.476  1.00  0.00     0.100 A 
HETATM   19  C13 UNL     1     -39.875 -13.371 380.596  1.00  0.00     0.118 A 
HETATM   20  C15 UNL     1     -40.519 -15.176 379.300  1.00  0.00     0.129 A 
HETATM   21  N3  UNL     1     -39.153 -12.215 381.033  1.00  0.00    -0.092 NA
HETATM   22  S1  UNL     1     -41.201 -14.136 381.371  1.00  0.00    -0.058 SA
HETATM   23  C14 UNL     1     -41.480 -15.391 380.258  1.00  0.00     0.112 A 
HETATM   24 CL1  UNL     1     -42.718 -16.644 380.358  1.00  0.00    -0.073 Cl
HETATM   25  O2  UNL     1     -40.176 -15.836 378.094  1.00  0.00    -0.315 OA
HETATM   26  C16 UNL     1     -38.875 -15.397 377.700  1.00  0.00     0.143 C 
HETATM   27  C17 UNL     1     -38.832 -15.386 376.215  1.00  0.00     0.062 C 
HETATM   28  C20 UNL     1     -37.921 -16.445 378.193  1.00  0.00     0.062 C 
HETATM   29  C18 UNL     1     -37.775 -16.407 375.793  1.00  0.00     0.005 C 
HETATM   30  C19 UNL     1     -37.775 -17.344 376.985  1.00  0.00     0.005 C 
ENDBRANCH  16  17
ENDBRANCH   1  16
TORSDOF 8
ENDMDL
