MODEL 1
REMARK VINA RESULT: -7.881153254      0.000      0.000
REMARK  14 active torsions:
REMARK  status: ('A' for Active; 'I' for Inactive)
REMARK    1  A    between atoms: C2_2  and  C5_5 
REMARK    2  A    between atoms: C6_6  and  C7_7 
REMARK    3  A    between atoms: C8_8  and  O1_9 
REMARK    4  A    between atoms: C10_12  and  O2_13 
REMARK    5  A    between atoms: C11_15  and  C13_17 
REMARK    6  A    between atoms: C13_17  and  O3_18 
REMARK    7  A    between atoms: O3_18  and  C14_19 
REMARK    8  A    between atoms: C14_19  and  O4_20 
REMARK    9  A    between atoms: C14_19  and  O5_22 
REMARK   10  A    between atoms: C14_19  and  C15_24 
REMARK   11  A    between atoms: C16_25  and  C17_26 
REMARK   12  A    between atoms: C18_27  and  C19_28 
REMARK       I    between atoms: C19_28  and  N1_30 
REMARK   13  A    between atoms: N1_30  and  N2_32 
REMARK   14  A    between atoms: N2_32  and  N3_33 
ROOT
HETATM    1  O3  UNL     1      -0.590  -8.805 -24.275  1.00  0.00    -0.329 OA
ENDROOT
BRANCH   1   2
HETATM    2  C13 UNL     1       0.159  -8.667 -25.447  1.00  0.00     0.186 C 
BRANCH   2   3
HETATM    3  C11 UNL     1       0.557 -10.039 -25.889  1.00  0.00     0.013 C 
HETATM    4  C7  UNL     1       0.956 -10.118 -27.336  1.00  0.00     0.049 C 
HETATM    5  C8  UNL     1      -0.344  -9.902 -28.069  1.00  0.00     0.129 C 
HETATM    6  C9  UNL     1      -1.373 -10.530 -27.190  1.00  0.00     0.065 C 
HETATM    7  C10 UNL     1      -0.706 -10.907 -25.890  1.00  0.00     0.131 C 
HETATM    8  C12 UNL     1       1.599 -10.577 -24.963  1.00  0.00     0.021 C 
BRANCH   4   9
HETATM    9  C6  UNL     1       2.010  -9.184 -27.719  1.00  0.00    -0.022 C 
HETATM   10  C5  UNL     1       2.612  -9.302 -28.887  1.00  0.00    -0.022 C 
BRANCH  10  11
HETATM   11  C2  UNL     1       3.690  -8.385 -29.337  1.00  0.00    -0.034 C 
HETATM   12  C1  UNL     1       4.060  -8.588 -30.786  1.00  0.00     0.018 C 
HETATM   13  C3  UNL     1       3.226  -6.956 -29.176  1.00  0.00     0.018 C 
HETATM   14  C4  UNL     1       4.917  -8.590 -28.502  1.00  0.00     0.018 C 
ENDBRANCH  10  11
ENDBRANCH   4   9
BRANCH   5  15
HETATM   15  O1  UNL     1      -0.586  -8.595 -28.404  1.00  0.00    -0.395 OA
ATOM     16  H1  UNL     1      -1.268  -8.182 -27.888  1.00  0.00     0.210 HD
ENDBRANCH   5  15
BRANCH   7  17
HETATM   17  O2  UNL     1      -0.365 -12.244 -25.826  1.00  0.00    -0.395 OA
ATOM     18  H2  UNL     1      -1.001 -12.810 -26.249  1.00  0.00     0.210 HD
ENDBRANCH   7  17
ENDBRANCH   2   3
ENDBRANCH   1   2
BRANCH   1  19
HETATM   19  C14 UNL     1      -1.690  -7.952 -24.250  1.00  0.00     0.299 C 
BRANCH  19  20
HETATM   20  O4  UNL     1      -2.762  -8.628 -23.656  1.00  0.00    -0.340 OA
ATOM     21  H4  UNL     1      -3.282  -7.999 -23.170  1.00  0.00     0.216 HD
ENDBRANCH  19  20
BRANCH  19  22
HETATM   22  O5  UNL     1      -1.446  -6.801 -23.503  1.00  0.00    -0.340 OA
ATOM     23  H5  UNL     1      -2.243  -6.316 -23.320  1.00  0.00     0.216 HD
ENDBRANCH  19  22
BRANCH  19  24
HETATM   24  C15 UNL     1      -2.009  -7.581 -25.632  1.00  0.00     0.073 C 
HETATM   25  C16 UNL     1      -3.037  -6.742 -25.882  1.00  0.00     0.004 C 
BRANCH  25  26
HETATM   26  C17 UNL     1      -3.357  -6.373 -27.236  1.00  0.00     0.005 C 
HETATM   27  C18 UNL     1      -2.725  -5.607 -28.054  1.00  0.00     0.076 C 
BRANCH  27  28
HETATM   28  C19 UNL     1      -1.504  -4.901 -27.827  1.00  0.00     0.271 C 
HETATM   29  O6  UNL     1      -1.580  -3.815 -27.126  1.00  0.00    -0.266 OA
HETATM   30  N1  UNL     1      -0.254  -5.308 -28.309  1.00  0.00    -0.180 N 
ATOM     31  H1  UNL     1      -0.044  -6.306 -28.289  1.00  0.00     0.207 HD
BRANCH  30  32
HETATM   32  N2  UNL     1       0.608  -4.554 -28.755  1.00  0.00    -0.241 NA
BRANCH  32  33
HETATM   33  N3  UNL     1       1.383  -3.655 -29.130  1.00  0.00    -0.260 N 
ATOM     34  H32 UNL     1       1.069  -3.128 -28.316  1.00  0.00     0.193 HD
ATOM     35  H31 UNL     1       2.052  -3.011 -29.551  1.00  0.00     0.193 HD
ENDBRANCH  32  33
ENDBRANCH  30  32
ENDBRANCH  27  28
ENDBRANCH  25  26
ENDBRANCH  19  24
ENDBRANCH   1  19
TORSDOF 14
ENDMDL
MODEL 2
REMARK VINA RESULT: -7.634585568      1.744      5.309
REMARK  14 active torsions:
REMARK  status: ('A' for Active; 'I' for Inactive)
REMARK    1  A    between atoms: C2_2  and  C5_5 
REMARK    2  A    between atoms: C6_6  and  C7_7 
REMARK    3  A    between atoms: C8_8  and  O1_9 
REMARK    4  A    between atoms: C10_12  and  O2_13 
REMARK    5  A    between atoms: C11_15  and  C13_17 
REMARK    6  A    between atoms: C13_17  and  O3_18 
REMARK    7  A    between atoms: O3_18  and  C14_19 
REMARK    8  A    between atoms: C14_19  and  O4_20 
REMARK    9  A    between atoms: C14_19  and  O5_22 
REMARK   10  A    between atoms: C14_19  and  C15_24 
REMARK   11  A    between atoms: C16_25  and  C17_26 
REMARK   12  A    between atoms: C18_27  and  C19_28 
REMARK       I    between atoms: C19_28  and  N1_30 
REMARK   13  A    between atoms: N1_30  and  N2_32 
REMARK   14  A    between atoms: N2_32  and  N3_33 
ROOT
HETATM    1  O3  UNL     1       0.988 -11.066 -26.300  1.00  0.00    -0.329 OA
ENDROOT
BRANCH   1   2
HETATM    2  C13 UNL     1       0.314  -9.856 -26.489  1.00  0.00     0.186 C 
BRANCH   2   3
HETATM    3  C11 UNL     1      -0.978  -9.942 -25.742  1.00  0.00     0.013 C 
HETATM    4  C7  UNL     1      -1.386  -8.652 -25.085  1.00  0.00     0.049 C 
HETATM    5  C8  UNL     1      -0.376  -8.491 -23.977  1.00  0.00     0.129 C 
HETATM    6  C9  UNL     1      -0.081  -9.886 -23.540  1.00  0.00     0.065 C 
HETATM    7  C10 UNL     1      -0.744 -10.829 -24.514  1.00  0.00     0.131 C 
HETATM    8  C12 UNL     1      -2.035 -10.503 -26.637  1.00  0.00     0.021 C 
BRANCH   4   9
HETATM    9  C6  UNL     1      -1.451  -7.512 -25.993  1.00  0.00    -0.022 C 
HETATM   10  C5  UNL     1      -2.098  -6.417 -25.642  1.00  0.00    -0.022 C 
BRANCH  10  11
HETATM   11  C2  UNL     1      -2.202  -5.223 -26.518  1.00  0.00    -0.034 C 
HETATM   12  C1  UNL     1      -0.869  -4.798 -27.083  1.00  0.00     0.018 C 
HETATM   13  C3  UNL     1      -3.115  -5.538 -27.680  1.00  0.00     0.018 C 
HETATM   14  C4  UNL     1      -2.778  -4.073 -25.751  1.00  0.00     0.018 C 
ENDBRANCH  10  11
ENDBRANCH   4   9
BRANCH   5  15
HETATM   15  O1  UNL     1       0.721  -7.746 -24.324  1.00  0.00    -0.395 OA
ATOM     16  H1  UNL     1       1.401  -7.725 -23.661  1.00  0.00     0.210 HD
ENDBRANCH   5  15
BRANCH   7  17
HETATM   17  O2  UNL     1      -1.944 -11.329 -24.050  1.00  0.00    -0.395 OA
ATOM     18  H2  UNL     1      -2.698 -10.963 -24.499  1.00  0.00     0.210 HD
ENDBRANCH   7  17
ENDBRANCH   2   3
ENDBRANCH   1   2
BRANCH   1  19
HETATM   19  C14 UNL     1       2.370 -10.914 -26.367  1.00  0.00     0.299 C 
BRANCH  19  20
HETATM   20  O4  UNL     1       2.767 -10.018 -25.368  1.00  0.00    -0.340 OA
ATOM     21  H4  UNL     1       3.023 -10.517 -24.601  1.00  0.00     0.216 HD
ENDBRANCH  19  20
BRANCH  19  22
HETATM   22  O5  UNL     1       3.043 -12.116 -26.154  1.00  0.00    -0.340 OA
ATOM     23  H5  UNL     1       2.741 -12.804 -26.735  1.00  0.00     0.216 HD
ENDBRANCH  19  22
BRANCH  19  24
HETATM   24  C15 UNL     1       2.705 -10.394 -27.696  1.00  0.00     0.073 C 
HETATM   25  C16 UNL     1       3.676  -9.465 -27.829  1.00  0.00     0.004 C 
BRANCH  25  26
HETATM   26  C17 UNL     1       4.012  -8.949 -29.129  1.00  0.00     0.005 C 
HETATM   27  C18 UNL     1       3.613  -7.879 -29.721  1.00  0.00     0.076 C 
BRANCH  27  28
HETATM   28  C19 UNL     1       2.705  -6.891 -29.228  1.00  0.00     0.271 C 
HETATM   29  O6  UNL     1       1.531  -7.306 -28.872  1.00  0.00    -0.266 OA
HETATM   30  N1  UNL     1       3.007  -5.530 -29.109  1.00  0.00    -0.180 N 
ATOM     31  H1  UNL     1       3.941  -5.280 -28.785  1.00  0.00     0.207 HD
BRANCH  30  32
HETATM   32  N2  UNL     1       2.230  -4.612 -29.364  1.00  0.00    -0.241 NA
BRANCH  32  33
HETATM   33  N3  UNL     1       1.350  -3.738 -29.476  1.00  0.00    -0.260 N 
ATOM     34  H32 UNL     1       2.100  -3.105 -29.753  1.00  0.00     0.193 HD
ATOM     35  H31 UNL     1       0.534  -3.130 -29.525  1.00  0.00     0.193 HD
ENDBRANCH  32  33
ENDBRANCH  30  32
ENDBRANCH  27  28
ENDBRANCH  25  26
ENDBRANCH  19  24
ENDBRANCH   1  19
TORSDOF 14
ENDMDL
MODEL 3
REMARK VINA RESULT: -7.577997044      4.251      7.313
REMARK  14 active torsions:
REMARK  status: ('A' for Active; 'I' for Inactive)
REMARK    1  A    between atoms: C2_2  and  C5_5 
REMARK    2  A    between atoms: C6_6  and  C7_7 
REMARK    3  A    between atoms: C8_8  and  O1_9 
REMARK    4  A    between atoms: C10_12  and  O2_13 
REMARK    5  A    between atoms: C11_15  and  C13_17 
REMARK    6  A    between atoms: C13_17  and  O3_18 
REMARK    7  A    between atoms: O3_18  and  C14_19 
REMARK    8  A    between atoms: C14_19  and  O4_20 
REMARK    9  A    between atoms: C14_19  and  O5_22 
REMARK   10  A    between atoms: C14_19  and  C15_24 
REMARK   11  A    between atoms: C16_25  and  C17_26 
REMARK   12  A    between atoms: C18_27  and  C19_28 
REMARK       I    between atoms: C19_28  and  N1_30 
REMARK   13  A    between atoms: N1_30  and  N2_32 
REMARK   14  A    between atoms: N2_32  and  N3_33 
ROOT
HETATM    1  O3  UNL     1       2.708  -9.483 -28.119  1.00  0.00    -0.329 OA
ENDROOT
BRANCH   1   2
HETATM    2  C13 UNL     1       1.940  -8.790 -27.178  1.00  0.00     0.186 C 
BRANCH   2   3
HETATM    3  C11 UNL     1       0.596  -9.442 -27.131  1.00  0.00     0.013 C 
HETATM    4  C7  UNL     1      -0.436  -8.650 -26.375  1.00  0.00     0.049 C 
HETATM    5  C8  UNL     1       0.028  -8.752 -24.944  1.00  0.00     0.129 C 
HETATM    6  C9  UNL     1       0.640 -10.109 -24.848  1.00  0.00     0.065 C 
HETATM    7  C10 UNL     1       0.714 -10.684 -26.241  1.00  0.00     0.131 C 
HETATM    8  C12 UNL     1       0.164  -9.793 -28.518  1.00  0.00     0.021 C 
BRANCH   4   9
HETATM    9  C6  UNL     1      -0.601  -7.279 -26.845  1.00  0.00    -0.022 C 
HETATM   10  C5  UNL     1      -1.785  -6.698 -26.802  1.00  0.00    -0.022 C 
BRANCH  10  11
HETATM   11  C2  UNL     1      -2.020  -5.307 -27.263  1.00  0.00    -0.034 C 
HETATM   12  C1  UNL     1      -0.756  -4.625 -27.726  1.00  0.00     0.018 C 
HETATM   13  C3  UNL     1      -2.985  -5.328 -28.427  1.00  0.00     0.018 C 
HETATM   14  C4  UNL     1      -2.618  -4.494 -26.156  1.00  0.00     0.018 C 
ENDBRANCH  10  11
ENDBRANCH   4   9
BRANCH   5  15
HETATM   15  O1  UNL     1       0.837  -7.720 -24.544  1.00  0.00    -0.395 OA
ATOM     16  H1  UNL     1       0.533  -7.269 -23.764  1.00  0.00     0.210 HD
ENDBRANCH   5  15
BRANCH   7  17
HETATM   17  O2  UNL     1      -0.310 -11.568 -26.516  1.00  0.00    -0.395 OA
ATOM     18  H2  UNL     1      -0.988 -11.192 -27.065  1.00  0.00     0.210 HD
ENDBRANCH   7  17
ENDBRANCH   2   3
ENDBRANCH   1   2
BRANCH   1  19
HETATM   19  C14 UNL     1       3.629  -8.657 -28.758  1.00  0.00     0.299 C 
BRANCH  19  20
HETATM   20  O4  UNL     1       3.127  -7.351 -28.758  1.00  0.00    -0.340 OA
ATOM     21  H4  UNL     1       3.826  -6.760 -28.501  1.00  0.00     0.216 HD
ENDBRANCH  19  20
BRANCH  19  22
HETATM   22  O5  UNL     1       4.861  -8.640 -28.107  1.00  0.00    -0.340 OA
ATOM     23  H5  UNL     1       5.336  -7.831 -28.258  1.00  0.00     0.216 HD
ENDBRANCH  19  22
BRANCH  19  24
HETATM   24  C15 UNL     1       3.805  -9.147 -30.128  1.00  0.00     0.073 C 
HETATM   25  C16 UNL     1       4.772  -8.622 -30.911  1.00  0.00     0.004 C 
BRANCH  25  26
HETATM   26  C17 UNL     1       4.952  -9.097 -32.257  1.00  0.00     0.005 C 
HETATM   27  C18 UNL     1       5.741 -10.004 -32.713  1.00  0.00     0.076 C 
BRANCH  27  28
HETATM   28  C19 UNL     1       6.675 -10.802 -31.982  1.00  0.00     0.271 C 
HETATM   29  O6  UNL     1       6.181 -11.670 -31.159  1.00  0.00    -0.266 OA
HETATM   30  N1  UNL     1       8.066 -10.700 -32.104  1.00  0.00    -0.180 N 
ATOM     31  H1  UNL     1       8.448 -10.553 -33.038  1.00  0.00     0.207 HD
BRANCH  30  32
HETATM   32  N2  UNL     1       8.861 -10.775 -31.169  1.00  0.00    -0.241 NA
BRANCH  32  33
HETATM   33  N3  UNL     1       9.734 -10.996 -30.311  1.00  0.00    -0.260 N 
ATOM     34  H32 UNL     1       8.980 -11.354 -29.724  1.00  0.00     0.193 HD
ATOM     35  H31 UNL     1      10.547 -11.122 -29.707  1.00  0.00     0.193 HD
ENDBRANCH  32  33
ENDBRANCH  30  32
ENDBRANCH  27  28
ENDBRANCH  25  26
ENDBRANCH  19  24
ENDBRANCH   1  19
TORSDOF 14
ENDMDL
MODEL 4
REMARK VINA RESULT: -7.575441638      3.784      6.741
REMARK  14 active torsions:
REMARK  status: ('A' for Active; 'I' for Inactive)
REMARK    1  A    between atoms: C2_2  and  C5_5 
REMARK    2  A    between atoms: C6_6  and  C7_7 
REMARK    3  A    between atoms: C8_8  and  O1_9 
REMARK    4  A    between atoms: C10_12  and  O2_13 
REMARK    5  A    between atoms: C11_15  and  C13_17 
REMARK    6  A    between atoms: C13_17  and  O3_18 
REMARK    7  A    between atoms: O3_18  and  C14_19 
REMARK    8  A    between atoms: C14_19  and  O4_20 
REMARK    9  A    between atoms: C14_19  and  O5_22 
REMARK   10  A    between atoms: C14_19  and  C15_24 
REMARK   11  A    between atoms: C16_25  and  C17_26 
REMARK   12  A    between atoms: C18_27  and  C19_28 
REMARK       I    between atoms: C19_28  and  N1_30 
REMARK   13  A    between atoms: N1_30  and  N2_32 
REMARK   14  A    between atoms: N2_32  and  N3_33 
ROOT
HETATM    1  O3  UNL     1       1.685  -8.939 -27.625  1.00  0.00    -0.329 OA
ENDROOT
BRANCH   1   2
HETATM    2  C13 UNL     1       1.234  -8.997 -26.303  1.00  0.00     0.186 C 
BRANCH   2   3
HETATM    3  C11 UNL     1      -0.172  -9.503 -26.332  1.00  0.00     0.013 C 
HETATM    4  C7  UNL     1      -1.142  -8.645 -25.568  1.00  0.00     0.049 C 
HETATM    5  C8  UNL     1      -0.745  -8.866 -24.130  1.00  0.00     0.129 C 
HETATM    6  C9  UNL     1      -0.281 -10.283 -24.088  1.00  0.00     0.065 C 
HETATM    7  C10 UNL     1      -0.216 -10.793 -25.507  1.00  0.00     0.131 C 
HETATM    8  C12 UNL     1      -0.588  -9.737 -27.749  1.00  0.00     0.021 C 
BRANCH   4   9
HETATM    9  C6  UNL     1      -1.146  -7.243 -25.969  1.00  0.00    -0.022 C 
HETATM   10  C5  UNL     1      -1.993  -6.815 -26.886  1.00  0.00    -0.022 C 
BRANCH  10  11
HETATM   11  C2  UNL     1      -2.049  -5.402 -27.339  1.00  0.00    -0.034 C 
HETATM   12  C1  UNL     1      -0.705  -4.879 -27.786  1.00  0.00     0.018 C 
HETATM   13  C3  UNL     1      -2.997  -5.294 -28.510  1.00  0.00     0.018 C 
HETATM   14  C4  UNL     1      -2.551  -4.528 -26.230  1.00  0.00     0.018 C 
ENDBRANCH  10  11
ENDBRANCH   4   9
BRANCH   5  15
HETATM   15  O1  UNL     1       0.152  -7.947 -23.651  1.00  0.00    -0.395 OA
ATOM     16  H1  UNL     1       0.538  -8.182 -22.815  1.00  0.00     0.210 HD
ENDBRANCH   5  15
BRANCH   7  17
HETATM   17  O2  UNL     1      -1.317 -11.549 -25.860  1.00  0.00    -0.395 OA
ATOM     18  H2  UNL     1      -1.090 -12.431 -26.132  1.00  0.00     0.210 HD
ENDBRANCH   7  17
ENDBRANCH   2   3
ENDBRANCH   1   2
BRANCH   1  19
HETATM   19  C14 UNL     1       2.812  -9.730 -27.831  1.00  0.00     0.299 C 
BRANCH  19  20
HETATM   20  O4  UNL     1       3.418  -9.970 -26.593  1.00  0.00    -0.340 OA
ATOM     21  H4  UNL     1       4.360  -9.963 -26.712  1.00  0.00     0.216 HD
ENDBRANCH  19  20
BRANCH  19  22
HETATM   22  O5  UNL     1       2.493 -10.963 -28.397  1.00  0.00    -0.340 OA
ATOM     23  H5  UNL     1       2.960 -11.117 -29.210  1.00  0.00     0.216 HD
ENDBRANCH  19  22
BRANCH  19  24
HETATM   24  C15 UNL     1       3.720  -9.003 -28.723  1.00  0.00     0.073 C 
HETATM   25  C16 UNL     1       3.528  -9.045 -30.059  1.00  0.00     0.004 C 
BRANCH  25  26
HETATM   26  C17 UNL     1       4.414  -8.334 -30.941  1.00  0.00     0.005 C 
HETATM   27  C18 UNL     1       5.166  -8.774 -31.887  1.00  0.00     0.076 C 
BRANCH  27  28
HETATM   28  C19 UNL     1       5.324 -10.126 -32.323  1.00  0.00     0.271 C 
HETATM   29  O6  UNL     1       5.359 -10.326 -33.602  1.00  0.00    -0.266 OA
HETATM   30  N1  UNL     1       5.441 -11.225 -31.463  1.00  0.00    -0.180 N 
ATOM     31  H1  UNL     1       5.999 -11.105 -30.617  1.00  0.00     0.207 HD
BRANCH  30  32
HETATM   32  N2  UNL     1       4.922 -12.324 -31.651  1.00  0.00    -0.241 NA
BRANCH  32  33
HETATM   33  N3  UNL     1       4.270 -13.344 -31.935  1.00  0.00    -0.260 N 
ATOM     34  H32 UNL     1       4.437 -13.105 -32.913  1.00  0.00     0.193 HD
ATOM     35  H31 UNL     1       3.722 -14.200 -32.020  1.00  0.00     0.193 HD
ENDBRANCH  32  33
ENDBRANCH  30  32
ENDBRANCH  27  28
ENDBRANCH  25  26
ENDBRANCH  19  24
ENDBRANCH   1  19
TORSDOF 14
ENDMDL
MODEL 5
REMARK VINA RESULT: -7.545964463      4.523      7.368
REMARK  14 active torsions:
REMARK  status: ('A' for Active; 'I' for Inactive)
REMARK    1  A    between atoms: C2_2  and  C5_5 
REMARK    2  A    between atoms: C6_6  and  C7_7 
REMARK    3  A    between atoms: C8_8  and  O1_9 
REMARK    4  A    between atoms: C10_12  and  O2_13 
REMARK    5  A    between atoms: C11_15  and  C13_17 
REMARK    6  A    between atoms: C13_17  and  O3_18 
REMARK    7  A    between atoms: O3_18  and  C14_19 
REMARK    8  A    between atoms: C14_19  and  O4_20 
REMARK    9  A    between atoms: C14_19  and  O5_22 
REMARK   10  A    between atoms: C14_19  and  C15_24 
REMARK   11  A    between atoms: C16_25  and  C17_26 
REMARK   12  A    between atoms: C18_27  and  C19_28 
REMARK       I    between atoms: C19_28  and  N1_30 
REMARK   13  A    between atoms: N1_30  and  N2_32 
REMARK   14  A    between atoms: N2_32  and  N3_33 
ROOT
HETATM    1  O3  UNL     1       1.022 -11.203 -26.492  1.00  0.00    -0.329 OA
ENDROOT
BRANCH   1   2
HETATM    2  C13 UNL     1       0.713  -9.933 -25.996  1.00  0.00     0.186 C 
BRANCH   2   3
HETATM    3  C11 UNL     1      -0.732  -9.943 -25.613  1.00  0.00     0.013 C 
HETATM    4  C7  UNL     1      -1.284  -8.582 -25.292  1.00  0.00     0.049 C 
HETATM    5  C8  UNL     1      -0.603  -8.228 -23.993  1.00  0.00     0.129 C 
HETATM    6  C9  UNL     1      -0.452  -9.533 -23.287  1.00  0.00     0.065 C 
HETATM    7  C10 UNL     1      -0.843 -10.629 -24.247  1.00  0.00     0.131 C 
HETATM    8  C12 UNL     1      -1.520 -10.662 -26.660  1.00  0.00     0.021 C 
BRANCH   4   9
HETATM    9  C6  UNL     1      -1.091  -7.593 -26.347  1.00  0.00    -0.022 C 
HETATM   10  C5  UNL     1      -1.919  -6.573 -26.462  1.00  0.00    -0.022 C 
BRANCH  10  11
HETATM   11  C2  UNL     1      -1.779  -5.532 -27.512  1.00  0.00    -0.034 C 
HETATM   12  C1  UNL     1      -1.656  -4.141 -26.941  1.00  0.00     0.018 C 
HETATM   13  C3  UNL     1      -0.533  -5.810 -28.321  1.00  0.00     0.018 C 
HETATM   14  C4  UNL     1      -2.964  -5.565 -28.428  1.00  0.00     0.018 C 
ENDBRANCH  10  11
ENDBRANCH   4   9
BRANCH   5  15
HETATM   15  O1  UNL     1       0.557  -7.513 -24.147  1.00  0.00    -0.395 OA
ATOM     16  H1  UNL     1       1.221  -7.708 -23.497  1.00  0.00     0.210 HD
ENDBRANCH   5  15
BRANCH   7  17
HETATM   17  O2  UNL     1      -2.130 -11.089 -24.047  1.00  0.00    -0.395 OA
ATOM     18  H2  UNL     1      -2.626 -10.551 -23.440  1.00  0.00     0.210 HD
ENDBRANCH   7  17
ENDBRANCH   2   3
ENDBRANCH   1   2
BRANCH   1  19
HETATM   19  C14 UNL     1       2.089 -11.788 -25.813  1.00  0.00     0.299 C 
BRANCH  19  20
HETATM   20  O4  UNL     1       3.179 -11.869 -26.687  1.00  0.00    -0.340 OA
ATOM     21  H4  UNL     1       3.100 -11.174 -27.331  1.00  0.00     0.216 HD
ENDBRANCH  19  20
BRANCH  19  22
HETATM   22  O5  UNL     1       2.483 -11.038 -24.707  1.00  0.00    -0.340 OA
ATOM     23  H5  UNL     1       3.293 -10.566 -24.864  1.00  0.00     0.216 HD
ENDBRANCH  19  22
BRANCH  19  24
HETATM   24  C15 UNL     1       1.671 -13.123 -25.377  1.00  0.00     0.073 C 
HETATM   25  C16 UNL     1       1.632 -13.418 -24.059  1.00  0.00     0.004 C 
BRANCH  25  26
HETATM   26  C17 UNL     1       1.223 -14.726 -23.622  1.00  0.00     0.005 C 
HETATM   27  C18 UNL     1       0.411 -15.067 -22.685  1.00  0.00     0.076 C 
BRANCH  27  28
HETATM   28  C19 UNL     1      -0.321 -14.210 -21.805  1.00  0.00     0.271 C 
HETATM   29  O6  UNL     1       0.039 -14.207 -20.561  1.00  0.00    -0.266 OA
HETATM   30  N1  UNL     1      -1.383 -13.390 -22.204  1.00  0.00    -0.180 N 
ATOM     31  H1  UNL     1      -1.300 -12.914 -23.102  1.00  0.00     0.207 HD
BRANCH  30  32
HETATM   32  N2  UNL     1      -2.408 -13.200 -21.552  1.00  0.00    -0.241 NA
BRANCH  32  33
HETATM   33  N3  UNL     1      -3.379 -13.132 -20.777  1.00  0.00    -0.260 N 
ATOM     34  H32 UNL     1      -3.958 -13.017 -21.609  1.00  0.00     0.193 HD
ATOM     35  H31 UNL     1      -4.074 -13.095 -20.032  1.00  0.00     0.193 HD
ENDBRANCH  32  33
ENDBRANCH  30  32
ENDBRANCH  27  28
ENDBRANCH  25  26
ENDBRANCH  19  24
ENDBRANCH   1  19
TORSDOF 14
ENDMDL
