MODEL 1
REMARK VINA RESULT: -7.226650466      0.000      0.000
REMARK  16 active torsions:
REMARK  status: ('A' for Active; 'I' for Inactive)
REMARK    1  A    between atoms: C2_2  and  C3_3 
REMARK    2  A    between atoms: C3_3  and  C4_4 
REMARK    3  A    between atoms: C4_4  and  C5_5 
REMARK    4  A    between atoms: C5_5  and  C6_6 
REMARK    5  A    between atoms: C6_6  and  C7_7 
REMARK    6  A    between atoms: C7_7  and  C8_8 
REMARK    7  A    between atoms: C8_8  and  C9_9 
REMARK    8  A    between atoms: C9_9  and  C11_11 
REMARK    9  A    between atoms: C11_11  and  O1_12 
REMARK   10  A    between atoms: C11_11  and  C12_14 
REMARK   11  A    between atoms: C12_14  and  C13_15 
REMARK   12  A    between atoms: C13_15  and  C14_16 
REMARK   13  A    between atoms: C15_18  and  O3_19 
REMARK   14  A    between atoms: C16_21  and  O4_22 
REMARK   15  A    between atoms: C17_24  and  O5_25 
REMARK   16  A    between atoms: C22_31  and  O6_32 
ROOT
HETATM    1  C14 UNL     1      14.193  37.699 -11.973  1.00  0.00     0.132 C 
HETATM    2  O2  UNL     1      13.295  36.605 -11.991  1.00  0.00    -0.353 OA
HETATM    3  C15 UNL     1      13.966  35.500 -12.522  1.00  0.00     0.288 C 
HETATM    4  C16 UNL     1      14.034  35.734 -13.995  1.00  0.00     0.208 C 
HETATM    5  C17 UNL     1      14.614  37.074 -14.378  1.00  0.00     0.099 C 
HETATM    6  C18 UNL     1      16.099  36.819 -14.634  1.00  0.00     0.023 C 
HETATM    7  C19 UNL     1      16.307  35.989 -15.857  1.00  0.00     0.013 C 
HETATM    8  C20 UNL     1      16.901  38.071 -14.748  1.00  0.00    -0.005 C 
HETATM    9  C21 UNL     1      17.522  38.316 -13.363  1.00  0.00     0.037 C 
HETATM   10  C22 UNL     1      16.529  39.226 -12.642  1.00  0.00     0.127 C 
HETATM   11  C23 UNL     1      15.336  39.292 -13.534  1.00  0.00    -0.009 C 
HETATM   12  C24 UNL     1      14.633  40.648 -13.450  1.00  0.00     0.018 C 
HETATM   13  C25 UNL     1      16.059  39.301 -14.887  1.00  0.00     0.017 C 
HETATM   14  C26 UNL     1      14.368  38.169 -13.405  1.00  0.00     0.063 C 
ENDROOT
BRANCH   1  15
HETATM   15  C13 UNL     1      13.498  38.751 -11.134  1.00  0.00     0.035 C 
BRANCH  15  16
HETATM   16  C12 UNL     1      14.145  38.904  -9.774  1.00  0.00     0.034 C 
BRANCH  16  17
HETATM   17  C11 UNL     1      13.462  38.107  -8.716  1.00  0.00     0.122 C 
BRANCH  17  18
HETATM   18  C9  UNL     1      12.992  38.952  -7.554  1.00  0.00     0.010 C 
HETATM   19  C10 UNL     1      12.052  38.163  -6.654  1.00  0.00     0.012 C 
BRANCH  18  20
HETATM   20  C8  UNL     1      12.247  40.195  -7.994  1.00  0.00     0.007 C 
BRANCH  20  21
HETATM   21  C7  UNL     1      12.607  41.398  -7.188  1.00  0.00     0.000 C 
BRANCH  21  22
HETATM   22  C6  UNL     1      13.598  42.236  -7.950  1.00  0.00     0.000 C 
BRANCH  22  23
HETATM   23  C5  UNL     1      13.221  42.452  -9.393  1.00  0.00     0.000 C 
BRANCH  23  24
HETATM   24  C4  UNL     1      14.466  42.589 -10.225  1.00  0.00     0.000 C 
BRANCH  24  25
HETATM   25  C3  UNL     1      15.716  42.261  -9.438  1.00  0.00    -0.000 C 
BRANCH  25  26
HETATM   26  C2  UNL     1      16.764  43.329  -9.554  1.00  0.00    -0.005 C 
HETATM   27  C1  UNL     1      16.784  44.162  -8.308  1.00  0.00     0.005 C 
ENDBRANCH  25  26
ENDBRANCH  24  25
ENDBRANCH  23  24
ENDBRANCH  22  23
ENDBRANCH  21  22
ENDBRANCH  20  21
ENDBRANCH  18  20
ENDBRANCH  17  18
BRANCH  17  28
HETATM   28  O1  UNL     1      14.307  37.108  -8.220  1.00  0.00    -0.395 OA
ATOM     29  H1  UNL     1      14.777  36.725  -8.951  1.00  0.00     0.210 HD
ENDBRANCH  17  28
ENDBRANCH  16  17
ENDBRANCH  15  16
ENDBRANCH   1  15
BRANCH   3  30
HETATM   30  O3  UNL     1      13.156  34.388 -12.292  1.00  0.00    -0.368 OA
ATOM     31  H3  UNL     1      13.642  33.628 -12.588  1.00  0.00     0.212 HD
ENDBRANCH   3  30
BRANCH   5  32
HETATM   32  O5  UNL     1      13.971  37.392 -15.602  1.00  0.00    -0.386 OA
ATOM     33  H5  UNL     1      13.046  37.378 -15.387  1.00  0.00     0.210 HD
ENDBRANCH   5  32
BRANCH   4  34
HETATM   34  O4  UNL     1      12.716  35.614 -14.491  1.00  0.00    -0.388 OA
ATOM     35  H4  UNL     1      12.252  36.401 -14.234  1.00  0.00     0.210 HD
ENDBRANCH   4  34
BRANCH  10  36
HETATM   36  O6  UNL     1      17.128  40.508 -12.667  1.00  0.00    -0.395 OA
ATOM     37  H6  UNL     1      16.617  41.004 -13.296  1.00  0.00     0.210 HD
ENDBRANCH  10  36
TORSDOF 16
ENDMDL
MODEL 2
REMARK VINA RESULT: -7.178848802      3.773      7.002
REMARK  16 active torsions:
REMARK  status: ('A' for Active; 'I' for Inactive)
REMARK    1  A    between atoms: C2_2  and  C3_3 
REMARK    2  A    between atoms: C3_3  and  C4_4 
REMARK    3  A    between atoms: C4_4  and  C5_5 
REMARK    4  A    between atoms: C5_5  and  C6_6 
REMARK    5  A    between atoms: C6_6  and  C7_7 
REMARK    6  A    between atoms: C7_7  and  C8_8 
REMARK    7  A    between atoms: C8_8  and  C9_9 
REMARK    8  A    between atoms: C9_9  and  C11_11 
REMARK    9  A    between atoms: C11_11  and  O1_12 
REMARK   10  A    between atoms: C11_11  and  C12_14 
REMARK   11  A    between atoms: C12_14  and  C13_15 
REMARK   12  A    between atoms: C13_15  and  C14_16 
REMARK   13  A    between atoms: C15_18  and  O3_19 
REMARK   14  A    between atoms: C16_21  and  O4_22 
REMARK   15  A    between atoms: C17_24  and  O5_25 
REMARK   16  A    between atoms: C22_31  and  O6_32 
ROOT
HETATM    1  C14 UNL     1      12.803  39.871  -8.196  1.00  0.00     0.132 C 
HETATM    2  O2  UNL     1      13.017  38.566  -8.700  1.00  0.00    -0.353 OA
HETATM    3  C15 UNL     1      14.372  38.438  -9.014  1.00  0.00     0.288 C 
HETATM    4  C16 UNL     1      14.567  39.186 -10.292  1.00  0.00     0.208 C 
HETATM    5  C17 UNL     1      14.055  40.605 -10.257  1.00  0.00     0.099 C 
HETATM    6  C18 UNL     1      15.263  41.468  -9.895  1.00  0.00     0.023 C 
HETATM    7  C19 UNL     1      16.268  41.489 -10.999  1.00  0.00     0.013 C 
HETATM    8  C20 UNL     1      14.900  42.868  -9.535  1.00  0.00    -0.005 C 
HETATM    9  C21 UNL     1      14.825  42.916  -7.999  1.00  0.00     0.037 C 
HETATM   10  C22 UNL     1      13.360  42.637  -7.668  1.00  0.00     0.127 C 
HETATM   11  C23 UNL     1      12.728  42.256  -8.965  1.00  0.00    -0.009 C 
HETATM   12  C24 UNL     1      11.267  42.700  -9.042  1.00  0.00     0.018 C 
HETATM   13  C25 UNL     1      13.488  43.221  -9.884  1.00  0.00     0.017 C 
HETATM   14  C26 UNL     1      12.886  40.832  -9.368  1.00  0.00     0.063 C 
ENDROOT
BRANCH   1  15
HETATM   15  C13 UNL     1      11.402  39.834  -7.620  1.00  0.00     0.035 C 
BRANCH  15  16
HETATM   16  C12 UNL     1      11.418  39.775  -6.107  1.00  0.00     0.034 C 
BRANCH  16  17
HETATM   17  C11 UNL     1      10.711  38.578  -5.568  1.00  0.00     0.122 C 
BRANCH  17  18
HETATM   18  C9  UNL     1      10.057  38.835  -4.230  1.00  0.00     0.010 C 
HETATM   19  C10 UNL     1       8.822  37.964  -4.053  1.00  0.00     0.012 C 
BRANCH  18  20
HETATM   20  C8  UNL     1       9.614  40.273  -4.058  1.00  0.00     0.007 C 
BRANCH  20  21
HETATM   21  C7  UNL     1       8.504  40.420  -3.071  1.00  0.00     0.000 C 
BRANCH  21  22
HETATM   22  C6  UNL     1       9.006  41.151  -1.855  1.00  0.00     0.000 C 
BRANCH  22  23
HETATM   23  C5  UNL     1      10.144  40.452  -1.158  1.00  0.00     0.000 C 
BRANCH  23  24
HETATM   24  C4  UNL     1       9.597  39.479  -0.150  1.00  0.00     0.000 C 
BRANCH  24  25
HETATM   25  C3  UNL     1      10.090  38.070  -0.392  1.00  0.00    -0.000 C 
BRANCH  25  26
HETATM   26  C2  UNL     1       8.971  37.071  -0.452  1.00  0.00    -0.005 C 
HETATM   27  C1  UNL     1       9.434  35.826  -1.146  1.00  0.00     0.005 C 
ENDBRANCH  25  26
ENDBRANCH  24  25
ENDBRANCH  23  24
ENDBRANCH  22  23
ENDBRANCH  21  22
ENDBRANCH  20  21
ENDBRANCH  18  20
ENDBRANCH  17  18
BRANCH  17  28
HETATM   28  O1  UNL     1      11.591  37.500  -5.428  1.00  0.00    -0.395 OA
ATOM     29  H1  UNL     1      11.557  37.203  -4.526  1.00  0.00     0.210 HD
ENDBRANCH  17  28
ENDBRANCH  16  17
ENDBRANCH  15  16
ENDBRANCH   1  15
BRANCH   3  30
HETATM   30  O3  UNL     1      14.603  37.084  -9.258  1.00  0.00    -0.368 OA
ATOM     31  H3  UNL     1      15.270  37.036  -9.933  1.00  0.00     0.212 HD
ENDBRANCH   3  30
BRANCH   5  32
HETATM   32  O5  UNL     1      13.671  40.866 -11.597  1.00  0.00    -0.386 OA
ATOM     33  H5  UNL     1      12.872  40.366 -11.711  1.00  0.00     0.210 HD
ENDBRANCH   5  32
BRANCH   4  34
HETATM   34  O4  UNL     1      13.904  38.452 -11.302  1.00  0.00    -0.388 OA
ATOM     35  H4  UNL     1      14.536  38.306 -11.996  1.00  0.00     0.210 HD
ENDBRANCH   4  34
BRANCH  10  36
HETATM   36  O6  UNL     1      12.823  43.897  -7.309  1.00  0.00    -0.395 OA
ATOM     37  H6  UNL     1      12.389  43.748  -6.477  1.00  0.00     0.210 HD
ENDBRANCH  10  36
TORSDOF 16
ENDMDL
MODEL 3
REMARK VINA RESULT: -7.160421762      2.020      6.846
REMARK  16 active torsions:
REMARK  status: ('A' for Active; 'I' for Inactive)
REMARK    1  A    between atoms: C2_2  and  C3_3 
REMARK    2  A    between atoms: C3_3  and  C4_4 
REMARK    3  A    between atoms: C4_4  and  C5_5 
REMARK    4  A    between atoms: C5_5  and  C6_6 
REMARK    5  A    between atoms: C6_6  and  C7_7 
REMARK    6  A    between atoms: C7_7  and  C8_8 
REMARK    7  A    between atoms: C8_8  and  C9_9 
REMARK    8  A    between atoms: C9_9  and  C11_11 
REMARK    9  A    between atoms: C11_11  and  O1_12 
REMARK   10  A    between atoms: C11_11  and  C12_14 
REMARK   11  A    between atoms: C12_14  and  C13_15 
REMARK   12  A    between atoms: C13_15  and  C14_16 
REMARK   13  A    between atoms: C15_18  and  O3_19 
REMARK   14  A    between atoms: C16_21  and  O4_22 
REMARK   15  A    between atoms: C17_24  and  O5_25 
REMARK   16  A    between atoms: C22_31  and  O6_32 
ROOT
HETATM    1  C14 UNL     1      13.159  39.509  -9.140  1.00  0.00     0.132 C 
HETATM    2  O2  UNL     1      12.621  38.738  -8.082  1.00  0.00    -0.353 OA
HETATM    3  C15 UNL     1      11.326  39.195  -7.827  1.00  0.00     0.288 C 
HETATM    4  C16 UNL     1      11.486  40.481  -7.083  1.00  0.00     0.208 C 
HETATM    5  C17 UNL     1      12.388  41.478  -7.769  1.00  0.00     0.099 C 
HETATM    6  C18 UNL     1      11.459  42.385  -8.574  1.00  0.00     0.023 C 
HETATM    7  C19 UNL     1      10.617  43.236  -7.680  1.00  0.00     0.013 C 
HETATM    8  C20 UNL     1      12.180  43.258  -9.544  1.00  0.00    -0.005 C 
HETATM    9  C21 UNL     1      12.115  42.541 -10.903  1.00  0.00     0.037 C 
HETATM   10  C22 UNL     1      13.393  41.707 -10.971  1.00  0.00     0.127 C 
HETATM   11  C23 UNL     1      14.008  41.818  -9.617  1.00  0.00    -0.009 C 
HETATM   12  C24 UNL     1      15.536  41.776  -9.677  1.00  0.00     0.018 C 
HETATM   13  C25 UNL     1      13.661  43.284  -9.325  1.00  0.00     0.017 C 
HETATM   14  C26 UNL     1      13.478  40.885  -8.586  1.00  0.00     0.063 C 
ENDROOT
BRANCH   1  15
HETATM   15  C13 UNL     1      14.423  38.777  -9.543  1.00  0.00     0.035 C 
BRANCH  15  16
HETATM   16  C12 UNL     1      14.169  37.302  -9.775  1.00  0.00     0.034 C 
BRANCH  16  17
HETATM   17  C11 UNL     1      14.629  36.841 -11.115  1.00  0.00     0.122 C 
BRANCH  17  18
HETATM   18  C9  UNL     1      13.533  36.871 -12.156  1.00  0.00     0.010 C 
HETATM   19  C10 UNL     1      13.140  35.460 -12.570  1.00  0.00     0.012 C 
BRANCH  18  20
HETATM   20  C8  UNL     1      13.938  37.607 -13.416  1.00  0.00     0.007 C 
BRANCH  20  21
HETATM   21  C7  UNL     1      14.062  39.079 -13.207  1.00  0.00     0.000 C 
BRANCH  21  22
HETATM   22  C6  UNL     1      15.407  39.545 -13.695  1.00  0.00     0.000 C 
BRANCH  22  23
HETATM   23  C5  UNL     1      16.461  39.577 -12.618  1.00  0.00     0.000 C 
BRANCH  23  24
HETATM   24  C4  UNL     1      17.719  38.926 -13.122  1.00  0.00     0.000 C 
BRANCH  24  25
HETATM   25  C3  UNL     1      17.543  37.438 -13.336  1.00  0.00    -0.000 C 
BRANCH  25  26
HETATM   26  C2  UNL     1      17.930  37.007 -14.721  1.00  0.00    -0.005 C 
HETATM   27  C1  UNL     1      16.802  36.250 -15.353  1.00  0.00     0.005 C 
ENDBRANCH  25  26
ENDBRANCH  24  25
ENDBRANCH  23  24
ENDBRANCH  22  23
ENDBRANCH  21  22
ENDBRANCH  20  21
ENDBRANCH  18  20
ENDBRANCH  17  18
BRANCH  17  28
HETATM   28  O1  UNL     1      15.135  35.538 -11.047  1.00  0.00    -0.395 OA
ATOM     29  H1  UNL     1      15.670  35.466 -10.265  1.00  0.00     0.210 HD
ENDBRANCH  17  28
ENDBRANCH  16  17
ENDBRANCH  15  16
ENDBRANCH   1  15
BRANCH   3  30
HETATM   30  O3  UNL     1      10.731  38.267  -6.972  1.00  0.00    -0.368 OA
ATOM     31  H3  UNL     1      10.068  37.812  -7.478  1.00  0.00     0.212 HD
ENDBRANCH   3  30
BRANCH   5  32
HETATM   32  O5  UNL     1      12.961  42.216  -6.702  1.00  0.00    -0.386 OA
ATOM     33  H5  UNL     1      13.640  42.734  -7.118  1.00  0.00     0.210 HD
ENDBRANCH   5  32
BRANCH   4  34
HETATM   34  O4  UNL     1      11.999  40.155  -5.807  1.00  0.00    -0.388 OA
ATOM     35  H4  UNL     1      11.382  39.555  -5.407  1.00  0.00     0.210 HD
ENDBRANCH   4  34
BRANCH  10  36
HETATM   36  O6  UNL     1      14.239  42.410 -11.862  1.00  0.00    -0.395 OA
ATOM     37  H6  UNL     1      14.676  41.735 -12.366  1.00  0.00     0.210 HD
ENDBRANCH  10  36
TORSDOF 16
ENDMDL
MODEL 4
REMARK VINA RESULT: -7.111178787      0.681      1.280
REMARK  16 active torsions:
REMARK  status: ('A' for Active; 'I' for Inactive)
REMARK    1  A    between atoms: C2_2  and  C3_3 
REMARK    2  A    between atoms: C3_3  and  C4_4 
REMARK    3  A    between atoms: C4_4  and  C5_5 
REMARK    4  A    between atoms: C5_5  and  C6_6 
REMARK    5  A    between atoms: C6_6  and  C7_7 
REMARK    6  A    between atoms: C7_7  and  C8_8 
REMARK    7  A    between atoms: C8_8  and  C9_9 
REMARK    8  A    between atoms: C9_9  and  C11_11 
REMARK    9  A    between atoms: C11_11  and  O1_12 
REMARK   10  A    between atoms: C11_11  and  C12_14 
REMARK   11  A    between atoms: C12_14  and  C13_15 
REMARK   12  A    between atoms: C13_15  and  C14_16 
REMARK   13  A    between atoms: C15_18  and  O3_19 
REMARK   14  A    between atoms: C16_21  and  O4_22 
REMARK   15  A    between atoms: C17_24  and  O5_25 
REMARK   16  A    between atoms: C22_31  and  O6_32 
ROOT
HETATM    1  C14 UNL     1      14.202  37.753 -12.071  1.00  0.00     0.132 C 
HETATM    2  O2  UNL     1      13.290  36.671 -12.071  1.00  0.00    -0.353 OA
HETATM    3  C15 UNL     1      13.955  35.541 -12.553  1.00  0.00     0.288 C 
HETATM    4  C16 UNL     1      14.054  35.726 -14.032  1.00  0.00     0.208 C 
HETATM    5  C17 UNL     1      14.660  37.045 -14.446  1.00  0.00     0.099 C 
HETATM    6  C18 UNL     1      16.146  36.763 -14.665  1.00  0.00     0.023 C 
HETATM    7  C19 UNL     1      16.366  35.891 -15.857  1.00  0.00     0.013 C 
HETATM    8  C20 UNL     1      16.967  37.999 -14.804  1.00  0.00    -0.005 C 
HETATM    9  C21 UNL     1      17.565  38.281 -13.415  1.00  0.00     0.037 C 
HETATM   10  C22 UNL     1      16.571  39.227 -12.743  1.00  0.00     0.127 C 
HETATM   11  C23 UNL     1      15.396  39.280 -13.660  1.00  0.00    -0.009 C 
HETATM   12  C24 UNL     1      14.710  40.647 -13.633  1.00  0.00     0.018 C 
HETATM   13  C25 UNL     1      16.145  39.235 -14.998  1.00  0.00     0.017 C 
HETATM   14  C26 UNL     1      14.410  38.175 -13.514  1.00  0.00     0.063 C 
ENDROOT
BRANCH   1  15
HETATM   15  C13 UNL     1      13.506  38.841 -11.279  1.00  0.00     0.035 C 
BRANCH  15  16
HETATM   16  C12 UNL     1      14.136  39.037  -9.917  1.00  0.00     0.034 C 
BRANCH  16  17
HETATM   17  C11 UNL     1      13.431  38.285  -8.840  1.00  0.00     0.122 C 
BRANCH  17  18
HETATM   18  C9  UNL     1      12.907  39.183  -7.743  1.00  0.00     0.010 C 
HETATM   19  C10 UNL     1      12.002  38.409  -6.795  1.00  0.00     0.012 C 
BRANCH  18  20
HETATM   20  C8  UNL     1      12.100  40.350  -8.273  1.00  0.00     0.007 C 
BRANCH  20  21
HETATM   21  C7  UNL     1      12.006  41.475  -7.297  1.00  0.00     0.000 C 
BRANCH  21  22
HETATM   22  C6  UNL     1      13.389  41.933  -6.922  1.00  0.00     0.000 C 
BRANCH  22  23
HETATM   23  C5  UNL     1      13.880  43.100  -7.741  1.00  0.00     0.000 C 
BRANCH  23  24
HETATM   24  C4  UNL     1      15.026  42.659  -8.610  1.00  0.00     0.000 C 
BRANCH  24  25
HETATM   25  C3  UNL     1      14.651  42.631 -10.076  1.00  0.00    -0.000 C 
BRANCH  25  26
HETATM   26  C2  UNL     1      13.357  43.341 -10.351  1.00  0.00    -0.005 C 
HETATM   27  C1  UNL     1      12.513  42.521 -11.279  1.00  0.00     0.005 C 
ENDBRANCH  25  26
ENDBRANCH  24  25
ENDBRANCH  23  24
ENDBRANCH  22  23
ENDBRANCH  21  22
ENDBRANCH  20  21
ENDBRANCH  18  20
ENDBRANCH  17  18
BRANCH  17  28
HETATM   28  O1  UNL     1      14.276  37.332  -8.262  1.00  0.00    -0.395 OA
ATOM     29  H1  UNL     1      15.125  37.734  -8.119  1.00  0.00     0.210 HD
ENDBRANCH  17  28
ENDBRANCH  16  17
ENDBRANCH  15  16
ENDBRANCH   1  15
BRANCH   3  30
HETATM   30  O3  UNL     1      13.126  34.447 -12.303  1.00  0.00    -0.368 OA
ATOM     31  H3  UNL     1      13.284  33.818 -12.997  1.00  0.00     0.212 HD
ENDBRANCH   3  30
BRANCH   5  32
HETATM   32  O5  UNL     1      14.045  37.332 -15.691  1.00  0.00    -0.386 OA
ATOM     33  H5  UNL     1      14.111  36.517 -16.175  1.00  0.00     0.210 HD
ENDBRANCH   5  32
BRANCH   4  34
HETATM   34  O4  UNL     1      12.744  35.607 -14.549  1.00  0.00    -0.388 OA
ATOM     35  H4  UNL     1      12.643  34.708 -14.839  1.00  0.00     0.210 HD
ENDBRANCH   4  34
BRANCH  10  36
HETATM   36  O6  UNL     1      17.188  40.500 -12.798  1.00  0.00    -0.395 OA
ATOM     37  H6  UNL     1      16.524  41.106 -12.489  1.00  0.00     0.210 HD
ENDBRANCH  10  36
TORSDOF 16
ENDMDL
MODEL 5
REMARK VINA RESULT: -7.095187778      1.512      3.534
REMARK  16 active torsions:
REMARK  status: ('A' for Active; 'I' for Inactive)
REMARK    1  A    between atoms: C2_2  and  C3_3 
REMARK    2  A    between atoms: C3_3  and  C4_4 
REMARK    3  A    between atoms: C4_4  and  C5_5 
REMARK    4  A    between atoms: C5_5  and  C6_6 
REMARK    5  A    between atoms: C6_6  and  C7_7 
REMARK    6  A    between atoms: C7_7  and  C8_8 
REMARK    7  A    between atoms: C8_8  and  C9_9 
REMARK    8  A    between atoms: C9_9  and  C11_11 
REMARK    9  A    between atoms: C11_11  and  O1_12 
REMARK   10  A    between atoms: C11_11  and  C12_14 
REMARK   11  A    between atoms: C12_14  and  C13_15 
REMARK   12  A    between atoms: C13_15  and  C14_16 
REMARK   13  A    between atoms: C15_18  and  O3_19 
REMARK   14  A    between atoms: C16_21  and  O4_22 
REMARK   15  A    between atoms: C17_24  and  O5_25 
REMARK   16  A    between atoms: C22_31  and  O6_32 
ROOT
HETATM    1  C14 UNL     1      13.548  38.488 -11.193  1.00  0.00     0.132 C 
HETATM    2  O2  UNL     1      13.735  39.820 -10.751  1.00  0.00    -0.353 OA
HETATM    3  C15 UNL     1      13.877  40.636 -11.876  1.00  0.00     0.288 C 
HETATM    4  C16 UNL     1      15.260  40.392 -12.385  1.00  0.00     0.208 C 
HETATM    5  C17 UNL     1      15.583  38.935 -12.612  1.00  0.00     0.099 C 
HETATM    6  C18 UNL     1      15.296  38.678 -14.091  1.00  0.00     0.023 C 
HETATM    7  C19 UNL     1      16.272  39.390 -14.968  1.00  0.00     0.013 C 
HETATM    8  C20 UNL     1      15.283  37.230 -14.446  1.00  0.00    -0.005 C 
HETATM    9  C21 UNL     1      13.809  36.791 -14.426  1.00  0.00     0.037 C 
HETATM   10  C22 UNL     1      13.574  36.266 -13.010  1.00  0.00     0.127 C 
HETATM   11  C23 UNL     1      14.815  36.603 -12.254  1.00  0.00    -0.009 C 
HETATM   12  C24 UNL     1      15.131  35.561 -11.180  1.00  0.00     0.018 C 
HETATM   13  C25 UNL     1      15.839  36.353 -13.368  1.00  0.00     0.017 C 
HETATM   14  C26 UNL     1      14.885  37.986 -11.707  1.00  0.00     0.063 C 
ENDROOT
BRANCH   1  15
HETATM   15  C13 UNL     1      13.120  37.730  -9.954  1.00  0.00     0.035 C 
BRANCH  15  16
HETATM   16  C12 UNL     1      13.556  38.432  -8.686  1.00  0.00     0.034 C 
BRANCH  16  17
HETATM   17  C11 UNL     1      12.467  38.525  -7.673  1.00  0.00     0.122 C 
BRANCH  17  18
HETATM   18  C9  UNL     1      12.222  39.940  -7.201  1.00  0.00     0.010 C 
HETATM   19  C10 UNL     1      11.219  39.964  -6.056  1.00  0.00     0.012 C 
BRANCH  18  20
HETATM   20  C8  UNL     1      11.674  40.837  -8.291  1.00  0.00     0.007 C 
BRANCH  20  21
HETATM   21  C7  UNL     1      12.273  42.204  -8.267  1.00  0.00     0.000 C 
BRANCH  21  22
HETATM   22  C6  UNL     1      13.735  42.105  -7.925  1.00  0.00     0.000 C 
BRANCH  22  23
HETATM   23  C5  UNL     1      14.194  43.147  -6.936  1.00  0.00     0.000 C 
BRANCH  23  24
HETATM   24  C4  UNL     1      15.382  43.883  -7.494  1.00  0.00     0.000 C 
BRANCH  24  25
HETATM   25  C3  UNL     1      15.895  43.252  -8.769  1.00  0.00    -0.000 C 
BRANCH  25  26
HETATM   26  C2  UNL     1      17.203  43.838  -9.214  1.00  0.00    -0.005 C 
HETATM   27  C1  UNL     1      17.593  44.964  -8.306  1.00  0.00     0.005 C 
ENDBRANCH  25  26
ENDBRANCH  24  25
ENDBRANCH  23  24
ENDBRANCH  22  23
ENDBRANCH  21  22
ENDBRANCH  20  21
ENDBRANCH  18  20
ENDBRANCH  17  18
BRANCH  17  28
HETATM   28  O1  UNL     1      12.756  37.733  -6.556  1.00  0.00    -0.395 OA
ATOM     29  H1  UNL     1      12.455  36.849  -6.732  1.00  0.00     0.210 HD
ENDBRANCH  17  28
ENDBRANCH  16  17
ENDBRANCH  15  16
ENDBRANCH   1  15
BRANCH   3  30
HETATM   30  O3  UNL     1      13.801  41.955 -11.430  1.00  0.00    -0.368 OA
ATOM     31  H3  UNL     1      12.906  42.242 -11.570  1.00  0.00     0.212 HD
ENDBRANCH   3  30
BRANCH   5  32
HETATM   32  O5  UNL     1      16.979  38.850 -12.379  1.00  0.00    -0.386 OA
ATOM     33  H5  UNL     1      17.279  38.203 -13.006  1.00  0.00     0.210 HD
ENDBRANCH   5  32
BRANCH   4  34
HETATM   34  O4  UNL     1      16.150  40.947 -11.437  1.00  0.00    -0.388 OA
ATOM     35  H4  UNL     1      16.309  41.845 -11.701  1.00  0.00     0.210 HD
ENDBRANCH   4  34
BRANCH  10  36
HETATM   36  O6  UNL     1      13.549  34.858 -13.145  1.00  0.00    -0.395 OA
ATOM     37  H6  UNL     1      14.419  34.573 -12.892  1.00  0.00     0.210 HD
ENDBRANCH  10  36
TORSDOF 16
ENDMDL
