MODEL 1
REMARK VINA RESULT: -8.669471967      0.000      0.000
REMARK  13 active torsions:
REMARK  status: ('A' for Active; 'I' for Inactive)
REMARK    1  A    between atoms: C4_4  and  C5_5 
REMARK    2  A    between atoms: C7_9  and  N2_10 
REMARK    3  A    between atoms: N4_18  and  C11_19 
REMARK    4  A    between atoms: C11_19  and  C12_20 
REMARK    5  A    between atoms: C12_20  and  C13_21 
REMARK    6  A    between atoms: C13_21  and  C14_22 
REMARK    7  A    between atoms: C15_23  and  C16_24 
REMARK    8  A    between atoms: N5_27  and  C19_28 
REMARK    9  A    between atoms: C19_28  and  C20_29 
REMARK       I    between atoms: C20_29  and  N6_31 
REMARK   10  A    between atoms: N6_31  and  C21_33 
REMARK   11  A    between atoms: C24_36  and  C25_37 
REMARK   12  A    between atoms: C25_37  and  N7_38 
REMARK   13  A    between atoms: C28_41  and  N8_42 
ROOT
HETATM    1  C1  UNL     1      12.040  30.488  17.040  1.00  0.00     0.017 C 
HETATM    2  C2  UNL     1      12.302  30.479  18.222  1.00  0.00    -0.089 C 
HETATM    3  C3  UNL     1      12.620  30.431  19.587  1.00  0.00     0.066 C 
HETATM    4  C4  UNL     1      12.017  30.763  20.662  1.00  0.00     0.041 C 
ENDROOT
BRANCH   4   5
HETATM    5  C5  UNL     1      10.726  31.352  20.932  1.00  0.00     0.064 A 
HETATM    6  C6  UNL     1      10.135  32.405  20.289  1.00  0.00     0.103 A 
HETATM    7  N1  UNL     1      10.647  33.309  19.429  1.00  0.00    -0.188 N 
HETATM    8  C8  UNL     1       8.803  32.742  20.526  1.00  0.00     0.080 A 
HETATM    9  C7  UNL     1       9.649  34.185  19.131  1.00  0.00     0.677 A 
ATOM     10  H1  UNL     1      11.601  33.331  19.070  1.00  0.00     0.184 HD
HETATM   11  N3  UNL     1       8.558  33.840  19.786  1.00  0.00    -0.190 N 
ATOM     12  H3  UNL     1       7.665  34.330  19.739  1.00  0.00     0.184 HD
HETATM   13  C9  UNL     1       8.036  32.022  21.423  1.00  0.00     0.050 A 
HETATM   14  C10 UNL     1       8.667  30.981  22.050  1.00  0.00     0.093 A 
HETATM   15  N4  UNL     1       9.939  30.640  21.838  1.00  0.00    -0.355 N 
BRANCH   9  16
HETATM   16  N2  UNL     1       9.788  35.179  18.330  1.00  0.00    -0.234 N 
ATOM     17  H22 UNL     1      10.103  35.148  17.361  1.00  0.00     0.174 HD
ATOM     18  H21 UNL     1       9.592  36.146  18.589  1.00  0.00     0.174 HD
ENDBRANCH   9  16
BRANCH  15  19
HETATM   19  C11 UNL     1      10.526  29.554  22.572  1.00  0.00     0.129 C 
BRANCH  19  20
HETATM   20  C12 UNL     1      10.363  29.631  24.051  1.00  0.00     0.032 C 
BRANCH  20  21
HETATM   21  C13 UNL     1      11.665  29.808  24.766  1.00  0.00     0.096 C 
BRANCH  21  22
HETATM   22  C14 UNL     1      12.315  31.037  24.303  1.00  0.00    -0.101 C 
HETATM   23  C15 UNL     1      12.860  32.051  23.944  1.00  0.00    -0.067 C 
BRANCH  23  24
HETATM   24  C16 UNL     1      13.522  33.263  23.539  1.00  0.00     0.020 A 
HETATM   25  C17 UNL     1      14.124  34.078  24.501  1.00  0.00     0.038 A 
HETATM   26  C18 UNL     1      14.755  35.232  24.096  1.00  0.00     0.092 A 
HETATM   27  N5  UNL     1      14.822  35.625  22.795  1.00  0.00    -0.358 N 
HETATM   28  C35 UNL     1      14.248  34.854  21.853  1.00  0.00     0.092 A 
HETATM   29  C36 UNL     1      13.611  33.693  22.240  1.00  0.00     0.038 A 
BRANCH  27  30
HETATM   30  C19 UNL     1      15.503  36.841  22.487  1.00  0.00     0.230 C 
BRANCH  30  31
HETATM   31  C20 UNL     1      14.650  37.791  21.680  1.00  0.00     0.240 C 
HETATM   32  O1  UNL     1      14.941  37.877  20.479  1.00  0.00    -0.271 OA
HETATM   33  N6  UNL     1      13.632  38.476  22.344  1.00  0.00    -0.326 N 
ATOM     34  H6  UNL     1      13.523  38.288  23.340  1.00  0.00     0.169 HD
BRANCH  33  35
HETATM   35  C21 UNL     1      12.738  39.404  21.768  1.00  0.00     0.034 A 
HETATM   36  C22 UNL     1      11.875  40.113  22.608  1.00  0.00     0.030 A 
HETATM   37  C23 UNL     1      10.984  41.042  22.148  1.00  0.00     0.011 A 
HETATM   38  C24 UNL     1      10.900  41.323  20.799  1.00  0.00    -0.040 A 
HETATM   39  C33 UNL     1      11.744  40.633  19.963  1.00  0.00     0.011 A 
HETATM   40  C34 UNL     1      12.649  39.689  20.432  1.00  0.00     0.030 A 
BRANCH  38  41
HETATM   41  C25 UNL     1       9.937  42.332  20.277  1.00  0.00     0.166 C 
BRANCH  41  42
HETATM   42  N7  UNL     1      10.630  43.351  19.496  1.00  0.00    -0.362 N 
HETATM   43  C26 UNL     1      10.128  43.747  18.295  1.00  0.00     0.093 A 
HETATM   44  C27 UNL     1      10.788  44.720  17.551  1.00  0.00     0.046 A 
HETATM   45  C28 UNL     1      11.950  45.303  17.997  1.00  0.00     0.032 A 
HETATM   46  C31 UNL     1      12.442  44.889  19.213  1.00  0.00     0.046 A 
HETATM   47  C32 UNL     1      11.763  43.911  19.946  1.00  0.00     0.093 A 
BRANCH  45  48
HETATM   48  N8  UNL     1      12.604  46.295  17.219  1.00  0.00    -0.389 N 
HETATM   49  C29 UNL     1      13.564  47.183  17.873  1.00  0.00     0.149 C 
HETATM   50  C30 UNL     1      12.379  46.489  15.804  1.00  0.00     0.149 C 
ENDBRANCH  45  48
ENDBRANCH  41  42
ENDBRANCH  38  41
ENDBRANCH  33  35
ENDBRANCH  30  31
ENDBRANCH  27  30
ENDBRANCH  23  24
ENDBRANCH  21  22
ENDBRANCH  20  21
ENDBRANCH  19  20
ENDBRANCH  15  19
ENDBRANCH   4   5
TORSDOF 13
ENDMDL
MODEL 2
REMARK VINA RESULT: -7.989398341      2.090      3.767
REMARK  13 active torsions:
REMARK  status: ('A' for Active; 'I' for Inactive)
REMARK    1  A    between atoms: C4_4  and  C5_5 
REMARK    2  A    between atoms: C7_9  and  N2_10 
REMARK    3  A    between atoms: N4_18  and  C11_19 
REMARK    4  A    between atoms: C11_19  and  C12_20 
REMARK    5  A    between atoms: C12_20  and  C13_21 
REMARK    6  A    between atoms: C13_21  and  C14_22 
REMARK    7  A    between atoms: C15_23  and  C16_24 
REMARK    8  A    between atoms: N5_27  and  C19_28 
REMARK    9  A    between atoms: C19_28  and  C20_29 
REMARK       I    between atoms: C20_29  and  N6_31 
REMARK   10  A    between atoms: N6_31  and  C21_33 
REMARK   11  A    between atoms: C24_36  and  C25_37 
REMARK   12  A    between atoms: C25_37  and  N7_38 
REMARK   13  A    between atoms: C28_41  and  N8_42 
ROOT
HETATM    1  C1  UNL     1       9.947  35.726  19.491  1.00  0.00     0.017 C 
HETATM    2  C2  UNL     1       9.575  34.590  19.301  1.00  0.00    -0.089 C 
HETATM    3  C3  UNL     1       9.105  33.288  19.077  1.00  0.00     0.066 C 
HETATM    4  C4  UNL     1       9.298  32.155  19.631  1.00  0.00     0.041 C 
ENDROOT
BRANCH   4   5
HETATM    5  C5  UNL     1      10.111  31.724  20.746  1.00  0.00     0.064 A 
HETATM    6  C6  UNL     1       9.861  31.895  22.080  1.00  0.00     0.103 A 
HETATM    7  N1  UNL     1       8.966  32.680  22.712  1.00  0.00    -0.188 N 
HETATM    8  C8  UNL     1      10.633  31.255  23.048  1.00  0.00     0.080 A 
HETATM    9  C7  UNL     1       9.173  32.524  24.048  1.00  0.00     0.677 A 
ATOM     10  H1  UNL     1       8.267  33.278  22.273  1.00  0.00     0.184 HD
HETATM   11  N3  UNL     1      10.164  31.675  24.238  1.00  0.00    -0.190 N 
ATOM     12  H3  UNL     1      10.521  31.382  25.148  1.00  0.00     0.184 HD
HETATM   13  C9  UNL     1      11.681  30.426  22.689  1.00  0.00     0.050 A 
HETATM   14  C10 UNL     1      11.900  30.287  21.344  1.00  0.00     0.093 A 
HETATM   15  N4  UNL     1      11.174  30.888  20.401  1.00  0.00    -0.355 N 
BRANCH   9  16
HETATM   16  N2  UNL     1       8.489  33.127  24.952  1.00  0.00    -0.234 N 
ATOM     17  H22 UNL     1       7.497  33.363  24.915  1.00  0.00     0.174 HD
ATOM     18  H21 UNL     1       8.878  33.447  25.839  1.00  0.00     0.174 HD
ENDBRANCH   9  16
BRANCH  15  19
HETATM   19  C11 UNL     1      11.505  30.712  19.015  1.00  0.00     0.129 C 
BRANCH  19  20
HETATM   20  C12 UNL     1      12.898  30.250  18.753  1.00  0.00     0.032 C 
BRANCH  20  21
HETATM   21  C13 UNL     1      13.800  31.361  18.316  1.00  0.00     0.096 C 
BRANCH  21  22
HETATM   22  C14 UNL     1      13.569  32.539  19.155  1.00  0.00    -0.101 C 
HETATM   23  C15 UNL     1      13.358  33.501  19.852  1.00  0.00    -0.067 C 
BRANCH  23  24
HETATM   24  C16 UNL     1      13.082  34.635  20.693  1.00  0.00     0.020 A 
HETATM   25  C17 UNL     1      13.585  35.892  20.348  1.00  0.00     0.038 A 
HETATM   26  C18 UNL     1      13.311  36.967  21.163  1.00  0.00     0.092 A 
HETATM   27  N5  UNL     1      12.568  36.867  22.299  1.00  0.00    -0.358 N 
HETATM   28  C35 UNL     1      12.075  35.665  22.650  1.00  0.00     0.092 A 
HETATM   29  C36 UNL     1      12.340  34.576  21.845  1.00  0.00     0.038 A 
BRANCH  27  30
HETATM   30  C19 UNL     1      12.344  38.048  23.071  1.00  0.00     0.230 C 
BRANCH  30  31
HETATM   31  C20 UNL     1      11.373  38.994  22.406  1.00  0.00     0.240 C 
HETATM   32  O1  UNL     1      10.175  38.726  22.568  1.00  0.00    -0.271 OA
HETATM   33  N6  UNL     1      11.899  40.065  21.683  1.00  0.00    -0.326 N 
ATOM     34  H6  UNL     1      12.915  40.145  21.651  1.00  0.00     0.169 HD
BRANCH  33  35
HETATM   35  C21 UNL     1      11.159  41.048  20.991  1.00  0.00     0.034 A 
HETATM   36  C22 UNL     1      10.728  40.770  19.691  1.00  0.00     0.030 A 
HETATM   37  C23 UNL     1       9.994  41.651  18.946  1.00  0.00     0.011 A 
HETATM   38  C24 UNL     1       9.641  42.881  19.462  1.00  0.00    -0.040 A 
HETATM   39  C33 UNL     1      10.058  43.165  20.741  1.00  0.00     0.011 A 
HETATM   40  C34 UNL     1      10.804  42.270  21.497  1.00  0.00     0.030 A 
BRANCH  38  41
HETATM   41  C25 UNL     1       8.841  43.854  18.668  1.00  0.00     0.166 C 
BRANCH  41  42
HETATM   42  N7  UNL     1       9.678  44.962  18.216  1.00  0.00    -0.362 N 
HETATM   43  C26 UNL     1       9.359  46.239  18.560  1.00  0.00     0.093 A 
HETATM   44  C27 UNL     1      10.158  47.295  18.131  1.00  0.00     0.046 A 
HETATM   45  C28 UNL     1      11.275  47.086  17.359  1.00  0.00     0.032 A 
HETATM   46  C31 UNL     1      11.580  45.787  17.021  1.00  0.00     0.046 A 
HETATM   47  C32 UNL     1      10.765  44.740  17.463  1.00  0.00     0.093 A 
BRANCH  45  48
HETATM   48  N8  UNL     1      12.074  48.180  16.935  1.00  0.00    -0.389 N 
HETATM   49  C29 UNL     1      13.417  48.330  17.493  1.00  0.00     0.149 C 
HETATM   50  C30 UNL     1      11.642  49.172  15.975  1.00  0.00     0.149 C 
ENDBRANCH  45  48
ENDBRANCH  41  42
ENDBRANCH  38  41
ENDBRANCH  33  35
ENDBRANCH  30  31
ENDBRANCH  27  30
ENDBRANCH  23  24
ENDBRANCH  21  22
ENDBRANCH  20  21
ENDBRANCH  19  20
ENDBRANCH  15  19
ENDBRANCH   4   5
TORSDOF 13
ENDMDL
MODEL 3
REMARK VINA RESULT: -7.743439640      1.599      1.948
REMARK  13 active torsions:
REMARK  status: ('A' for Active; 'I' for Inactive)
REMARK    1  A    between atoms: C4_4  and  C5_5 
REMARK    2  A    between atoms: C7_9  and  N2_10 
REMARK    3  A    between atoms: N4_18  and  C11_19 
REMARK    4  A    between atoms: C11_19  and  C12_20 
REMARK    5  A    between atoms: C12_20  and  C13_21 
REMARK    6  A    between atoms: C13_21  and  C14_22 
REMARK    7  A    between atoms: C15_23  and  C16_24 
REMARK    8  A    between atoms: N5_27  and  C19_28 
REMARK    9  A    between atoms: C19_28  and  C20_29 
REMARK       I    between atoms: C20_29  and  N6_31 
REMARK   10  A    between atoms: N6_31  and  C21_33 
REMARK   11  A    between atoms: C24_36  and  C25_37 
REMARK   12  A    between atoms: C25_37  and  N7_38 
REMARK   13  A    between atoms: C28_41  and  N8_42 
ROOT
HETATM    1  C1  UNL     1      13.899  32.100  18.791  1.00  0.00     0.017 C 
HETATM    2  C2  UNL     1      12.822  31.562  18.918  1.00  0.00    -0.089 C 
HETATM    3  C3  UNL     1      11.575  30.930  19.025  1.00  0.00     0.066 C 
HETATM    4  C4  UNL     1      10.466  31.220  19.586  1.00  0.00     0.041 C 
ENDROOT
BRANCH   4   5
HETATM    5  C5  UNL     1      10.019  32.344  20.376  1.00  0.00     0.064 A 
HETATM    6  C6  UNL     1       9.839  33.636  19.965  1.00  0.00     0.103 A 
HETATM    7  N1  UNL     1      10.232  34.263  18.837  1.00  0.00    -0.188 N 
HETATM    8  C8  UNL     1       9.217  34.576  20.785  1.00  0.00     0.080 A 
HETATM    9  C7  UNL     1       9.853  35.565  18.952  1.00  0.00     0.677 A 
ATOM     10  H1  UNL     1      10.721  33.841  18.048  1.00  0.00     0.184 HD
HETATM   11  N3  UNL     1       9.249  35.741  20.111  1.00  0.00    -0.190 N 
ATOM     12  H3  UNL     1       8.866  36.625  20.445  1.00  0.00     0.184 HD
HETATM   13  C9  UNL     1       8.762  34.231  22.045  1.00  0.00     0.050 A 
HETATM   14  C10 UNL     1       8.968  32.929  22.419  1.00  0.00     0.093 A 
HETATM   15  N4  UNL     1       9.560  32.014  21.651  1.00  0.00    -0.355 N 
BRANCH   9  16
HETATM   16  N2  UNL     1      10.066  36.453  18.049  1.00  0.00    -0.234 N 
ATOM     17  H22 UNL     1      10.395  36.293  17.097  1.00  0.00     0.174 HD
ATOM     18  H21 UNL     1       9.925  37.453  18.193  1.00  0.00     0.174 HD
ENDBRANCH   9  16
BRANCH  15  19
HETATM   19  C11 UNL     1       9.765  30.682  22.146  1.00  0.00     0.129 C 
BRANCH  19  20
HETATM   20  C12 UNL     1      10.426  30.599  23.479  1.00  0.00     0.032 C 
BRANCH  20  21
HETATM   21  C13 UNL     1      11.915  30.485  23.378  1.00  0.00     0.096 C 
BRANCH  21  22
HETATM   22  C14 UNL     1      12.482  31.782  23.003  1.00  0.00    -0.101 C 
HETATM   23  C15 UNL     1      12.928  32.858  22.690  1.00  0.00    -0.067 C 
BRANCH  23  24
HETATM   24  C16 UNL     1      13.434  34.151  22.313  1.00  0.00     0.020 A 
HETATM   25  C17 UNL     1      13.887  35.033  23.298  1.00  0.00     0.038 A 
HETATM   26  C18 UNL     1      14.369  36.265  22.919  1.00  0.00     0.092 A 
HETATM   27  N5  UNL     1      14.427  36.673  21.622  1.00  0.00    -0.358 N 
HETATM   28  C35 UNL     1      13.994  35.840  20.658  1.00  0.00     0.092 A 
HETATM   29  C36 UNL     1      13.508  34.601  21.019  1.00  0.00     0.038 A 
BRANCH  27  30
HETATM   30  C19 UNL     1      14.947  37.974  21.342  1.00  0.00     0.230 C 
BRANCH  30  31
HETATM   31  C20 UNL     1      14.030  38.783  20.455  1.00  0.00     0.240 C 
HETATM   32  O1  UNL     1      14.489  39.074  19.343  1.00  0.00    -0.271 OA
HETATM   33  N6  UNL     1      12.773  39.124  20.957  1.00  0.00    -0.326 N 
ATOM     34  H6  UNL     1      12.548  38.800  21.897  1.00  0.00     0.169 HD
BRANCH  33  35
HETATM   35  C21 UNL     1      11.784  39.875  20.286  1.00  0.00     0.034 A 
HETATM   36  C22 UNL     1      11.323  41.054  20.878  1.00  0.00     0.030 A 
HETATM   37  C23 UNL     1      10.379  41.856  20.301  1.00  0.00     0.011 A 
HETATM   38  C24 UNL     1       9.829  41.525  19.079  1.00  0.00    -0.040 A 
HETATM   39  C33 UNL     1      10.276  40.368  18.487  1.00  0.00     0.011 A 
HETATM   40  C34 UNL     1      11.235  39.553  19.074  1.00  0.00     0.030 A 
BRANCH  38  41
HETATM   41  C25 UNL     1       8.800  42.385  18.433  1.00  0.00     0.166 C 
BRANCH  41  42
HETATM   42  N7  UNL     1       9.276  43.760  18.317  1.00  0.00    -0.362 N 
HETATM   43  C26 UNL     1      10.310  44.054  17.483  1.00  0.00     0.093 A 
HETATM   44  C27 UNL     1      10.763  45.365  17.371  1.00  0.00     0.046 A 
HETATM   45  C28 UNL     1      10.190  46.389  18.087  1.00  0.00     0.032 A 
HETATM   46  C31 UNL     1       9.147  46.071  18.926  1.00  0.00     0.046 A 
HETATM   47  C32 UNL     1       8.706  44.748  19.024  1.00  0.00     0.093 A 
BRANCH  45  48
HETATM   48  N8  UNL     1      10.670  47.719  17.955  1.00  0.00    -0.389 N 
HETATM   49  C29 UNL     1      11.989  47.936  17.364  1.00  0.00     0.149 C 
HETATM   50  C30 UNL     1       9.930  48.890  18.372  1.00  0.00     0.149 C 
ENDBRANCH  45  48
ENDBRANCH  41  42
ENDBRANCH  38  41
ENDBRANCH  33  35
ENDBRANCH  30  31
ENDBRANCH  27  30
ENDBRANCH  23  24
ENDBRANCH  21  22
ENDBRANCH  20  21
ENDBRANCH  19  20
ENDBRANCH  15  19
ENDBRANCH   4   5
TORSDOF 13
ENDMDL
MODEL 4
REMARK VINA RESULT: -7.645965321      1.977      3.674
REMARK  13 active torsions:
REMARK  status: ('A' for Active; 'I' for Inactive)
REMARK    1  A    between atoms: C4_4  and  C5_5 
REMARK    2  A    between atoms: C7_9  and  N2_10 
REMARK    3  A    between atoms: N4_18  and  C11_19 
REMARK    4  A    between atoms: C11_19  and  C12_20 
REMARK    5  A    between atoms: C12_20  and  C13_21 
REMARK    6  A    between atoms: C13_21  and  C14_22 
REMARK    7  A    between atoms: C15_23  and  C16_24 
REMARK    8  A    between atoms: N5_27  and  C19_28 
REMARK    9  A    between atoms: C19_28  and  C20_29 
REMARK       I    between atoms: C20_29  and  N6_31 
REMARK   10  A    between atoms: N6_31  and  C21_33 
REMARK   11  A    between atoms: C24_36  and  C25_37 
REMARK   12  A    between atoms: C25_37  and  N7_38 
REMARK   13  A    between atoms: C28_41  and  N8_42 
ROOT
HETATM    1  C1  UNL     1      10.350  29.925  25.181  1.00  0.00     0.017 C 
HETATM    2  C2  UNL     1      11.118  30.360  24.351  1.00  0.00    -0.089 C 
HETATM    3  C3  UNL     1      12.025  30.884  23.420  1.00  0.00     0.066 C 
HETATM    4  C4  UNL     1      11.921  31.410  22.261  1.00  0.00     0.041 C 
ENDROOT
BRANCH   4   5
HETATM    5  C5  UNL     1      10.797  31.683  21.395  1.00  0.00     0.064 A 
HETATM    6  C6  UNL     1       9.693  32.442  21.671  1.00  0.00     0.103 A 
HETATM    7  N1  UNL     1       9.232  32.930  22.840  1.00  0.00    -0.188 N 
HETATM    8  C8  UNL     1       8.781  32.781  20.673  1.00  0.00     0.080 A 
HETATM    9  C7  UNL     1       8.060  33.566  22.572  1.00  0.00     0.677 A 
ATOM     10  H1  UNL     1       9.676  32.838  23.753  1.00  0.00     0.184 HD
HETATM   11  N3  UNL     1       7.800  33.474  21.282  1.00  0.00    -0.190 N 
ATOM     12  H3  UNL     1       6.982  33.867  20.818  1.00  0.00     0.184 HD
HETATM   13  C9  UNL     1       8.963  32.357  19.369  1.00  0.00     0.050 A 
HETATM   14  C10 UNL     1      10.078  31.595  19.138  1.00  0.00     0.093 A 
HETATM   15  N4  UNL     1      10.963  31.260  20.076  1.00  0.00    -0.355 N 
BRANCH   9  16
HETATM   16  N2  UNL     1       7.346  34.155  23.463  1.00  0.00    -0.234 N 
ATOM     17  H22 UNL     1       6.902  33.726  24.275  1.00  0.00     0.174 HD
ATOM     18  H21 UNL     1       7.139  35.153  23.454  1.00  0.00     0.174 HD
ENDBRANCH   9  16
BRANCH  15  19
HETATM   19  C11 UNL     1      12.082  30.424  19.745  1.00  0.00     0.129 C 
BRANCH  19  20
HETATM   20  C12 UNL     1      12.631  30.618  18.373  1.00  0.00     0.032 C 
BRANCH  20  21
HETATM   21  C13 UNL     1      13.891  31.427  18.365  1.00  0.00     0.096 C 
BRANCH  21  22
HETATM   22  C14 UNL     1      13.677  32.674  19.104  1.00  0.00    -0.101 C 
HETATM   23  C15 UNL     1      13.496  33.688  19.732  1.00  0.00    -0.067 C 
BRANCH  23  24
HETATM   24  C16 UNL     1      13.278  34.882  20.504  1.00  0.00     0.020 A 
HETATM   25  C17 UNL     1      14.244  35.891  20.508  1.00  0.00     0.038 A 
HETATM   26  C18 UNL     1      14.018  37.028  21.251  1.00  0.00     0.092 A 
HETATM   27  N5  UNL     1      12.891  37.220  21.989  1.00  0.00    -0.358 N 
HETATM   28  C35 UNL     1      11.948  36.261  21.999  1.00  0.00     0.092 A 
HETATM   29  C36 UNL     1      12.158  35.115  21.261  1.00  0.00     0.038 A 
BRANCH  27  30
HETATM   30  C19 UNL     1      12.760  38.439  22.722  1.00  0.00     0.230 C 
BRANCH  30  31
HETATM   31  C20 UNL     1      11.727  39.364  22.122  1.00  0.00     0.240 C 
HETATM   32  O1  UNL     1      10.605  39.316  22.644  1.00  0.00    -0.271 OA
HETATM   33  N6  UNL     1      12.118  40.173  21.055  1.00  0.00    -0.326 N 
ATOM     34  H6  UNL     1      13.087  40.093  20.746  1.00  0.00     0.169 HD
BRANCH  33  35
HETATM   35  C21 UNL     1      11.301  41.093  20.363  1.00  0.00     0.034 A 
HETATM   36  C22 UNL     1      11.276  42.422  20.794  1.00  0.00     0.030 A 
HETATM   37  C23 UNL     1      10.528  43.389  20.181  1.00  0.00     0.011 A 
HETATM   38  C24 UNL     1       9.748  43.082  19.085  1.00  0.00    -0.040 A 
HETATM   39  C33 UNL     1       9.765  41.778  18.652  1.00  0.00     0.011 A 
HETATM   40  C34 UNL     1      10.525  40.796  19.275  1.00  0.00     0.030 A 
BRANCH  38  41
HETATM   41  C25 UNL     1       8.927  44.120  18.404  1.00  0.00     0.166 C 
BRANCH  41  42
HETATM   42  N7  UNL     1       9.769  45.213  17.927  1.00  0.00    -0.362 N 
HETATM   43  C26 UNL     1       9.456  46.500  18.240  1.00  0.00     0.093 A 
HETATM   44  C27 UNL     1      10.260  47.541  17.786  1.00  0.00     0.046 A 
HETATM   45  C28 UNL     1      11.377  47.309  17.020  1.00  0.00     0.032 A 
HETATM   46  C31 UNL     1      11.676  46.001  16.714  1.00  0.00     0.046 A 
HETATM   47  C32 UNL     1      10.856  44.968  17.180  1.00  0.00     0.093 A 
BRANCH  45  48
HETATM   48  N8  UNL     1      12.182  48.389  16.571  1.00  0.00    -0.389 N 
HETATM   49  C29 UNL     1      12.788  48.311  15.244  1.00  0.00     0.149 C 
HETATM   50  C30 UNL     1      12.446  49.578  17.352  1.00  0.00     0.149 C 
ENDBRANCH  45  48
ENDBRANCH  41  42
ENDBRANCH  38  41
ENDBRANCH  33  35
ENDBRANCH  30  31
ENDBRANCH  27  30
ENDBRANCH  23  24
ENDBRANCH  21  22
ENDBRANCH  20  21
ENDBRANCH  19  20
ENDBRANCH  15  19
ENDBRANCH   4   5
TORSDOF 13
ENDMDL
MODEL 5
REMARK VINA RESULT: -7.528559423      2.992      5.011
REMARK  13 active torsions:
REMARK  status: ('A' for Active; 'I' for Inactive)
REMARK    1  A    between atoms: C4_4  and  C5_5 
REMARK    2  A    between atoms: C7_9  and  N2_10 
REMARK    3  A    between atoms: N4_18  and  C11_19 
REMARK    4  A    between atoms: C11_19  and  C12_20 
REMARK    5  A    between atoms: C12_20  and  C13_21 
REMARK    6  A    between atoms: C13_21  and  C14_22 
REMARK    7  A    between atoms: C15_23  and  C16_24 
REMARK    8  A    between atoms: N5_27  and  C19_28 
REMARK    9  A    between atoms: C19_28  and  C20_29 
REMARK       I    between atoms: C20_29  and  N6_31 
REMARK   10  A    between atoms: N6_31  and  C21_33 
REMARK   11  A    between atoms: C24_36  and  C25_37 
REMARK   12  A    between atoms: C25_37  and  N7_38 
REMARK   13  A    between atoms: C28_41  and  N8_42 
ROOT
HETATM    1  C1  UNL     1      10.466  35.849  23.829  1.00  0.00     0.017 C 
HETATM    2  C2  UNL     1      10.051  35.042  23.027  1.00  0.00    -0.089 C 
HETATM    3  C3  UNL     1       9.534  34.125  22.100  1.00  0.00     0.066 C 
HETATM    4  C4  UNL     1       9.584  32.857  21.967  1.00  0.00     0.041 C 
ENDROOT
BRANCH   4   5
HETATM    5  C5  UNL     1      10.217  31.805  22.729  1.00  0.00     0.064 A 
HETATM    6  C6  UNL     1      10.100  31.554  24.068  1.00  0.00     0.103 A 
HETATM    7  N1  UNL     1       9.588  32.308  25.062  1.00  0.00    -0.188 N 
HETATM    8  C8  UNL     1      10.613  30.387  24.633  1.00  0.00     0.080 A 
HETATM    9  C7  UNL     1       9.772  31.618  26.220  1.00  0.00     0.677 A 
ATOM     10  H1  UNL     1       9.147  33.221  24.964  1.00  0.00     0.184 HD
HETATM   11  N3  UNL     1      10.380  30.479  25.956  1.00  0.00    -0.190 N 
ATOM     12  H3  UNL     1      10.636  29.774  26.648  1.00  0.00     0.184 HD
HETATM   13  C9  UNL     1      11.261  29.445  23.855  1.00  0.00     0.050 A 
HETATM   14  C10 UNL     1      11.362  29.738  22.520  1.00  0.00     0.093 A 
HETATM   15  N4  UNL     1      10.878  30.847  21.959  1.00  0.00    -0.355 N 
BRANCH   9  16
HETATM   16  N2  UNL     1       9.397  32.044  27.372  1.00  0.00    -0.234 N 
ATOM     17  H22 UNL     1       8.507  31.859  27.835  1.00  0.00     0.174 HD
ATOM     18  H21 UNL     1       9.971  32.638  27.972  1.00  0.00     0.174 HD
ENDBRANCH   9  16
BRANCH  15  19
HETATM   19  C11 UNL     1      11.066  31.085  20.556  1.00  0.00     0.129 C 
BRANCH  19  20
HETATM   20  C12 UNL     1      12.361  30.598  20.001  1.00  0.00     0.032 C 
BRANCH  20  21
HETATM   21  C13 UNL     1      12.988  31.575  19.057  1.00  0.00     0.096 C 
BRANCH  21  22
HETATM   22  C14 UNL     1      12.891  32.926  19.615  1.00  0.00    -0.101 C 
HETATM   23  C15 UNL     1      12.801  34.046  20.056  1.00  0.00    -0.067 C 
BRANCH  23  24
HETATM   24  C16 UNL     1      12.678  35.388  20.559  1.00  0.00     0.020 A 
HETATM   25  C17 UNL     1      11.653  36.213  20.090  1.00  0.00     0.038 A 
HETATM   26  C18 UNL     1      11.548  37.493  20.584  1.00  0.00     0.092 A 
HETATM   27  N5  UNL     1      12.401  38.002  21.514  1.00  0.00    -0.358 N 
HETATM   28  C35 UNL     1      13.396  37.225  21.979  1.00  0.00     0.092 A 
HETATM   29  C36 UNL     1      13.516  35.938  21.495  1.00  0.00     0.038 A 
BRANCH  27  30
HETATM   30  C19 UNL     1      12.199  39.344  21.958  1.00  0.00     0.230 C 
BRANCH  30  31
HETATM   31  C20 UNL     1      12.160  40.330  20.814  1.00  0.00     0.240 C 
HETATM   32  O1  UNL     1      12.891  40.057  19.852  1.00  0.00    -0.271 OA
HETATM   33  N6  UNL     1      11.321  41.438  20.938  1.00  0.00    -0.326 N 
ATOM     34  H6  UNL     1      10.779  41.513  21.798  1.00  0.00     0.169 HD
BRANCH  33  35
HETATM   35  C21 UNL     1      11.151  42.466  19.985  1.00  0.00     0.034 A 
HETATM   36  C22 UNL     1      11.997  43.576  20.041  1.00  0.00     0.030 A 
HETATM   37  C23 UNL     1      11.921  44.615  19.155  1.00  0.00     0.011 A 
HETATM   38  C24 UNL     1      10.981  44.607  18.145  1.00  0.00    -0.040 A 
HETATM   39  C33 UNL     1      10.143  43.520  18.080  1.00  0.00     0.011 A 
HETATM   40  C34 UNL     1      10.221  42.465  18.980  1.00  0.00     0.030 A 
BRANCH  38  41
HETATM   41  C25 UNL     1      10.882  45.728  17.170  1.00  0.00     0.166 C 
BRANCH  41  42
HETATM   42  N7  UNL     1      10.128  46.841  17.738  1.00  0.00    -0.362 N 
HETATM   43  C26 UNL     1       8.828  46.667  18.104  1.00  0.00     0.093 A 
HETATM   44  C27 UNL     1       8.110  47.727  18.648  1.00  0.00     0.046 A 
HETATM   45  C28 UNL     1       8.679  48.965  18.830  1.00  0.00     0.032 A 
HETATM   46  C31 UNL     1       9.993  49.121  18.453  1.00  0.00     0.046 A 
HETATM   47  C32 UNL     1      10.699  48.043  17.910  1.00  0.00     0.093 A 
BRANCH  45  48
HETATM   48  N8  UNL     1       7.925  50.031  19.388  1.00  0.00    -0.389 N 
HETATM   49  C29 UNL     1       8.431  50.700  20.584  1.00  0.00     0.149 C 
HETATM   50  C30 UNL     1       6.671  50.504  18.844  1.00  0.00     0.149 C 
ENDBRANCH  45  48
ENDBRANCH  41  42
ENDBRANCH  38  41
ENDBRANCH  33  35
ENDBRANCH  30  31
ENDBRANCH  27  30
ENDBRANCH  23  24
ENDBRANCH  21  22
ENDBRANCH  20  21
ENDBRANCH  19  20
ENDBRANCH  15  19
ENDBRANCH   4   5
TORSDOF 13
ENDMDL
