MODEL 1
REMARK VINA RESULT: -8.775417099      0.000      0.000
REMARK  11 active torsions:
REMARK  status: ('A' for Active; 'I' for Inactive)
REMARK    1  A    between atoms: C2_2  and  N1_3 
REMARK    2  A    between atoms: N1_3  and  C4_5 
REMARK    3  A    between atoms: N1_3  and  C6_7 
REMARK    4  A    between atoms: C6_7  and  C7_8 
REMARK    5  A    between atoms: C7_8  and  C8_9 
REMARK    6  A    between atoms: C8_9  and  C9_10 
REMARK    7  A    between atoms: C9_10  and  C10_11 
REMARK    8  A    between atoms: C10_11  and  N2_12 
REMARK    9  A    between atoms: N2_12  and  C11_14 
REMARK   10  A    between atoms: C23_31  and  C24_32 
REMARK   11  A    between atoms: C24_32  and  N6_33 
ROOT
HETATM    1  C11 UNL     1      11.221  41.490  19.832  1.00  0.00     0.118 A 
HETATM    2  C12 UNL     1      10.223  40.638  20.232  1.00  0.00     0.139 A 
HETATM    3  N3  UNL     1      10.534  39.341  20.461  1.00  0.00    -0.354 N 
HETATM    4  C13 UNL     1       9.530  38.386  20.887  1.00  0.00     0.156 C 
HETATM    5  C14 UNL     1      11.797  38.910  20.297  1.00  0.00     0.087 A 
HETATM    6  C15 UNL     1      12.419  37.678  20.448  1.00  0.00    -0.000 A 
HETATM    7  C16 UNL     1      13.778  37.806  20.139  1.00  0.00     0.024 A 
HETATM    8  N4  UNL     1      13.979  39.084  19.806  1.00  0.00    -0.343 N 
ATOM      9  H4  UNL     1      14.876  39.483  19.530  1.00  0.00     0.167 HD
HETATM   10  C17 UNL     1      12.811  39.771  19.891  1.00  0.00     0.135 A 
HETATM   11  N5  UNL     1      12.483  41.057  19.668  1.00  0.00    -0.326 N 
ATOM     12  H5  UNL     1      13.204  41.714  19.370  1.00  0.00     0.169 HD
HETATM   13  C18 UNL     1      14.698  36.620  20.228  1.00  0.00     0.097 C 
HETATM   14  C19 UNL     1      14.317  35.922  21.515  1.00  0.00    -0.045 A 
HETATM   15  C20 UNL     1      15.251  35.427  22.393  1.00  0.00     0.008 A 
HETATM   16  C21 UNL     1      14.880  34.795  23.571  1.00  0.00     0.001 A 
HETATM   17  C22 UNL     1      13.528  34.675  23.847  1.00  0.00     0.009 A 
HETATM   18  C23 UNL     1      12.571  35.164  22.983  1.00  0.00    -0.033 A 
HETATM   19  C32 UNL     1      12.968  35.786  21.819  1.00  0.00    -0.039 A 
HETATM   20  C33 UNL     1      11.984  36.336  20.836  1.00  0.00     0.082 C 
ENDROOT
BRANCH   1  21
HETATM   21  N2  UNL     1      10.981  42.719  19.599  1.00  0.00    -0.375 N 
ATOM     22  H2  UNL     1      10.159  42.916  19.029  1.00  0.00     0.161 HD
BRANCH  21  23
HETATM   23  C10 UNL     1      11.725  43.856  20.040  1.00  0.00     0.121 C 
BRANCH  23  24
HETATM   24  C9  UNL     1      12.148  44.758  18.914  1.00  0.00     0.020 C 
BRANCH  24  25
HETATM   25  C8  UNL     1      13.632  45.031  18.869  1.00  0.00     0.003 C 
BRANCH  25  26
HETATM   26  C7  UNL     1      13.929  46.222  18.025  1.00  0.00     0.028 C 
BRANCH  26  27
HETATM   27  C6  UNL     1      12.929  46.618  17.013  1.00  0.00     0.237 C 
BRANCH  27  28
HETATM   28  N1  UNL     1      12.480  47.957  16.951  1.00  0.00    -0.072 N 
HETATM   29  C3  UNL     1      11.288  48.297  17.663  1.00  0.00     0.272 C 
BRANCH  28  30
HETATM   30  C2  UNL     1      12.290  48.323  15.525  1.00  0.00     0.232 C 
HETATM   31  C1  UNL     1      12.908  47.306  14.616  1.00  0.00     0.035 C 
ENDBRANCH  28  30
BRANCH  28  32
HETATM   32  C4  UNL     1      13.534  48.857  17.397  1.00  0.00     0.232 C 
HETATM   33  C5  UNL     1      13.223  50.286  17.019  1.00  0.00     0.035 C 
ENDBRANCH  28  32
ENDBRANCH  27  28
ENDBRANCH  26  27
ENDBRANCH  25  26
ENDBRANCH  24  25
ENDBRANCH  23  24
ENDBRANCH  21  23
ENDBRANCH   1  21
BRANCH  18  34
HETATM   34  C24 UNL     1      11.111  35.049  23.241  1.00  0.00     0.165 C 
BRANCH  34  35
HETATM   35  N6  UNL     1      10.753  33.650  23.460  1.00  0.00    -0.346 N 
HETATM   36  C25 UNL     1      10.339  33.096  24.733  1.00  0.00     0.133 C 
HETATM   37  C26 UNL     1       9.448  31.942  24.325  1.00  0.00     0.034 C 
HETATM   38  C27 UNL     1       9.480  30.908  25.358  1.00  0.00     0.021 C 
HETATM   39  C29 UNL     1      10.042  31.479  23.045  1.00  0.00     0.120 C 
HETATM   40  C28 UNL     1      10.630  29.988  25.195  1.00  0.00     0.110 C 
HETATM   41  S1  UNL     1      11.128  30.144  23.475  1.00  0.00     0.033 S 
HETATM   42  O1  UNL     1      10.724  28.728  22.668  1.00  0.00    -0.257 OA
HETATM   43  C30 UNL     1       8.958  30.924  22.146  1.00  0.00     0.040 C 
HETATM   44  C31 UNL     1      10.752  32.632  22.478  1.00  0.00     0.241 C 
HETATM   45  O2  UNL     1      11.273  32.699  21.309  1.00  0.00    -0.271 OA
ENDBRANCH  34  35
ENDBRANCH  18  34
TORSDOF 11
ENDMDL
MODEL 2
REMARK VINA RESULT: -8.328247235      1.235      1.859
REMARK  11 active torsions:
REMARK  status: ('A' for Active; 'I' for Inactive)
REMARK    1  A    between atoms: C2_2  and  N1_3 
REMARK    2  A    between atoms: N1_3  and  C4_5 
REMARK    3  A    between atoms: N1_3  and  C6_7 
REMARK    4  A    between atoms: C6_7  and  C7_8 
REMARK    5  A    between atoms: C7_8  and  C8_9 
REMARK    6  A    between atoms: C8_9  and  C9_10 
REMARK    7  A    between atoms: C9_10  and  C10_11 
REMARK    8  A    between atoms: C10_11  and  N2_12 
REMARK    9  A    between atoms: N2_12  and  C11_14 
REMARK   10  A    between atoms: C23_31  and  C24_32 
REMARK   11  A    between atoms: C24_32  and  N6_33 
ROOT
HETATM    1  C11 UNL     1      11.253  41.324  19.571  1.00  0.00     0.118 A 
HETATM    2  C12 UNL     1      10.274  40.363  19.615  1.00  0.00     0.139 A 
HETATM    3  N3  UNL     1      10.646  39.068  19.738  1.00  0.00    -0.354 N 
HETATM    4  C13 UNL     1       9.665  38.001  19.792  1.00  0.00     0.156 C 
HETATM    5  C14 UNL     1      11.948  38.742  19.815  1.00  0.00     0.087 A 
HETATM    6  C15 UNL     1      12.633  37.541  19.943  1.00  0.00    -0.000 A 
HETATM    7  C16 UNL     1      14.009  37.796  19.976  1.00  0.00     0.024 A 
HETATM    8  N4  UNL     1      14.159  39.118  19.868  1.00  0.00    -0.343 N 
ATOM      9  H4  UNL     1      15.054  39.607  19.861  1.00  0.00     0.167 HD
HETATM   10  C17 UNL     1      12.943  39.713  19.771  1.00  0.00     0.135 A 
HETATM   11  N5  UNL     1      12.555  40.996  19.648  1.00  0.00    -0.326 N 
ATOM     12  H5  UNL     1      13.260  41.732  19.613  1.00  0.00     0.169 HD
HETATM   13  C18 UNL     1      14.991  36.667  20.119  1.00  0.00     0.097 C 
HETATM   14  C19 UNL     1      14.403  35.764  21.180  1.00  0.00    -0.045 A 
HETATM   15  C20 UNL     1      15.163  35.201  22.177  1.00  0.00     0.008 A 
HETATM   16  C21 UNL     1      14.602  34.380  23.145  1.00  0.00     0.001 A 
HETATM   17  C22 UNL     1      13.238  34.140  23.084  1.00  0.00     0.009 A 
HETATM   18  C23 UNL     1      12.455  34.693  22.093  1.00  0.00    -0.033 A 
HETATM   19  C32 UNL     1      13.039  35.503  21.145  1.00  0.00    -0.039 A 
HETATM   20  C33 UNL     1      12.248  36.133  20.042  1.00  0.00     0.082 C 
ENDROOT
BRANCH   1  21
HETATM   21  N2  UNL     1      10.958  42.557  19.452  1.00  0.00    -0.375 N 
ATOM     22  H2  UNL     1      10.114  42.767  18.919  1.00  0.00     0.161 HD
BRANCH  21  23
HETATM   23  C10 UNL     1      11.665  43.682  19.975  1.00  0.00     0.121 C 
BRANCH  23  24
HETATM   24  C9  UNL     1      11.958  44.729  18.938  1.00  0.00     0.020 C 
BRANCH  24  25
HETATM   25  C8  UNL     1      13.415  45.118  18.851  1.00  0.00     0.003 C 
BRANCH  25  26
HETATM   26  C7  UNL     1      13.617  46.207  17.854  1.00  0.00     0.028 C 
BRANCH  26  27
HETATM   27  C6  UNL     1      12.417  46.819  17.246  1.00  0.00     0.237 C 
BRANCH  27  28
HETATM   28  N1  UNL     1      12.506  48.090  16.637  1.00  0.00    -0.072 N 
HETATM   29  C3  UNL     1      12.790  48.143  15.236  1.00  0.00     0.272 C 
BRANCH  28  30
HETATM   30  C2  UNL     1      13.540  48.881  17.351  1.00  0.00     0.232 C 
HETATM   31  C1  UNL     1      13.472  50.329  16.975  1.00  0.00     0.035 C 
ENDBRANCH  28  30
BRANCH  28  32
HETATM   32  C4  UNL     1      11.281  48.841  16.869  1.00  0.00     0.232 C 
HETATM   33  C5  UNL     1      10.434  48.182  17.934  1.00  0.00     0.035 C 
ENDBRANCH  28  32
ENDBRANCH  27  28
ENDBRANCH  26  27
ENDBRANCH  25  26
ENDBRANCH  24  25
ENDBRANCH  23  24
ENDBRANCH  21  23
ENDBRANCH   1  21
BRANCH  18  34
HETATM   34  C24 UNL     1      10.991  34.454  21.990  1.00  0.00     0.165 C 
BRANCH  34  35
HETATM   35  N6  UNL     1      10.650  33.176  22.612  1.00  0.00    -0.346 N 
HETATM   36  C25 UNL     1      10.997  31.879  22.071  1.00  0.00     0.133 C 
HETATM   37  C26 UNL     1      11.093  31.012  23.308  1.00  0.00     0.034 C 
HETATM   38  C27 UNL     1      10.776  29.627  22.963  1.00  0.00     0.021 C 
HETATM   39  C29 UNL     1      10.091  31.606  24.229  1.00  0.00     0.120 C 
HETATM   40  C28 UNL     1       9.318  29.365  22.976  1.00  0.00     0.110 C 
HETATM   41  S1  UNL     1       8.608  30.659  24.002  1.00  0.00     0.033 S 
HETATM   42  O1  UNL     1       8.080  29.976  25.440  1.00  0.00    -0.257 OA
HETATM   43  C30 UNL     1      10.540  31.427  25.664  1.00  0.00     0.040 C 
HETATM   44  C31 UNL     1       9.940  33.010  23.824  1.00  0.00     0.241 C 
HETATM   45  O2  UNL     1       9.285  33.912  24.455  1.00  0.00    -0.271 OA
ENDBRANCH  34  35
ENDBRANCH  18  34
TORSDOF 11
ENDMDL
MODEL 3
REMARK VINA RESULT: -8.260316704      2.317      3.244
REMARK  11 active torsions:
REMARK  status: ('A' for Active; 'I' for Inactive)
REMARK    1  A    between atoms: C2_2  and  N1_3 
REMARK    2  A    between atoms: N1_3  and  C4_5 
REMARK    3  A    between atoms: N1_3  and  C6_7 
REMARK    4  A    between atoms: C6_7  and  C7_8 
REMARK    5  A    between atoms: C7_8  and  C8_9 
REMARK    6  A    between atoms: C8_9  and  C9_10 
REMARK    7  A    between atoms: C9_10  and  C10_11 
REMARK    8  A    between atoms: C10_11  and  N2_12 
REMARK    9  A    between atoms: N2_12  and  C11_14 
REMARK   10  A    between atoms: C23_31  and  C24_32 
REMARK   11  A    between atoms: C24_32  and  N6_33 
ROOT
HETATM    1  C11 UNL     1      11.266  41.882  20.666  1.00  0.00     0.118 A 
HETATM    2  C12 UNL     1      12.136  41.011  20.059  1.00  0.00     0.139 A 
HETATM    3  N3  UNL     1      12.557  39.930  20.754  1.00  0.00    -0.354 N 
HETATM    4  C13 UNL     1      13.475  38.968  20.174  1.00  0.00     0.156 C 
HETATM    5  C14 UNL     1      12.124  39.722  22.010  1.00  0.00     0.087 A 
HETATM    6  C15 UNL     1      12.362  38.736  22.958  1.00  0.00    -0.000 A 
HETATM    7  C16 UNL     1      11.633  39.026  24.117  1.00  0.00     0.024 A 
HETATM    8  N4  UNL     1      10.969  40.160  23.883  1.00  0.00    -0.343 N 
ATOM      9  H4  UNL     1      10.349  40.625  24.546  1.00  0.00     0.167 HD
HETATM   10  C17 UNL     1      11.242  40.602  22.628  1.00  0.00     0.135 A 
HETATM   11  N5  UNL     1      10.835  41.673  21.922  1.00  0.00    -0.326 N 
ATOM     12  H5  UNL     1      10.188  42.338  22.347  1.00  0.00     0.169 HD
HETATM   13  C18 UNL     1      11.698  38.112  25.309  1.00  0.00     0.097 C 
HETATM   14  C19 UNL     1      11.614  36.713  24.739  1.00  0.00    -0.045 A 
HETATM   15  C20 UNL     1      10.840  35.728  25.304  1.00  0.00     0.008 A 
HETATM   16  C21 UNL     1      10.772  34.453  24.761  1.00  0.00     0.001 A 
HETATM   17  C22 UNL     1      11.511  34.193  23.617  1.00  0.00     0.009 A 
HETATM   18  C23 UNL     1      12.294  35.164  23.031  1.00  0.00    -0.033 A 
HETATM   19  C32 UNL     1      12.343  36.421  23.592  1.00  0.00    -0.039 A 
HETATM   20  C33 UNL     1      13.174  37.521  23.010  1.00  0.00     0.082 C 
ENDROOT
BRANCH   1  21
HETATM   21  N2  UNL     1      10.842  42.918  20.058  1.00  0.00    -0.375 N 
ATOM     22  H2  UNL     1      10.038  42.782  19.446  1.00  0.00     0.161 HD
BRANCH  21  23
HETATM   23  C10 UNL     1      11.357  44.248  20.130  1.00  0.00     0.121 C 
BRANCH  23  24
HETATM   24  C9  UNL     1      11.952  44.722  18.834  1.00  0.00     0.020 C 
BRANCH  24  25
HETATM   25  C8  UNL     1      13.329  45.327  18.974  1.00  0.00     0.003 C 
BRANCH  25  26
HETATM   26  C7  UNL     1      13.685  46.124  17.766  1.00  0.00     0.028 C 
BRANCH  26  27
HETATM   27  C6  UNL     1      13.301  47.551  17.742  1.00  0.00     0.237 C 
BRANCH  27  28
HETATM   28  N1  UNL     1      12.444  48.033  16.728  1.00  0.00    -0.072 N 
HETATM   29  C3  UNL     1      11.129  48.450  17.104  1.00  0.00     0.272 C 
BRANCH  28  30
HETATM   30  C2  UNL     1      12.318  46.986  15.683  1.00  0.00     0.232 C 
HETATM   31  C1  UNL     1      12.932  47.431  14.391  1.00  0.00     0.035 C 
ENDBRANCH  28  30
BRANCH  28  32
HETATM   32  C4  UNL     1      13.076  49.141  16.026  1.00  0.00     0.232 C 
HETATM   33  C5  UNL     1      13.427  50.259  16.981  1.00  0.00     0.035 C 
ENDBRANCH  28  32
ENDBRANCH  27  28
ENDBRANCH  26  27
ENDBRANCH  25  26
ENDBRANCH  24  25
ENDBRANCH  23  24
ENDBRANCH  21  23
ENDBRANCH   1  21
BRANCH  18  34
HETATM   34  C24 UNL     1      13.104  34.922  21.808  1.00  0.00     0.165 C 
BRANCH  34  35
HETATM   35  N6  UNL     1      12.647  33.706  21.141  1.00  0.00    -0.346 N 
HETATM   36  C25 UNL     1      13.046  32.364  21.511  1.00  0.00     0.133 C 
HETATM   37  C26 UNL     1      11.857  31.529  21.084  1.00  0.00     0.034 C 
HETATM   38  C27 UNL     1      12.300  30.174  20.758  1.00  0.00     0.021 C 
HETATM   39  C29 UNL     1      11.332  32.251  19.897  1.00  0.00     0.120 C 
HETATM   40  C28 UNL     1      12.791  30.064  19.365  1.00  0.00     0.110 C 
HETATM   41  S1  UNL     1      12.062  31.455  18.490  1.00  0.00     0.033 S 
HETATM   42  O1  UNL     1      10.898  30.873  17.431  1.00  0.00    -0.257 OA
HETATM   43  C30 UNL     1       9.832  32.069  19.806  1.00  0.00     0.040 C 
HETATM   44  C31 UNL     1      11.754  33.650  20.045  1.00  0.00     0.241 C 
HETATM   45  O2  UNL     1      11.380  34.633  19.314  1.00  0.00    -0.271 OA
ENDBRANCH  34  35
ENDBRANCH  18  34
TORSDOF 11
ENDMDL
MODEL 4
REMARK VINA RESULT: -8.170714012      1.838      2.114
REMARK  11 active torsions:
REMARK  status: ('A' for Active; 'I' for Inactive)
REMARK    1  A    between atoms: C2_2  and  N1_3 
REMARK    2  A    between atoms: N1_3  and  C4_5 
REMARK    3  A    between atoms: N1_3  and  C6_7 
REMARK    4  A    between atoms: C6_7  and  C7_8 
REMARK    5  A    between atoms: C7_8  and  C8_9 
REMARK    6  A    between atoms: C8_9  and  C9_10 
REMARK    7  A    between atoms: C9_10  and  C10_11 
REMARK    8  A    between atoms: C10_11  and  N2_12 
REMARK    9  A    between atoms: N2_12  and  C11_14 
REMARK   10  A    between atoms: C23_31  and  C24_32 
REMARK   11  A    between atoms: C24_32  and  N6_33 
ROOT
HETATM    1  C11 UNL     1      11.049  41.725  20.238  1.00  0.00     0.118 A 
HETATM    2  C12 UNL     1      10.110  40.789  20.593  1.00  0.00     0.139 A 
HETATM    3  N3  UNL     1      10.491  39.494  20.679  1.00  0.00    -0.354 N 
HETATM    4  C13 UNL     1       9.553  38.452  21.050  1.00  0.00     0.156 C 
HETATM    5  C14 UNL     1      11.765  39.145  20.422  1.00  0.00     0.087 A 
HETATM    6  C15 UNL     1      12.450  37.937  20.426  1.00  0.00    -0.000 A 
HETATM    7  C16 UNL     1      13.786  38.164  20.076  1.00  0.00     0.024 A 
HETATM    8  N4  UNL     1      13.912  39.476  19.863  1.00  0.00    -0.343 N 
ATOM      9  H4  UNL     1      14.775  39.945  19.591  1.00  0.00     0.167 HD
HETATM   10  C17 UNL     1      12.718  40.091  20.063  1.00  0.00     0.135 A 
HETATM   11  N5  UNL     1      12.321  41.375  19.981  1.00  0.00    -0.326 N 
ATOM     12  H5  UNL     1      12.996  42.093  19.721  1.00  0.00     0.169 HD
HETATM   13  C18 UNL     1      14.762  37.023  20.010  1.00  0.00     0.097 C 
HETATM   14  C19 UNL     1      14.473  36.185  21.236  1.00  0.00    -0.045 A 
HETATM   15  C20 UNL     1      15.469  35.655  22.022  1.00  0.00     0.008 A 
HETATM   16  C21 UNL     1      15.182  34.894  23.146  1.00  0.00     0.001 A 
HETATM   17  C22 UNL     1      13.850  34.680  23.464  1.00  0.00     0.009 A 
HETATM   18  C23 UNL     1      12.834  35.200  22.691  1.00  0.00    -0.033 A 
HETATM   19  C32 UNL     1      13.148  35.952  21.580  1.00  0.00    -0.039 A 
HETATM   20  C33 UNL     1      12.095  36.544  20.697  1.00  0.00     0.082 C 
ENDROOT
BRANCH   1  21
HETATM   21  N2  UNL     1      10.742  42.957  20.138  1.00  0.00    -0.375 N 
ATOM     22  H2  UNL     1      10.147  43.333  20.877  1.00  0.00     0.161 HD
BRANCH  21  23
HETATM   23  C10 UNL     1      11.128  43.877  19.116  1.00  0.00     0.121 C 
BRANCH  23  24
HETATM   24  C9  UNL     1      12.096  44.922  19.598  1.00  0.00     0.020 C 
BRANCH  24  25
HETATM   25  C8  UNL     1      13.446  44.869  18.922  1.00  0.00     0.003 C 
BRANCH  25  26
HETATM   26  C7  UNL     1      13.750  46.157  18.240  1.00  0.00     0.028 C 
BRANCH  26  27
HETATM   27  C6  UNL     1      12.883  46.565  17.115  1.00  0.00     0.237 C 
BRANCH  27  28
HETATM   28  N1  UNL     1      12.444  47.904  17.014  1.00  0.00    -0.072 N 
HETATM   29  C3  UNL     1      11.283  48.286  17.757  1.00  0.00     0.272 C 
BRANCH  28  30
HETATM   30  C2  UNL     1      12.200  48.211  15.582  1.00  0.00     0.232 C 
HETATM   31  C1  UNL     1      12.927  47.254  14.689  1.00  0.00     0.035 C 
ENDBRANCH  28  30
BRANCH  28  32
HETATM   32  C4  UNL     1      13.522  48.811  17.379  1.00  0.00     0.232 C 
HETATM   33  C5  UNL     1      13.178  50.237  17.015  1.00  0.00     0.035 C 
ENDBRANCH  28  32
ENDBRANCH  27  28
ENDBRANCH  26  27
ENDBRANCH  25  26
ENDBRANCH  24  25
ENDBRANCH  23  24
ENDBRANCH  21  23
ENDBRANCH   1  21
BRANCH  18  34
HETATM   34  C24 UNL     1      11.394  34.988  22.996  1.00  0.00     0.165 C 
BRANCH  34  35
HETATM   35  N6  UNL     1      10.838  33.979  22.096  1.00  0.00    -0.346 N 
HETATM   36  C25 UNL     1      11.600  32.904  21.495  1.00  0.00     0.133 C 
HETATM   37  C26 UNL     1      10.559  31.822  21.300  1.00  0.00     0.034 C 
HETATM   38  C27 UNL     1      10.933  30.979  20.166  1.00  0.00     0.021 C 
HETATM   39  C29 UNL     1       9.309  32.582  21.048  1.00  0.00     0.120 C 
HETATM   40  C28 UNL     1      10.486  31.546  18.873  1.00  0.00     0.110 C 
HETATM   41  S1  UNL     1       9.154  32.681  19.283  1.00  0.00     0.033 S 
HETATM   42  O1  UNL     1       7.705  32.025  18.748  1.00  0.00    -0.257 OA
HETATM   43  C30 UNL     1       8.119  31.808  21.575  1.00  0.00     0.040 C 
HETATM   44  C31 UNL     1       9.489  33.896  21.679  1.00  0.00     0.241 C 
HETATM   45  O2  UNL     1       8.589  34.795  21.824  1.00  0.00    -0.271 OA
ENDBRANCH  34  35
ENDBRANCH  18  34
TORSDOF 11
ENDMDL
MODEL 5
REMARK VINA RESULT: -8.078203632      2.190      2.953
REMARK  11 active torsions:
REMARK  status: ('A' for Active; 'I' for Inactive)
REMARK    1  A    between atoms: C2_2  and  N1_3 
REMARK    2  A    between atoms: N1_3  and  C4_5 
REMARK    3  A    between atoms: N1_3  and  C6_7 
REMARK    4  A    between atoms: C6_7  and  C7_8 
REMARK    5  A    between atoms: C7_8  and  C8_9 
REMARK    6  A    between atoms: C8_9  and  C9_10 
REMARK    7  A    between atoms: C9_10  and  C10_11 
REMARK    8  A    between atoms: C10_11  and  N2_12 
REMARK    9  A    between atoms: N2_12  and  C11_14 
REMARK   10  A    between atoms: C23_31  and  C24_32 
REMARK   11  A    between atoms: C24_32  and  N6_33 
ROOT
HETATM    1  C11 UNL     1       9.406  42.117  19.766  1.00  0.00     0.118 A 
HETATM    2  C12 UNL     1       8.731  40.924  19.836  1.00  0.00     0.139 A 
HETATM    3  N3  UNL     1       9.446  39.776  19.827  1.00  0.00    -0.354 N 
HETATM    4  C13 UNL     1       8.799  38.481  19.900  1.00  0.00     0.156 C 
HETATM    5  C14 UNL     1      10.788  39.816  19.752  1.00  0.00     0.087 A 
HETATM    6  C15 UNL     1      11.779  38.843  19.725  1.00  0.00    -0.000 A 
HETATM    7  C16 UNL     1      13.031  39.463  19.641  1.00  0.00     0.024 A 
HETATM    8  N4  UNL     1      12.810  40.779  19.616  1.00  0.00    -0.343 N 
ATOM      9  H4  UNL     1      13.534  41.494  19.556  1.00  0.00     0.167 HD
HETATM   10  C17 UNL     1      11.475  41.023  19.681  1.00  0.00     0.135 A 
HETATM   11  N5  UNL     1      10.747  42.155  19.690  1.00  0.00    -0.326 N 
ATOM     12  H5  UNL     1      11.221  43.057  19.640  1.00  0.00     0.169 HD
HETATM   13  C18 UNL     1      14.289  38.641  19.605  1.00  0.00     0.097 C 
HETATM   14  C19 UNL     1      14.089  37.566  20.650  1.00  0.00    -0.045 A 
HETATM   15  C20 UNL     1      15.080  37.190  21.525  1.00  0.00     0.008 A 
HETATM   16  C21 UNL     1      14.873  36.206  22.481  1.00  0.00     0.001 A 
HETATM   17  C22 UNL     1      13.625  35.605  22.537  1.00  0.00     0.009 A 
HETATM   18  C23 UNL     1      12.615  35.965  21.670  1.00  0.00    -0.033 A 
HETATM   19  C32 UNL     1      12.849  36.944  20.730  1.00  0.00    -0.039 A 
HETATM   20  C33 UNL     1      11.798  37.381  19.759  1.00  0.00     0.082 C 
ENDROOT
BRANCH   1  21
HETATM   21  N2  UNL     1       8.781  43.227  19.766  1.00  0.00    -0.375 N 
ATOM     22  H2  UNL     1       8.074  43.344  19.039  1.00  0.00     0.161 HD
BRANCH  21  23
HETATM   23  C10 UNL     1       8.949  44.327  20.660  1.00  0.00     0.121 C 
BRANCH  23  24
HETATM   24  C9  UNL     1       9.517  45.549  19.992  1.00  0.00     0.020 C 
BRANCH  24  25
HETATM   25  C8  UNL     1       8.991  45.788  18.597  1.00  0.00     0.003 C 
BRANCH  25  26
HETATM   26  C7  UNL     1      10.016  46.458  17.749  1.00  0.00     0.028 C 
BRANCH  26  27
HETATM   27  C6  UNL     1      11.313  45.776  17.564  1.00  0.00     0.237 C 
BRANCH  27  28
HETATM   28  N1  UNL     1      12.464  46.528  17.237  1.00  0.00    -0.072 N 
HETATM   29  C3  UNL     1      12.822  46.640  15.857  1.00  0.00     0.272 C 
BRANCH  28  30
HETATM   30  C2  UNL     1      13.621  45.957  17.972  1.00  0.00     0.232 C 
HETATM   31  C1  UNL     1      13.173  45.002  19.035  1.00  0.00     0.035 C 
ENDBRANCH  28  30
BRANCH  28  32
HETATM   32  C4  UNL     1      12.349  47.875  17.776  1.00  0.00     0.232 C 
HETATM   33  C5  UNL     1      13.557  48.709  17.416  1.00  0.00     0.035 C 
ENDBRANCH  28  32
ENDBRANCH  27  28
ENDBRANCH  26  27
ENDBRANCH  25  26
ENDBRANCH  24  25
ENDBRANCH  23  24
ENDBRANCH  21  23
ENDBRANCH   1  21
BRANCH  18  34
HETATM   34  C24 UNL     1      11.266  35.339  21.695  1.00  0.00     0.165 C 
BRANCH  34  35
HETATM   35  N6  UNL     1      11.315  34.026  21.056  1.00  0.00    -0.346 N 
HETATM   36  C25 UNL     1      11.843  32.829  21.677  1.00  0.00     0.133 C 
HETATM   37  C26 UNL     1      11.060  31.724  20.999  1.00  0.00     0.034 C 
HETATM   38  C27 UNL     1      11.857  30.499  20.975  1.00  0.00     0.021 C 
HETATM   39  C29 UNL     1      10.810  32.259  19.637  1.00  0.00     0.120 C 
HETATM   40  C28 UNL     1      12.786  30.456  19.822  1.00  0.00     0.110 C 
HETATM   41  S1  UNL     1      12.106  31.605  18.618  1.00  0.00     0.033 S 
HETATM   42  O1  UNL     1      11.497  30.728  17.323  1.00  0.00    -0.257 OA
HETATM   43  C30 UNL     1       9.493  31.730  19.109  1.00  0.00     0.040 C 
HETATM   44  C31 UNL     1      10.859  33.723  19.752  1.00  0.00     0.241 C 
HETATM   45  O2  UNL     1      10.545  34.564  18.838  1.00  0.00    -0.271 OA
ENDBRANCH  34  35
ENDBRANCH  18  34
TORSDOF 11
ENDMDL
