MODEL 1
REMARK VINA RESULT: -6.830112043      0.000      0.000
REMARK  11 active torsions:
REMARK  status: ('A' for Active; 'I' for Inactive)
REMARK    1  A    between atoms: C2_2  and  C3_3 
REMARK    2  A    between atoms: C2_2  and  O4_15 
REMARK    3  A    between atoms: C3_3  and  C4_4 
REMARK    4  A    between atoms: C6_6  and  O1_7 
REMARK    5  A    between atoms: C7_9  and  O2_10 
REMARK    6  A    between atoms: O4_15  and  C10_16 
REMARK    7  A    between atoms: C10_16  and  O5_17 
REMARK    8  A    between atoms: C10_16  and  C11_19 
REMARK    9  A    between atoms: C11_19  and  N1_21 
REMARK   10  A    between atoms: N1_21  and  C13_23 
REMARK   11  A    between atoms: C13_23  and  C14_24 
ROOT
HETATM    1  C1  UNL     1      38.348  24.337  37.644  1.00  0.00     0.040 C 
HETATM    2  C2  UNL     1      38.661  24.465  39.096  1.00  0.00     0.123 C 
ENDROOT
BRANCH   2   3
HETATM    3  C3  UNL     1      37.439  24.492  39.973  1.00  0.00     0.063 C 
BRANCH   3   4
HETATM    4  C4  UNL     1      37.571  23.439  41.041  1.00  0.00     0.127 C 
HETATM    5  C5  UNL     1      36.192  23.102  41.550  1.00  0.00     0.066 C 
HETATM    6  C6  UNL     1      36.148  23.087  43.062  1.00  0.00     0.151 C 
HETATM    7  C7  UNL     1      37.354  22.310  43.550  1.00  0.00     0.175 C 
HETATM    8  C8  UNL     1      38.618  22.885  43.024  1.00  0.00     0.149 C 
HETATM    9  C9  UNL     1      39.544  21.756  42.610  1.00  0.00     0.042 C 
HETATM   10  O3  UNL     1      38.445  23.827  42.024  1.00  0.00    -0.378 OA
BRANCH   6  11
HETATM   11  O1  UNL     1      34.970  22.502  43.451  1.00  0.00    -0.393 OA
ATOM     12  H1  UNL     1      34.953  22.471  44.400  1.00  0.00     0.210 HD
ENDBRANCH   6  11
BRANCH   7  13
HETATM   13  O2  UNL     1      37.213  20.936  43.273  1.00  0.00    -0.390 OA
ATOM     14  H2  UNL     1      37.453  20.745  42.374  1.00  0.00     0.210 HD
ENDBRANCH   7  13
ENDBRANCH   3   4
ENDBRANCH   2   3
BRANCH   2  15
HETATM   15  O4  UNL     1      39.494  25.561  39.257  1.00  0.00    -0.354 OA
BRANCH  15  16
HETATM   16  C10 UNL     1      38.788  26.711  39.616  1.00  0.00     0.279 C 
BRANCH  16  17
HETATM   17  O5  UNL     1      38.748  27.637  38.594  1.00  0.00    -0.369 OA
ATOM     18  H5  UNL     1      39.281  28.401  38.782  1.00  0.00     0.212 HD
ENDBRANCH  16  17
BRANCH  16  19
HETATM   19  C11 UNL     1      39.582  27.287  40.822  1.00  0.00     0.132 C 
HETATM   20  C12 UNL     1      40.855  26.497  40.901  1.00  0.00     0.037 C 
BRANCH  19  21
HETATM   21  N1  UNL     1      39.645  28.674  40.848  1.00  0.00    -0.384 N 
ATOM     22  H1  UNL     1      38.757  29.174  40.895  1.00  0.00     0.159 HD
BRANCH  21  23
HETATM   23  C13 UNL     1      40.792  29.445  40.817  1.00  0.00     0.168 C 
BRANCH  23  24
HETATM   24  C14 UNL     1      40.971  30.454  39.770  1.00  0.00     0.214 C 
HETATM   25  O6  UNL     1      40.560  31.626  39.746  1.00  0.00    -0.644 OA
HETATM   26  O7  UNL     1      41.708  30.076  38.620  1.00  0.00    -0.644 OA
ENDBRANCH  23  24
ENDBRANCH  21  23
ENDBRANCH  19  21
ENDBRANCH  16  19
ENDBRANCH  15  16
ENDBRANCH   2  15
TORSDOF 11
ENDMDL
MODEL 2
REMARK VINA RESULT: -6.750047218      1.314      1.805
REMARK  11 active torsions:
REMARK  status: ('A' for Active; 'I' for Inactive)
REMARK    1  A    between atoms: C2_2  and  C3_3 
REMARK    2  A    between atoms: C2_2  and  O4_15 
REMARK    3  A    between atoms: C3_3  and  C4_4 
REMARK    4  A    between atoms: C6_6  and  O1_7 
REMARK    5  A    between atoms: C7_9  and  O2_10 
REMARK    6  A    between atoms: O4_15  and  C10_16 
REMARK    7  A    between atoms: C10_16  and  O5_17 
REMARK    8  A    between atoms: C10_16  and  C11_19 
REMARK    9  A    between atoms: C11_19  and  N1_21 
REMARK   10  A    between atoms: N1_21  and  C13_23 
REMARK   11  A    between atoms: C13_23  and  C14_24 
ROOT
HETATM    1  C1  UNL     1      38.916  24.116  37.515  1.00  0.00     0.040 C 
HETATM    2  C2  UNL     1      38.599  24.525  38.912  1.00  0.00     0.123 C 
ENDROOT
BRANCH   2   3
HETATM    3  C3  UNL     1      37.186  25.011  39.089  1.00  0.00     0.063 C 
BRANCH   3   4
HETATM    4  C4  UNL     1      36.565  24.314  40.270  1.00  0.00     0.127 C 
HETATM    5  C5  UNL     1      35.093  24.137  39.998  1.00  0.00     0.066 C 
HETATM    6  C6  UNL     1      34.255  24.562  41.184  1.00  0.00     0.151 C 
HETATM    7  C7  UNL     1      34.879  23.962  42.427  1.00  0.00     0.175 C 
HETATM    8  C8  UNL     1      36.303  24.362  42.564  1.00  0.00     0.149 C 
HETATM    9  C9  UNL     1      37.116  23.163  43.019  1.00  0.00     0.042 C 
HETATM   10  O3  UNL     1      36.837  24.972  41.442  1.00  0.00    -0.378 OA
BRANCH   6  11
HETATM   11  O1  UNL     1      32.974  24.113  40.986  1.00  0.00    -0.393 OA
ATOM     12  H1  UNL     1      32.500  24.200  41.806  1.00  0.00     0.210 HD
ENDBRANCH   6  11
BRANCH   7  13
HETATM   13  O2  UNL     1      34.690  22.567  42.462  1.00  0.00    -0.390 OA
ATOM     14  H2  UNL     1      34.907  22.173  41.625  1.00  0.00     0.210 HD
ENDBRANCH   7  13
ENDBRANCH   3   4
ENDBRANCH   2   3
BRANCH   2  15
HETATM   15  O4  UNL     1      39.562  25.435  39.320  1.00  0.00    -0.354 OA
BRANCH  15  16
HETATM   16  C10 UNL     1      39.084  26.747  39.313  1.00  0.00     0.279 C 
BRANCH  16  17
HETATM   17  O5  UNL     1      39.652  27.501  38.306  1.00  0.00    -0.369 OA
ATOM     18  H5  UNL     1      40.175  28.217  38.647  1.00  0.00     0.212 HD
ENDBRANCH  16  17
BRANCH  16  19
HETATM   19  C11 UNL     1      39.501  27.313  40.698  1.00  0.00     0.132 C 
HETATM   20  C12 UNL     1      40.715  26.539  41.121  1.00  0.00     0.037 C 
BRANCH  19  21
HETATM   21  N1  UNL     1      39.530  28.701  40.757  1.00  0.00    -0.384 N 
ATOM     22  H1  UNL     1      38.630  29.181  40.738  1.00  0.00     0.159 HD
BRANCH  21  23
HETATM   23  C13 UNL     1      40.657  29.496  40.840  1.00  0.00     0.168 C 
BRANCH  23  24
HETATM   24  C14 UNL     1      40.932  30.491  39.801  1.00  0.00     0.214 C 
HETATM   25  O6  UNL     1      40.619  31.693  39.776  1.00  0.00    -0.644 OA
HETATM   26  O7  UNL     1      41.652  30.059  38.658  1.00  0.00    -0.644 OA
ENDBRANCH  23  24
ENDBRANCH  21  23
ENDBRANCH  19  21
ENDBRANCH  16  19
ENDBRANCH  15  16
ENDBRANCH   2  15
TORSDOF 11
ENDMDL
MODEL 3
REMARK VINA RESULT: -6.579027478      1.451      1.865
REMARK  11 active torsions:
REMARK  status: ('A' for Active; 'I' for Inactive)
REMARK    1  A    between atoms: C2_2  and  C3_3 
REMARK    2  A    between atoms: C2_2  and  O4_15 
REMARK    3  A    between atoms: C3_3  and  C4_4 
REMARK    4  A    between atoms: C6_6  and  O1_7 
REMARK    5  A    between atoms: C7_9  and  O2_10 
REMARK    6  A    between atoms: O4_15  and  C10_16 
REMARK    7  A    between atoms: C10_16  and  O5_17 
REMARK    8  A    between atoms: C10_16  and  C11_19 
REMARK    9  A    between atoms: C11_19  and  N1_21 
REMARK   10  A    between atoms: N1_21  and  C13_23 
REMARK   11  A    between atoms: C13_23  and  C14_24 
ROOT
HETATM    1  C1  UNL     1      39.191  23.176  38.256  1.00  0.00     0.040 C 
HETATM    2  C2  UNL     1      38.737  24.044  39.379  1.00  0.00     0.123 C 
ENDROOT
BRANCH   2   3
HETATM    3  C3  UNL     1      37.242  24.205  39.447  1.00  0.00     0.063 C 
BRANCH   3   4
HETATM    4  C4  UNL     1      36.735  23.606  40.731  1.00  0.00     0.127 C 
HETATM    5  C5  UNL     1      35.355  24.152  40.998  1.00  0.00     0.066 C 
HETATM    6  C6  UNL     1      35.215  24.625  42.429  1.00  0.00     0.151 C 
HETATM    7  C7  UNL     1      35.800  23.554  43.327  1.00  0.00     0.175 C 
HETATM    8  C8  UNL     1      37.208  23.253  42.964  1.00  0.00     0.149 C 
HETATM    9  C9  UNL     1      37.429  21.752  43.026  1.00  0.00     0.042 C 
HETATM   10  O3  UNL     1      37.618  23.802  41.761  1.00  0.00    -0.378 OA
BRANCH   6  11
HETATM   11  O1  UNL     1      33.883  24.834  42.682  1.00  0.00    -0.393 OA
ATOM     12  H1  UNL     1      33.415  24.029  42.490  1.00  0.00     0.210 HD
ENDBRANCH   6  11
BRANCH   7  13
HETATM   13  O2  UNL     1      34.977  22.411  43.349  1.00  0.00    -0.390 OA
ATOM     14  H2  UNL     1      34.101  22.617  43.044  1.00  0.00     0.210 HD
ENDBRANCH   7  13
ENDBRANCH   3   4
ENDBRANCH   2   3
BRANCH   2  15
HETATM   15  O4  UNL     1      39.429  25.243  39.299  1.00  0.00    -0.354 OA
BRANCH  15  16
HETATM   16  C10 UNL     1      40.567  25.249  40.108  1.00  0.00     0.279 C 
BRANCH  16  17
HETATM   17  O5  UNL     1      40.265  25.004  41.433  1.00  0.00    -0.369 OA
ATOM     18  H5  UNL     1      40.810  25.511  42.023  1.00  0.00     0.212 HD
ENDBRANCH  16  17
BRANCH  16  19
HETATM   19  C11 UNL     1      41.141  26.684  39.952  1.00  0.00     0.132 C 
HETATM   20  C12 UNL     1      42.481  26.532  39.296  1.00  0.00     0.037 C 
BRANCH  19  21
HETATM   21  N1  UNL     1      40.235  27.602  39.434  1.00  0.00    -0.384 N 
ATOM     22  H1  UNL     1      39.680  27.300  38.634  1.00  0.00     0.159 HD
BRANCH  21  23
HETATM   23  C13 UNL     1      40.013  28.886  39.896  1.00  0.00     0.168 C 
BRANCH  23  24
HETATM   24  C14 UNL     1      41.103  29.863  39.905  1.00  0.00     0.214 C 
HETATM   25  O6  UNL     1      41.573  30.492  40.868  1.00  0.00    -0.644 OA
HETATM   26  O7  UNL     1      41.729  30.153  38.666  1.00  0.00    -0.644 OA
ENDBRANCH  23  24
ENDBRANCH  21  23
ENDBRANCH  19  21
ENDBRANCH  16  19
ENDBRANCH  15  16
ENDBRANCH   2  15
TORSDOF 11
ENDMDL
MODEL 4
REMARK VINA RESULT: -6.497753309      1.583      2.214
REMARK  11 active torsions:
REMARK  status: ('A' for Active; 'I' for Inactive)
REMARK    1  A    between atoms: C2_2  and  C3_3 
REMARK    2  A    between atoms: C2_2  and  O4_15 
REMARK    3  A    between atoms: C3_3  and  C4_4 
REMARK    4  A    between atoms: C6_6  and  O1_7 
REMARK    5  A    between atoms: C7_9  and  O2_10 
REMARK    6  A    between atoms: O4_15  and  C10_16 
REMARK    7  A    between atoms: C10_16  and  O5_17 
REMARK    8  A    between atoms: C10_16  and  C11_19 
REMARK    9  A    between atoms: C11_19  and  N1_21 
REMARK   10  A    between atoms: N1_21  and  C13_23 
REMARK   11  A    between atoms: C13_23  and  C14_24 
ROOT
HETATM    1  C1  UNL     1      42.231  23.952  40.475  1.00  0.00     0.040 C 
HETATM    2  C2  UNL     1      40.741  23.938  40.455  1.00  0.00     0.123 C 
ENDROOT
BRANCH   2   3
HETATM    3  C3  UNL     1      40.155  22.560  40.301  1.00  0.00     0.063 C 
BRANCH   3   4
HETATM    4  C4  UNL     1      39.309  22.243  41.505  1.00  0.00     0.127 C 
HETATM    5  C5  UNL     1      37.875  22.112  41.057  1.00  0.00     0.066 C 
HETATM    6  C6  UNL     1      36.941  22.892  41.957  1.00  0.00     0.151 C 
HETATM    7  C7  UNL     1      37.324  22.589  43.391  1.00  0.00     0.175 C 
HETATM    8  C8  UNL     1      38.753  22.902  43.647  1.00  0.00     0.149 C 
HETATM    9  C9  UNL     1      39.358  21.805  44.503  1.00  0.00     0.042 C 
HETATM   10  O3  UNL     1      39.496  23.159  42.507  1.00  0.00    -0.378 OA
BRANCH   6  11
HETATM   11  O1  UNL     1      35.655  22.505  41.678  1.00  0.00    -0.393 OA
ATOM     12  H1  UNL     1      35.328  22.007  42.419  1.00  0.00     0.210 HD
ENDBRANCH   6  11
BRANCH   7  13
HETATM   13  O2  UNL     1      36.976  21.269  43.737  1.00  0.00    -0.390 OA
ATOM     14  H2  UNL     1      37.733  20.790  44.053  1.00  0.00     0.210 HD
ENDBRANCH   7  13
ENDBRANCH   3   4
ENDBRANCH   2   3
BRANCH   2  15
HETATM   15  O4  UNL     1      40.319  24.840  39.490  1.00  0.00    -0.354 OA
BRANCH  15  16
HETATM   16  C10 UNL     1      39.758  25.989  40.052  1.00  0.00     0.279 C 
BRANCH  16  17
HETATM   17  O5  UNL     1      38.647  25.703  40.820  1.00  0.00    -0.369 OA
ATOM     18  H5  UNL     1      37.838  25.811  40.333  1.00  0.00     0.212 HD
ENDBRANCH  16  17
BRANCH  16  19
HETATM   19  C11 UNL     1      39.348  26.853  38.828  1.00  0.00     0.132 C 
HETATM   20  C12 UNL     1      38.289  26.077  38.102  1.00  0.00     0.037 C 
BRANCH  19  21
HETATM   21  N1  UNL     1      39.119  28.190  39.130  1.00  0.00    -0.384 N 
ATOM     22  H1  UNL     1      38.281  28.614  38.732  1.00  0.00     0.159 HD
BRANCH  21  23
HETATM   23  C13 UNL     1      39.915  29.003  39.915  1.00  0.00     0.168 C 
BRANCH  23  24
HETATM   24  C14 UNL     1      41.165  29.544  39.380  1.00  0.00     0.214 C 
HETATM   25  O6  UNL     1      41.457  29.800  38.199  1.00  0.00    -0.644 OA
HETATM   26  O7  UNL     1      42.202  29.827  40.304  1.00  0.00    -0.644 OA
ENDBRANCH  23  24
ENDBRANCH  21  23
ENDBRANCH  19  21
ENDBRANCH  16  19
ENDBRANCH  15  16
ENDBRANCH   2  15
TORSDOF 11
ENDMDL
MODEL 5
REMARK VINA RESULT: -6.468158122      1.864      2.706
REMARK  11 active torsions:
REMARK  status: ('A' for Active; 'I' for Inactive)
REMARK    1  A    between atoms: C2_2  and  C3_3 
REMARK    2  A    between atoms: C2_2  and  O4_15 
REMARK    3  A    between atoms: C3_3  and  C4_4 
REMARK    4  A    between atoms: C6_6  and  O1_7 
REMARK    5  A    between atoms: C7_9  and  O2_10 
REMARK    6  A    between atoms: O4_15  and  C10_16 
REMARK    7  A    between atoms: C10_16  and  O5_17 
REMARK    8  A    between atoms: C10_16  and  C11_19 
REMARK    9  A    between atoms: C11_19  and  N1_21 
REMARK   10  A    between atoms: N1_21  and  C13_23 
REMARK   11  A    between atoms: C13_23  and  C14_24 
ROOT
HETATM    1  C1  UNL     1      37.495  24.879  38.060  1.00  0.00     0.040 C 
HETATM    2  C2  UNL     1      38.490  24.473  39.091  1.00  0.00     0.123 C 
ENDROOT
BRANCH   2   3
HETATM    3  C3  UNL     1      37.870  24.104  40.412  1.00  0.00     0.063 C 
BRANCH   3   4
HETATM    4  C4  UNL     1      36.376  24.013  40.251  1.00  0.00     0.127 C 
HETATM    5  C5  UNL     1      35.728  24.759  41.389  1.00  0.00     0.066 C 
HETATM    6  C6  UNL     1      34.622  23.946  42.025  1.00  0.00     0.151 C 
HETATM    7  C7  UNL     1      33.774  23.371  40.909  1.00  0.00     0.175 C 
HETATM    8  C8  UNL     1      34.594  22.572  39.963  1.00  0.00     0.149 C 
HETATM    9  C9  UNL     1      34.148  22.869  38.543  1.00  0.00     0.042 C 
HETATM   10  O3  UNL     1      35.961  22.712  40.133  1.00  0.00    -0.378 OA
BRANCH   6  11
HETATM   11  O1  UNL     1      33.897  24.776  42.843  1.00  0.00    -0.393 OA
ATOM     12  H1  UNL     1      33.809  25.617  42.409  1.00  0.00     0.210 HD
ENDBRANCH   6  11
BRANCH   7  13
HETATM   13  O2  UNL     1      33.024  24.381  40.275  1.00  0.00    -0.390 OA
ATOM     14  H2  UNL     1      33.551  24.846  39.637  1.00  0.00     0.210 HD
ENDBRANCH   7  13
ENDBRANCH   3   4
ENDBRANCH   2   3
BRANCH   2  15
HETATM   15  O4  UNL     1      39.447  25.472  39.179  1.00  0.00    -0.354 OA
BRANCH  15  16
HETATM   16  C10 UNL     1      38.878  26.729  39.395  1.00  0.00     0.279 C 
BRANCH  16  17
HETATM   17  O5  UNL     1      39.128  27.599  38.353  1.00  0.00    -0.369 OA
ATOM     18  H5  UNL     1      38.329  27.883  37.925  1.00  0.00     0.212 HD
ENDBRANCH  16  17
BRANCH  16  19
HETATM   19  C11 UNL     1      39.565  27.242  40.691  1.00  0.00     0.132 C 
HETATM   20  C12 UNL     1      40.837  26.459  40.830  1.00  0.00     0.037 C 
BRANCH  19  21
HETATM   21  N1  UNL     1      39.608  28.626  40.799  1.00  0.00    -0.384 N 
ATOM     22  H1  UNL     1      38.713  29.110  40.869  1.00  0.00     0.159 HD
BRANCH  21  23
HETATM   23  C13 UNL     1      40.744  29.413  40.821  1.00  0.00     0.168 C 
BRANCH  23  24
HETATM   24  C14 UNL     1      40.955  30.428  39.787  1.00  0.00     0.214 C 
HETATM   25  O6  UNL     1      40.512  31.589  39.739  1.00  0.00    -0.644 OA
HETATM   26  O7  UNL     1      41.767  30.075  38.681  1.00  0.00    -0.644 OA
ENDBRANCH  23  24
ENDBRANCH  21  23
ENDBRANCH  19  21
ENDBRANCH  16  19
ENDBRANCH  15  16
ENDBRANCH   2  15
TORSDOF 11
ENDMDL
