MODEL 1
REMARK VINA RESULT: -6.068724566      0.000      0.000
REMARK  12 active torsions:
REMARK  status: ('A' for Active; 'I' for Inactive)
REMARK    1  A    between atoms: O1_1  and  C1_3 
REMARK    2  A    between atoms: C3_5  and  O2_6 
REMARK    3  A    between atoms: C4_8  and  C5_9 
REMARK    4  A    between atoms: C5_9  and  O3_10 
REMARK    5  A    between atoms: C5_9  and  C6_12 
REMARK    6  A    between atoms: C6_12  and  O4_13 
REMARK    7  A    between atoms: C6_12  and  O5_15 
REMARK    8  A    between atoms: O5_15  and  C7_16 
REMARK    9  A    between atoms: C7_16  and  C8_17 
REMARK   10  A    between atoms: C8_17  and  O6_18 
REMARK   11  A    between atoms: O6_18  and  C9_19 
REMARK   12  A    between atoms: C15_25  and  O7_26 
ROOT
HETATM    1  C5  UNL     1      35.076  24.325  41.982  1.00  0.00     0.182 C 
ENDROOT
BRANCH   1   2
HETATM    2  C4  UNL     1      34.817  23.743  40.618  1.00  0.00     0.079 C 
HETATM    3  C3  UNL     1      35.755  24.265  39.573  1.00  0.00     0.130 C 
HETATM    4  C2  UNL     1      34.884  24.774  38.426  1.00  0.00     0.066 C 
HETATM    5  C1  UNL     1      33.510  24.161  38.692  1.00  0.00     0.149 C 
HETATM    6  C15 UNL     1      33.445  24.191  40.185  1.00  0.00     0.156 C 
BRANCH   3   7
HETATM    7  O2  UNL     1      36.482  23.190  39.069  1.00  0.00    -0.395 OA
ATOM      8  H2  UNL     1      35.916  22.430  39.129  1.00  0.00     0.210 HD
ENDBRANCH   3   7
BRANCH   5   9
HETATM    9  O1  UNL     1      33.440  22.895  38.157  1.00  0.00    -0.393 OA
ATOM     10  H1  UNL     1      33.272  22.940  37.224  1.00  0.00     0.210 HD
ENDBRANCH   5   9
BRANCH   6  11
HETATM   11  O7  UNL     1      32.437  23.386  40.711  1.00  0.00    -0.392 OA
ATOM     12  H7  UNL     1      31.614  23.455  40.241  1.00  0.00     0.210 HD
ENDBRANCH   6  11
ENDBRANCH   1   2
BRANCH   1  13
HETATM   13  O3  UNL     1      33.933  25.027  42.362  1.00  0.00    -0.390 OA
ATOM     14  H3  UNL     1      33.412  24.451  42.908  1.00  0.00     0.210 HD
ENDBRANCH   1  13
BRANCH   1  15
HETATM   15  C6  UNL     1      35.366  23.211  43.002  1.00  0.00     0.285 C 
BRANCH  15  16
HETATM   16  O4  UNL     1      34.424  23.346  43.986  1.00  0.00    -0.369 OA
ATOM     17  H4  UNL     1      34.740  22.835  44.723  1.00  0.00     0.212 HD
ENDBRANCH  15  16
BRANCH  15  18
HETATM   18  O5  UNL     1      36.706  23.377  43.429  1.00  0.00    -0.357 OA
BRANCH  18  19
HETATM   19  C7  UNL     1      37.271  22.181  43.736  1.00  0.00     0.197 C 
BRANCH  19  20
HETATM   20  C8  UNL     1      38.718  22.257  44.089  1.00  0.00     0.194 C 
BRANCH  20  21
HETATM   21  O6  UNL     1      39.540  23.033  43.391  1.00  0.00    -0.384 OA
BRANCH  21  22
HETATM   22  C9  UNL     1      40.253  22.784  42.311  1.00  0.00     0.121 C 
HETATM   23  C10 UNL     1      41.528  23.618  42.380  1.00  0.00     0.032 C 
HETATM   24  C11 UNL     1      41.274  25.071  42.146  1.00  0.00     0.002 C 
HETATM   25  C12 UNL     1      40.505  25.356  40.899  1.00  0.00     0.000 C 
HETATM   26  C13 UNL     1      39.154  24.650  41.045  1.00  0.00     0.002 C 
HETATM   27  C14 UNL     1      39.430  23.187  41.086  1.00  0.00     0.032 C 
ENDBRANCH  21  22
ENDBRANCH  20  21
ENDBRANCH  19  20
ENDBRANCH  18  19
ENDBRANCH  15  18
ENDBRANCH   1  15
TORSDOF 12
ENDMDL
MODEL 2
REMARK VINA RESULT: -6.030156121      2.097      3.669
REMARK  12 active torsions:
REMARK  status: ('A' for Active; 'I' for Inactive)
REMARK    1  A    between atoms: O1_1  and  C1_3 
REMARK    2  A    between atoms: C3_5  and  O2_6 
REMARK    3  A    between atoms: C4_8  and  C5_9 
REMARK    4  A    between atoms: C5_9  and  O3_10 
REMARK    5  A    between atoms: C5_9  and  C6_12 
REMARK    6  A    between atoms: C6_12  and  O4_13 
REMARK    7  A    between atoms: C6_12  and  O5_15 
REMARK    8  A    between atoms: O5_15  and  C7_16 
REMARK    9  A    between atoms: C7_16  and  C8_17 
REMARK   10  A    between atoms: C8_17  and  O6_18 
REMARK   11  A    between atoms: O6_18  and  C9_19 
REMARK   12  A    between atoms: C15_25  and  O7_26 
ROOT
HETATM    1  C5  UNL     1      37.051  22.581  43.071  1.00  0.00     0.182 C 
ENDROOT
BRANCH   1   2
HETATM    2  C4  UNL     1      35.814  22.752  42.231  1.00  0.00     0.079 C 
HETATM    3  C3  UNL     1      36.119  23.103  40.806  1.00  0.00     0.130 C 
HETATM    4  C2  UNL     1      35.302  24.353  40.487  1.00  0.00     0.066 C 
HETATM    5  C1  UNL     1      34.267  24.429  41.608  1.00  0.00     0.149 C 
HETATM    6  C15 UNL     1      35.049  23.928  42.779  1.00  0.00     0.156 C 
BRANCH   3   7
HETATM    7  O2  UNL     1      35.622  22.088  39.994  1.00  0.00    -0.395 OA
ATOM      8  H2  UNL     1      35.310  22.507  39.201  1.00  0.00     0.210 HD
ENDBRANCH   3   7
BRANCH   5   9
HETATM    9  O1  UNL     1      33.171  23.656  41.299  1.00  0.00    -0.393 OA
ATOM     10  H1  UNL     1      32.465  24.201  40.972  1.00  0.00     0.210 HD
ENDBRANCH   5   9
BRANCH   6  11
HETATM   11  O7  UNL     1      34.252  23.578  43.867  1.00  0.00    -0.392 OA
ATOM     12  H7  UNL     1      33.804  22.747  43.756  1.00  0.00     0.210 HD
ENDBRANCH   6  11
ENDBRANCH   1   2
BRANCH   1  13
HETATM   13  O3  UNL     1      36.912  21.392  43.786  1.00  0.00    -0.390 OA
ATOM     14  H3  UNL     1      36.676  21.621  44.678  1.00  0.00     0.210 HD
ENDBRANCH   1  13
BRANCH   1  15
HETATM   15  C6  UNL     1      38.305  22.513  42.184  1.00  0.00     0.285 C 
BRANCH  15  16
HETATM   16  O4  UNL     1      38.658  21.191  42.131  1.00  0.00    -0.369 OA
ATOM     17  H4  UNL     1      39.573  21.174  41.874  1.00  0.00     0.212 HD
ENDBRANCH  15  16
BRANCH  15  18
HETATM   18  O5  UNL     1      39.273  23.367  42.767  1.00  0.00    -0.357 OA
BRANCH  18  19
HETATM   19  C7  UNL     1      40.088  23.898  41.819  1.00  0.00     0.197 C 
BRANCH  19  20
HETATM   20  C8  UNL     1      39.390  24.760  40.821  1.00  0.00     0.194 C 
BRANCH  20  21
HETATM   21  O6  UNL     1      40.009  25.810  40.292  1.00  0.00    -0.384 OA
BRANCH  21  22
HETATM   22  C9  UNL     1      41.036  26.515  40.723  1.00  0.00     0.121 C 
HETATM   23  C10 UNL     1      40.504  27.823  41.299  1.00  0.00     0.032 C 
HETATM   24  C11 UNL     1      40.023  28.760  40.241  1.00  0.00     0.002 C 
HETATM   25  C12 UNL     1      41.017  29.008  39.155  1.00  0.00     0.000 C 
HETATM   26  C13 UNL     1      41.302  27.652  38.504  1.00  0.00     0.002 C 
HETATM   27  C14 UNL     1      41.956  26.801  39.536  1.00  0.00     0.032 C 
ENDBRANCH  21  22
ENDBRANCH  20  21
ENDBRANCH  19  20
ENDBRANCH  18  19
ENDBRANCH  15  18
ENDBRANCH   1  15
TORSDOF 12
ENDMDL
MODEL 3
REMARK VINA RESULT: -6.005425589      1.881      3.360
REMARK  12 active torsions:
REMARK  status: ('A' for Active; 'I' for Inactive)
REMARK    1  A    between atoms: O1_1  and  C1_3 
REMARK    2  A    between atoms: C3_5  and  O2_6 
REMARK    3  A    between atoms: C4_8  and  C5_9 
REMARK    4  A    between atoms: C5_9  and  O3_10 
REMARK    5  A    between atoms: C5_9  and  C6_12 
REMARK    6  A    between atoms: C6_12  and  O4_13 
REMARK    7  A    between atoms: C6_12  and  O5_15 
REMARK    8  A    between atoms: O5_15  and  C7_16 
REMARK    9  A    between atoms: C7_16  and  C8_17 
REMARK   10  A    between atoms: C8_17  and  O6_18 
REMARK   11  A    between atoms: O6_18  and  C9_19 
REMARK   12  A    between atoms: C15_25  and  O7_26 
ROOT
HETATM    1  C5  UNL     1      37.170  22.337  42.804  1.00  0.00     0.182 C 
ENDROOT
BRANCH   1   2
HETATM    2  C4  UNL     1      35.913  22.674  42.048  1.00  0.00     0.079 C 
HETATM    3  C3  UNL     1      36.181  23.211  40.675  1.00  0.00     0.130 C 
HETATM    4  C2  UNL     1      35.411  24.526  40.568  1.00  0.00     0.066 C 
HETATM    5  C1  UNL     1      34.423  24.484  41.732  1.00  0.00     0.149 C 
HETATM    6  C15 UNL     1      35.222  23.792  42.788  1.00  0.00     0.156 C 
BRANCH   3   7
HETATM    7  O2  UNL     1      35.609  22.342  39.751  1.00  0.00    -0.395 OA
ATOM      8  H2  UNL     1      34.669  22.452  39.825  1.00  0.00     0.210 HD
ENDBRANCH   3   7
BRANCH   5   9
HETATM    9  O1  UNL     1      33.282  23.807  41.365  1.00  0.00    -0.393 OA
ATOM     10  H1  UNL     1      32.547  24.086  41.898  1.00  0.00     0.210 HD
ENDBRANCH   5   9
BRANCH   6  11
HETATM   11  O7  UNL     1      34.450  23.324  43.849  1.00  0.00    -0.392 OA
ATOM     12  H7  UNL     1      34.649  23.746  44.676  1.00  0.00     0.210 HD
ENDBRANCH   6  11
ENDBRANCH   1   2
BRANCH   1  13
HETATM   13  O3  UNL     1      36.818  21.471  43.838  1.00  0.00    -0.390 OA
ATOM     14  H3  UNL     1      37.298  20.661  43.709  1.00  0.00     0.210 HD
ENDBRANCH   1  13
BRANCH   1  15
HETATM   15  C6  UNL     1      38.193  21.657  41.879  1.00  0.00     0.285 C 
BRANCH  15  16
HETATM   16  O4  UNL     1      37.946  20.313  41.968  1.00  0.00    -0.369 OA
ATOM     17  H4  UNL     1      38.234  20.050  42.835  1.00  0.00     0.212 HD
ENDBRANCH  15  16
BRANCH  15  18
HETATM   18  O5  UNL     1      39.479  22.059  42.316  1.00  0.00    -0.357 OA
BRANCH  18  19
HETATM   19  C7  UNL     1      39.538  23.404  42.485  1.00  0.00     0.197 C 
BRANCH  19  20
HETATM   20  C8  UNL     1      40.786  24.036  41.968  1.00  0.00     0.194 C 
BRANCH  20  21
HETATM   21  O6  UNL     1      40.757  25.262  41.459  1.00  0.00    -0.384 OA
BRANCH  21  22
HETATM   22  C9  UNL     1      40.193  25.728  40.362  1.00  0.00     0.121 C 
HETATM   23  C10 UNL     1      41.274  25.864  39.294  1.00  0.00     0.032 C 
HETATM   24  C11 UNL     1      42.204  27.001  39.564  1.00  0.00     0.002 C 
HETATM   25  C12 UNL     1      41.513  28.302  39.807  1.00  0.00     0.000 C 
HETATM   26  C13 UNL     1      40.626  28.103  41.040  1.00  0.00     0.002 C 
HETATM   27  C14 UNL     1      39.591  27.099  40.674  1.00  0.00     0.032 C 
ENDBRANCH  21  22
ENDBRANCH  20  21
ENDBRANCH  19  20
ENDBRANCH  18  19
ENDBRANCH  15  18
ENDBRANCH   1  15
TORSDOF 12
ENDMDL
MODEL 4
REMARK VINA RESULT: -5.982297464      2.258      3.495
REMARK  12 active torsions:
REMARK  status: ('A' for Active; 'I' for Inactive)
REMARK    1  A    between atoms: O1_1  and  C1_3 
REMARK    2  A    between atoms: C3_5  and  O2_6 
REMARK    3  A    between atoms: C4_8  and  C5_9 
REMARK    4  A    between atoms: C5_9  and  O3_10 
REMARK    5  A    between atoms: C5_9  and  C6_12 
REMARK    6  A    between atoms: C6_12  and  O4_13 
REMARK    7  A    between atoms: C6_12  and  O5_15 
REMARK    8  A    between atoms: O5_15  and  C7_16 
REMARK    9  A    between atoms: C7_16  and  C8_17 
REMARK   10  A    between atoms: C8_17  and  O6_18 
REMARK   11  A    between atoms: O6_18  and  C9_19 
REMARK   12  A    between atoms: C15_25  and  O7_26 
ROOT
HETATM    1  C5  UNL     1      34.317  22.993  39.570  1.00  0.00     0.182 C 
ENDROOT
BRANCH   1   2
HETATM    2  C4  UNL     1      35.267  21.829  39.477  1.00  0.00     0.079 C 
HETATM    3  C3  UNL     1      36.545  22.171  38.773  1.00  0.00     0.130 C 
HETATM    4  C2  UNL     1      36.726  21.124  37.676  1.00  0.00     0.066 C 
HETATM    5  C1  UNL     1      35.759  20.004  38.055  1.00  0.00     0.149 C 
HETATM    6  C15 UNL     1      34.611  20.771  38.626  1.00  0.00     0.156 C 
BRANCH   3   7
HETATM    7  O2  UNL     1      37.594  21.990  39.669  1.00  0.00    -0.395 OA
ATOM      8  H2  UNL     1      38.313  21.619  39.171  1.00  0.00     0.210 HD
ENDBRANCH   3   7
BRANCH   5   9
HETATM    9  O1  UNL     1      36.352  19.142  38.948  1.00  0.00    -0.393 OA
ATOM     10  H1  UNL     1      36.018  18.261  38.829  1.00  0.00     0.210 HD
ENDBRANCH   5   9
BRANCH   6  11
HETATM   11  O7  UNL     1      33.725  19.982  39.356  1.00  0.00    -0.392 OA
ATOM     12  H7  UNL     1      33.255  20.463  40.027  1.00  0.00     0.210 HD
ENDBRANCH   6  11
ENDBRANCH   1   2
BRANCH   1  13
HETATM   13  O3  UNL     1      33.047  22.524  39.238  1.00  0.00    -0.390 OA
ATOM     14  H3  UNL     1      32.495  23.282  39.079  1.00  0.00     0.210 HD
ENDBRANCH   1  13
BRANCH   1  15
HETATM   15  C6  UNL     1      34.304  23.570  40.995  1.00  0.00     0.285 C 
BRANCH  15  16
HETATM   16  O4  UNL     1      33.066  24.131  41.163  1.00  0.00    -0.369 OA
ATOM     17  H4  UNL     1      32.920  24.168  42.102  1.00  0.00     0.212 HD
ENDBRANCH  15  16
BRANCH  15  18
HETATM   18  O5  UNL     1      35.388  24.477  41.085  1.00  0.00    -0.357 OA
BRANCH  18  19
HETATM   19  C7  UNL     1      35.973  24.416  42.309  1.00  0.00     0.197 C 
BRANCH  19  20
HETATM   20  C8  UNL     1      36.295  23.034  42.769  1.00  0.00     0.194 C 
BRANCH  20  21
HETATM   21  O6  UNL     1      37.553  22.607  42.781  1.00  0.00    -0.384 OA
BRANCH  21  22
HETATM   22  C9  UNL     1      38.061  21.427  43.076  1.00  0.00     0.121 C 
HETATM   23  C10 UNL     1      38.172  21.324  44.593  1.00  0.00     0.032 C 
HETATM   24  C11 UNL     1      39.265  22.178  45.146  1.00  0.00     0.002 C 
HETATM   25  C12 UNL     1      40.588  21.967  44.489  1.00  0.00     0.000 C 
HETATM   26  C13 UNL     1      40.404  22.318  43.010  1.00  0.00     0.002 C 
HETATM   27  C14 UNL     1      39.449  21.327  42.442  1.00  0.00     0.032 C 
ENDBRANCH  21  22
ENDBRANCH  20  21
ENDBRANCH  19  20
ENDBRANCH  18  19
ENDBRANCH  15  18
ENDBRANCH   1  15
TORSDOF 12
ENDMDL
MODEL 5
REMARK VINA RESULT: -5.939474351      1.815      3.255
REMARK  12 active torsions:
REMARK  status: ('A' for Active; 'I' for Inactive)
REMARK    1  A    between atoms: O1_1  and  C1_3 
REMARK    2  A    between atoms: C3_5  and  O2_6 
REMARK    3  A    between atoms: C4_8  and  C5_9 
REMARK    4  A    between atoms: C5_9  and  O3_10 
REMARK    5  A    between atoms: C5_9  and  C6_12 
REMARK    6  A    between atoms: C6_12  and  O4_13 
REMARK    7  A    between atoms: C6_12  and  O5_15 
REMARK    8  A    between atoms: O5_15  and  C7_16 
REMARK    9  A    between atoms: C7_16  and  C8_17 
REMARK   10  A    between atoms: C8_17  and  O6_18 
REMARK   11  A    between atoms: O6_18  and  C9_19 
REMARK   12  A    between atoms: C15_25  and  O7_26 
ROOT
HETATM    1  C5  UNL     1      37.169  22.322  42.787  1.00  0.00     0.182 C 
ENDROOT
BRANCH   1   2
HETATM    2  C4  UNL     1      35.905  22.660  42.044  1.00  0.00     0.079 C 
HETATM    3  C3  UNL     1      36.161  23.190  40.666  1.00  0.00     0.130 C 
HETATM    4  C2  UNL     1      35.393  24.506  40.561  1.00  0.00     0.066 C 
HETATM    5  C1  UNL     1      34.417  24.473  41.735  1.00  0.00     0.149 C 
HETATM    6  C15 UNL     1      35.226  23.783  42.786  1.00  0.00     0.156 C 
BRANCH   3   7
HETATM    7  O2  UNL     1      35.576  22.318  39.752  1.00  0.00    -0.395 OA
ATOM      8  H2  UNL     1      36.288  21.919  39.267  1.00  0.00     0.210 HD
ENDBRANCH   3   7
BRANCH   5   9
HETATM    9  O1  UNL     1      33.270  23.798  41.384  1.00  0.00    -0.393 OA
ATOM     10  H1  UNL     1      33.487  22.997  40.922  1.00  0.00     0.210 HD
ENDBRANCH   5   9
BRANCH   6  11
HETATM   11  O7  UNL     1      34.464  23.322  43.857  1.00  0.00    -0.392 OA
ATOM     12  H7  UNL     1      34.937  23.313  44.681  1.00  0.00     0.210 HD
ENDBRANCH   6  11
ENDBRANCH   1   2
BRANCH   1  13
HETATM   13  O3  UNL     1      36.826  21.459  43.827  1.00  0.00    -0.390 OA
ATOM     14  H3  UNL     1      37.606  21.320  44.352  1.00  0.00     0.210 HD
ENDBRANCH   1  13
BRANCH   1  15
HETATM   15  C6  UNL     1      38.181  21.637  41.854  1.00  0.00     0.285 C 
BRANCH  15  16
HETATM   16  O4  UNL     1      37.935  20.294  41.951  1.00  0.00    -0.369 OA
ATOM     17  H4  UNL     1      38.608  19.866  41.435  1.00  0.00     0.212 HD
ENDBRANCH  15  16
BRANCH  15  18
HETATM   18  O5  UNL     1      39.473  22.040  42.274  1.00  0.00    -0.357 OA
BRANCH  18  19
HETATM   19  C7  UNL     1      39.491  23.359  42.595  1.00  0.00     0.197 C 
BRANCH  19  20
HETATM   20  C8  UNL     1      40.701  24.091  42.120  1.00  0.00     0.194 C 
BRANCH  20  21
HETATM   21  O6  UNL     1      40.580  25.270  41.520  1.00  0.00    -0.384 OA
BRANCH  21  22
HETATM   22  C9  UNL     1      41.012  25.691  40.348  1.00  0.00     0.121 C 
HETATM   23  C10 UNL     1      41.066  27.215  40.381  1.00  0.00     0.032 C 
HETATM   24  C11 UNL     1      39.708  27.836  40.352  1.00  0.00     0.002 C 
HETATM   25  C12 UNL     1      38.844  27.347  39.238  1.00  0.00     0.000 C 
HETATM   26  C13 UNL     1      38.678  25.838  39.441  1.00  0.00     0.002 C 
HETATM   27  C14 UNL     1      40.025  25.226  39.276  1.00  0.00     0.032 C 
ENDBRANCH  21  22
ENDBRANCH  20  21
ENDBRANCH  19  20
ENDBRANCH  18  19
ENDBRANCH  15  18
ENDBRANCH   1  15
TORSDOF 12
ENDMDL
