MODEL 1
REMARK VINA RESULT: -5.629823116      0.000      0.000
REMARK  11 active torsions:
REMARK  status: ('A' for Active; 'I' for Inactive)
REMARK    1  A    between atoms: O1_2  and  C2_3 
REMARK    2  A    between atoms: C2_3  and  C3_5 
REMARK    3  A    between atoms: C3_5  and  C4_6 
REMARK    4  A    between atoms: C3_5  and  N1_10 
REMARK    5  A    between atoms: C4_6  and  C5_7 
REMARK    6  A    between atoms: N1_10  and  C6_13 
REMARK    7  A    between atoms: C6_13  and  C8_15 
REMARK    8  A    between atoms: C9_16  and  O5_17 
REMARK    9  A    between atoms: C12_21  and  C13_22 
REMARK   10  A    between atoms: C13_22  and  O6_23 
REMARK   11  A    between atoms: N2_25  and  O7_27 
ROOT
HETATM    1  C8  UNL     1      37.637  21.847  41.805  1.00  0.00     0.056 C 
HETATM    2  C9  UNL     1      39.011  22.471  41.887  1.00  0.00     0.125 C 
HETATM    3  C10 UNL     1      39.116  23.009  43.303  1.00  0.00     0.033 C 
HETATM    4  C11 UNL     1      37.823  22.609  44.007  1.00  0.00     0.016 C 
HETATM    5  C12 UNL     1      36.811  22.502  42.851  1.00  0.00     0.070 C 
ENDROOT
BRANCH   1   6
HETATM    6  C6  UNL     1      37.150  21.943  40.395  1.00  0.00     0.190 C 
HETATM    7  C7  UNL     1      37.376  20.566  39.777  1.00  0.00     0.040 C 
BRANCH   6   8
HETATM    8  N1  UNL     1      35.829  22.385  40.225  1.00  0.00    -0.057 N 
ATOM      9  H12 UNL     1      35.544  22.962  41.016  1.00  0.00     0.278 HD
ATOM     10  H11 UNL     1      35.178  21.607  40.333  1.00  0.00     0.278 HD
BRANCH   8  11
HETATM   11  C3  UNL     1      35.588  23.064  39.008  1.00  0.00     0.295 C 
BRANCH  11  12
HETATM   12  C2  UNL     1      36.700  23.836  38.440  1.00  0.00     0.290 C 
HETATM   13  O2  UNL     1      37.461  23.546  37.517  1.00  0.00    -0.263 OA
BRANCH  12  14
HETATM   14  O1  UNL     1      36.931  25.093  39.036  1.00  0.00    -0.325 OA
HETATM   15  C1  UNL     1      38.060  25.865  38.668  1.00  0.00     0.213 C 
ENDBRANCH  12  14
ENDBRANCH  11  12
BRANCH  11  16
HETATM   16  C4  UNL     1      34.365  23.979  39.079  1.00  0.00     0.156 C 
BRANCH  16  17
HETATM   17  C5  UNL     1      33.280  23.446  39.901  1.00  0.00     0.175 C 
HETATM   18  O3  UNL     1      32.639  22.467  39.394  1.00  0.00    -0.648 OA
HETATM   19  O4  UNL     1      33.000  23.987  41.131  1.00  0.00    -0.648 OA
ENDBRANCH  16  17
ENDBRANCH  11  16
ENDBRANCH   8  11
ENDBRANCH   6   8
ENDBRANCH   1   6
BRANCH   2  20
HETATM   20  O5  UNL     1      39.956  21.470  41.667  1.00  0.00    -0.395 OA
ATOM     21  H5  UNL     1      40.790  21.886  41.484  1.00  0.00     0.210 HD
ENDBRANCH   2  20
BRANCH   5  22
HETATM   22  C13 UNL     1      36.356  23.856  42.576  1.00  0.00     0.140 C 
HETATM   23  N2  UNL     1      35.222  24.263  43.038  1.00  0.00    -0.251 N 
ATOM     24  H2  UNL     1      34.935  25.218  42.823  1.00  0.00     0.196 HD
BRANCH  22  25
HETATM   25  O6  UNL     1      37.084  24.782  41.824  1.00  0.00    -0.348 OA
ATOM     26  H6  UNL     1      36.691  25.376  41.195  1.00  0.00     0.219 HD
ENDBRANCH  22  25
BRANCH  23  27
HETATM   27  O7  UNL     1      34.380  23.498  43.796  1.00  0.00    -0.288 OA
ATOM     28  H7  UNL     1      33.434  23.494  43.707  1.00  0.00     0.244 HD
ENDBRANCH  23  27
ENDBRANCH   5  22
TORSDOF 11
ENDMDL
MODEL 2
REMARK VINA RESULT: -5.533862531      1.522      2.407
REMARK  11 active torsions:
REMARK  status: ('A' for Active; 'I' for Inactive)
REMARK    1  A    between atoms: O1_2  and  C2_3 
REMARK    2  A    between atoms: C2_3  and  C3_5 
REMARK    3  A    between atoms: C3_5  and  C4_6 
REMARK    4  A    between atoms: C3_5  and  N1_10 
REMARK    5  A    between atoms: C4_6  and  C5_7 
REMARK    6  A    between atoms: N1_10  and  C6_13 
REMARK    7  A    between atoms: C6_13  and  C8_15 
REMARK    8  A    between atoms: C9_16  and  O5_17 
REMARK    9  A    between atoms: C12_21  and  C13_22 
REMARK   10  A    between atoms: C13_22  and  O6_23 
REMARK   11  A    between atoms: N2_25  and  O7_27 
ROOT
HETATM    1  C8  UNL     1      37.661  22.167  41.552  1.00  0.00     0.056 C 
HETATM    2  C9  UNL     1      39.002  22.701  42.001  1.00  0.00     0.125 C 
HETATM    3  C10 UNL     1      38.872  22.883  43.503  1.00  0.00     0.033 C 
HETATM    4  C11 UNL     1      37.481  22.376  43.873  1.00  0.00     0.016 C 
HETATM    5  C12 UNL     1      36.673  22.585  42.579  1.00  0.00     0.070 C 
ENDROOT
BRANCH   1   6
HETATM    6  C6  UNL     1      37.413  22.614  40.147  1.00  0.00     0.190 C 
HETATM    7  C7  UNL     1      38.789  22.807  39.518  1.00  0.00     0.040 C 
BRANCH   6   8
HETATM    8  N1  UNL     1      36.590  21.783  39.371  1.00  0.00    -0.057 N 
ATOM      9  H12 UNL     1      36.782  20.803  39.576  1.00  0.00     0.278 HD
ATOM     10  H11 UNL     1      36.876  21.816  38.392  1.00  0.00     0.278 HD
BRANCH   8  11
HETATM   11  C3  UNL     1      35.206  22.048  39.490  1.00  0.00     0.295 C 
BRANCH  11  12
HETATM   12  C2  UNL     1      34.294  21.224  38.687  1.00  0.00     0.290 C 
HETATM   13  O2  UNL     1      33.510  20.347  39.049  1.00  0.00    -0.263 OA
BRANCH  12  14
HETATM   14  O1  UNL     1      34.319  21.471  37.298  1.00  0.00    -0.325 OA
HETATM   15  C1  UNL     1      34.611  20.426  36.388  1.00  0.00     0.213 C 
ENDBRANCH  12  14
ENDBRANCH  11  12
BRANCH  11  16
HETATM   16  C4  UNL     1      34.867  23.516  39.234  1.00  0.00     0.156 C 
BRANCH  16  17
HETATM   17  C5  UNL     1      33.540  23.903  39.710  1.00  0.00     0.175 C 
HETATM   18  O3  UNL     1      32.803  24.496  38.854  1.00  0.00    -0.648 OA
HETATM   19  O4  UNL     1      33.148  23.631  40.996  1.00  0.00    -0.648 OA
ENDBRANCH  16  17
ENDBRANCH  11  16
ENDBRANCH   8  11
ENDBRANCH   6   8
ENDBRANCH   1   6
BRANCH   2  20
HETATM   20  O5  UNL     1      39.972  21.746  41.700  1.00  0.00    -0.395 OA
ATOM     21  H5  UNL     1      40.240  21.330  42.512  1.00  0.00     0.210 HD
ENDBRANCH   2  20
BRANCH   5  22
HETATM   22  C13 UNL     1      36.267  23.982  42.569  1.00  0.00     0.140 C 
HETATM   23  N2  UNL     1      35.157  24.336  43.123  1.00  0.00    -0.251 N 
ATOM     24  H2  UNL     1      34.905  25.324  43.095  1.00  0.00     0.196 HD
BRANCH  22  25
HETATM   25  O6  UNL     1      37.019  25.004  41.984  1.00  0.00    -0.348 OA
ATOM     26  H6  UNL     1      37.647  25.535  42.459  1.00  0.00     0.219 HD
ENDBRANCH  22  25
BRANCH  23  27
HETATM   27  O7  UNL     1      34.297  23.474  43.746  1.00  0.00    -0.288 OA
ATOM     28  H7  UNL     1      33.567  23.746  44.289  1.00  0.00     0.244 HD
ENDBRANCH  23  27
ENDBRANCH   5  22
TORSDOF 11
ENDMDL
MODEL 3
REMARK VINA RESULT: -5.487116229      1.903      3.825
REMARK  11 active torsions:
REMARK  status: ('A' for Active; 'I' for Inactive)
REMARK    1  A    between atoms: O1_2  and  C2_3 
REMARK    2  A    between atoms: C2_3  and  C3_5 
REMARK    3  A    between atoms: C3_5  and  C4_6 
REMARK    4  A    between atoms: C3_5  and  N1_10 
REMARK    5  A    between atoms: C4_6  and  C5_7 
REMARK    6  A    between atoms: N1_10  and  C6_13 
REMARK    7  A    between atoms: C6_13  and  C8_15 
REMARK    8  A    between atoms: C9_16  and  O5_17 
REMARK    9  A    between atoms: C12_21  and  C13_22 
REMARK   10  A    between atoms: C13_22  and  O6_23 
REMARK   11  A    between atoms: N2_25  and  O7_27 
ROOT
HETATM    1  C8  UNL     1      36.849  24.101  41.809  1.00  0.00     0.056 C 
HETATM    2  C9  UNL     1      35.928  23.306  42.705  1.00  0.00     0.125 C 
HETATM    3  C10 UNL     1      36.847  22.569  43.663  1.00  0.00     0.033 C 
HETATM    4  C11 UNL     1      38.263  23.026  43.328  1.00  0.00     0.016 C 
HETATM    5  C12 UNL     1      38.166  23.416  41.842  1.00  0.00     0.070 C 
ENDROOT
BRANCH   1   6
HETATM    6  C6  UNL     1      36.198  24.261  40.473  1.00  0.00     0.190 C 
HETATM    7  C7  UNL     1      37.216  24.980  39.593  1.00  0.00     0.040 C 
BRANCH   6   8
HETATM    8  N1  UNL     1      35.721  23.086  39.873  1.00  0.00    -0.057 N 
ATOM      9  H12 UNL     1      35.418  22.422  40.585  1.00  0.00     0.278 HD
ATOM     10  H11 UNL     1      36.491  22.561  39.459  1.00  0.00     0.278 HD
BRANCH   8  11
HETATM   11  C3  UNL     1      34.694  23.287  38.921  1.00  0.00     0.295 C 
BRANCH  11  12
HETATM   12  C2  UNL     1      33.375  23.681  39.430  1.00  0.00     0.290 C 
HETATM   13  O2  UNL     1      32.795  23.324  40.456  1.00  0.00    -0.263 OA
BRANCH  12  14
HETATM   14  O1  UNL     1      32.667  24.601  38.629  1.00  0.00    -0.325 OA
HETATM   15  C1  UNL     1      33.335  25.336  37.619  1.00  0.00     0.213 C 
ENDBRANCH  12  14
ENDBRANCH  11  12
BRANCH  11  16
HETATM   16  C4  UNL     1      34.505  22.083  37.999  1.00  0.00     0.156 C 
BRANCH  16  17
HETATM   17  C5  UNL     1      34.670  20.796  38.672  1.00  0.00     0.175 C 
HETATM   18  O3  UNL     1      33.590  20.242  39.065  1.00  0.00    -0.648 OA
HETATM   19  O4  UNL     1      35.916  20.251  38.852  1.00  0.00    -0.648 OA
ENDBRANCH  16  17
ENDBRANCH  11  16
ENDBRANCH   8  11
ENDBRANCH   6   8
ENDBRANCH   1   6
BRANCH   2  20
HETATM   20  O5  UNL     1      35.111  24.203  43.393  1.00  0.00    -0.395 OA
ATOM     21  H5  UNL     1      35.470  24.321  44.265  1.00  0.00     0.210 HD
ENDBRANCH   2  20
BRANCH   5  22
HETATM   22  C13 UNL     1      38.282  22.180  41.084  1.00  0.00     0.140 C 
HETATM   23  N2  UNL     1      39.248  22.026  40.243  1.00  0.00    -0.251 N 
ATOM     24  H2  UNL     1      39.297  21.147  39.728  1.00  0.00     0.196 HD
BRANCH  22  25
HETATM   25  O6  UNL     1      37.395  21.108  41.207  1.00  0.00    -0.348 OA
ATOM     26  H6  UNL     1      37.366  20.530  41.960  1.00  0.00     0.219 HD
ENDBRANCH  22  25
BRANCH  23  27
HETATM   27  O7  UNL     1      40.211  22.965  39.995  1.00  0.00    -0.288 OA
ATOM     28  H7  UNL     1      40.570  23.550  40.653  1.00  0.00     0.244 HD
ENDBRANCH  23  27
ENDBRANCH   5  22
TORSDOF 11
ENDMDL
MODEL 4
REMARK VINA RESULT: -5.473605309      2.250      3.505
REMARK  11 active torsions:
REMARK  status: ('A' for Active; 'I' for Inactive)
REMARK    1  A    between atoms: O1_2  and  C2_3 
REMARK    2  A    between atoms: C2_3  and  C3_5 
REMARK    3  A    between atoms: C3_5  and  C4_6 
REMARK    4  A    between atoms: C3_5  and  N1_10 
REMARK    5  A    between atoms: C4_6  and  C5_7 
REMARK    6  A    between atoms: N1_10  and  C6_13 
REMARK    7  A    between atoms: C6_13  and  C8_15 
REMARK    8  A    between atoms: C9_16  and  O5_17 
REMARK    9  A    between atoms: C12_21  and  C13_22 
REMARK   10  A    between atoms: C13_22  and  O6_23 
REMARK   11  A    between atoms: N2_25  and  O7_27 
ROOT
HETATM    1  C8  UNL     1      38.330  22.956  43.008  1.00  0.00     0.056 C 
HETATM    2  C9  UNL     1      38.065  21.478  43.175  1.00  0.00     0.125 C 
HETATM    3  C10 UNL     1      39.052  21.017  44.232  1.00  0.00     0.033 C 
HETATM    4  C11 UNL     1      39.800  22.267  44.688  1.00  0.00     0.016 C 
HETATM    5  C12 UNL     1      39.725  23.191  43.459  1.00  0.00     0.070 C 
ENDROOT
BRANCH   1   6
HETATM    6  C6  UNL     1      37.993  23.349  41.605  1.00  0.00     0.190 C 
HETATM    7  C7  UNL     1      37.927  22.048  40.809  1.00  0.00     0.040 C 
BRANCH   6   8
HETATM    8  N1  UNL     1      36.836  24.126  41.441  1.00  0.00    -0.057 N 
ATOM      9  H12 UNL     1      37.085  25.091  41.228  1.00  0.00     0.278 HD
ATOM     10  H11 UNL     1      36.368  24.259  42.337  1.00  0.00     0.278 HD
BRANCH   8  11
HETATM   11  C3  UNL     1      35.926  23.629  40.479  1.00  0.00     0.295 C 
BRANCH  11  12
HETATM   12  C2  UNL     1      35.687  24.457  39.291  1.00  0.00     0.290 C 
HETATM   13  O2  UNL     1      36.495  24.926  38.490  1.00  0.00    -0.263 OA
BRANCH  12  14
HETATM   14  O1  UNL     1      34.335  24.761  39.027  1.00  0.00    -0.325 OA
HETATM   15  C1  UNL     1      33.854  24.795  37.695  1.00  0.00     0.213 C 
ENDBRANCH  12  14
ENDBRANCH  11  12
BRANCH  11  16
HETATM   16  C4  UNL     1      34.570  23.270  41.086  1.00  0.00     0.156 C 
BRANCH  16  17
HETATM   17  C5  UNL     1      34.337  23.868  42.399  1.00  0.00     0.175 C 
HETATM   18  O3  UNL     1      33.803  25.027  42.386  1.00  0.00    -0.648 OA
HETATM   19  O4  UNL     1      34.682  23.200  43.547  1.00  0.00    -0.648 OA
ENDBRANCH  16  17
ENDBRANCH  11  16
ENDBRANCH   8  11
ENDBRANCH   6   8
ENDBRANCH   1   6
BRANCH   2  20
HETATM   20  O5  UNL     1      36.753  21.320  43.620  1.00  0.00    -0.395 OA
ATOM     21  H5  UNL     1      36.285  20.796  42.980  1.00  0.00     0.210 HD
ENDBRANCH   2  20
BRANCH   5  22
HETATM   22  C13 UNL     1      40.786  22.766  42.559  1.00  0.00     0.140 C 
HETATM   23  N2  UNL     1      41.553  23.643  42.005  1.00  0.00    -0.251 N 
ATOM     24  H2  UNL     1      42.285  23.309  41.379  1.00  0.00     0.196 HD
BRANCH  22  25
HETATM   25  O6  UNL     1      41.046  21.431  42.242  1.00  0.00    -0.348 OA
ATOM     26  H6  UNL     1      41.485  21.154  41.446  1.00  0.00     0.219 HD
ENDBRANCH  22  25
BRANCH  23  27
HETATM   27  O7  UNL     1      41.449  24.993  42.203  1.00  0.00    -0.288 OA
ATOM     28  H7  UNL     1      40.665  25.500  42.028  1.00  0.00     0.244 HD
ENDBRANCH  23  27
ENDBRANCH   5  22
TORSDOF 11
ENDMDL
MODEL 5
REMARK VINA RESULT: -5.382097997      2.205      3.867
REMARK  11 active torsions:
REMARK  status: ('A' for Active; 'I' for Inactive)
REMARK    1  A    between atoms: O1_2  and  C2_3 
REMARK    2  A    between atoms: C2_3  and  C3_5 
REMARK    3  A    between atoms: C3_5  and  C4_6 
REMARK    4  A    between atoms: C3_5  and  N1_10 
REMARK    5  A    between atoms: C4_6  and  C5_7 
REMARK    6  A    between atoms: N1_10  and  C6_13 
REMARK    7  A    between atoms: C6_13  and  C8_15 
REMARK    8  A    between atoms: C9_16  and  O5_17 
REMARK    9  A    between atoms: C12_21  and  C13_22 
REMARK   10  A    between atoms: C13_22  and  O6_23 
REMARK   11  A    between atoms: N2_25  and  O7_27 
ROOT
HETATM    1  C8  UNL     1      38.721  22.622  40.855  1.00  0.00     0.056 C 
HETATM    2  C9  UNL     1      39.498  22.971  42.103  1.00  0.00     0.125 C 
HETATM    3  C10 UNL     1      40.512  21.852  42.264  1.00  0.00     0.033 C 
HETATM    4  C11 UNL     1      40.328  20.937  41.057  1.00  0.00     0.016 C 
HETATM    5  C12 UNL     1      38.854  21.154  40.670  1.00  0.00     0.070 C 
ENDROOT
BRANCH   1   6
HETATM    6  C6  UNL     1      37.336  23.169  40.983  1.00  0.00     0.190 C 
HETATM    7  C7  UNL     1      37.318  24.462  40.173  1.00  0.00     0.040 C 
BRANCH   6   8
HETATM    8  N1  UNL     1      36.293  22.304  40.616  1.00  0.00    -0.057 N 
ATOM      9  H12 UNL     1      35.958  21.788  41.429  1.00  0.00     0.278 HD
ATOM     10  H11 UNL     1      36.653  21.533  40.054  1.00  0.00     0.278 HD
BRANCH   8  11
HETATM   11  C3  UNL     1      35.213  22.933  39.954  1.00  0.00     0.295 C 
BRANCH  11  12
HETATM   12  C2  UNL     1      33.985  23.148  40.729  1.00  0.00     0.290 C 
HETATM   13  O2  UNL     1      32.815  23.180  40.346  1.00  0.00    -0.263 OA
BRANCH  12  14
HETATM   14  O1  UNL     1      34.170  23.347  42.113  1.00  0.00    -0.325 OA
HETATM   15  C1  UNL     1      34.394  24.648  42.627  1.00  0.00     0.213 C 
ENDBRANCH  12  14
ENDBRANCH  11  12
BRANCH  11  16
HETATM   16  C4  UNL     1      34.833  22.229  38.652  1.00  0.00     0.156 C 
BRANCH  16  17
HETATM   17  C5  UNL     1      34.806  20.771  38.759  1.00  0.00     0.175 C 
HETATM   18  O3  UNL     1      33.649  20.255  38.909  1.00  0.00    -0.648 OA
HETATM   19  O4  UNL     1      35.965  20.041  38.696  1.00  0.00    -0.648 OA
ENDBRANCH  16  17
ENDBRANCH  11  16
ENDBRANCH   8  11
ENDBRANCH   6   8
ENDBRANCH   1   6
BRANCH   2  20
HETATM   20  O5  UNL     1      40.137  24.192  41.890  1.00  0.00    -0.395 OA
ATOM     21  H5  UNL     1      39.737  24.839  42.459  1.00  0.00     0.210 HD
ENDBRANCH   2  20
BRANCH   5  22
HETATM   22  C13 UNL     1      38.067  20.307  41.554  1.00  0.00     0.140 C 
HETATM   23  N2  UNL     1      37.690  19.138  41.161  1.00  0.00    -0.251 N 
ATOM     24  H2  UNL     1      37.139  18.573  41.807  1.00  0.00     0.196 HD
BRANCH  22  25
HETATM   25  O6  UNL     1      37.679  20.680  42.843  1.00  0.00    -0.348 OA
ATOM     26  H6  UNL     1      38.151  21.311  43.374  1.00  0.00     0.219 HD
ENDBRANCH  22  25
BRANCH  23  27
HETATM   27  O7  UNL     1      37.981  18.606  39.935  1.00  0.00    -0.288 OA
ATOM     28  H7  UNL     1      38.476  19.055  39.261  1.00  0.00     0.244 HD
ENDBRANCH  23  27
ENDBRANCH   5  22
TORSDOF 11
ENDMDL
