MODEL 1
REMARK VINA RESULT: -5.542497299      0.000      0.000
REMARK  3 active torsions:
REMARK  status: ('A' for Active; 'I' for Inactive)
REMARK    1  A    between atoms: C2_2  and  O1_5 
REMARK    2  A    between atoms: O1_5  and  C5_6 
REMARK       I    between atoms: C5_6  and  N1_8 
REMARK    3  A    between atoms: N1_8  and  C6_10 
ROOT
HETATM    1  C5  UNL     1      18.136   9.220  19.237  1.00  0.00     0.361 C 
HETATM    2  O2  UNL     1      18.004   8.244  18.462  1.00  0.00    -0.238 OA
HETATM    3  N1  UNL     1      18.055   9.166  20.639  1.00  0.00    -0.327 N 
ATOM      4  H1  UNL     1      18.186  10.032  21.162  1.00  0.00     0.165 HD
ENDROOT
BRANCH   3   5
HETATM    5  C6  UNL     1      17.802   7.973  21.370  1.00  0.00     0.038 C 
HETATM    6  C7  UNL     1      16.427   7.357  21.110  1.00  0.00     0.031 C 
HETATM    7  C8  UNL     1      15.811   7.114  22.460  1.00  0.00     0.003 C 
HETATM    8  C9  UNL     1      16.607   7.950  23.423  1.00  0.00     0.007 C 
HETATM    9  C10 UNL     1      18.007   7.970  22.846  1.00  0.00     0.014 C 
HETATM   10  C11 UNL     1      18.652   6.612  22.729  1.00  0.00     0.009 C 
HETATM   11  C12 UNL     1      18.901   6.905  21.268  1.00  0.00     0.032 C 
ENDBRANCH   3   5
BRANCH   1  12
HETATM   12  O1  UNL     1      18.381  10.441  18.610  1.00  0.00    -0.294 OA
BRANCH  12  13
HETATM   13  C2  UNL     1      19.622  10.856  18.138  1.00  0.00     0.061 C 
HETATM   14  C1  UNL     1      19.906  12.225  18.773  1.00  0.00     0.046 C 
HETATM   15  C3  UNL     1      20.766   9.962  18.557  1.00  0.00     0.046 C 
HETATM   16  C4  UNL     1      19.662  11.034  16.649  1.00  0.00     0.046 C 
ENDBRANCH  12  13
ENDBRANCH   1  12
TORSDOF 3
ENDMDL
MODEL 2
REMARK VINA RESULT: -5.066963976      1.299      5.678
REMARK  3 active torsions:
REMARK  status: ('A' for Active; 'I' for Inactive)
REMARK    1  A    between atoms: C2_2  and  O1_5 
REMARK    2  A    between atoms: O1_5  and  C5_6 
REMARK       I    between atoms: C5_6  and  N1_8 
REMARK    3  A    between atoms: N1_8  and  C6_10 
ROOT
HETATM    1  C5  UNL     1      18.403   8.830  19.613  1.00  0.00     0.361 C 
HETATM    2  O2  UNL     1      19.488   8.242  19.394  1.00  0.00    -0.238 OA
HETATM    3  N1  UNL     1      18.063  10.112  19.150  1.00  0.00    -0.327 N 
ATOM      4  H1  UNL     1      17.143  10.482  19.392  1.00  0.00     0.165 HD
ENDROOT
BRANCH   3   5
HETATM    5  C6  UNL     1      18.926  10.924  18.364  1.00  0.00     0.038 C 
HETATM    6  C7  UNL     1      20.173  11.412  19.102  1.00  0.00     0.031 C 
HETATM    7  C8  UNL     1      20.238  12.898  18.885  1.00  0.00     0.003 C 
HETATM    8  C9  UNL     1      18.865  13.298  18.419  1.00  0.00     0.007 C 
HETATM    9  C10 UNL     1      18.360  12.099  17.645  1.00  0.00     0.014 C 
HETATM   10  C11 UNL     1      19.196  11.736  16.443  1.00  0.00     0.009 C 
HETATM   11  C12 UNL     1      19.302  10.334  16.997  1.00  0.00     0.032 C 
ENDBRANCH   3   5
BRANCH   1  12
HETATM   12  O1  UNL     1      17.489   8.113  20.385  1.00  0.00    -0.294 OA
BRANCH  12  13
HETATM   13  C2  UNL     1      17.788   7.489  21.591  1.00  0.00     0.061 C 
HETATM   14  C1  UNL     1      16.551   6.668  21.986  1.00  0.00     0.046 C 
HETATM   15  C3  UNL     1      18.927   6.499  21.503  1.00  0.00     0.046 C 
HETATM   16  C4  UNL     1      18.063   8.452  22.707  1.00  0.00     0.046 C 
ENDBRANCH  12  13
ENDBRANCH   1  12
TORSDOF 3
ENDMDL
MODEL 3
REMARK VINA RESULT: -5.034772088      1.756      5.693
REMARK  3 active torsions:
REMARK  status: ('A' for Active; 'I' for Inactive)
REMARK    1  A    between atoms: C2_2  and  O1_5 
REMARK    2  A    between atoms: O1_5  and  C5_6 
REMARK       I    between atoms: C5_6  and  N1_8 
REMARK    3  A    between atoms: N1_8  and  C6_10 
ROOT
HETATM    1  C5  UNL     1      18.445   8.958  19.891  1.00  0.00     0.361 C 
HETATM    2  O2  UNL     1      19.456   8.302  19.548  1.00  0.00    -0.238 OA
HETATM    3  N1  UNL     1      18.090  10.225  19.400  1.00  0.00    -0.327 N 
ATOM      4  H1  UNL     1      17.236  10.657  19.754  1.00  0.00     0.165 HD
ENDROOT
BRANCH   3   5
HETATM    5  C6  UNL     1      18.852  10.942  18.436  1.00  0.00     0.038 C 
HETATM    6  C7  UNL     1      20.164  11.515  18.973  1.00  0.00     0.031 C 
HETATM    7  C8  UNL     1      20.183  12.966  18.579  1.00  0.00     0.003 C 
HETATM    8  C9  UNL     1      18.763  13.306  18.221  1.00  0.00     0.007 C 
HETATM    9  C10 UNL     1      18.195  12.023  17.650  1.00  0.00     0.014 C 
HETATM   10  C11 UNL     1      18.903  11.524  16.416  1.00  0.00     0.009 C 
HETATM   11  C12 UNL     1      19.088  10.196  17.114  1.00  0.00     0.032 C 
ENDBRANCH   3   5
BRANCH   1  12
HETATM   12  O1  UNL     1      17.635   8.339  20.843  1.00  0.00    -0.294 OA
BRANCH  12  13
HETATM   13  C2  UNL     1      16.532   7.544  20.549  1.00  0.00     0.061 C 
HETATM   14  C1  UNL     1      16.435   6.488  21.661  1.00  0.00     0.046 C 
HETATM   15  C3  UNL     1      15.217   8.289  20.573  1.00  0.00     0.046 C 
HETATM   16  C4  UNL     1      16.656   6.813  19.246  1.00  0.00     0.046 C 
ENDBRANCH  12  13
ENDBRANCH   1  12
TORSDOF 3
ENDMDL
MODEL 4
REMARK VINA RESULT: -5.003022656      1.855      5.968
REMARK  3 active torsions:
REMARK  status: ('A' for Active; 'I' for Inactive)
REMARK    1  A    between atoms: C2_2  and  O1_5 
REMARK    2  A    between atoms: O1_5  and  C5_6 
REMARK       I    between atoms: C5_6  and  N1_8 
REMARK    3  A    between atoms: N1_8  and  C6_10 
ROOT
HETATM    1  C5  UNL     1      18.838   9.880  19.295  1.00  0.00     0.361 C 
HETATM    2  O2  UNL     1      20.042   9.644  19.043  1.00  0.00    -0.238 OA
HETATM    3  N1  UNL     1      18.068  10.902  18.714  1.00  0.00    -0.327 N 
ATOM      4  H1  UNL     1      17.092  10.990  18.999  1.00  0.00     0.165 HD
ENDROOT
BRANCH   3   5
HETATM    5  C6  UNL     1      18.571  11.822  17.752  1.00  0.00     0.038 C 
HETATM    6  C7  UNL     1      19.416  12.950  18.344  1.00  0.00     0.031 C 
HETATM    7  C8  UNL     1      18.860  14.231  17.787  1.00  0.00     0.003 C 
HETATM    8  C9  UNL     1      17.497  13.882  17.256  1.00  0.00     0.007 C 
HETATM    9  C10 UNL     1      17.626  12.448  16.786  1.00  0.00     0.014 C 
HETATM   10  C11 UNL     1      18.644  12.239  15.693  1.00  0.00     0.009 C 
HETATM   11  C12 UNL     1      19.287  11.179  16.556  1.00  0.00     0.032 C 
ENDBRANCH   3   5
BRANCH   1  12
HETATM   12  O1  UNL     1      18.255   9.032  20.237  1.00  0.00    -0.294 OA
BRANCH  12  13
HETATM   13  C2  UNL     1      17.905   7.707  20.002  1.00  0.00     0.061 C 
HETATM   14  C1  UNL     1      16.523   7.492  20.636  1.00  0.00     0.046 C 
HETATM   15  C3  UNL     1      17.743   7.367  18.538  1.00  0.00     0.046 C 
HETATM   16  C4  UNL     1      18.846   6.724  20.630  1.00  0.00     0.046 C 
ENDBRANCH  12  13
ENDBRANCH   1  12
TORSDOF 3
ENDMDL
MODEL 5
REMARK VINA RESULT: -4.999757813      4.468      6.579
REMARK  3 active torsions:
REMARK  status: ('A' for Active; 'I' for Inactive)
REMARK    1  A    between atoms: C2_2  and  O1_5 
REMARK    2  A    between atoms: O1_5  and  C5_6 
REMARK       I    between atoms: C5_6  and  N1_8 
REMARK    3  A    between atoms: N1_8  and  C6_10 
ROOT
HETATM    1  C5  UNL     1      17.831  14.776  17.153  1.00  0.00     0.361 C 
HETATM    2  O2  UNL     1      18.039  14.575  15.934  1.00  0.00    -0.238 OA
HETATM    3  N1  UNL     1      18.398  14.042  18.209  1.00  0.00    -0.327 N 
ATOM      4  H1  UNL     1      18.154  14.306  19.163  1.00  0.00     0.165 HD
ENDROOT
BRANCH   3   5
HETATM    5  C6  UNL     1      19.292  12.951  18.023  1.00  0.00     0.038 C 
HETATM    6  C7  UNL     1      19.024  12.127  16.764  1.00  0.00     0.031 C 
HETATM    7  C8  UNL     1      18.967  10.691  17.203  1.00  0.00     0.003 C 
HETATM    8  C9  UNL     1      18.774  10.732  18.694  1.00  0.00     0.007 C 
HETATM    9  C10 UNL     1      19.498  11.985  19.138  1.00  0.00     0.014 C 
HETATM   10  C11 UNL     1      20.976  11.991  18.837  1.00  0.00     0.009 C 
HETATM   11  C12 UNL     1      20.781  13.311  18.128  1.00  0.00     0.032 C 
ENDBRANCH   3   5
BRANCH   1  12
HETATM   12  O1  UNL     1      16.958  15.825  17.437  1.00  0.00    -0.294 OA
BRANCH  12  13
HETATM   13  C2  UNL     1      17.350  17.096  17.843  1.00  0.00     0.061 C 
HETATM   14  C1  UNL     1      16.106  17.782  18.428  1.00  0.00     0.046 C 
HETATM   15  C3  UNL     1      18.379  17.096  18.950  1.00  0.00     0.046 C 
HETATM   16  C4  UNL     1      17.846  17.952  16.716  1.00  0.00     0.046 C 
ENDBRANCH  12  13
ENDBRANCH   1  12
TORSDOF 3
ENDMDL
