MODEL 1
REMARK VINA RESULT: -7.049712090      0.000      0.000
REMARK  15 active torsions:
REMARK  status: ('A' for Active; 'I' for Inactive)
REMARK    1  A    between atoms: C2_2  and  C3_3 
REMARK    2  A    between atoms: C3_3  and  N1_4 
REMARK    3  A    between atoms: N1_4  and  C4_5 
REMARK       I    between atoms: N1_4  and  C11_15 
REMARK    4  A    between atoms: C4_5  and  C5_6 
REMARK       I    between atoms: C5_6  and  N2_8 
REMARK    5  A    between atoms: N2_8  and  C6_10 
REMARK    6  A    between atoms: C11_15  and  C12_17 
REMARK    7  A    between atoms: C12_17  and  C13_18 
REMARK    8  A    between atoms: C13_18  and  N3_19 
REMARK       I    between atoms: N3_19  and  C14_21 
REMARK    9  A    between atoms: C14_21  and  C15_23 
REMARK   10  A    between atoms: C15_23  and  N4_24 
REMARK   11  A    between atoms: N4_24  and  C18_27 
REMARK   12  A    between atoms: C18_27  and  C19_28 
REMARK   13  A    between atoms: C19_28  and  C20_29 
REMARK   14  A    between atoms: C20_29  and  C21_30 
REMARK   15  A    between atoms: C21_30  and  C22_31 
ROOT
HETATM    1  N3  UNL     1       3.515   5.140  23.240  1.00  0.00    -0.356 N 
ATOM      2  H3  UNL     1       4.205   5.887  23.319  1.00  0.00     0.162 HD
HETATM    3  C14 UNL     1       2.365   5.130  24.065  1.00  0.00     0.264 C 
HETATM    4  O3  UNL     1       1.546   4.204  23.951  1.00  0.00    -0.267 OA
ENDROOT
BRANCH   3   5
HETATM    5  C15 UNL     1       2.190   6.209  25.010  1.00  0.00     0.275 C 
BRANCH   5   6
HETATM    6  N4  UNL     1       1.584   7.435  24.501  1.00  0.00    -0.050 N 
HETATM    7  C16 UNL     1       1.530   7.279  23.046  1.00  0.00     0.278 C 
HETATM    8  C17 UNL     1       0.248   7.442  25.058  1.00  0.00     0.278 C 
BRANCH   6   9
HETATM    9  C18 UNL     1       2.423   8.508  24.848  1.00  0.00     0.242 C 
BRANCH   9  10
HETATM   10  C19 UNL     1       3.512   8.924  23.891  1.00  0.00     0.028 C 
BRANCH  10  11
HETATM   11  C20 UNL     1       4.886   8.552  24.284  1.00  0.00     0.004 C 
BRANCH  11  12
HETATM   12  C21 UNL     1       5.868   8.473  23.194  1.00  0.00     0.034 C 
BRANCH  12  13
HETATM   13  C22 UNL     1       7.249   8.035  23.438  1.00  0.00     0.064 C 
HETATM   14  C23 UNL     1       7.674   7.088  22.296  1.00  0.00     0.107 C 
HETATM   15  S1  UNL     1       8.270   8.310  21.084  1.00  0.00    -0.164 SA
HETATM   16  C24 UNL     1       8.561   9.704  22.210  1.00  0.00     0.101 C 
HETATM   17  C25 UNL     1       8.266   9.101  23.548  1.00  0.00     0.124 C 
HETATM   18  N5  UNL     1       9.403   8.422  24.138  1.00  0.00    -0.335 N 
HETATM   19  C26 UNL     1       8.805   7.482  25.032  1.00  0.00     0.317 C 
ATOM     20  H5  UNL     1      10.395   8.577  23.957  1.00  0.00     0.164 HD
HETATM   21  O4  UNL     1       9.438   6.985  26.025  1.00  0.00    -0.247 OA
HETATM   22  N6  UNL     1       7.468   7.231  24.626  1.00  0.00    -0.331 N 
ATOM     23  H6  UNL     1       6.796   6.610  25.078  1.00  0.00     0.165 HD
ENDBRANCH  12  13
ENDBRANCH  11  12
ENDBRANCH  10  11
ENDBRANCH   9  10
ENDBRANCH   6   9
ENDBRANCH   5   6
ENDBRANCH   3   5
BRANCH   1  24
HETATM   24  C13 UNL     1       3.694   4.070  22.285  1.00  0.00     0.132 C 
BRANCH  24  25
HETATM   25  C12 UNL     1       3.101   4.390  20.930  1.00  0.00     0.122 C 
BRANCH  25  26
HETATM   26  C11 UNL     1       4.082   5.197  20.173  1.00  0.00     0.222 C 
HETATM   27  N1  UNL     1       4.583   4.743  18.930  1.00  0.00    -0.340 N 
HETATM   28  O2  UNL     1       4.463   6.307  20.662  1.00  0.00    -0.273 OA
BRANCH  27  29
HETATM   29  C3  UNL     1       5.552   5.501  18.157  1.00  0.00     0.153 C 
BRANCH  29  30
HETATM   30  C2  UNL     1       6.800   5.724  18.911  1.00  0.00    -0.017 C 
HETATM   31  C1  UNL     1       7.758   4.809  19.009  1.00  0.00     0.008 C 
ENDBRANCH  29  30
ENDBRANCH  27  29
BRANCH  27  32
HETATM   32  C4  UNL     1       4.124   3.485  18.400  1.00  0.00     0.228 C 
BRANCH  32  33
HETATM   33  C5  UNL     1       5.076   2.375  18.572  1.00  0.00     0.235 C 
HETATM   34  O1  UNL     1       4.888   1.642  19.599  1.00  0.00    -0.272 OA
HETATM   35  N2  UNL     1       6.145   2.065  17.717  1.00  0.00    -0.355 N 
ATOM     36  H2  UNL     1       6.305   2.642  16.892  1.00  0.00     0.162 HD
BRANCH  35  37
HETATM   37  C6  UNL     1       7.036   0.932  17.979  1.00  0.00     0.084 C 
HETATM   38  C7  UNL     1       8.160   1.322  18.870  1.00  0.00     0.025 C 
HETATM   39  C8  UNL     1       9.431   1.062  18.133  1.00  0.00     0.002 C 
HETATM   40  C9  UNL     1       9.038   0.893  16.690  1.00  0.00     0.002 C 
HETATM   41  C10 UNL     1       7.614   0.455  16.709  1.00  0.00     0.025 C 
ENDBRANCH  35  37
ENDBRANCH  32  33
ENDBRANCH  27  32
ENDBRANCH  25  26
ENDBRANCH  24  25
ENDBRANCH   1  24
TORSDOF 15
ENDMDL
MODEL 2
REMARK VINA RESULT: -7.034217010      1.841      3.671
REMARK  15 active torsions:
REMARK  status: ('A' for Active; 'I' for Inactive)
REMARK    1  A    between atoms: C2_2  and  C3_3 
REMARK    2  A    between atoms: C3_3  and  N1_4 
REMARK    3  A    between atoms: N1_4  and  C4_5 
REMARK       I    between atoms: N1_4  and  C11_15 
REMARK    4  A    between atoms: C4_5  and  C5_6 
REMARK       I    between atoms: C5_6  and  N2_8 
REMARK    5  A    between atoms: N2_8  and  C6_10 
REMARK    6  A    between atoms: C11_15  and  C12_17 
REMARK    7  A    between atoms: C12_17  and  C13_18 
REMARK    8  A    between atoms: C13_18  and  N3_19 
REMARK       I    between atoms: N3_19  and  C14_21 
REMARK    9  A    between atoms: C14_21  and  C15_23 
REMARK   10  A    between atoms: C15_23  and  N4_24 
REMARK   11  A    between atoms: N4_24  and  C18_27 
REMARK   12  A    between atoms: C18_27  and  C19_28 
REMARK   13  A    between atoms: C19_28  and  C20_29 
REMARK   14  A    between atoms: C20_29  and  C21_30 
REMARK   15  A    between atoms: C21_30  and  C22_31 
ROOT
HETATM    1  N3  UNL     1       4.069   5.388  21.162  1.00  0.00    -0.356 N 
ATOM      2  H3  UNL     1       4.072   4.461  21.586  1.00  0.00     0.162 HD
HETATM    3  C14 UNL     1       3.062   6.326  21.488  1.00  0.00     0.264 C 
HETATM    4  O3  UNL     1       3.080   7.446  20.951  1.00  0.00    -0.267 OA
ENDROOT
BRANCH   3   5
HETATM    5  C15 UNL     1       2.047   5.940  22.441  1.00  0.00     0.275 C 
BRANCH   5   6
HETATM    6  N4  UNL     1       2.205   6.436  23.804  1.00  0.00    -0.050 N 
HETATM    7  C16 UNL     1       1.497   7.718  23.846  1.00  0.00     0.278 C 
HETATM    8  C17 UNL     1       1.528   5.459  24.631  1.00  0.00     0.278 C 
BRANCH   6   9
HETATM    9  C18 UNL     1       3.577   6.626  24.039  1.00  0.00     0.242 C 
BRANCH   9  10
HETATM   10  C19 UNL     1       4.017   7.762  24.929  1.00  0.00     0.028 C 
BRANCH  10  11
HETATM   11  C20 UNL     1       4.978   8.709  24.329  1.00  0.00     0.004 C 
BRANCH  11  12
HETATM   12  C21 UNL     1       5.815   8.176  23.246  1.00  0.00     0.034 C 
BRANCH  12  13
HETATM   13  C22 UNL     1       7.242   7.892  23.450  1.00  0.00     0.064 C 
HETATM   14  C23 UNL     1       7.734   6.990  22.299  1.00  0.00     0.107 C 
HETATM   15  S1  UNL     1       8.159   8.261  21.067  1.00  0.00    -0.164 SA
HETATM   16  C24 UNL     1       8.328   9.686  22.179  1.00  0.00     0.101 C 
HETATM   17  C25 UNL     1       8.140   9.063  23.527  1.00  0.00     0.124 C 
HETATM   18  N5  UNL     1       9.360   8.515  24.085  1.00  0.00    -0.335 N 
HETATM   19  C26 UNL     1       8.894   7.521  24.999  1.00  0.00     0.317 C 
ATOM     20  H5  UNL     1      10.324   8.776  23.874  1.00  0.00     0.164 HD
HETATM   21  O4  UNL     1       9.606   7.103  25.975  1.00  0.00    -0.247 OA
HETATM   22  N6  UNL     1       7.582   7.124  24.634  1.00  0.00    -0.331 N 
ATOM     23  H6  UNL     1       6.995   6.437  25.108  1.00  0.00     0.165 HD
ENDBRANCH  12  13
ENDBRANCH  11  12
ENDBRANCH  10  11
ENDBRANCH   9  10
ENDBRANCH   6   9
ENDBRANCH   5   6
ENDBRANCH   3   5
BRANCH   1  24
HETATM   24  C13 UNL     1       5.093   5.769  20.217  1.00  0.00     0.132 C 
BRANCH  24  25
HETATM   25  C12 UNL     1       5.229   4.788  19.072  1.00  0.00     0.122 C 
BRANCH  25  26
HETATM   26  C11 UNL     1       6.660   4.446  18.922  1.00  0.00     0.222 C 
HETATM   27  N1  UNL     1       7.083   3.095  18.931  1.00  0.00    -0.340 N 
HETATM   28  O2  UNL     1       7.499   5.389  18.783  1.00  0.00    -0.273 OA
BRANCH  27  29
HETATM   29  C3  UNL     1       8.479   2.715  18.793  1.00  0.00     0.153 C 
BRANCH  29  30
HETATM   30  C2  UNL     1       8.625   1.308  18.377  1.00  0.00    -0.017 C 
HETATM   31  C1  UNL     1       9.791   0.778  18.023  1.00  0.00     0.008 C 
ENDBRANCH  29  30
ENDBRANCH  27  29
BRANCH  27  32
HETATM   32  C4  UNL     1       6.105   2.049  19.082  1.00  0.00     0.228 C 
BRANCH  32  33
HETATM   33  C5  UNL     1       5.719   1.781  20.478  1.00  0.00     0.235 C 
HETATM   34  O1  UNL     1       6.677   1.755  21.320  1.00  0.00    -0.272 OA
HETATM   35  N2  UNL     1       4.413   1.560  20.944  1.00  0.00    -0.355 N 
ATOM     36  H2  UNL     1       3.639   1.580  20.282  1.00  0.00     0.162 HD
BRANCH  35  37
HETATM   37  C6  UNL     1       4.135   1.303  22.359  1.00  0.00     0.084 C 
HETATM   38  C7  UNL     1       3.339   0.061  22.537  1.00  0.00     0.025 C 
HETATM   39  C8  UNL     1       2.070   0.432  23.228  1.00  0.00     0.002 C 
HETATM   40  C9  UNL     1       1.960   1.928  23.099  1.00  0.00     0.002 C 
HETATM   41  C10 UNL     1       3.354   2.421  22.920  1.00  0.00     0.025 C 
ENDBRANCH  35  37
ENDBRANCH  32  33
ENDBRANCH  27  32
ENDBRANCH  25  26
ENDBRANCH  24  25
ENDBRANCH   1  24
TORSDOF 15
ENDMDL
MODEL 3
REMARK VINA RESULT: -6.998074857      2.074      3.116
REMARK  15 active torsions:
REMARK  status: ('A' for Active; 'I' for Inactive)
REMARK    1  A    between atoms: C2_2  and  C3_3 
REMARK    2  A    between atoms: C3_3  and  N1_4 
REMARK    3  A    between atoms: N1_4  and  C4_5 
REMARK       I    between atoms: N1_4  and  C11_15 
REMARK    4  A    between atoms: C4_5  and  C5_6 
REMARK       I    between atoms: C5_6  and  N2_8 
REMARK    5  A    between atoms: N2_8  and  C6_10 
REMARK    6  A    between atoms: C11_15  and  C12_17 
REMARK    7  A    between atoms: C12_17  and  C13_18 
REMARK    8  A    between atoms: C13_18  and  N3_19 
REMARK       I    between atoms: N3_19  and  C14_21 
REMARK    9  A    between atoms: C14_21  and  C15_23 
REMARK   10  A    between atoms: C15_23  and  N4_24 
REMARK   11  A    between atoms: N4_24  and  C18_27 
REMARK   12  A    between atoms: C18_27  and  C19_28 
REMARK   13  A    between atoms: C19_28  and  C20_29 
REMARK   14  A    between atoms: C20_29  and  C21_30 
REMARK   15  A    between atoms: C21_30  and  C22_31 
ROOT
HETATM    1  N3  UNL     1       3.728   4.314  21.448  1.00  0.00    -0.356 N 
ATOM      2  H3  UNL     1       3.538   4.964  20.686  1.00  0.00     0.162 HD
HETATM    3  C14 UNL     1       3.089   4.465  22.701  1.00  0.00     0.264 C 
HETATM    4  O3  UNL     1       3.346   3.662  23.613  1.00  0.00    -0.267 OA
ENDROOT
BRANCH   3   5
HETATM    5  C15 UNL     1       2.156   5.555  22.868  1.00  0.00     0.275 C 
BRANCH   5   6
HETATM    6  N4  UNL     1       2.662   6.758  23.519  1.00  0.00    -0.050 N 
HETATM    7  C16 UNL     1       2.006   7.882  22.846  1.00  0.00     0.278 C 
HETATM    8  C17 UNL     1       2.205   6.655  24.888  1.00  0.00     0.278 C 
BRANCH   6   9
HETATM    9  C18 UNL     1       4.051   6.809  23.314  1.00  0.00     0.242 C 
BRANCH   9  10
HETATM   10  C19 UNL     1       4.948   7.191  24.465  1.00  0.00     0.028 C 
BRANCH  10  11
HETATM   11  C20 UNL     1       5.617   8.502  24.347  1.00  0.00     0.004 C 
BRANCH  11  12
HETATM   12  C21 UNL     1       6.233   8.794  23.045  1.00  0.00     0.034 C 
BRANCH  12  13
HETATM   13  C22 UNL     1       7.665   8.566  22.807  1.00  0.00     0.064 C 
HETATM   14  C23 UNL     1       7.834   7.216  22.079  1.00  0.00     0.107 C 
HETATM   15  S1  UNL     1       7.630   7.766  20.355  1.00  0.00    -0.164 SA
HETATM   16  C24 UNL     1       7.993   9.530  20.577  1.00  0.00     0.101 C 
HETATM   17  C25 UNL     1       8.373   9.599  22.023  1.00  0.00     0.124 C 
HETATM   18  N5  UNL     1       9.771   9.307  22.267  1.00  0.00    -0.335 N 
HETATM   19  C26 UNL     1       9.789   8.862  23.625  1.00  0.00     0.317 C 
ATOM     20  H5  UNL     1      10.557   9.398  21.623  1.00  0.00     0.164 HD
HETATM   21  O4  UNL     1      10.846   8.900  24.342  1.00  0.00    -0.247 OA
HETATM   22  N6  UNL     1       8.495   8.406  23.987  1.00  0.00    -0.331 N 
ATOM     23  H6  UNL     1       8.206   8.038  24.894  1.00  0.00     0.165 HD
ENDBRANCH  12  13
ENDBRANCH  11  12
ENDBRANCH  10  11
ENDBRANCH   9  10
ENDBRANCH   6   9
ENDBRANCH   5   6
ENDBRANCH   3   5
BRANCH   1  24
HETATM   24  C13 UNL     1       4.656   3.221  21.269  1.00  0.00     0.132 C 
BRANCH  24  25
HETATM   25  C12 UNL     1       5.994   3.672  20.723  1.00  0.00     0.122 C 
BRANCH  25  26
HETATM   26  C11 UNL     1       6.819   2.472  20.467  1.00  0.00     0.222 C 
HETATM   27  N1  UNL     1       7.281   2.179  19.162  1.00  0.00    -0.340 N 
HETATM   28  O2  UNL     1       7.105   1.711  21.444  1.00  0.00    -0.273 OA
BRANCH  27  29
HETATM   29  C3  UNL     1       8.088   1.007  18.865  1.00  0.00     0.153 C 
BRANCH  29  30
HETATM   30  C2  UNL     1       9.317   1.360  18.131  1.00  0.00    -0.017 C 
HETATM   31  C1  UNL     1      10.226   0.460  17.771  1.00  0.00     0.008 C 
ENDBRANCH  29  30
ENDBRANCH  27  29
BRANCH  27  32
HETATM   32  C4  UNL     1       6.946   3.066  18.078  1.00  0.00     0.228 C 
BRANCH  32  33
HETATM   33  C5  UNL     1       5.911   2.546  17.170  1.00  0.00     0.235 C 
HETATM   34  O1  UNL     1       4.706   2.687  17.567  1.00  0.00    -0.272 OA
HETATM   35  N2  UNL     1       6.137   1.923  15.932  1.00  0.00    -0.355 N 
ATOM     36  H2  UNL     1       7.094   1.804  15.603  1.00  0.00     0.162 HD
BRANCH  35  37
HETATM   37  C6  UNL     1       5.032   1.439  15.100  1.00  0.00     0.084 C 
HETATM   38  C7  UNL     1       5.090  -0.035  14.926  1.00  0.00     0.025 C 
HETATM   39  C8  UNL     1       5.195  -0.313  13.464  1.00  0.00     0.002 C 
HETATM   40  C9  UNL     1       5.587   0.994  12.828  1.00  0.00     0.002 C 
HETATM   41  C10 UNL     1       5.115   2.054  13.762  1.00  0.00     0.025 C 
ENDBRANCH  35  37
ENDBRANCH  32  33
ENDBRANCH  27  32
ENDBRANCH  25  26
ENDBRANCH  24  25
ENDBRANCH   1  24
TORSDOF 15
ENDMDL
MODEL 4
REMARK VINA RESULT: -6.995184610      1.708      2.542
REMARK  15 active torsions:
REMARK  status: ('A' for Active; 'I' for Inactive)
REMARK    1  A    between atoms: C2_2  and  C3_3 
REMARK    2  A    between atoms: C3_3  and  N1_4 
REMARK    3  A    between atoms: N1_4  and  C4_5 
REMARK       I    between atoms: N1_4  and  C11_15 
REMARK    4  A    between atoms: C4_5  and  C5_6 
REMARK       I    between atoms: C5_6  and  N2_8 
REMARK    5  A    between atoms: N2_8  and  C6_10 
REMARK    6  A    between atoms: C11_15  and  C12_17 
REMARK    7  A    between atoms: C12_17  and  C13_18 
REMARK    8  A    between atoms: C13_18  and  N3_19 
REMARK       I    between atoms: N3_19  and  C14_21 
REMARK    9  A    between atoms: C14_21  and  C15_23 
REMARK   10  A    between atoms: C15_23  and  N4_24 
REMARK   11  A    between atoms: N4_24  and  C18_27 
REMARK   12  A    between atoms: C18_27  and  C19_28 
REMARK   13  A    between atoms: C19_28  and  C20_29 
REMARK   14  A    between atoms: C20_29  and  C21_30 
REMARK   15  A    between atoms: C21_30  and  C22_31 
ROOT
HETATM    1  N3  UNL     1       3.483   6.210  22.405  1.00  0.00    -0.356 N 
ATOM      2  H3  UNL     1       3.481   6.854  21.614  1.00  0.00     0.162 HD
HETATM    3  C14 UNL     1       2.559   6.367  23.465  1.00  0.00     0.264 C 
HETATM    4  O3  UNL     1       2.589   5.572  24.419  1.00  0.00    -0.267 OA
ENDROOT
BRANCH   3   5
HETATM    5  C15 UNL     1       1.610   7.454  23.391  1.00  0.00     0.275 C 
BRANCH   5   6
HETATM    6  N4  UNL     1       2.022   8.726  23.976  1.00  0.00    -0.050 N 
HETATM    7  C16 UNL     1       1.199   9.748  23.326  1.00  0.00     0.278 C 
HETATM    8  C17 UNL     1       1.676   8.615  25.377  1.00  0.00     0.278 C 
BRANCH   6   9
HETATM    9  C18 UNL     1       3.379   8.922  23.669  1.00  0.00     0.242 C 
BRANCH   9  10
HETATM   10  C19 UNL     1       4.393   8.899  24.786  1.00  0.00     0.028 C 
BRANCH  10  11
HETATM   11  C20 UNL     1       5.718   8.351  24.436  1.00  0.00     0.004 C 
BRANCH  11  12
HETATM   12  C21 UNL     1       6.201   8.653  23.081  1.00  0.00     0.034 C 
BRANCH  12  13
HETATM   13  C22 UNL     1       7.621   8.522  22.728  1.00  0.00     0.064 C 
HETATM   14  C23 UNL     1       7.800   7.253  21.869  1.00  0.00     0.107 C 
HETATM   15  S1  UNL     1       7.448   7.940  20.220  1.00  0.00    -0.164 SA
HETATM   16  C24 UNL     1       7.743   9.695  20.578  1.00  0.00     0.101 C 
HETATM   17  C25 UNL     1       8.222   9.656  21.996  1.00  0.00     0.124 C 
HETATM   18  N5  UNL     1       9.647   9.418  22.118  1.00  0.00    -0.335 N 
HETATM   19  C26 UNL     1       9.782   8.856  23.424  1.00  0.00     0.317 C 
ATOM     20  H5  UNL     1      10.379   9.606  21.433  1.00  0.00     0.164 HD
HETATM   21  O4  UNL     1      10.885   8.886  24.070  1.00  0.00    -0.247 OA
HETATM   22  N6  UNL     1       8.540   8.302  23.830  1.00  0.00    -0.331 N 
ATOM     23  H6  UNL     1       8.334   7.842  24.717  1.00  0.00     0.165 HD
ENDBRANCH  12  13
ENDBRANCH  11  12
ENDBRANCH  10  11
ENDBRANCH   9  10
ENDBRANCH   6   9
ENDBRANCH   5   6
ENDBRANCH   3   5
BRANCH   1  24
HETATM   24  C13 UNL     1       4.430   5.120  22.466  1.00  0.00     0.132 C 
BRANCH  24  25
HETATM   25  C12 UNL     1       5.029   4.790  21.116  1.00  0.00     0.122 C 
BRANCH  25  26
HETATM   26  C11 UNL     1       4.067   3.945  20.375  1.00  0.00     0.222 C 
HETATM   27  N1  UNL     1       4.430   2.647  19.945  1.00  0.00    -0.340 N 
HETATM   28  O2  UNL     1       2.909   4.410  20.136  1.00  0.00    -0.273 OA
BRANCH  27  29
HETATM   29  C3  UNL     1       3.518   1.787  19.209  1.00  0.00     0.153 C 
BRANCH  29  30
HETATM   30  C2  UNL     1       2.925   0.750  20.073  1.00  0.00    -0.017 C 
HETATM   31  C1  UNL     1       1.812   0.943  20.772  1.00  0.00     0.008 C 
ENDBRANCH  29  30
ENDBRANCH  27  29
BRANCH  27  32
HETATM   32  C4  UNL     1       5.748   2.147  20.239  1.00  0.00     0.228 C 
BRANCH  32  33
HETATM   33  C5  UNL     1       6.678   2.191  19.098  1.00  0.00     0.235 C 
HETATM   34  O1  UNL     1       6.729   3.300  18.469  1.00  0.00    -0.272 OA
HETATM   35  N2  UNL     1       7.496   1.137  18.660  1.00  0.00    -0.355 N 
ATOM     36  H2  UNL     1       7.466   0.246  19.154  1.00  0.00     0.162 HD
BRANCH  35  37
HETATM   37  C6  UNL     1       8.391   1.285  17.510  1.00  0.00     0.084 C 
HETATM   38  C7  UNL     1       8.265   0.138  16.574  1.00  0.00     0.025 C 
HETATM   39  C8  UNL     1       9.607  -0.505  16.463  1.00  0.00     0.002 C 
HETATM   40  C9  UNL     1      10.408   0.025  17.622  1.00  0.00     0.002 C 
HETATM   41  C10 UNL     1       9.790   1.333  17.976  1.00  0.00     0.025 C 
ENDBRANCH  35  37
ENDBRANCH  32  33
ENDBRANCH  27  32
ENDBRANCH  25  26
ENDBRANCH  24  25
ENDBRANCH   1  24
TORSDOF 15
ENDMDL
MODEL 5
REMARK VINA RESULT: -6.864211320      2.769      4.031
REMARK  15 active torsions:
REMARK  status: ('A' for Active; 'I' for Inactive)
REMARK    1  A    between atoms: C2_2  and  C3_3 
REMARK    2  A    between atoms: C3_3  and  N1_4 
REMARK    3  A    between atoms: N1_4  and  C4_5 
REMARK       I    between atoms: N1_4  and  C11_15 
REMARK    4  A    between atoms: C4_5  and  C5_6 
REMARK       I    between atoms: C5_6  and  N2_8 
REMARK    5  A    between atoms: N2_8  and  C6_10 
REMARK    6  A    between atoms: C11_15  and  C12_17 
REMARK    7  A    between atoms: C12_17  and  C13_18 
REMARK    8  A    between atoms: C13_18  and  N3_19 
REMARK       I    between atoms: N3_19  and  C14_21 
REMARK    9  A    between atoms: C14_21  and  C15_23 
REMARK   10  A    between atoms: C15_23  and  N4_24 
REMARK   11  A    between atoms: N4_24  and  C18_27 
REMARK   12  A    between atoms: C18_27  and  C19_28 
REMARK   13  A    between atoms: C19_28  and  C20_29 
REMARK   14  A    between atoms: C20_29  and  C21_30 
REMARK   15  A    between atoms: C21_30  and  C22_31 
ROOT
HETATM    1  N3  UNL     1       4.472   4.181  22.609  1.00  0.00    -0.356 N 
ATOM      2  H3  UNL     1       4.844   3.877  23.509  1.00  0.00     0.162 HD
HETATM    3  C14 UNL     1       3.688   5.355  22.513  1.00  0.00     0.264 C 
HETATM    4  O3  UNL     1       3.242   5.697  21.405  1.00  0.00    -0.267 OA
ENDROOT
BRANCH   3   5
HETATM    5  C15 UNL     1       3.438   6.113  23.717  1.00  0.00     0.275 C 
BRANCH   5   6
HETATM    6  N4  UNL     1       4.140   7.385  23.849  1.00  0.00    -0.050 N 
HETATM    7  C16 UNL     1       3.492   8.298  22.905  1.00  0.00     0.278 C 
HETATM    8  C17 UNL     1       3.888   7.805  25.210  1.00  0.00     0.278 C 
BRANCH   6   9
HETATM    9  C18 UNL     1       5.482   7.178  23.485  1.00  0.00     0.242 C 
BRANCH   9  10
HETATM   10  C19 UNL     1       6.560   7.964  24.188  1.00  0.00     0.028 C 
BRANCH  10  11
HETATM   11  C20 UNL     1       7.439   8.767  23.314  1.00  0.00     0.004 C 
BRANCH  11  12
HETATM   12  C21 UNL     1       7.789   8.161  22.023  1.00  0.00     0.034 C 
BRANCH  12  13
HETATM   13  C22 UNL     1       7.692   8.921  20.769  1.00  0.00     0.064 C 
HETATM   14  C23 UNL     1       8.330   8.088  19.638  1.00  0.00     0.107 C 
HETATM   15  S1  UNL     1       6.895   7.081  19.145  1.00  0.00    -0.164 SA
HETATM   16  C24 UNL     1       5.574   8.121  19.827  1.00  0.00     0.101 C 
HETATM   17  C25 UNL     1       6.332   9.307  20.339  1.00  0.00     0.124 C 
HETATM   18  N5  UNL     1       6.572  10.318  19.330  1.00  0.00    -0.335 N 
HETATM   19  C26 UNL     1       7.726  11.007  19.814  1.00  0.00     0.317 C 
ATOM     20  H5  UNL     1       6.044  10.496  18.476  1.00  0.00     0.164 HD
HETATM   21  O4  UNL     1       8.014  12.198  19.449  1.00  0.00    -0.247 OA
HETATM   22  N6  UNL     1       8.433  10.168  20.714  1.00  0.00    -0.331 N 
ATOM     23  H6  UNL     1       9.290  10.394  21.219  1.00  0.00     0.165 HD
ENDBRANCH  12  13
ENDBRANCH  11  12
ENDBRANCH  10  11
ENDBRANCH   9  10
ENDBRANCH   6   9
ENDBRANCH   5   6
ENDBRANCH   3   5
BRANCH   1  24
HETATM   24  C13 UNL     1       4.734   3.421  21.408  1.00  0.00     0.132 C 
BRANCH  24  25
HETATM   25  C12 UNL     1       6.040   3.806  20.746  1.00  0.00     0.122 C 
BRANCH  25  26
HETATM   26  C11 UNL     1       6.815   2.571  20.496  1.00  0.00     0.222 C 
HETATM   27  N1  UNL     1       7.268   2.256  19.193  1.00  0.00    -0.340 N 
HETATM   28  O2  UNL     1       7.066   1.803  21.476  1.00  0.00    -0.273 OA
BRANCH  27  29
HETATM   29  C3  UNL     1       8.025   1.050  18.903  1.00  0.00     0.153 C 
BRANCH  29  30
HETATM   30  C2  UNL     1       9.274   1.349  18.178  1.00  0.00    -0.017 C 
HETATM   31  C1  UNL     1      10.144   0.411  17.820  1.00  0.00     0.008 C 
ENDBRANCH  29  30
ENDBRANCH  27  29
BRANCH  27  32
HETATM   32  C4  UNL     1       6.973   3.152  18.106  1.00  0.00     0.228 C 
BRANCH  32  33
HETATM   33  C5  UNL     1       5.919   2.672  17.196  1.00  0.00     0.235 C 
HETATM   34  O1  UNL     1       4.721   2.843  17.601  1.00  0.00    -0.272 OA
HETATM   35  N2  UNL     1       6.121   2.059  15.950  1.00  0.00    -0.355 N 
ATOM     36  H2  UNL     1       7.074   1.917  15.615  1.00  0.00     0.162 HD
BRANCH  35  37
HETATM   37  C6  UNL     1       4.999   1.617  15.118  1.00  0.00     0.084 C 
HETATM   38  C7  UNL     1       4.970   0.137  14.990  1.00  0.00     0.025 C 
HETATM   39  C8  UNL     1       5.075  -0.193  13.538  1.00  0.00     0.002 C 
HETATM   40  C9  UNL     1       5.553   1.068  12.869  1.00  0.00     0.002 C 
HETATM   41  C10 UNL     1       5.136   2.183  13.763  1.00  0.00     0.025 C 
ENDBRANCH  35  37
ENDBRANCH  32  33
ENDBRANCH  27  32
ENDBRANCH  25  26
ENDBRANCH  24  25
ENDBRANCH   1  24
TORSDOF 15
ENDMDL
