MODEL 1
REMARK VINA RESULT: -7.042474037      0.000      0.000
REMARK  19 active torsions:
REMARK  status: ('A' for Active; 'I' for Inactive)
REMARK    1  A    between atoms: C2_2  and  C4_4 
REMARK    2  A    between atoms: C4_4  and  C5_5 
REMARK    3  A    between atoms: C4_4  and  N1_7 
REMARK       I    between atoms: N1_7  and  C6_9 
REMARK       I    between atoms: C6_9  and  N3_14 
REMARK    4  A    between atoms: N2_10  and  O2_12 
REMARK    5  A    between atoms: C10_18  and  C11_19 
REMARK       I    between atoms: C11_19  and  N4_21 
REMARK    6  A    between atoms: N4_21  and  C12_23 
REMARK    7  A    between atoms: C12_23  and  C13_24 
REMARK    8  A    between atoms: C13_24  and  C14_25 
REMARK    9  A    between atoms: C14_25  and  C15_26 
REMARK   10  A    between atoms: C15_26  and  C16_27 
REMARK   11  A    between atoms: C16_27  and  C17_28 
REMARK   12  A    between atoms: C16_27  and  N7_34 
REMARK   13  A    between atoms: C17_28  and  N5_29 
REMARK   14  A    between atoms: C18_36  and  C19_37 
REMARK   15  A    between atoms: C19_37  and  N8_38 
REMARK   16  A    between atoms: N8_38  and  C20_39 
REMARK   17  A    between atoms: N8_38  and  C22_41 
REMARK   18  A    between atoms: C22_41  and  O4_42 
REMARK   19  A    between atoms: C22_41  and  N9_44 
ROOT
HETATM    1  C13 UNL     1       8.322   9.216  20.693  1.00  0.00     0.020 C 
ENDROOT
BRANCH   1   2
HETATM    2  C12 UNL     1       8.247   7.987  19.851  1.00  0.00     0.122 C 
BRANCH   2   3
HETATM    3  N4  UNL     1       6.890   7.539  19.724  1.00  0.00    -0.359 N 
HETATM    4  C11 UNL     1       6.391   6.468  20.550  1.00  0.00     0.241 C 
HETATM    5  O3  UNL     1       7.179   5.960  21.364  1.00  0.00    -0.271 OA
ATOM      6  H4  UNL     1       6.274   7.982  19.044  1.00  0.00     0.162 HD
BRANCH   4   7
HETATM    7  C10 UNL     1       4.988   6.008  20.415  1.00  0.00     0.194 C 
HETATM    8  N3  UNL     1       4.770   4.887  19.588  1.00  0.00    -0.203 N 
HETATM    9  C6  UNL     1       5.459   4.325  18.471  1.00  0.00     0.697 C 
HETATM   10  C7  UNL     1       3.520   4.237  20.050  1.00  0.00     0.142 C 
HETATM   11  N1  UNL     1       5.762   2.940  18.497  1.00  0.00    -0.210 N 
HETATM   12  N2  UNL     1       5.758   5.046  17.482  1.00  0.00    -0.099 N 
ATOM     13  H1  UNL     1       5.014   2.318  18.191  1.00  0.00     0.179 HD
ATOM     14  H2  UNL     1       6.227   4.564  16.715  1.00  0.00     0.213 HD
HETATM   15  C8  UNL     1       3.135   4.940  21.332  1.00  0.00     0.023 C 
HETATM   16  C9  UNL     1       4.454   5.560  21.784  1.00  0.00     0.037 C 
BRANCH  11  17
HETATM   17  C4  UNL     1       6.958   2.310  18.890  1.00  0.00     0.189 C 
BRANCH  17  18
HETATM   18  C2  UNL     1       7.422   1.300  17.910  1.00  0.00    -0.064 C 
HETATM   19  C1  UNL     1       6.681   0.930  16.893  1.00  0.00     0.016 C 
HETATM   20  C3  UNL     1       8.808   0.707  18.078  1.00  0.00     0.045 C 
ENDBRANCH  17  18
BRANCH  17  21
HETATM   21  C5  UNL     1       8.074   3.161  19.355  1.00  0.00     0.261 C 
HETATM   22  O1  UNL     1       8.483   4.168  18.829  1.00  0.00    -0.304 OA
ENDBRANCH  17  21
ENDBRANCH  11  17
BRANCH  12  23
HETATM   23  O2  UNL     1       5.545   6.367  17.291  1.00  0.00    -0.276 OA
ATOM     24  H2  UNL     1       5.177   6.814  16.538  1.00  0.00     0.245 HD
ENDBRANCH  12  23
ENDBRANCH   4   7
ENDBRANCH   2   3
ENDBRANCH   1   2
BRANCH   1  25
HETATM   25  C14 UNL     1       9.055   8.988  21.980  1.00  0.00     0.004 C 
BRANCH  25  26
HETATM   26  C15 UNL     1       8.163   8.920  23.191  1.00  0.00     0.027 C 
BRANCH  26  27
HETATM   27  C16 UNL     1       8.382   7.684  24.012  1.00  0.00     0.100 C 
BRANCH  27  28
HETATM   28  C17 UNL     1       9.086   7.974  25.319  1.00  0.00     0.163 C 
BRANCH  28  29
HETATM   29  N5  UNL     1       9.051   6.811  26.182  1.00  0.00    -0.341 N 
HETATM   30  N6  UNL     1       9.440   6.969  27.338  1.00  0.00    -0.349 N 
ATOM     31  H62 UNL     1       9.767   7.880  27.658  1.00  0.00     0.176 HD
ATOM     32  H61 UNL     1       9.415   6.150  27.946  1.00  0.00     0.176 HD
ATOM     33  H5  UNL     1       8.721   5.906  25.848  1.00  0.00     0.179 HD
ENDBRANCH  28  29
ENDBRANCH  27  28
BRANCH  27  34
HETATM   34  N7  UNL     1       7.063   7.197  24.395  1.00  0.00    -0.394 N 
HETATM   35  C18 UNL     1       6.062   7.967  24.379  1.00  0.00     0.075 C 
ATOM     36  H7  UNL     1       6.947   6.224  24.679  1.00  0.00     0.159 HD
BRANCH  35  37
HETATM   37  C19 UNL     1       4.735   7.454  24.769  1.00  0.00     0.170 C 
BRANCH  37  38
HETATM   38  N8  UNL     1       3.732   8.404  24.211  1.00  0.00    -0.343 N 
BRANCH  38  39
HETATM   39  C20 UNL     1       4.074   8.993  22.967  1.00  0.00     0.122 C 
HETATM   40  C21 UNL     1       2.890   8.909  22.024  1.00  0.00     0.026 C 
ENDBRANCH  38  39
BRANCH  38  41
HETATM   41  C22 UNL     1       2.574   8.660  24.941  1.00  0.00     0.217 C 
BRANCH  41  42
HETATM   42  O4  UNL     1       2.556   9.846  25.558  1.00  0.00    -0.333 OA
ATOM     43  H4  UNL     1       1.729  10.311  25.498  1.00  0.00     0.220 HD
ENDBRANCH  41  42
BRANCH  41  44
HETATM   44  N9  UNL     1       1.421   7.936  25.171  1.00  0.00    -0.347 N 
HETATM   45  C23 UNL     1       0.192   8.535  25.778  1.00  0.00     0.126 C 
HETATM   46  C24 UNL     1      -0.860   8.009  24.830  1.00  0.00     0.021 C 
HETATM   47  C25 UNL     1      -0.264   6.792  24.151  1.00  0.00     0.021 C 
HETATM   48  C26 UNL     1       1.036   6.588  24.972  1.00  0.00     0.126 C 
ENDBRANCH  41  44
ENDBRANCH  38  41
ENDBRANCH  37  38
ENDBRANCH  35  37
ENDBRANCH  27  34
ENDBRANCH  26  27
ENDBRANCH  25  26
ENDBRANCH   1  25
TORSDOF 19
ENDMDL
MODEL 2
REMARK VINA RESULT: -6.715997564      1.462      3.284
REMARK  19 active torsions:
REMARK  status: ('A' for Active; 'I' for Inactive)
REMARK    1  A    between atoms: C2_2  and  C4_4 
REMARK    2  A    between atoms: C4_4  and  C5_5 
REMARK    3  A    between atoms: C4_4  and  N1_7 
REMARK       I    between atoms: N1_7  and  C6_9 
REMARK       I    between atoms: C6_9  and  N3_14 
REMARK    4  A    between atoms: N2_10  and  O2_12 
REMARK    5  A    between atoms: C10_18  and  C11_19 
REMARK       I    between atoms: C11_19  and  N4_21 
REMARK    6  A    between atoms: N4_21  and  C12_23 
REMARK    7  A    between atoms: C12_23  and  C13_24 
REMARK    8  A    between atoms: C13_24  and  C14_25 
REMARK    9  A    between atoms: C14_25  and  C15_26 
REMARK   10  A    between atoms: C15_26  and  C16_27 
REMARK   11  A    between atoms: C16_27  and  C17_28 
REMARK   12  A    between atoms: C16_27  and  N7_34 
REMARK   13  A    between atoms: C17_28  and  N5_29 
REMARK   14  A    between atoms: C18_36  and  C19_37 
REMARK   15  A    between atoms: C19_37  and  N8_38 
REMARK   16  A    between atoms: N8_38  and  C20_39 
REMARK   17  A    between atoms: N8_38  and  C22_41 
REMARK   18  A    between atoms: C22_41  and  O4_42 
REMARK   19  A    between atoms: C22_41  and  N9_44 
ROOT
HETATM    1  C13 UNL     1       8.526   9.185  20.737  1.00  0.00     0.020 C 
ENDROOT
BRANCH   1   2
HETATM    2  C12 UNL     1       7.237   8.470  20.509  1.00  0.00     0.122 C 
BRANCH   2   3
HETATM    3  N4  UNL     1       7.471   7.135  20.041  1.00  0.00    -0.359 N 
HETATM    4  C11 UNL     1       6.891   6.005  20.723  1.00  0.00     0.241 C 
HETATM    5  O3  UNL     1       6.189   6.240  21.721  1.00  0.00    -0.271 OA
ATOM      6  H4  UNL     1       8.053   6.984  19.217  1.00  0.00     0.162 HD
BRANCH   4   7
HETATM    7  C10 UNL     1       7.137   4.627  20.236  1.00  0.00     0.194 C 
HETATM    8  N3  UNL     1       6.049   3.973  19.623  1.00  0.00    -0.203 N 
HETATM    9  C6  UNL     1       4.630   4.086  19.732  1.00  0.00     0.697 C 
HETATM   10  C7  UNL     1       6.610   2.954  18.703  1.00  0.00     0.142 C 
HETATM   11  N1  UNL     1       3.874   4.221  18.540  1.00  0.00    -0.210 N 
HETATM   12  N2  UNL     1       4.074   4.035  20.862  1.00  0.00    -0.099 N 
ATOM     13  H1  UNL     1       3.644   3.351  18.061  1.00  0.00     0.179 HD
ATOM     14  H2  UNL     1       3.056   4.098  20.853  1.00  0.00     0.213 HD
HETATM   15  C8  UNL     1       8.101   3.199  18.672  1.00  0.00     0.023 C 
HETATM   16  C9  UNL     1       8.213   4.647  19.141  1.00  0.00     0.037 C 
BRANCH  11  17
HETATM   17  C4  UNL     1       3.399   5.398  17.930  1.00  0.00     0.189 C 
BRANCH  17  18
HETATM   18  C2  UNL     1       2.025   5.750  18.357  1.00  0.00    -0.064 C 
HETATM   19  C1  UNL     1       1.145   4.834  18.686  1.00  0.00     0.016 C 
HETATM   20  C3  UNL     1       1.644   7.216  18.444  1.00  0.00     0.045 C 
ENDBRANCH  17  18
BRANCH  17  21
HETATM   21  C5  UNL     1       4.281   6.584  17.923  1.00  0.00     0.261 C 
HETATM   22  O1  UNL     1       5.426   6.632  17.540  1.00  0.00    -0.304 OA
ENDBRANCH  17  21
ENDBRANCH  11  17
BRANCH  12  23
HETATM   23  O2  UNL     1       4.635   3.908  22.085  1.00  0.00    -0.276 OA
ATOM     24  H2  UNL     1       4.325   4.228  22.925  1.00  0.00     0.245 HD
ENDBRANCH  12  23
ENDBRANCH   4   7
ENDBRANCH   2   3
ENDBRANCH   1   2
BRANCH   1  25
HETATM   25  C14 UNL     1       9.129   8.873  22.072  1.00  0.00     0.004 C 
BRANCH  25  26
HETATM   26  C15 UNL     1       8.139   8.861  23.207  1.00  0.00     0.027 C 
BRANCH  26  27
HETATM   27  C16 UNL     1       8.275   7.658  24.092  1.00  0.00     0.100 C 
BRANCH  27  28
HETATM   28  C17 UNL     1       8.973   7.975  25.396  1.00  0.00     0.163 C 
BRANCH  28  29
HETATM   29  N5  UNL     1       9.031   6.798  26.239  1.00  0.00    -0.341 N 
HETATM   30  N6  UNL     1       9.372   6.971  27.407  1.00  0.00    -0.349 N 
ATOM     31  H62 UNL     1       9.599   7.904  27.750  1.00  0.00     0.176 HD
ATOM     32  H61 UNL     1       9.413   6.143  28.001  1.00  0.00     0.176 HD
ATOM     33  H5  UNL     1       8.801   5.872  25.880  1.00  0.00     0.179 HD
ENDBRANCH  28  29
ENDBRANCH  27  28
BRANCH  27  34
HETATM   34  N7  UNL     1       6.925   7.265  24.474  1.00  0.00    -0.394 N 
HETATM   35  C18 UNL     1       5.978   8.101  24.447  1.00  0.00     0.075 C 
ATOM     36  H7  UNL     1       6.742   6.305  24.767  1.00  0.00     0.159 HD
BRANCH  35  37
HETATM   37  C19 UNL     1       4.618   7.682  24.837  1.00  0.00     0.170 C 
BRANCH  37  38
HETATM   38  N8  UNL     1       3.675   8.583  24.118  1.00  0.00    -0.343 N 
BRANCH  38  39
HETATM   39  C20 UNL     1       4.000   8.855  22.764  1.00  0.00     0.122 C 
HETATM   40  C21 UNL     1       3.167   7.972  21.857  1.00  0.00     0.026 C 
ENDBRANCH  38  39
BRANCH  38  41
HETATM   41  C22 UNL     1       2.585   9.103  24.812  1.00  0.00     0.217 C 
BRANCH  41  42
HETATM   42  O4  UNL     1       2.875  10.135  25.612  1.00  0.00    -0.333 OA
ATOM     43  H4  UNL     1       2.532  10.971  25.319  1.00  0.00     0.220 HD
ENDBRANCH  41  42
BRANCH  41  44
HETATM   44  N9  UNL     1       1.245   8.772  24.855  1.00  0.00    -0.347 N 
HETATM   45  C23 UNL     1       0.728   7.563  25.568  1.00  0.00     0.126 C 
HETATM   46  C24 UNL     1      -0.426   8.173  26.330  1.00  0.00     0.021 C 
HETATM   47  C25 UNL     1      -0.793   9.455  25.608  1.00  0.00     0.021 C 
HETATM   48  C26 UNL     1       0.062   9.339  24.320  1.00  0.00     0.126 C 
ENDBRANCH  41  44
ENDBRANCH  38  41
ENDBRANCH  37  38
ENDBRANCH  35  37
ENDBRANCH  27  34
ENDBRANCH  26  27
ENDBRANCH  25  26
ENDBRANCH   1  25
TORSDOF 19
ENDMDL
MODEL 3
REMARK VINA RESULT: -6.707770893      2.643      4.701
REMARK  19 active torsions:
REMARK  status: ('A' for Active; 'I' for Inactive)
REMARK    1  A    between atoms: C2_2  and  C4_4 
REMARK    2  A    between atoms: C4_4  and  C5_5 
REMARK    3  A    between atoms: C4_4  and  N1_7 
REMARK       I    between atoms: N1_7  and  C6_9 
REMARK       I    between atoms: C6_9  and  N3_14 
REMARK    4  A    between atoms: N2_10  and  O2_12 
REMARK    5  A    between atoms: C10_18  and  C11_19 
REMARK       I    between atoms: C11_19  and  N4_21 
REMARK    6  A    between atoms: N4_21  and  C12_23 
REMARK    7  A    between atoms: C12_23  and  C13_24 
REMARK    8  A    between atoms: C13_24  and  C14_25 
REMARK    9  A    between atoms: C14_25  and  C15_26 
REMARK   10  A    between atoms: C15_26  and  C16_27 
REMARK   11  A    between atoms: C16_27  and  C17_28 
REMARK   12  A    between atoms: C16_27  and  N7_34 
REMARK   13  A    between atoms: C17_28  and  N5_29 
REMARK   14  A    between atoms: C18_36  and  C19_37 
REMARK   15  A    between atoms: C19_37  and  N8_38 
REMARK   16  A    between atoms: N8_38  and  C20_39 
REMARK   17  A    between atoms: N8_38  and  C22_41 
REMARK   18  A    between atoms: C22_41  and  O4_42 
REMARK   19  A    between atoms: C22_41  and  N9_44 
ROOT
HETATM    1  C13 UNL     1       5.246   7.774  18.585  1.00  0.00     0.020 C 
ENDROOT
BRANCH   1   2
HETATM    2  C12 UNL     1       5.859   6.448  18.886  1.00  0.00     0.122 C 
BRANCH   2   3
HETATM    3  N4  UNL     1       5.044   5.383  18.375  1.00  0.00    -0.359 N 
HETATM    4  C11 UNL     1       4.879   4.162  19.122  1.00  0.00     0.241 C 
HETATM    5  O3  UNL     1       5.465   4.076  20.213  1.00  0.00    -0.271 OA
ATOM      6  H4  UNL     1       4.579   5.492  17.474  1.00  0.00     0.162 HD
BRANCH   4   7
HETATM    7  C10 UNL     1       4.037   3.064  18.589  1.00  0.00     0.194 C 
HETATM    8  N3  UNL     1       4.626   2.237  17.611  1.00  0.00    -0.203 N 
HETATM    9  C6  UNL     1       5.661   2.420  16.645  1.00  0.00     0.697 C 
HETATM   10  C7  UNL     1       3.934   0.927  17.668  1.00  0.00     0.142 C 
HETATM   11  N1  UNL     1       6.702   1.459  16.587  1.00  0.00    -0.210 N 
HETATM   12  N2  UNL     1       5.622   3.397  15.851  1.00  0.00    -0.099 N 
ATOM     13  H1  UNL     1       6.504   0.625  16.034  1.00  0.00     0.179 HD
ATOM     14  H2  UNL     1       6.385   3.443  15.175  1.00  0.00     0.213 HD
HETATM   15  C8  UNL     1       3.038   0.984  18.885  1.00  0.00     0.023 C 
HETATM   16  C9  UNL     1       3.676   2.090  19.720  1.00  0.00     0.037 C 
BRANCH  11  17
HETATM   17  C4  UNL     1       7.973   1.504  17.192  1.00  0.00     0.189 C 
BRANCH  17  18
HETATM   18  C2  UNL     1       7.929   2.027  18.577  1.00  0.00    -0.064 C 
HETATM   19  C1  UNL     1       7.505   1.297  19.581  1.00  0.00     0.016 C 
HETATM   20  C3  UNL     1       8.422   3.438  18.837  1.00  0.00     0.045 C 
ENDBRANCH  17  18
BRANCH  17  21
HETATM   21  C5  UNL     1       8.834   0.306  17.095  1.00  0.00     0.261 C 
HETATM   22  O1  UNL     1       9.364  -0.125  16.099  1.00  0.00    -0.304 OA
ENDBRANCH  17  21
ENDBRANCH  11  17
BRANCH  12  23
HETATM   23  O2  UNL     1       4.713   4.394  15.766  1.00  0.00    -0.276 OA
ATOM     24  H2  UNL     1       4.370   4.830  14.994  1.00  0.00     0.245 HD
ENDBRANCH  12  23
ENDBRANCH   4   7
ENDBRANCH   2   3
ENDBRANCH   1   2
BRANCH   1  25
HETATM   25  C14 UNL     1       6.196   8.911  18.808  1.00  0.00     0.004 C 
BRANCH  25  26
HETATM   26  C15 UNL     1       7.503   8.506  19.435  1.00  0.00     0.027 C 
BRANCH  26  27
HETATM   27  C16 UNL     1       8.319   9.676  19.899  1.00  0.00     0.100 C 
BRANCH  27  28
HETATM   28  C17 UNL     1       7.463  10.815  20.404  1.00  0.00     0.163 C 
BRANCH  28  29
HETATM   29  N5  UNL     1       7.824  12.053  19.744  1.00  0.00    -0.341 N 
HETATM   30  N6  UNL     1       8.170  12.985  20.468  1.00  0.00    -0.349 N 
ATOM     31  H62 UNL     1       8.196  12.875  21.481  1.00  0.00     0.176 HD
ATOM     32  H61 UNL     1       8.424  13.856  20.003  1.00  0.00     0.176 HD
ATOM     33  H5  UNL     1       7.793  12.146  18.729  1.00  0.00     0.179 HD
ENDBRANCH  28  29
ENDBRANCH  27  28
BRANCH  27  34
HETATM   34  N7  UNL     1       9.072   9.226  21.063  1.00  0.00    -0.394 N 
HETATM   35  C18 UNL     1       8.674   9.496  22.230  1.00  0.00     0.075 C 
ATOM     36  H7  UNL     1       9.928   8.687  20.933  1.00  0.00     0.159 HD
BRANCH  35  37
HETATM   37  C19 UNL     1       9.451   9.031  23.396  1.00  0.00     0.170 C 
BRANCH  37  38
HETATM   38  N8  UNL     1       8.608   8.017  24.090  1.00  0.00    -0.343 N 
BRANCH  38  39
HETATM   39  C20 UNL     1       9.005   7.692  25.413  1.00  0.00     0.122 C 
HETATM   40  C21 UNL     1      10.453   8.091  25.618  1.00  0.00     0.026 C 
ENDBRANCH  38  39
BRANCH  38  41
HETATM   41  C22 UNL     1       7.534   7.455  23.403  1.00  0.00     0.217 C 
BRANCH  41  42
HETATM   42  O4  UNL     1       7.878   6.574  22.458  1.00  0.00    -0.333 OA
ATOM     43  H4  UNL     1       7.734   6.873  21.567  1.00  0.00     0.220 HD
ENDBRANCH  41  42
BRANCH  41  44
HETATM   44  N9  UNL     1       6.166   7.619  23.489  1.00  0.00    -0.347 N 
HETATM   45  C23 UNL     1       5.364   8.328  22.444  1.00  0.00     0.126 C 
HETATM   46  C24 UNL     1       4.229   7.347  22.264  1.00  0.00     0.021 C 
HETATM   47  C25 UNL     1       4.180   6.504  23.522  1.00  0.00     0.021 C 
HETATM   48  C26 UNL     1       5.178   7.259  24.439  1.00  0.00     0.126 C 
ENDBRANCH  41  44
ENDBRANCH  38  41
ENDBRANCH  37  38
ENDBRANCH  35  37
ENDBRANCH  27  34
ENDBRANCH  26  27
ENDBRANCH  25  26
ENDBRANCH   1  25
TORSDOF 19
ENDMDL
MODEL 4
REMARK VINA RESULT: -6.683872984      3.607      9.664
REMARK  19 active torsions:
REMARK  status: ('A' for Active; 'I' for Inactive)
REMARK    1  A    between atoms: C2_2  and  C4_4 
REMARK    2  A    between atoms: C4_4  and  C5_5 
REMARK    3  A    between atoms: C4_4  and  N1_7 
REMARK       I    between atoms: N1_7  and  C6_9 
REMARK       I    between atoms: C6_9  and  N3_14 
REMARK    4  A    between atoms: N2_10  and  O2_12 
REMARK    5  A    between atoms: C10_18  and  C11_19 
REMARK       I    between atoms: C11_19  and  N4_21 
REMARK    6  A    between atoms: N4_21  and  C12_23 
REMARK    7  A    between atoms: C12_23  and  C13_24 
REMARK    8  A    between atoms: C13_24  and  C14_25 
REMARK    9  A    between atoms: C14_25  and  C15_26 
REMARK   10  A    between atoms: C15_26  and  C16_27 
REMARK   11  A    between atoms: C16_27  and  C17_28 
REMARK   12  A    between atoms: C16_27  and  N7_34 
REMARK   13  A    between atoms: C17_28  and  N5_29 
REMARK   14  A    between atoms: C18_36  and  C19_37 
REMARK   15  A    between atoms: C19_37  and  N8_38 
REMARK   16  A    between atoms: N8_38  and  C20_39 
REMARK   17  A    between atoms: N8_38  and  C22_41 
REMARK   18  A    between atoms: C22_41  and  O4_42 
REMARK   19  A    between atoms: C22_41  and  N9_44 
ROOT
HETATM    1  C13 UNL     1       7.710   3.223  18.701  1.00  0.00     0.020 C 
ENDROOT
BRANCH   1   2
HETATM    2  C12 UNL     1       6.938   3.251  19.978  1.00  0.00     0.122 C 
BRANCH   2   3
HETATM    3  N4  UNL     1       6.101   4.414  20.041  1.00  0.00    -0.359 N 
HETATM    4  C11 UNL     1       6.538   5.595  20.744  1.00  0.00     0.241 C 
HETATM    5  O3  UNL     1       7.656   5.558  21.282  1.00  0.00    -0.271 OA
ATOM      6  H4  UNL     1       5.189   4.405  19.586  1.00  0.00     0.162 HD
BRANCH   4   7
HETATM    7  C10 UNL     1       5.669   6.794  20.807  1.00  0.00     0.194 C 
HETATM    8  N3  UNL     1       5.790   7.598  21.959  1.00  0.00    -0.203 N 
HETATM    9  C6  UNL     1       6.190   7.352  23.307  1.00  0.00     0.697 C 
HETATM   10  C7  UNL     1       5.363   8.968  21.586  1.00  0.00     0.142 C 
HETATM   11  N1  UNL     1       7.167   8.204  23.883  1.00  0.00    -0.210 N 
HETATM   12  N2  UNL     1       5.659   6.419  23.967  1.00  0.00    -0.099 N 
ATOM     13  H1  UNL     1       6.817   9.077  24.277  1.00  0.00     0.179 HD
ATOM     14  H2  UNL     1       5.983   6.324  24.929  1.00  0.00     0.213 HD
HETATM   15  C8  UNL     1       5.179   8.951  20.085  1.00  0.00     0.023 C 
HETATM   16  C9  UNL     1       6.019   7.751  19.658  1.00  0.00     0.037 C 
BRANCH  11  17
HETATM   17  C4  UNL     1       8.558   8.003  23.982  1.00  0.00     0.189 C 
BRANCH  17  18
HETATM   18  C2  UNL     1       9.331   8.931  23.124  1.00  0.00    -0.064 C 
HETATM   19  C1  UNL     1      10.340   9.629  23.590  1.00  0.00     0.016 C 
HETATM   20  C3  UNL     1       8.960   9.045  21.657  1.00  0.00     0.045 C 
ENDBRANCH  17  18
BRANCH  17  21
HETATM   21  C5  UNL     1       9.152   7.894  25.330  1.00  0.00     0.261 C 
HETATM   22  O1  UNL     1       9.510   6.881  25.883  1.00  0.00    -0.304 OA
ENDBRANCH  17  21
ENDBRANCH  11  17
BRANCH  12  23
HETATM   23  O2  UNL     1       4.723   5.524  23.580  1.00  0.00    -0.276 OA
ATOM     24  H2  UNL     1       3.861   5.360  23.946  1.00  0.00     0.245 HD
ENDBRANCH  12  23
ENDBRANCH   4   7
ENDBRANCH   2   3
ENDBRANCH   1   2
BRANCH   1  25
HETATM   25  C14 UNL     1       8.685   2.088  18.643  1.00  0.00     0.004 C 
BRANCH  25  26
HETATM   26  C15 UNL     1       8.244   0.942  17.771  1.00  0.00     0.027 C 
BRANCH  26  27
HETATM   27  C16 UNL     1       9.100   0.769  16.551  1.00  0.00     0.100 C 
BRANCH  27  28
HETATM   28  C17 UNL     1       9.646  -0.635  16.422  1.00  0.00     0.163 C 
BRANCH  28  29
HETATM   29  N5  UNL     1      10.916  -0.751  17.108  1.00  0.00    -0.341 N 
HETATM   30  N6  UNL     1      11.616  -1.718  16.816  1.00  0.00    -0.349 N 
ATOM     31  H62 UNL     1      11.304  -2.397  16.122  1.00  0.00     0.176 HD
ATOM     32  H61 UNL     1      12.511  -1.800  17.299  1.00  0.00     0.176 HD
ATOM     33  H5  UNL     1      11.215  -0.064  17.800  1.00  0.00     0.179 HD
ENDBRANCH  28  29
ENDBRANCH  27  28
BRANCH  27  34
HETATM   34  N7  UNL     1       8.225   0.940  15.398  1.00  0.00    -0.394 N 
HETATM   35  C18 UNL     1       6.971   0.992  15.543  1.00  0.00     0.075 C 
ATOM     36  H7  UNL     1       8.629   1.020  14.465  1.00  0.00     0.159 HD
BRANCH  35  37
HETATM   37  C19 UNL     1       6.103   1.166  14.363  1.00  0.00     0.170 C 
BRANCH  37  38
HETATM   38  N8  UNL     1       5.191   2.303  14.671  1.00  0.00    -0.343 N 
BRANCH  38  39
HETATM   39  C20 UNL     1       5.073   2.637  16.046  1.00  0.00     0.122 C 
HETATM   40  C21 UNL     1       5.161   4.141  16.211  1.00  0.00     0.026 C 
ENDBRANCH  38  39
BRANCH  38  41
HETATM   41  C22 UNL     1       4.517   2.924  13.624  1.00  0.00     0.217 C 
BRANCH  41  42
HETATM   42  O4  UNL     1       3.231   2.578  13.506  1.00  0.00    -0.333 OA
ATOM     43  H4  UNL     1       2.852   2.190  14.286  1.00  0.00     0.220 HD
ENDBRANCH  41  42
BRANCH  41  44
HETATM   44  N9  UNL     1       4.900   3.836  12.660  1.00  0.00    -0.347 N 
HETATM   45  C23 UNL     1       5.136   3.459  11.232  1.00  0.00     0.126 C 
HETATM   46  C24 UNL     1       4.365   4.556  10.534  1.00  0.00     0.021 C 
HETATM   47  C25 UNL     1       4.239   5.697  11.524  1.00  0.00     0.021 C 
HETATM   48  C26 UNL     1       5.184   5.224  12.660  1.00  0.00     0.126 C 
ENDBRANCH  41  44
ENDBRANCH  38  41
ENDBRANCH  37  38
ENDBRANCH  35  37
ENDBRANCH  27  34
ENDBRANCH  26  27
ENDBRANCH  25  26
ENDBRANCH   1  25
TORSDOF 19
ENDMDL
MODEL 5
REMARK VINA RESULT: -6.669301585      3.256      8.848
REMARK  19 active torsions:
REMARK  status: ('A' for Active; 'I' for Inactive)
REMARK    1  A    between atoms: C2_2  and  C4_4 
REMARK    2  A    between atoms: C4_4  and  C5_5 
REMARK    3  A    between atoms: C4_4  and  N1_7 
REMARK       I    between atoms: N1_7  and  C6_9 
REMARK       I    between atoms: C6_9  and  N3_14 
REMARK    4  A    between atoms: N2_10  and  O2_12 
REMARK    5  A    between atoms: C10_18  and  C11_19 
REMARK       I    between atoms: C11_19  and  N4_21 
REMARK    6  A    between atoms: N4_21  and  C12_23 
REMARK    7  A    between atoms: C12_23  and  C13_24 
REMARK    8  A    between atoms: C13_24  and  C14_25 
REMARK    9  A    between atoms: C14_25  and  C15_26 
REMARK   10  A    between atoms: C15_26  and  C16_27 
REMARK   11  A    between atoms: C16_27  and  C17_28 
REMARK   12  A    between atoms: C16_27  and  N7_34 
REMARK   13  A    between atoms: C17_28  and  N5_29 
REMARK   14  A    between atoms: C18_36  and  C19_37 
REMARK   15  A    between atoms: C19_37  and  N8_38 
REMARK   16  A    between atoms: N8_38  and  C20_39 
REMARK   17  A    between atoms: N8_38  and  C22_41 
REMARK   18  A    between atoms: C22_41  and  O4_42 
REMARK   19  A    between atoms: C22_41  and  N9_44 
ROOT
HETATM    1  C13 UNL     1       7.432   3.220  18.781  1.00  0.00     0.020 C 
ENDROOT
BRANCH   1   2
HETATM    2  C12 UNL     1       7.703   4.672  18.987  1.00  0.00     0.122 C 
BRANCH   2   3
HETATM    3  N4  UNL     1       6.539   5.341  19.492  1.00  0.00    -0.359 N 
HETATM    4  C11 UNL     1       6.357   6.756  19.283  1.00  0.00     0.241 C 
HETATM    5  O3  UNL     1       7.242   7.359  18.655  1.00  0.00    -0.271 OA
ATOM      6  H4  UNL     1       5.834   4.810  20.003  1.00  0.00     0.162 HD
BRANCH   4   7
HETATM    7  C10 UNL     1       5.152   7.442  19.807  1.00  0.00     0.194 C 
HETATM    8  N3  UNL     1       5.266   8.024  21.087  1.00  0.00    -0.203 N 
HETATM    9  C6  UNL     1       6.075   7.759  22.232  1.00  0.00     0.697 C 
HETATM   10  C7  UNL     1       4.272   9.122  21.160  1.00  0.00     0.142 C 
HETATM   11  N1  UNL     1       6.776   8.840  22.824  1.00  0.00    -0.210 N 
HETATM   12  N2  UNL     1       6.133   6.595  22.713  1.00  0.00    -0.099 N 
ATOM     13  H1  UNL     1       6.242   9.404  23.485  1.00  0.00     0.179 HD
ATOM     14  H2  UNL     1       6.714   6.493  23.545  1.00  0.00     0.213 HD
HETATM   15  C8  UNL     1       3.713   9.269  19.764  1.00  0.00     0.023 C 
HETATM   16  C9  UNL     1       4.794   8.628  18.899  1.00  0.00     0.037 C 
BRANCH  11  17
HETATM   17  C4  UNL     1       8.111   9.239  22.618  1.00  0.00     0.189 C 
BRANCH  17  18
HETATM   18  C2  UNL     1       9.002   8.851  23.737  1.00  0.00    -0.064 C 
HETATM   19  C1  UNL     1      10.283   9.137  23.735  1.00  0.00     0.016 C 
HETATM   20  C3  UNL     1       8.401   8.132  24.929  1.00  0.00     0.045 C 
ENDBRANCH  17  18
BRANCH  17  21
HETATM   21  C5  UNL     1       8.731   8.948  21.309  1.00  0.00     0.261 C 
HETATM   22  O1  UNL     1       8.948   9.737  20.420  1.00  0.00    -0.304 OA
ENDBRANCH  17  21
ENDBRANCH  11  17
BRANCH  12  23
HETATM   23  O2  UNL     1       5.535   5.462  22.283  1.00  0.00    -0.276 OA
ATOM     24  H2  UNL     1       5.805   4.863  21.596  1.00  0.00     0.245 HD
ENDBRANCH  12  23
ENDBRANCH   4   7
ENDBRANCH   2   3
ENDBRANCH   1   2
BRANCH   1  25
HETATM   25  C14 UNL     1       8.680   2.430  18.532  1.00  0.00     0.004 C 
BRANCH  25  26
HETATM   26  C15 UNL     1       8.433   1.016  18.078  1.00  0.00     0.027 C 
BRANCH  26  27
HETATM   27  C16 UNL     1       8.970   0.737  16.706  1.00  0.00     0.100 C 
BRANCH  27  28
HETATM   28  C17 UNL     1       9.820  -0.513  16.660  1.00  0.00     0.163 C 
BRANCH  28  29
HETATM   29  N5  UNL     1      10.980  -0.370  17.516  1.00  0.00    -0.341 N 
HETATM   30  N6  UNL     1      11.874  -1.203  17.380  1.00  0.00    -0.349 N 
ATOM     31  H62 UNL     1      11.788  -1.952  16.693  1.00  0.00     0.176 HD
ATOM     32  H61 UNL     1      12.691  -1.102  17.982  1.00  0.00     0.176 HD
ATOM     33  H5  UNL     1      11.052   0.385  18.198  1.00  0.00     0.179 HD
ENDBRANCH  28  29
ENDBRANCH  27  28
BRANCH  27  34
HETATM   34  N7  UNL     1       7.821   0.442  15.859  1.00  0.00    -0.394 N 
HETATM   35  C18 UNL     1       7.198   1.371  15.274  1.00  0.00     0.075 C 
ATOM     36  H7  UNL     1       7.519  -0.524  15.738  1.00  0.00     0.159 HD
BRANCH  35  37
HETATM   37  C19 UNL     1       6.038   1.051  14.419  1.00  0.00     0.170 C 
BRANCH  37  38
HETATM   38  N8  UNL     1       4.939   1.967  14.835  1.00  0.00    -0.343 N 
BRANCH  38  39
HETATM   39  C20 UNL     1       3.929   1.383  15.644  1.00  0.00     0.122 C 
HETATM   40  C21 UNL     1       4.289   1.555  17.106  1.00  0.00     0.026 C 
ENDBRANCH  38  39
BRANCH  38  41
HETATM   41  C22 UNL     1       4.964   3.287  14.393  1.00  0.00     0.217 C 
BRANCH  41  42
HETATM   42  O4  UNL     1       5.327   3.440  13.115  1.00  0.00    -0.333 OA
ATOM     43  H4  UNL     1       4.719   3.947  12.589  1.00  0.00     0.220 HD
ENDBRANCH  41  42
BRANCH  41  44
HETATM   44  N9  UNL     1       4.692   4.495  15.005  1.00  0.00    -0.347 N 
HETATM   45  C23 UNL     1       3.734   5.495  14.441  1.00  0.00     0.126 C 
HETATM   46  C24 UNL     1       2.933   5.828  15.679  1.00  0.00     0.021 C 
HETATM   47  C25 UNL     1       3.795   5.450  16.868  1.00  0.00     0.021 C 
HETATM   48  C26 UNL     1       5.150   5.140  16.180  1.00  0.00     0.126 C 
ENDBRANCH  41  44
ENDBRANCH  38  41
ENDBRANCH  37  38
ENDBRANCH  35  37
ENDBRANCH  27  34
ENDBRANCH  26  27
ENDBRANCH  25  26
ENDBRANCH   1  25
TORSDOF 19
ENDMDL
