MODEL 1
REMARK VINA RESULT: -7.224435894      0.000      0.000
REMARK  15 active torsions:
REMARK  status: ('A' for Active; 'I' for Inactive)
REMARK    1  A    between atoms: C2_2  and  C3_3 
REMARK       I    between atoms: C3_3  and  N1_5 
REMARK    2  A    between atoms: N1_5  and  C5_7 
REMARK    3  A    between atoms: C5_7  and  C6_8 
REMARK    4  A    between atoms: C5_7  and  C10_12 
REMARK    5  A    between atoms: C6_8  and  C7_9 
REMARK       I    between atoms: C10_12  and  N2_14 
REMARK       I    between atoms: N2_14  and  C11_16 
REMARK    6  A    between atoms: C11_16  and  C12_18 
REMARK    7  A    between atoms: N4_24  and  C17_25 
REMARK    8  A    between atoms: C17_25  and  O4_26 
REMARK    9  A    between atoms: C17_25  and  C18_28 
REMARK   10  A    between atoms: C18_28  and  N5_30 
REMARK       I    between atoms: N5_30  and  C20_32 
REMARK       I    between atoms: C20_32  and  N6_34 
REMARK   11  A    between atoms: N6_34  and  C21_35 
REMARK   12  A    between atoms: C21_35  and  C22_36 
REMARK   13  A    between atoms: C21_35  and  C26_40 
REMARK   14  A    between atoms: C22_36  and  C23_37 
REMARK   15  A    between atoms: C23_37  and  C24_38 
ROOT
HETATM    1  C12 UNL     1       8.267   7.932  20.470  1.00  0.00     0.206 C 
HETATM    2  C13 UNL     1       8.232   9.084  19.445  1.00  0.00     0.273 C 
HETATM    3  N3  UNL     1       7.059   9.858  19.842  1.00  0.00    -0.057 N 
HETATM    4  C14 UNL     1       7.474  11.259  19.981  1.00  0.00     0.274 C 
HETATM    5  C15 UNL     1       6.001   9.730  18.868  1.00  0.00     0.274 C 
HETATM    6  C16 UNL     1       6.614   9.344  21.093  1.00  0.00     0.363 C 
HETATM    7  N4  UNL     1       7.769   8.582  21.663  1.00  0.00    -0.325 N 
ENDROOT
BRANCH   7   8
HETATM    8  C17 UNL     1       8.103   8.610  23.000  1.00  0.00     0.139 C 
BRANCH   8   9
HETATM    9  O4  UNL     1       8.831   9.612  23.398  1.00  0.00    -0.348 OA
ATOM     10  H4  UNL     1       9.622   9.398  23.878  1.00  0.00     0.219 HD
ENDBRANCH   8   9
BRANCH   8  11
HETATM   11  C18 UNL     1       7.780   7.696  24.092  1.00  0.00     0.158 C 
HETATM   12  C19 UNL     1       8.807   7.444  25.134  1.00  0.00     0.041 C 
BRANCH  11  13
HETATM   13  N5  UNL     1       6.524   7.941  24.767  1.00  0.00    -0.320 N 
HETATM   14  C20 UNL     1       5.261   7.365  24.310  1.00  0.00     0.390 C 
HETATM   15  O5  UNL     1       5.452   6.588  23.307  1.00  0.00    -0.231 OA
HETATM   16  N6  UNL     1       4.084   7.656  24.885  1.00  0.00    -0.380 NA
ATOM     17  H5  UNL     1       6.521   8.538  25.593  1.00  0.00     0.166 HD
BRANCH  16  18
HETATM   18  C21 UNL     1       2.851   7.934  25.454  1.00  0.00     0.269 C 
BRANCH  18  19
HETATM   19  C22 UNL     1       1.678   7.005  25.205  1.00  0.00     0.051 C 
BRANCH  19  20
HETATM   20  C23 UNL     1       2.016   5.871  24.287  1.00  0.00     0.003 C 
BRANCH  20  21
HETATM   21  C24 UNL     1       1.371   5.986  22.949  1.00  0.00    -0.004 C 
HETATM   22  C25 UNL     1       2.119   6.848  21.943  1.00  0.00     0.005 C 
ENDBRANCH  20  21
ENDBRANCH  19  20
ENDBRANCH  18  19
BRANCH  18  23
HETATM   23  C26 UNL     1       2.402   9.295  25.089  1.00  0.00     0.210 C 
HETATM   24  O6  UNL     1       1.368   9.607  24.488  1.00  0.00    -0.646 OA
HETATM   25  O7  UNL     1       3.234  10.384  25.455  1.00  0.00    -0.646 OA
ENDBRANCH  18  23
ENDBRANCH  16  18
ENDBRANCH  11  13
ENDBRANCH   8  11
ENDBRANCH   7   8
BRANCH   1  26
HETATM   26  C11 UNL     1       7.516   6.755  20.038  1.00  0.00     0.249 C 
HETATM   27  N2  UNL     1       6.908   6.570  18.815  1.00  0.00    -0.294 N 
HETATM   28  C10 UNL     1       6.228   5.485  18.246  1.00  0.00     0.247 C 
ATOM     29  H2  UNL     1       6.963   7.384  18.203  1.00  0.00     0.171 HD
HETATM   30  O2  UNL     1       5.670   5.692  17.109  1.00  0.00    -0.271 OA
HETATM   31  O3  UNL     1       7.436   5.815  20.929  1.00  0.00    -0.271 OA
BRANCH  28  32
HETATM   32  C5  UNL     1       6.078   4.127  18.804  1.00  0.00     0.179 C 
BRANCH  32  33
HETATM   33  N1  UNL     1       4.748   3.594  18.799  1.00  0.00    -0.340 N 
HETATM   34  C3  UNL     1       3.969   3.620  20.025  1.00  0.00     0.242 C 
HETATM   35  O1  UNL     1       2.754   3.228  20.016  1.00  0.00    -0.268 OA
HETATM   36  C4  UNL     1       4.053   3.050  17.658  1.00  0.00     0.154 C 
BRANCH  34  37
HETATM   37  C2  UNL     1       4.465   4.057  21.317  1.00  0.00     0.064 C 
HETATM   38  C1  UNL     1       4.118   3.355  22.403  1.00  0.00     0.017 C 
ENDBRANCH  34  37
ENDBRANCH  32  33
BRANCH  32  39
HETATM   39  C6  UNL     1       7.097   3.146  18.266  1.00  0.00     0.039 C 
BRANCH  39  40
HETATM   40  C7  UNL     1       7.858   2.324  19.218  1.00  0.00    -0.020 C 
HETATM   41  C8  UNL     1       7.085   1.565  20.255  1.00  0.00     0.009 C 
HETATM   42  C9  UNL     1       8.666   1.310  18.400  1.00  0.00     0.009 C 
ENDBRANCH  39  40
ENDBRANCH  32  39
ENDBRANCH  28  32
ENDBRANCH   1  26
TORSDOF 15
ENDMDL
MODEL 2
REMARK VINA RESULT: -6.929286006      1.882      7.516
REMARK  15 active torsions:
REMARK  status: ('A' for Active; 'I' for Inactive)
REMARK    1  A    between atoms: C2_2  and  C3_3 
REMARK       I    between atoms: C3_3  and  N1_5 
REMARK    2  A    between atoms: N1_5  and  C5_7 
REMARK    3  A    between atoms: C5_7  and  C6_8 
REMARK    4  A    between atoms: C5_7  and  C10_12 
REMARK    5  A    between atoms: C6_8  and  C7_9 
REMARK       I    between atoms: C10_12  and  N2_14 
REMARK       I    between atoms: N2_14  and  C11_16 
REMARK    6  A    between atoms: C11_16  and  C12_18 
REMARK    7  A    between atoms: N4_24  and  C17_25 
REMARK    8  A    between atoms: C17_25  and  O4_26 
REMARK    9  A    between atoms: C17_25  and  C18_28 
REMARK   10  A    between atoms: C18_28  and  N5_30 
REMARK       I    between atoms: N5_30  and  C20_32 
REMARK       I    between atoms: C20_32  and  N6_34 
REMARK   11  A    between atoms: N6_34  and  C21_35 
REMARK   12  A    between atoms: C21_35  and  C22_36 
REMARK   13  A    between atoms: C21_35  and  C26_40 
REMARK   14  A    between atoms: C22_36  and  C23_37 
REMARK   15  A    between atoms: C23_37  and  C24_38 
ROOT
HETATM    1  C12 UNL     1       3.886   7.149  24.741  1.00  0.00     0.206 C 
HETATM    2  C13 UNL     1       2.903   8.218  25.259  1.00  0.00     0.273 C 
HETATM    3  N3  UNL     1       2.188   8.635  24.056  1.00  0.00    -0.057 N 
HETATM    4  C14 UNL     1       0.751   8.542  24.336  1.00  0.00     0.274 C 
HETATM    5  C15 UNL     1       2.551   9.982  23.679  1.00  0.00     0.274 C 
HETATM    6  C16 UNL     1       2.552   7.738  23.012  1.00  0.00     0.363 C 
HETATM    7  N4  UNL     1       3.116   6.527  23.686  1.00  0.00    -0.325 N 
ENDROOT
BRANCH   7   8
HETATM    8  C17 UNL     1       2.864   5.241  23.256  1.00  0.00     0.139 C 
BRANCH   8   9
HETATM    9  O4  UNL     1       2.990   4.296  24.141  1.00  0.00    -0.348 OA
ATOM     10  H4  UNL     1       3.862   3.938  24.259  1.00  0.00     0.219 HD
ENDBRANCH   8   9
BRANCH   8  11
HETATM   11  C18 UNL     1       2.466   4.723  21.950  1.00  0.00     0.158 C 
HETATM   12  C19 UNL     1       1.154   5.139  21.392  1.00  0.00     0.041 C 
BRANCH  11  13
HETATM   13  N5  UNL     1       3.448   4.850  20.896  1.00  0.00    -0.320 N 
HETATM   14  C20 UNL     1       4.578   3.933  20.760  1.00  0.00     0.390 C 
HETATM   15  O5  UNL     1       4.516   3.002  21.641  1.00  0.00    -0.231 OA
HETATM   16  N6  UNL     1       5.535   4.097  19.835  1.00  0.00    -0.380 NA
ATOM     17  H5  UNL     1       3.349   5.609  20.222  1.00  0.00     0.166 HD
BRANCH  16  18
HETATM   18  C21 UNL     1       6.541   4.236  18.891  1.00  0.00     0.269 C 
BRANCH  18  19
HETATM   19  C22 UNL     1       7.841   3.472  19.056  1.00  0.00     0.051 C 
BRANCH  19  20
HETATM   20  C23 UNL     1       7.631   2.025  19.382  1.00  0.00     0.003 C 
BRANCH  20  21
HETATM   21  C24 UNL     1       8.131   1.106  18.323  1.00  0.00    -0.004 C 
HETATM   22  C25 UNL     1       9.630   1.171  18.065  1.00  0.00     0.005 C 
ENDBRANCH  20  21
ENDBRANCH  19  20
ENDBRANCH  18  19
BRANCH  18  23
HETATM   23  C26 UNL     1       6.902   5.659  18.717  1.00  0.00     0.210 C 
HETATM   24  O6  UNL     1       6.190   6.564  18.271  1.00  0.00    -0.646 OA
HETATM   25  O7  UNL     1       8.211   6.057  19.093  1.00  0.00    -0.646 OA
ENDBRANCH  18  23
ENDBRANCH  16  18
ENDBRANCH  11  13
ENDBRANCH   8  11
ENDBRANCH   7   8
BRANCH   1  26
HETATM   26  C11 UNL     1       5.176   7.701  24.333  1.00  0.00     0.249 C 
HETATM   27  N2  UNL     1       6.116   7.091  23.529  1.00  0.00    -0.294 N 
HETATM   28  C10 UNL     1       7.341   7.521  23.006  1.00  0.00     0.247 C 
ATOM     29  H2  UNL     1       5.869   6.139  23.262  1.00  0.00     0.171 HD
HETATM   30  O2  UNL     1       8.036   6.643  22.379  1.00  0.00    -0.271 OA
HETATM   31  O3  UNL     1       5.424   8.886  24.802  1.00  0.00    -0.271 OA
BRANCH  28  32
HETATM   32  C5  UNL     1       7.930   8.872  23.092  1.00  0.00     0.179 C 
BRANCH  32  33
HETATM   33  N1  UNL     1       9.330   8.925  23.393  1.00  0.00    -0.340 N 
HETATM   34  C3  UNL     1       9.815   8.321  24.622  1.00  0.00     0.242 C 
HETATM   35  O1  UNL     1      11.068   8.284  24.862  1.00  0.00    -0.268 OA
HETATM   36  C4  UNL     1      10.359   9.497  22.559  1.00  0.00     0.154 C 
BRANCH  34  37
HETATM   37  C2  UNL     1       8.974   7.741  25.652  1.00  0.00     0.064 C 
HETATM   38  C1  UNL     1       9.554   7.004  26.607  1.00  0.00     0.017 C 
ENDBRANCH  34  37
ENDBRANCH  32  33
BRANCH  32  39
HETATM   39  C6  UNL     1       7.554   9.761  21.927  1.00  0.00     0.039 C 
BRANCH  39  40
HETATM   40  C7  UNL     1       6.966   9.146  20.729  1.00  0.00    -0.020 C 
HETATM   41  C8  UNL     1       5.521   9.426  20.441  1.00  0.00     0.009 C 
HETATM   42  C9  UNL     1       7.784   9.622  19.523  1.00  0.00     0.009 C 
ENDBRANCH  39  40
ENDBRANCH  32  39
ENDBRANCH  28  32
ENDBRANCH   1  26
TORSDOF 15
ENDMDL
MODEL 3
REMARK VINA RESULT: -6.880674853      0.946      1.203
REMARK  15 active torsions:
REMARK  status: ('A' for Active; 'I' for Inactive)
REMARK    1  A    between atoms: C2_2  and  C3_3 
REMARK       I    between atoms: C3_3  and  N1_5 
REMARK    2  A    between atoms: N1_5  and  C5_7 
REMARK    3  A    between atoms: C5_7  and  C6_8 
REMARK    4  A    between atoms: C5_7  and  C10_12 
REMARK    5  A    between atoms: C6_8  and  C7_9 
REMARK       I    between atoms: C10_12  and  N2_14 
REMARK       I    between atoms: N2_14  and  C11_16 
REMARK    6  A    between atoms: C11_16  and  C12_18 
REMARK    7  A    between atoms: N4_24  and  C17_25 
REMARK    8  A    between atoms: C17_25  and  O4_26 
REMARK    9  A    between atoms: C17_25  and  C18_28 
REMARK   10  A    between atoms: C18_28  and  N5_30 
REMARK       I    between atoms: N5_30  and  C20_32 
REMARK       I    between atoms: C20_32  and  N6_34 
REMARK   11  A    between atoms: N6_34  and  C21_35 
REMARK   12  A    between atoms: C21_35  and  C22_36 
REMARK   13  A    between atoms: C21_35  and  C26_40 
REMARK   14  A    between atoms: C22_36  and  C23_37 
REMARK   15  A    between atoms: C23_37  and  C24_38 
ROOT
HETATM    1  C12 UNL     1       8.221   7.793  20.139  1.00  0.00     0.206 C 
HETATM    2  C13 UNL     1       8.129   8.982  19.162  1.00  0.00     0.273 C 
HETATM    3  N3  UNL     1       7.040   9.788  19.708  1.00  0.00    -0.057 N 
HETATM    4  C14 UNL     1       7.529  11.165  19.846  1.00  0.00     0.274 C 
HETATM    5  C15 UNL     1       5.880   9.739  18.849  1.00  0.00     0.274 C 
HETATM    6  C16 UNL     1       6.708   9.247  20.982  1.00  0.00     0.363 C 
HETATM    7  N4  UNL     1       7.883   8.419  21.399  1.00  0.00    -0.325 N 
ENDROOT
BRANCH   7   8
HETATM    8  C17 UNL     1       8.358   8.384  22.693  1.00  0.00     0.139 C 
BRANCH   8   9
HETATM    9  O4  UNL     1       9.557   8.850  22.886  1.00  0.00    -0.348 OA
ATOM     10  H4  UNL     1       9.692   9.769  22.690  1.00  0.00     0.219 HD
ENDBRANCH   8   9
BRANCH   8  11
HETATM   11  C18 UNL     1       7.746   7.908  23.930  1.00  0.00     0.158 C 
HETATM   12  C19 UNL     1       8.599   7.776  25.139  1.00  0.00     0.041 C 
BRANCH  11  13
HETATM   13  N5  UNL     1       6.527   8.578  24.328  1.00  0.00    -0.320 N 
HETATM   14  C20 UNL     1       5.205   7.991  24.123  1.00  0.00     0.390 C 
HETATM   15  O5  UNL     1       5.303   6.813  23.624  1.00  0.00    -0.231 OA
HETATM   16  N6  UNL     1       4.071   8.645  24.415  1.00  0.00    -0.380 NA
ATOM     17  H5  UNL     1       6.594   9.495  24.769  1.00  0.00     0.166 HD
BRANCH  16  18
HETATM   18  C21 UNL     1       2.878   9.290  24.705  1.00  0.00     0.269 C 
BRANCH  18  19
HETATM   19  C22 UNL     1       1.759   8.534  25.395  1.00  0.00     0.051 C 
BRANCH  19  20
HETATM   20  C23 UNL     1       1.865   7.050  25.225  1.00  0.00     0.003 C 
BRANCH  20  21
HETATM   21  C24 UNL     1       1.067   6.531  24.079  1.00  0.00    -0.004 C 
HETATM   22  C25 UNL     1       1.875   6.154  22.846  1.00  0.00     0.005 C 
ENDBRANCH  20  21
ENDBRANCH  19  20
ENDBRANCH  18  19
BRANCH  18  23
HETATM   23  C26 UNL     1       2.298   9.891  23.485  1.00  0.00     0.210 C 
HETATM   24  O6  UNL     1       2.793   9.915  22.353  1.00  0.00    -0.646 OA
HETATM   25  O7  UNL     1       1.032  10.521  23.598  1.00  0.00    -0.646 OA
ENDBRANCH  18  23
ENDBRANCH  16  18
ENDBRANCH  11  13
ENDBRANCH   8  11
ENDBRANCH   7   8
BRANCH   1  26
HETATM   26  C11 UNL     1       7.377   6.664  19.754  1.00  0.00     0.249 C 
HETATM   27  N2  UNL     1       6.773   6.468  18.530  1.00  0.00    -0.294 N 
HETATM   28  C10 UNL     1       6.010   5.418  18.004  1.00  0.00     0.247 C 
ATOM     29  H2  UNL     1       6.908   7.241  17.879  1.00  0.00     0.171 HD
HETATM   30  O2  UNL     1       5.488   5.613  16.848  1.00  0.00    -0.271 OA
HETATM   31  O3  UNL     1       7.202   5.782  20.690  1.00  0.00    -0.271 OA
BRANCH  28  32
HETATM   32  C5  UNL     1       5.734   4.109  18.628  1.00  0.00     0.179 C 
BRANCH  32  33
HETATM   33  N1  UNL     1       4.388   3.902  19.074  1.00  0.00    -0.340 N 
HETATM   34  C3  UNL     1       4.154   3.435  20.430  1.00  0.00     0.242 C 
HETATM   35  O1  UNL     1       2.961   3.329  20.870  1.00  0.00    -0.268 OA
HETATM   36  C4  UNL     1       3.190   4.154  18.311  1.00  0.00     0.154 C 
BRANCH  34  37
HETATM   37  C2  UNL     1       5.192   3.053  21.369  1.00  0.00     0.064 C 
HETATM   38  C1  UNL     1       5.468   1.751  21.517  1.00  0.00     0.017 C 
ENDBRANCH  34  37
ENDBRANCH  32  33
BRANCH  32  39
HETATM   39  C6  UNL     1       6.263   2.942  17.822  1.00  0.00     0.039 C 
BRANCH  39  40
HETATM   40  C7  UNL     1       7.282   2.071  18.425  1.00  0.00    -0.020 C 
HETATM   41  C8  UNL     1       7.762   0.902  17.619  1.00  0.00     0.009 C 
HETATM   42  C9  UNL     1       8.498   2.948  18.747  1.00  0.00     0.009 C 
ENDBRANCH  39  40
ENDBRANCH  32  39
ENDBRANCH  28  32
ENDBRANCH   1  26
TORSDOF 15
ENDMDL
MODEL 4
REMARK VINA RESULT: -6.777046242      2.049      5.902
REMARK  15 active torsions:
REMARK  status: ('A' for Active; 'I' for Inactive)
REMARK    1  A    between atoms: C2_2  and  C3_3 
REMARK       I    between atoms: C3_3  and  N1_5 
REMARK    2  A    between atoms: N1_5  and  C5_7 
REMARK    3  A    between atoms: C5_7  and  C6_8 
REMARK    4  A    between atoms: C5_7  and  C10_12 
REMARK    5  A    between atoms: C6_8  and  C7_9 
REMARK       I    between atoms: C10_12  and  N2_14 
REMARK       I    between atoms: N2_14  and  C11_16 
REMARK    6  A    between atoms: C11_16  and  C12_18 
REMARK    7  A    between atoms: N4_24  and  C17_25 
REMARK    8  A    between atoms: C17_25  and  O4_26 
REMARK    9  A    between atoms: C17_25  and  C18_28 
REMARK   10  A    between atoms: C18_28  and  N5_30 
REMARK       I    between atoms: N5_30  and  C20_32 
REMARK       I    between atoms: C20_32  and  N6_34 
REMARK   11  A    between atoms: N6_34  and  C21_35 
REMARK   12  A    between atoms: C21_35  and  C22_36 
REMARK   13  A    between atoms: C21_35  and  C26_40 
REMARK   14  A    between atoms: C22_36  and  C23_37 
REMARK   15  A    between atoms: C23_37  and  C24_38 
ROOT
HETATM    1  C12 UNL     1       2.542   6.050  21.875  1.00  0.00     0.206 C 
HETATM    2  C13 UNL     1       1.403   5.016  21.766  1.00  0.00     0.273 C 
HETATM    3  N3  UNL     1       1.751   4.018  22.774  1.00  0.00    -0.057 N 
HETATM    4  C14 UNL     1       0.574   3.815  23.627  1.00  0.00     0.274 C 
HETATM    5  C15 UNL     1       2.157   2.778  22.156  1.00  0.00     0.274 C 
HETATM    6  C16 UNL     1       2.833   4.543  23.536  1.00  0.00     0.363 C 
HETATM    7  N4  UNL     1       2.834   6.019  23.292  1.00  0.00    -0.325 N 
ENDROOT
BRANCH   7   8
HETATM    8  C17 UNL     1       3.084   6.945  24.283  1.00  0.00     0.139 C 
BRANCH   8   9
HETATM    9  O4  UNL     1       2.649   6.655  25.474  1.00  0.00    -0.348 OA
ATOM     10  H4  UNL     1       3.129   7.027  26.204  1.00  0.00     0.219 HD
ENDBRANCH   8   9
BRANCH   8  11
HETATM   11  C18 UNL     1       3.770   8.233  24.245  1.00  0.00     0.158 C 
HETATM   12  C19 UNL     1       3.259   9.335  25.100  1.00  0.00     0.041 C 
BRANCH  11  13
HETATM   13  N5  UNL     1       5.206   8.186  24.407  1.00  0.00    -0.320 N 
HETATM   14  C20 UNL     1       6.130   8.486  23.315  1.00  0.00     0.390 C 
HETATM   15  O5  UNL     1       5.490   8.849  22.265  1.00  0.00    -0.231 OA
HETATM   16  N6  UNL     1       7.460   8.363  23.440  1.00  0.00    -0.380 NA
ATOM     17  H5  UNL     1       5.589   7.935  25.318  1.00  0.00     0.166 HD
BRANCH  16  18
HETATM   18  C21 UNL     1       8.839   8.247  23.532  1.00  0.00     0.269 C 
BRANCH  18  19
HETATM   19  C22 UNL     1       9.519   8.387  24.881  1.00  0.00     0.051 C 
BRANCH  19  20
HETATM   20  C23 UNL     1       9.168   7.283  25.829  1.00  0.00     0.003 C 
BRANCH  20  21
HETATM   21  C24 UNL     1      10.300   6.882  26.710  1.00  0.00    -0.004 C 
HETATM   22  C25 UNL     1      11.639   7.524  26.374  1.00  0.00     0.005 C 
ENDBRANCH  20  21
ENDBRANCH  19  20
ENDBRANCH  18  19
BRANCH  18  23
HETATM   23  C26 UNL     1       9.506   9.198  22.618  1.00  0.00     0.210 C 
HETATM   24  O6  UNL     1       9.102   9.590  21.518  1.00  0.00    -0.646 OA
HETATM   25  O7  UNL     1      10.756   9.734  23.022  1.00  0.00    -0.646 OA
ENDBRANCH  18  23
ENDBRANCH  16  18
ENDBRANCH  11  13
ENDBRANCH   8  11
ENDBRANCH   7   8
BRANCH   1  26
HETATM   26  C11 UNL     1       3.671   5.757  20.996  1.00  0.00     0.249 C 
HETATM   27  N2  UNL     1       5.009   5.883  21.305  1.00  0.00    -0.294 N 
HETATM   28  C10 UNL     1       6.180   5.576  20.601  1.00  0.00     0.247 C 
ATOM     29  H2  UNL     1       5.180   6.276  22.230  1.00  0.00     0.171 HD
HETATM   30  O2  UNL     1       7.285   5.936  21.144  1.00  0.00    -0.271 OA
HETATM   31  O3  UNL     1       3.336   5.345  19.812  1.00  0.00    -0.271 OA
BRANCH  28  32
HETATM   32  C5  UNL     1       6.291   4.886  19.300  1.00  0.00     0.179 C 
BRANCH  32  33
HETATM   33  N1  UNL     1       5.864   5.636  18.157  1.00  0.00    -0.340 N 
HETATM   34  C3  UNL     1       5.292   4.934  17.021  1.00  0.00     0.242 C 
HETATM   35  O1  UNL     1       4.828   5.594  16.032  1.00  0.00    -0.268 OA
HETATM   36  C4  UNL     1       5.901   7.072  18.019  1.00  0.00     0.154 C 
BRANCH  34  37
HETATM   37  C2  UNL     1       5.204   3.492  16.893  1.00  0.00     0.064 C 
HETATM   38  C1  UNL     1       5.815   2.906  15.856  1.00  0.00     0.017 C 
ENDBRANCH  34  37
ENDBRANCH  32  33
BRANCH  32  39
HETATM   39  C6  UNL     1       7.636   4.225  19.090  1.00  0.00     0.039 C 
BRANCH  39  40
HETATM   40  C7  UNL     1       7.810   2.827  19.510  1.00  0.00    -0.020 C 
HETATM   41  C8  UNL     1       6.577   2.043  19.846  1.00  0.00     0.009 C 
HETATM   42  C9  UNL     1       8.535   2.097  18.373  1.00  0.00     0.009 C 
ENDBRANCH  39  40
ENDBRANCH  32  39
ENDBRANCH  28  32
ENDBRANCH   1  26
TORSDOF 15
ENDMDL
MODEL 5
REMARK VINA RESULT: -6.774103250      2.249      6.184
REMARK  15 active torsions:
REMARK  status: ('A' for Active; 'I' for Inactive)
REMARK    1  A    between atoms: C2_2  and  C3_3 
REMARK       I    between atoms: C3_3  and  N1_5 
REMARK    2  A    between atoms: N1_5  and  C5_7 
REMARK    3  A    between atoms: C5_7  and  C6_8 
REMARK    4  A    between atoms: C5_7  and  C10_12 
REMARK    5  A    between atoms: C6_8  and  C7_9 
REMARK       I    between atoms: C10_12  and  N2_14 
REMARK       I    between atoms: N2_14  and  C11_16 
REMARK    6  A    between atoms: C11_16  and  C12_18 
REMARK    7  A    between atoms: N4_24  and  C17_25 
REMARK    8  A    between atoms: C17_25  and  O4_26 
REMARK    9  A    between atoms: C17_25  and  C18_28 
REMARK   10  A    between atoms: C18_28  and  N5_30 
REMARK       I    between atoms: N5_30  and  C20_32 
REMARK       I    between atoms: C20_32  and  N6_34 
REMARK   11  A    between atoms: N6_34  and  C21_35 
REMARK   12  A    between atoms: C21_35  and  C22_36 
REMARK   13  A    between atoms: C21_35  and  C26_40 
REMARK   14  A    between atoms: C22_36  and  C23_37 
REMARK   15  A    between atoms: C23_37  and  C24_38 
ROOT
HETATM    1  C12 UNL     1       2.622   4.148  21.087  1.00  0.00     0.206 C 
HETATM    2  C13 UNL     1       1.829   2.860  21.386  1.00  0.00     0.273 C 
HETATM    3  N3  UNL     1       2.559   2.263  22.502  1.00  0.00    -0.057 N 
HETATM    4  C14 UNL     1       1.590   1.974  23.565  1.00  0.00     0.274 C 
HETATM    5  C15 UNL     1       3.241   1.058  22.088  1.00  0.00     0.274 C 
HETATM    6  C16 UNL     1       3.516   3.219  22.945  1.00  0.00     0.363 C 
HETATM    7  N4  UNL     1       3.059   4.540  22.409  1.00  0.00    -0.325 N 
ENDROOT
BRANCH   7   8
HETATM    8  C17 UNL     1       3.131   5.711  23.134  1.00  0.00     0.139 C 
BRANCH   8   9
HETATM    9  O4  UNL     1       2.926   5.617  24.414  1.00  0.00    -0.348 OA
ATOM     10  H4  UNL     1       3.385   4.921  24.869  1.00  0.00     0.219 HD
ENDBRANCH   8   9
BRANCH   8  11
HETATM   11  C18 UNL     1       3.407   7.083  22.719  1.00  0.00     0.158 C 
HETATM   12  C19 UNL     1       2.612   8.182  23.326  1.00  0.00     0.041 C 
BRANCH  11  13
HETATM   13  N5  UNL     1       4.796   7.483  22.748  1.00  0.00    -0.320 N 
HETATM   14  C20 UNL     1       5.538   7.833  21.539  1.00  0.00     0.390 C 
HETATM   15  O5  UNL     1       4.773   7.799  20.510  1.00  0.00    -0.231 OA
HETATM   16  N6  UNL     1       6.848   8.124  21.553  1.00  0.00    -0.380 NA
ATOM     17  H5  UNL     1       5.276   7.522  23.646  1.00  0.00     0.166 HD
BRANCH  16  18
HETATM   18  C21 UNL     1       8.200   8.429  21.530  1.00  0.00     0.269 C 
BRANCH  18  19
HETATM   19  C22 UNL     1       8.796   9.298  22.622  1.00  0.00     0.051 C 
BRANCH  19  20
HETATM   20  C23 UNL     1       9.126   8.531  23.865  1.00  0.00     0.003 C 
BRANCH  20  21
HETATM   21  C24 UNL     1      10.444   8.900  24.451  1.00  0.00    -0.004 C 
HETATM   22  C25 UNL     1      10.822   8.147  25.719  1.00  0.00     0.005 C 
ENDBRANCH  20  21
ENDBRANCH  19  20
ENDBRANCH  18  19
BRANCH  18  23
HETATM   23  C26 UNL     1       8.576   9.048  20.241  1.00  0.00     0.210 C 
HETATM   24  O6  UNL     1       8.908   8.469  19.201  1.00  0.00    -0.646 OA
HETATM   25  O7  UNL     1       8.565  10.464  20.162  1.00  0.00    -0.646 OA
ENDBRANCH  18  23
ENDBRANCH  16  18
ENDBRANCH  11  13
ENDBRANCH   8  11
ENDBRANCH   7   8
BRANCH   1  26
HETATM   26  C11 UNL     1       3.687   3.955  20.106  1.00  0.00     0.249 C 
HETATM   27  N2  UNL     1       4.853   4.683  20.003  1.00  0.00    -0.294 N 
HETATM   28  C10 UNL     1       5.976   4.567  19.175  1.00  0.00     0.247 C 
ATOM     29  H2  UNL     1       4.910   5.460  20.661  1.00  0.00     0.171 HD
HETATM   30  O2  UNL     1       6.851   5.501  19.262  1.00  0.00    -0.271 OA
HETATM   31  O3  UNL     1       3.470   2.993  19.262  1.00  0.00    -0.271 OA
BRANCH  28  32
HETATM   32  C5  UNL     1       6.272   3.490  18.208  1.00  0.00     0.179 C 
BRANCH  32  33
HETATM   33  N1  UNL     1       5.637   3.609  16.929  1.00  0.00    -0.340 N 
HETATM   34  C3  UNL     1       5.246   2.405  16.216  1.00  0.00     0.242 C 
HETATM   35  O1  UNL     1       4.604   2.496  15.117  1.00  0.00    -0.268 OA
HETATM   36  C4  UNL     1       5.292   4.841  16.261  1.00  0.00     0.154 C 
BRANCH  34  37
HETATM   37  C2  UNL     1       5.538   1.051  16.648  1.00  0.00     0.064 C 
HETATM   38  C1  UNL     1       6.365   0.309  15.900  1.00  0.00     0.017 C 
ENDBRANCH  34  37
ENDBRANCH  32  33
BRANCH  32  39
HETATM   39  C6  UNL     1       7.748   3.179  18.096  1.00  0.00     0.039 C 
BRANCH  39  40
HETATM   40  C7  UNL     1       8.325   2.160  18.985  1.00  0.00    -0.020 C 
HETATM   41  C8  UNL     1       7.377   1.284  19.747  1.00  0.00     0.009 C 
HETATM   42  C9  UNL     1       9.210   1.252  18.122  1.00  0.00     0.009 C 
ENDBRANCH  39  40
ENDBRANCH  32  39
ENDBRANCH  28  32
ENDBRANCH   1  26
TORSDOF 15
ENDMDL
