MODEL 1
REMARK VINA RESULT: -8.021328222      0.000      0.000
REMARK  5 active torsions:
REMARK  status: ('A' for Active; 'I' for Inactive)
REMARK    1  A    between atoms: C4_4  and  C6_6 
REMARK       I    between atoms: N4_23  and  C16_25 
REMARK    2  A    between atoms: C16_25  and  C17_27 
REMARK    3  A    between atoms: C17_27  and  N5_28 
REMARK    4  A    between atoms: C22_33  and  C23_34 
REMARK    5  A    between atoms: C23_34  and  C25_36 
ROOT
HETATM    1  C1  UNL     1     -15.802 -23.208  23.803  1.00  0.00     0.028 C 
HETATM    2  C2  UNL     1     -16.679 -24.043  23.339  1.00  0.00     0.012 A 
HETATM    3  C3  UNL     1     -16.511 -25.005  22.376  1.00  0.00     0.052 A 
HETATM    4  C4  UNL     1     -15.478 -25.378  21.652  1.00  0.00    -0.023 C 
HETATM    5  C5  UNL     1     -15.658 -26.511  20.653  1.00  0.00     0.051 C 
HETATM    6  N2  UNL     1     -17.717 -25.643  22.213  1.00  0.00    -0.340 N 
ATOM      7  H2  UNL     1     -17.897 -26.407  21.560  1.00  0.00     0.167 HD
HETATM    8  C12 UNL     1     -18.623 -25.106  23.048  1.00  0.00     0.130 A 
HETATM    9  C13 UNL     1     -18.023 -24.106  23.767  1.00  0.00     0.091 A 
HETATM   10  N3  UNL     1     -18.386 -23.267  24.685  1.00  0.00    -0.318 N 
ATOM     11  H3  UNL     1     -17.653 -22.637  25.011  1.00  0.00     0.169 HD
HETATM   12  C14 UNL     1     -19.671 -23.091  25.317  1.00  0.00     0.268 C 
HETATM   13  O1  UNL     1     -19.597 -22.677  26.509  1.00  0.00    -0.266 OA
HETATM   14  C15 UNL     1     -21.065 -23.269  24.925  1.00  0.00     0.082 C 
HETATM   15  N4  UNL     1     -21.889 -22.682  25.700  1.00  0.00    -0.324 N 
ATOM     16  H4  UNL     1     -21.472 -22.173  26.480  1.00  0.00     0.169 HD
HETATM   17  C16 UNL     1     -23.280 -22.639  25.631  1.00  0.00     0.248 C 
HETATM   18  O2  UNL     1     -23.837 -22.015  24.699  1.00  0.00    -0.271 OA
HETATM   19  C21 UNL     1     -21.626 -24.026  23.767  1.00  0.00     0.088 C 
HETATM   20  C22 UNL     1     -21.095 -25.407  23.671  1.00  0.00     0.093 C 
HETATM   21  N6  UNL     1     -19.811 -25.556  23.061  1.00  0.00    -0.369 N 
ATOM     22  H6  UNL     1     -19.871 -26.310  22.377  1.00  0.00     0.161 HD
ENDROOT
BRANCH   4  23
HETATM   23  C6  UNL     1     -14.133 -24.837  21.681  1.00  0.00    -0.012 A 
HETATM   24  C7  UNL     1     -13.800 -23.840  20.787  1.00  0.00     0.099 A 
HETATM   25  N1  UNL     1     -12.538 -23.384  20.803  1.00  0.00    -0.374 N 
HETATM   26  C8  UNL     1     -11.596 -23.848  21.639  1.00  0.00     0.094 A 
ATOM     27  H1  UNL     1     -12.282 -22.646  20.147  1.00  0.00     0.164 HD
HETATM   28  C9  UNL     1     -11.892 -24.846  22.547  1.00  0.00    -0.046 A 
HETATM   29  C10 UNL     1     -10.845 -25.346  23.458  1.00  0.00     0.049 C 
HETATM   30  C11 UNL     1     -13.174 -25.336  22.558  1.00  0.00     0.021 A 
ENDBRANCH   4  23
BRANCH  20  31
HETATM   31  C23 UNL     1     -22.050 -26.279  22.887  1.00  0.00     0.018 C 
HETATM   32  C24 UNL     1     -22.298 -27.596  23.660  1.00  0.00     0.013 C 
BRANCH  31  33
HETATM   33  C25 UNL     1     -23.405 -25.688  22.678  1.00  0.00     0.121 C 
HETATM   34 CL1  UNL     1     -24.432 -26.282  24.037  1.00  0.00    -0.130 Cl
ENDBRANCH  31  33
ENDBRANCH  20  31
BRANCH  17  35
HETATM   35  C17 UNL     1     -24.098 -23.320  26.645  1.00  0.00     0.338 C 
BRANCH  35  36
HETATM   36  N5  UNL     1     -24.234 -22.635  27.890  1.00  0.00    -0.070 N 
HETATM   37  C18 UNL     1     -23.295 -23.159  28.863  1.00  0.00     0.272 C 
HETATM   38  C19 UNL     1     -24.174 -21.205  27.817  1.00  0.00     0.272 C 
HETATM   39  C20 UNL     1     -25.569 -22.980  28.409  1.00  0.00     0.272 C 
ENDBRANCH  35  36
ENDBRANCH  17  35
TORSDOF 5
ENDMDL
MODEL 2
REMARK VINA RESULT: -7.998366269      1.001      1.438
REMARK  5 active torsions:
REMARK  status: ('A' for Active; 'I' for Inactive)
REMARK    1  A    between atoms: C4_4  and  C6_6 
REMARK       I    between atoms: N4_23  and  C16_25 
REMARK    2  A    between atoms: C16_25  and  C17_27 
REMARK    3  A    between atoms: C17_27  and  N5_28 
REMARK    4  A    between atoms: C22_33  and  C23_34 
REMARK    5  A    between atoms: C23_34  and  C25_36 
ROOT
HETATM    1  C1  UNL     1     -15.721 -23.199  23.804  1.00  0.00     0.028 C 
HETATM    2  C2  UNL     1     -16.594 -24.064  23.391  1.00  0.00     0.012 A 
HETATM    3  C3  UNL     1     -16.432 -25.057  22.459  1.00  0.00     0.052 A 
HETATM    4  C4  UNL     1     -15.411 -25.439  21.724  1.00  0.00    -0.023 C 
HETATM    5  C5  UNL     1     -15.596 -26.610  20.771  1.00  0.00     0.051 C 
HETATM    6  N2  UNL     1     -17.631 -25.720  22.348  1.00  0.00    -0.340 N 
ATOM      7  H2  UNL     1     -17.814 -26.509  21.728  1.00  0.00     0.167 HD
HETATM    8  C12 UNL     1     -18.527 -25.167  23.185  1.00  0.00     0.130 A 
HETATM    9  C13 UNL     1     -17.926 -24.133  23.854  1.00  0.00     0.091 A 
HETATM   10  N3  UNL     1     -18.281 -23.267  24.750  1.00  0.00    -0.318 N 
ATOM     11  H3  UNL     1     -17.551 -22.613  25.035  1.00  0.00     0.169 HD
HETATM   12  C14 UNL     1     -19.554 -23.088  25.405  1.00  0.00     0.268 C 
HETATM   13  O1  UNL     1     -19.458 -22.630  26.579  1.00  0.00    -0.266 OA
HETATM   14  C15 UNL     1     -20.953 -23.302  25.054  1.00  0.00     0.082 C 
HETATM   15  N4  UNL     1     -21.768 -22.701  25.827  1.00  0.00    -0.324 N 
ATOM     16  H4  UNL     1     -21.342 -22.157  26.578  1.00  0.00     0.169 HD
HETATM   17  C16 UNL     1     -23.161 -22.682  25.790  1.00  0.00     0.248 C 
HETATM   18  O2  UNL     1     -23.750 -22.101  24.851  1.00  0.00    -0.271 OA
HETATM   19  C21 UNL     1     -21.529 -24.110  23.938  1.00  0.00     0.088 C 
HETATM   20  C22 UNL     1     -20.978 -25.484  23.878  1.00  0.00     0.093 C 
HETATM   21  N6  UNL     1     -19.706 -25.635  23.243  1.00  0.00    -0.369 N 
ATOM     22  H6  UNL     1     -19.770 -26.414  22.588  1.00  0.00     0.161 HD
ENDROOT
BRANCH   4  23
HETATM   23  C6  UNL     1     -14.074 -24.877  21.701  1.00  0.00    -0.012 A 
HETATM   24  C7  UNL     1     -13.796 -23.866  20.803  1.00  0.00     0.099 A 
HETATM   25  N1  UNL     1     -12.542 -23.390  20.770  1.00  0.00    -0.374 N 
HETATM   26  C8  UNL     1     -11.558 -23.846  21.561  1.00  0.00     0.094 A 
ATOM     27  H1  UNL     1     -12.326 -22.642  20.111  1.00  0.00     0.164 HD
HETATM   28  C9  UNL     1     -11.800 -24.856  22.472  1.00  0.00    -0.046 A 
HETATM   29  C10 UNL     1     -10.707 -25.346  23.333  1.00  0.00     0.049 C 
HETATM   30  C11 UNL     1     -13.071 -25.367  22.532  1.00  0.00     0.021 A 
ENDBRANCH   4  23
BRANCH  20  31
HETATM   31  C23 UNL     1     -21.936 -26.399  23.149  1.00  0.00     0.018 C 
HETATM   32  C24 UNL     1     -21.222 -27.025  21.928  1.00  0.00     0.013 C 
BRANCH  31  33
HETATM   33  C25 UNL     1     -22.424 -27.558  23.953  1.00  0.00     0.121 C 
HETATM   34 CL1  UNL     1     -23.220 -28.683  22.789  1.00  0.00    -0.130 Cl
ENDBRANCH  31  33
ENDBRANCH  20  31
BRANCH  17  35
HETATM   35  C17 UNL     1     -23.944 -23.339  26.847  1.00  0.00     0.338 C 
BRANCH  35  36
HETATM   36  N5  UNL     1     -24.206 -24.728  26.648  1.00  0.00    -0.070 N 
HETATM   37  C18 UNL     1     -24.699 -24.964  25.304  1.00  0.00     0.272 C 
HETATM   38  C19 UNL     1     -23.128 -25.612  26.976  1.00  0.00     0.272 C 
HETATM   39  C20 UNL     1     -25.326 -25.071  27.541  1.00  0.00     0.272 C 
ENDBRANCH  35  36
ENDBRANCH  17  35
TORSDOF 5
ENDMDL
MODEL 3
REMARK VINA RESULT: -7.556561005      1.692      2.024
REMARK  5 active torsions:
REMARK  status: ('A' for Active; 'I' for Inactive)
REMARK    1  A    between atoms: C4_4  and  C6_6 
REMARK       I    between atoms: N4_23  and  C16_25 
REMARK    2  A    between atoms: C16_25  and  C17_27 
REMARK    3  A    between atoms: C17_27  and  N5_28 
REMARK    4  A    between atoms: C22_33  and  C23_34 
REMARK    5  A    between atoms: C23_34  and  C25_36 
ROOT
HETATM    1  C1  UNL     1     -15.837 -23.847  24.343  1.00  0.00     0.028 C 
HETATM    2  C2  UNL     1     -16.792 -24.566  23.839  1.00  0.00     0.012 A 
HETATM    3  C3  UNL     1     -16.797 -25.267  22.661  1.00  0.00     0.052 A 
HETATM    4  C4  UNL     1     -15.900 -25.435  21.714  1.00  0.00    -0.023 C 
HETATM    5  C5  UNL     1     -16.259 -26.301  20.515  1.00  0.00     0.051 C 
HETATM    6  N2  UNL     1     -18.025 -25.873  22.546  1.00  0.00    -0.340 N 
ATOM      7  H2  UNL     1     -18.321 -26.463  21.767  1.00  0.00     0.167 HD
HETATM    8  C12 UNL     1     -18.776 -25.569  23.618  1.00  0.00     0.130 A 
HETATM    9  C13 UNL     1     -18.050 -24.757  24.450  1.00  0.00     0.091 A 
HETATM   10  N3  UNL     1     -18.247 -24.169  25.587  1.00  0.00    -0.318 N 
ATOM     11  H3  UNL     1     -17.460 -23.619  25.933  1.00  0.00     0.169 HD
HETATM   12  C14 UNL     1     -19.411 -24.174  26.439  1.00  0.00     0.268 C 
HETATM   13  O1  UNL     1     -19.139 -24.055  27.668  1.00  0.00    -0.266 OA
HETATM   14  C15 UNL     1     -20.852 -24.284  26.244  1.00  0.00     0.082 C 
HETATM   15  N4  UNL     1     -21.531 -23.916  27.258  1.00  0.00    -0.324 N 
ATOM     16  H4  UNL     1     -20.986 -23.598  28.060  1.00  0.00     0.169 HD
HETATM   17  C16 UNL     1     -22.914 -23.887  27.425  1.00  0.00     0.248 C 
HETATM   18  O2  UNL     1     -23.602 -23.070  26.770  1.00  0.00    -0.271 OA
HETATM   19  C21 UNL     1     -21.605 -24.755  25.044  1.00  0.00     0.088 C 
HETATM   20  C22 UNL     1     -21.122 -26.062  24.538  1.00  0.00     0.093 C 
HETATM   21  N6  UNL     1     -19.954 -26.034  23.713  1.00  0.00    -0.369 N 
ATOM     22  H6  UNL     1     -20.137 -26.605  22.888  1.00  0.00     0.161 HD
ENDROOT
BRANCH   4  23
HETATM   23  C6  UNL     1     -14.558 -24.889  21.655  1.00  0.00    -0.012 A 
HETATM   24  C7  UNL     1     -14.322 -23.796  20.846  1.00  0.00     0.099 A 
HETATM   25  N1  UNL     1     -13.065 -23.333  20.775  1.00  0.00    -0.374 N 
HETATM   26  C8  UNL     1     -12.038 -23.878  21.446  1.00  0.00     0.094 A 
ATOM     27  H1  UNL     1     -12.879 -22.525  20.180  1.00  0.00     0.164 HD
HETATM   28  C9  UNL     1     -12.237 -24.972  22.265  1.00  0.00    -0.046 A 
HETATM   29  C10 UNL     1     -11.098 -25.560  22.996  1.00  0.00     0.049 C 
HETATM   30  C11 UNL     1     -13.511 -25.472  22.362  1.00  0.00     0.021 A 
ENDBRANCH   4  23
BRANCH  20  31
HETATM   31  C23 UNL     1     -22.205 -26.742  23.732  1.00  0.00     0.018 C 
HETATM   32  C24 UNL     1     -21.697 -26.989  22.291  1.00  0.00     0.013 C 
BRANCH  31  33
HETATM   33  C25 UNL     1     -22.608 -28.087  24.240  1.00  0.00     0.121 C 
HETATM   34 CL1  UNL     1     -23.222 -29.004  22.813  1.00  0.00    -0.130 Cl
ENDBRANCH  31  33
ENDBRANCH  20  31
BRANCH  17  35
HETATM   35  C17 UNL     1     -23.572 -24.806  28.364  1.00  0.00     0.338 C 
BRANCH  35  36
HETATM   36  N5  UNL     1     -23.906 -26.091  27.838  1.00  0.00    -0.070 N 
HETATM   37  C18 UNL     1     -24.580 -25.957  26.561  1.00  0.00     0.272 C 
HETATM   38  C19 UNL     1     -22.825 -27.029  27.767  1.00  0.00     0.272 C 
HETATM   39  C20 UNL     1     -24.909 -26.664  28.751  1.00  0.00     0.272 C 
ENDBRANCH  35  36
ENDBRANCH  17  35
TORSDOF 5
ENDMDL
MODEL 4
REMARK VINA RESULT: -7.516985779      0.850      1.242
REMARK  5 active torsions:
REMARK  status: ('A' for Active; 'I' for Inactive)
REMARK    1  A    between atoms: C4_4  and  C6_6 
REMARK       I    between atoms: N4_23  and  C16_25 
REMARK    2  A    between atoms: C16_25  and  C17_27 
REMARK    3  A    between atoms: C17_27  and  N5_28 
REMARK    4  A    between atoms: C22_33  and  C23_34 
REMARK    5  A    between atoms: C23_34  and  C25_36 
ROOT
HETATM    1  C1  UNL     1     -15.824 -23.087  23.947  1.00  0.00     0.028 C 
HETATM    2  C2  UNL     1     -16.757 -23.888  23.537  1.00  0.00     0.012 A 
HETATM    3  C3  UNL     1     -16.684 -24.853  22.565  1.00  0.00     0.052 A 
HETATM    4  C4  UNL     1     -15.711 -25.261  21.779  1.00  0.00    -0.023 C 
HETATM    5  C5  UNL     1     -15.994 -26.384  20.792  1.00  0.00     0.051 C 
HETATM    6  N2  UNL     1     -17.920 -25.446  22.476  1.00  0.00    -0.340 N 
ATOM      7  H2  UNL     1     -18.168 -26.201  21.835  1.00  0.00     0.167 HD
HETATM    8  C12 UNL     1     -18.754 -24.878  23.365  1.00  0.00     0.130 A 
HETATM    9  C13 UNL     1     -18.074 -23.903  24.047  1.00  0.00     0.091 A 
HETATM   10  N3  UNL     1     -18.349 -23.054  24.985  1.00  0.00    -0.318 N 
ATOM     11  H3  UNL     1     -17.575 -22.451  25.266  1.00  0.00     0.169 HD
HETATM   12  C14 UNL     1     -19.586 -22.832  25.694  1.00  0.00     0.268 C 
HETATM   13  O1  UNL     1     -19.424 -22.425  26.880  1.00  0.00    -0.266 OA
HETATM   14  C15 UNL     1     -21.007 -22.958  25.389  1.00  0.00     0.082 C 
HETATM   15  N4  UNL     1     -21.760 -22.344  26.212  1.00  0.00    -0.324 N 
ATOM     16  H4  UNL     1     -21.278 -21.852  26.965  1.00  0.00     0.169 HD
HETATM   17  C16 UNL     1     -23.150 -22.250  26.229  1.00  0.00     0.248 C 
HETATM   18  O2  UNL     1     -23.739 -21.603  25.333  1.00  0.00    -0.271 OA
HETATM   19  C21 UNL     1     -21.665 -23.691  24.267  1.00  0.00     0.088 C 
HETATM   20  C22 UNL     1     -21.192 -25.090  24.138  1.00  0.00     0.093 C 
HETATM   21  N6  UNL     1     -19.954 -25.284  23.451  1.00  0.00    -0.369 N 
ATOM     22  H6  UNL     1     -20.083 -26.034  22.771  1.00  0.00     0.161 HD
ENDROOT
BRANCH   4  23
HETATM   23  C6  UNL     1     -14.348 -24.770  21.726  1.00  0.00    -0.012 A 
HETATM   24  C7  UNL     1     -14.026 -23.808  20.790  1.00  0.00     0.099 A 
HETATM   25  N1  UNL     1     -12.749 -23.399  20.730  1.00  0.00    -0.374 N 
HETATM   26  C8  UNL     1     -11.783 -23.877  21.530  1.00  0.00     0.094 A 
ATOM     27  H1  UNL     1     -12.501 -22.688  20.042  1.00  0.00     0.164 HD
HETATM   28  C9  UNL     1     -12.068 -24.840  22.478  1.00  0.00    -0.046 A 
HETATM   29  C10 UNL     1     -10.995 -25.355  23.349  1.00  0.00     0.049 C 
HETATM   30  C11 UNL     1     -13.364 -25.282  22.567  1.00  0.00     0.021 A 
ENDBRANCH   4  23
BRANCH  20  31
HETATM   31  C23 UNL     1     -22.224 -25.925  23.414  1.00  0.00     0.018 C 
HETATM   32  C24 UNL     1     -23.102 -25.007  22.530  1.00  0.00     0.013 C 
BRANCH  31  33
HETATM   33  C25 UNL     1     -21.658 -26.942  22.478  1.00  0.00     0.121 C 
HETATM   34 CL1  UNL     1     -22.882 -28.263  22.366  1.00  0.00    -0.130 Cl
ENDBRANCH  31  33
ENDBRANCH  20  31
BRANCH  17  35
HETATM   35  C17 UNL     1     -23.930 -22.903  27.291  1.00  0.00     0.338 C 
BRANCH  35  36
HETATM   36  N5  UNL     1     -24.314 -22.063  28.379  1.00  0.00    -0.070 N 
HETATM   37  C18 UNL     1     -25.431 -21.219  27.999  1.00  0.00     0.272 C 
HETATM   38  C19 UNL     1     -24.561 -22.735  29.620  1.00  0.00     0.272 C 
HETATM   39  C20 UNL     1     -23.189 -21.141  28.609  1.00  0.00     0.272 C 
ENDBRANCH  35  36
ENDBRANCH  17  35
TORSDOF 5
ENDMDL
MODEL 5
REMARK VINA RESULT: -7.444146959      2.296      2.623
REMARK  5 active torsions:
REMARK  status: ('A' for Active; 'I' for Inactive)
REMARK    1  A    between atoms: C4_4  and  C6_6 
REMARK       I    between atoms: N4_23  and  C16_25 
REMARK    2  A    between atoms: C16_25  and  C17_27 
REMARK    3  A    between atoms: C17_27  and  N5_28 
REMARK    4  A    between atoms: C22_33  and  C23_34 
REMARK    5  A    between atoms: C23_34  and  C25_36 
ROOT
HETATM    1  C1  UNL     1     -15.124 -25.351  24.658  1.00  0.00     0.028 C 
HETATM    2  C2  UNL     1     -16.004 -24.785  23.892  1.00  0.00     0.012 A 
HETATM    3  C3  UNL     1     -15.833 -24.285  22.626  1.00  0.00     0.052 A 
HETATM    4  C4  UNL     1     -14.796 -24.218  21.821  1.00  0.00    -0.023 C 
HETATM    5  C5  UNL     1     -14.975 -23.578  20.453  1.00  0.00     0.051 C 
HETATM    6  N2  UNL     1     -17.044 -23.782  22.214  1.00  0.00    -0.340 N 
ATOM      7  H2  UNL     1     -17.223 -23.343  21.311  1.00  0.00     0.167 HD
HETATM    8  C12 UNL     1     -17.956 -23.958  23.186  1.00  0.00     0.130 A 
HETATM    9  C13 UNL     1     -17.353 -24.578  24.249  1.00  0.00     0.091 A 
HETATM   10  N3  UNL     1     -17.719 -24.985  25.424  1.00  0.00    -0.318 N 
ATOM     11  H3  UNL     1     -16.984 -25.423  25.980  1.00  0.00     0.169 HD
HETATM   12  C14 UNL     1     -19.010 -24.914  26.064  1.00  0.00     0.268 C 
HETATM   13  O1  UNL     1     -19.227 -25.862  26.872  1.00  0.00    -0.266 OA
HETATM   14  C15 UNL     1     -20.154 -24.011  26.018  1.00  0.00     0.082 C 
HETATM   15  N4  UNL     1     -20.957 -24.159  26.997  1.00  0.00    -0.324 N 
ATOM     16  H4  UNL     1     -20.697 -24.878  27.673  1.00  0.00     0.169 HD
HETATM   17  C16 UNL     1     -22.139 -23.475  27.274  1.00  0.00     0.248 C 
HETATM   18  O2  UNL     1     -22.097 -22.266  27.596  1.00  0.00    -0.271 OA
HETATM   19  C21 UNL     1     -20.489 -22.969  25.003  1.00  0.00     0.088 C 
HETATM   20  C22 UNL     1     -20.442 -23.482  23.614  1.00  0.00     0.093 C 
HETATM   21  N6  UNL     1     -19.150 -23.564  23.007  1.00  0.00    -0.369 N 
ATOM     22  H6  UNL     1     -19.210 -23.148  22.078  1.00  0.00     0.161 HD
ENDROOT
BRANCH   4  23
HETATM   23  C6  UNL     1     -13.448 -24.693  22.068  1.00  0.00    -0.012 A 
HETATM   24  C7  UNL     1     -12.536 -23.831  22.642  1.00  0.00     0.099 A 
HETATM   25  N1  UNL     1     -11.284 -24.279  22.823  1.00  0.00    -0.374 N 
HETATM   26  C8  UNL     1     -10.883 -25.512  22.475  1.00  0.00     0.094 A 
ATOM     27  H1  UNL     1     -10.601 -23.650  23.246  1.00  0.00     0.164 HD
HETATM   28  C9  UNL     1     -11.769 -26.402  21.899  1.00  0.00    -0.046 A 
HETATM   29  C10 UNL     1     -11.313 -27.753  21.523  1.00  0.00     0.049 C 
HETATM   30  C11 UNL     1     -13.058 -25.977  21.699  1.00  0.00     0.021 A 
ENDBRANCH   4  23
BRANCH  20  31
HETATM   31  C23 UNL     1     -21.290 -22.618  22.709  1.00  0.00     0.018 C 
HETATM   32  C24 UNL     1     -21.451 -23.311  21.336  1.00  0.00     0.013 C 
BRANCH  31  33
HETATM   33  C25 UNL     1     -22.683 -22.387  23.195  1.00  0.00     0.121 C 
HETATM   34 CL1  UNL     1     -23.012 -20.627  22.972  1.00  0.00    -0.130 Cl
ENDBRANCH  31  33
ENDBRANCH  20  31
BRANCH  17  35
HETATM   35  C17 UNL     1     -23.436 -24.163  27.190  1.00  0.00     0.338 C 
BRANCH  35  36
HETATM   36  N5  UNL     1     -23.749 -25.023  28.286  1.00  0.00    -0.070 N 
HETATM   37  C18 UNL     1     -23.312 -26.379  28.009  1.00  0.00     0.272 C 
HETATM   38  C19 UNL     1     -23.297 -24.577  29.570  1.00  0.00     0.272 C 
HETATM   39  C20 UNL     1     -25.219 -25.092  28.351  1.00  0.00     0.272 C 
ENDBRANCH  35  36
ENDBRANCH  17  35
TORSDOF 5
ENDMDL
