MODEL 1
REMARK VINA RESULT: -7.029358280      0.000      0.000
REMARK  7 active torsions:
REMARK  status: ('A' for Active; 'I' for Inactive)
REMARK    1  A    between atoms: C2_2  and  O1_3 
REMARK    2  A    between atoms: C4_6  and  N1_7 
REMARK    3  A    between atoms: N2_12  and  C6_13 
REMARK    4  A    between atoms: C6_13  and  N3_14 
REMARK    5  A    between atoms: C8_23  and  N7_24 
REMARK    6  A    between atoms: N8_26  and  N9_28 
REMARK    7  A    between atoms: C10_30  and  N10_31 
ROOT
HETATM    1  N3  UNL     1      -0.617  -0.152  19.948  1.00  0.00    -0.065 N 
HETATM    2  N4  UNL     1      -0.383   1.093  19.600  1.00  0.00    -0.110 N 
ATOM      3  H4  UNL     1       0.279   1.730  20.044  1.00  0.00     0.207 HD
HETATM    4  C7  UNL     1      -1.180   1.378  18.547  1.00  0.00     0.706 A 
HETATM    5  N5  UNL     1      -1.213   2.519  17.946  1.00  0.00    -0.233 N 
ATOM      6  H51 UNL     1      -1.814   2.734  17.151  1.00  0.00     0.174 HD
ATOM      7  H52 UNL     1      -0.668   3.356  18.155  1.00  0.00     0.174 HD
HETATM    8  N6  UNL     1      -1.898   0.274  18.271  1.00  0.00    -0.018 N 
ATOM      9  H6  UNL     1      -2.587   0.189  17.524  1.00  0.00     0.203 HD
HETATM   10  C8  UNL     1      -1.561  -0.707  19.142  1.00  0.00     0.735 A 
ENDROOT
BRANCH  10  11
HETATM   11  N7  UNL     1      -2.067  -2.035  19.218  1.00  0.00    -0.115 N 
HETATM   12  N8  UNL     1      -1.611  -2.875  18.382  1.00  0.00    -0.224 N 
ATOM     13  H8  UNL     1      -1.960  -3.833  18.417  1.00  0.00     0.209 HD
ATOM     14  H7  UNL     1      -2.765  -2.300  19.913  1.00  0.00     0.207 HD
BRANCH  12  15
HETATM   15  N9  UNL     1      -0.652  -2.549  17.412  1.00  0.00    -0.246 N 
HETATM   16  C9  UNL     1       0.790  -2.544  17.528  1.00  0.00     0.207 C 
HETATM   17  C10 UNL     1       1.240  -2.477  16.090  1.00  0.00     0.303 C 
HETATM   18  N11 UNL     1       0.066  -2.102  15.333  1.00  0.00    -0.334 N 
HETATM   19  C11 UNL     1      -0.970  -2.153  16.100  1.00  0.00     0.208 C 
ATOM     20  H11 UNL     1       0.059  -1.839  14.348  1.00  0.00     0.164 HD
HETATM   21  N12 UNL     1      -2.288  -1.827  15.614  1.00  0.00    -0.062 NA
BRANCH  17  22
HETATM   22  N10 UNL     1       2.258  -1.458  15.890  1.00  0.00    -0.057 N 
ATOM     23 3H10 UNL     1       2.727  -1.572  14.992  1.00  0.00     0.276 HD
ATOM     24 2H10 UNL     1       1.840  -0.541  15.736  1.00  0.00     0.276 HD
ATOM     25 1H10 UNL     1       2.929  -1.437  16.658  1.00  0.00     0.276 HD
ENDBRANCH  17  22
ENDBRANCH  12  15
ENDBRANCH  10  11
BRANCH   1  26
HETATM   26  C6  UNL     1      -0.002  -0.901  21.023  1.00  0.00     0.228 C 
BRANCH  26  27
HETATM   27  N2  UNL     1      -0.253  -0.355  22.270  1.00  0.00    -0.350 N 
HETATM   28  C5  UNL     1      -1.552  -0.143  22.718  1.00  0.00     0.097 C 
HETATM   29  C4  UNL     1      -1.746  -0.884  24.031  1.00  0.00     0.224 C 
HETATM   30  C3  UNL     1      -0.783  -0.436  25.059  1.00  0.00     0.077 C 
HETATM   31  C2  UNL     1       0.517   0.072  24.581  1.00  0.00     0.073 C 
HETATM   32  C1  UNL     1       0.580   1.570  24.925  1.00  0.00     0.047 C 
HETATM   33  C12 UNL     1       0.824  -0.083  23.141  1.00  0.00     0.166 C 
BRANCH  29  34
HETATM   34  N1  UNL     1      -1.615  -2.302  23.743  1.00  0.00    -0.070 N 
ATOM     35  H13 UNL     1      -1.948  -2.521  22.803  1.00  0.00     0.275 HD
ATOM     36  H12 UNL     1      -0.637  -2.568  23.634  1.00  0.00     0.275 HD
ATOM     37  H11 UNL     1      -2.079  -2.879  24.444  1.00  0.00     0.275 HD
ENDBRANCH  29  34
BRANCH  31  38
HETATM   38  O1  UNL     1       1.582  -0.497  25.309  1.00  0.00    -0.388 OA
ATOM     39  H1  UNL     1       2.349  -0.021  25.012  1.00  0.00     0.210 HD
ENDBRANCH  31  38
ENDBRANCH  26  27
ENDBRANCH   1  26
TORSDOF 7
ENDMDL
MODEL 2
REMARK VINA RESULT: -6.902253285      8.972     11.504
REMARK  7 active torsions:
REMARK  status: ('A' for Active; 'I' for Inactive)
REMARK    1  A    between atoms: C2_2  and  O1_3 
REMARK    2  A    between atoms: C4_6  and  N1_7 
REMARK    3  A    between atoms: N2_12  and  C6_13 
REMARK    4  A    between atoms: C6_13  and  N3_14 
REMARK    5  A    between atoms: C8_23  and  N7_24 
REMARK    6  A    between atoms: N8_26  and  N9_28 
REMARK    7  A    between atoms: C10_30  and  N10_31 
ROOT
HETATM    1  N3  UNL     1       1.955  -9.528  14.956  1.00  0.00    -0.065 N 
HETATM    2  N4  UNL     1       2.173  -8.783  13.895  1.00  0.00    -0.110 N 
ATOM      3  H4  UNL     1       2.685  -7.901  13.872  1.00  0.00     0.207 HD
HETATM    4  C7  UNL     1       1.593  -9.397  12.840  1.00  0.00     0.706 A 
HETATM    5  N5  UNL     1       1.609  -8.942  11.633  1.00  0.00    -0.233 N 
ATOM      6  H51 UNL     1       1.172  -9.405  10.837  1.00  0.00     0.174 HD
ATOM      7  H52 UNL     1       2.042  -8.083  11.290  1.00  0.00     0.174 HD
HETATM    8  N6  UNL     1       1.023 -10.529  13.293  1.00  0.00    -0.018 N 
ATOM      9  H6  UNL     1       0.510 -11.200  12.722  1.00  0.00     0.203 HD
HETATM   10  C8  UNL     1       1.238 -10.635  14.626  1.00  0.00     0.735 A 
ENDROOT
BRANCH  10  11
HETATM   11  N7  UNL     1       0.816 -11.667  15.510  1.00  0.00    -0.115 N 
HETATM   12  N8  UNL     1       1.595 -12.660  15.650  1.00  0.00    -0.224 N 
ATOM     13  H8  UNL     1       1.314 -13.413  16.279  1.00  0.00     0.209 HD
ATOM     14  H7  UNL     1      -0.071 -11.612  16.009  1.00  0.00     0.207 HD
BRANCH  12  15
HETATM   15  N9  UNL     1       2.823 -12.773  14.982  1.00  0.00    -0.246 N 
HETATM   16  C9  UNL     1       4.142 -12.396  15.439  1.00  0.00     0.207 C 
HETATM   17  C10 UNL     1       5.048 -13.093  14.456  1.00  0.00     0.303 C 
HETATM   18  N11 UNL     1       4.195 -13.494  13.359  1.00  0.00    -0.334 N 
HETATM   19  C11 UNL     1       2.962 -13.302  13.686  1.00  0.00     0.208 C 
ATOM     20  H11 UNL     1       4.518 -13.869  12.467  1.00  0.00     0.164 HD
HETATM   21  N12 UNL     1       1.882 -13.613  12.782  1.00  0.00    -0.062 NA
BRANCH  17  22
HETATM   22  N10 UNL     1       6.071 -12.200  13.937  1.00  0.00    -0.057 N 
ATOM     23 3H10 UNL     1       6.844 -12.720  13.522  1.00  0.00     0.276 HD
ATOM     24 2H10 UNL     1       5.747 -11.706  13.105  1.00  0.00     0.276 HD
ATOM     25 1H10 UNL     1       6.403 -11.549  14.649  1.00  0.00     0.276 HD
ENDBRANCH  17  22
ENDBRANCH  12  15
ENDBRANCH  10  11
BRANCH   1  26
HETATM   26  C6  UNL     1       2.384  -9.279  16.315  1.00  0.00     0.228 C 
BRANCH  26  27
HETATM   27  N2  UNL     1       3.395  -8.337  16.396  1.00  0.00    -0.350 N 
HETATM   28  C5  UNL     1       3.113  -6.988  16.580  1.00  0.00     0.097 C 
HETATM   29  C4  UNL     1       3.829  -6.503  17.830  1.00  0.00     0.224 C 
HETATM   30  C3  UNL     1       5.292  -6.700  17.732  1.00  0.00     0.077 C 
HETATM   31  C2  UNL     1       5.761  -7.817  16.892  1.00  0.00     0.073 C 
HETATM   32  C1  UNL     1       6.506  -7.208  15.692  1.00  0.00     0.047 C 
HETATM   33  C12 UNL     1       4.742  -8.757  16.372  1.00  0.00     0.166 C 
BRANCH  29  34
HETATM   34  N1  UNL     1       3.256  -7.222  18.955  1.00  0.00    -0.070 N 
ATOM     35  H13 UNL     1       2.779  -8.070  18.648  1.00  0.00     0.275 HD
ATOM     36  H12 UNL     1       3.983  -7.645  19.531  1.00  0.00     0.275 HD
ATOM     37  H11 UNL     1       2.639  -6.631  19.511  1.00  0.00     0.275 HD
ENDBRANCH  29  34
BRANCH  31  38
HETATM   38  O1  UNL     1       6.743  -8.577  17.561  1.00  0.00    -0.388 OA
ATOM     39  H1  UNL     1       6.287  -8.939  18.312  1.00  0.00     0.210 HD
ENDBRANCH  31  38
ENDBRANCH  26  27
ENDBRANCH   1  26
TORSDOF 7
ENDMDL
MODEL 3
REMARK VINA RESULT: -6.821170076      4.088      6.142
REMARK  7 active torsions:
REMARK  status: ('A' for Active; 'I' for Inactive)
REMARK    1  A    between atoms: C2_2  and  O1_3 
REMARK    2  A    between atoms: C4_6  and  N1_7 
REMARK    3  A    between atoms: N2_12  and  C6_13 
REMARK    4  A    between atoms: C6_13  and  N3_14 
REMARK    5  A    between atoms: C8_23  and  N7_24 
REMARK    6  A    between atoms: N8_26  and  N9_28 
REMARK    7  A    between atoms: C10_30  and  N10_31 
ROOT
HETATM    1  N3  UNL     1       2.125  -3.996  18.825  1.00  0.00    -0.065 N 
HETATM    2  N4  UNL     1       1.860  -4.900  19.741  1.00  0.00    -0.110 N 
ATOM      3  H4  UNL     1       0.950  -5.081  20.165  1.00  0.00     0.207 HD
HETATM    4  C7  UNL     1       3.013  -5.547  20.019  1.00  0.00     0.706 A 
HETATM    5  N5  UNL     1       3.122  -6.503  20.879  1.00  0.00    -0.233 N 
ATOM      6  H51 UNL     1       3.993  -6.991  21.089  1.00  0.00     0.174 HD
ATOM      7  H52 UNL     1       2.391  -6.911  21.463  1.00  0.00     0.174 HD
HETATM    8  N6  UNL     1       3.976  -5.009  19.249  1.00  0.00    -0.018 N 
ATOM      9  H6  UNL     1       4.955  -5.296  19.242  1.00  0.00     0.203 HD
HETATM   10  C8  UNL     1       3.441  -4.028  18.485  1.00  0.00     0.735 A 
ENDROOT
BRANCH  10  11
HETATM   11  N7  UNL     1       4.090  -3.197  17.529  1.00  0.00    -0.115 N 
HETATM   12  N8  UNL     1       4.394  -3.727  16.416  1.00  0.00    -0.224 N 
ATOM     13  H8  UNL     1       4.861  -3.151  15.715  1.00  0.00     0.209 HD
ATOM     14  H7  UNL     1       4.302  -2.220  17.729  1.00  0.00     0.207 HD
BRANCH  12  15
HETATM   15  N9  UNL     1       4.119  -5.067  16.104  1.00  0.00    -0.246 N 
HETATM   16  C9  UNL     1       5.026  -6.192  16.058  1.00  0.00     0.207 C 
HETATM   17  C10 UNL     1       4.090  -7.374  16.035  1.00  0.00     0.303 C 
HETATM   18  N11 UNL     1       2.787  -6.832  15.720  1.00  0.00    -0.334 N 
HETATM   19  C11 UNL     1       2.839  -5.544  15.767  1.00  0.00     0.208 C 
ATOM     20  H11 UNL     1       1.957  -7.381  15.496  1.00  0.00     0.164 HD
HETATM   21  N12 UNL     1       1.680  -4.729  15.495  1.00  0.00    -0.062 NA
BRANCH  17  22
HETATM   22  N10 UNL     1       4.450  -8.329  14.999  1.00  0.00    -0.057 N 
ATOM     23 3H10 UNL     1       3.670  -8.946  14.774  1.00  0.00     0.276 HD
ATOM     24 2H10 UNL     1       4.559  -7.872  14.094  1.00  0.00     0.276 HD
ATOM     25 1H10 UNL     1       5.284  -8.862  15.249  1.00  0.00     0.276 HD
ENDBRANCH  17  22
ENDBRANCH  12  15
ENDBRANCH  10  11
BRANCH   1  26
HETATM   26  C6  UNL     1       1.205  -3.061  18.212  1.00  0.00     0.228 C 
BRANCH  26  27
HETATM   27  N2  UNL     1       0.360  -2.460  19.129  1.00  0.00    -0.350 N 
HETATM   28  C5  UNL     1       0.798  -1.422  19.944  1.00  0.00     0.097 C 
HETATM   29  C4  UNL     1      -0.099  -0.214  19.724  1.00  0.00     0.224 C 
HETATM   30  C3  UNL     1      -1.514  -0.522  20.023  1.00  0.00     0.077 C 
HETATM   31  C2  UNL     1      -1.947  -1.919  19.834  1.00  0.00     0.073 C 
HETATM   32  C1  UNL     1      -2.299  -2.483  21.221  1.00  0.00     0.047 C 
HETATM   33  C12 UNL     1      -0.995  -2.850  19.186  1.00  0.00     0.166 C 
BRANCH  29  34
HETATM   34  N1  UNL     1       0.087   0.209  18.347  1.00  0.00    -0.070 N 
ATOM     35  H13 UNL     1      -0.788   0.161  17.823  1.00  0.00     0.275 HD
ATOM     36  H12 UNL     1       0.255   1.213  18.288  1.00  0.00     0.275 HD
ATOM     37  H11 UNL     1       0.826  -0.317  17.881  1.00  0.00     0.275 HD
ENDBRANCH  29  34
BRANCH  31  38
HETATM   38  O1  UNL     1      -3.160  -1.981  19.116  1.00  0.00    -0.388 OA
ATOM     39  H1  UNL     1      -3.403  -1.071  18.989  1.00  0.00     0.210 HD
ENDBRANCH  31  38
ENDBRANCH  26  27
ENDBRANCH   1  26
TORSDOF 7
ENDMDL
MODEL 4
REMARK VINA RESULT: -6.812723610      5.243      8.751
REMARK  7 active torsions:
REMARK  status: ('A' for Active; 'I' for Inactive)
REMARK    1  A    between atoms: C2_2  and  O1_3 
REMARK    2  A    between atoms: C4_6  and  N1_7 
REMARK    3  A    between atoms: N2_12  and  C6_13 
REMARK    4  A    between atoms: C6_13  and  N3_14 
REMARK    5  A    between atoms: C8_23  and  N7_24 
REMARK    6  A    between atoms: N8_26  and  N9_28 
REMARK    7  A    between atoms: C10_30  and  N10_31 
ROOT
HETATM    1  N3  UNL     1       2.932  -4.858  17.350  1.00  0.00    -0.065 N 
HETATM    2  N4  UNL     1       3.280  -5.317  18.532  1.00  0.00    -0.110 N 
ATOM      3  H4  UNL     1       3.447  -6.293  18.775  1.00  0.00     0.207 HD
HETATM    4  C7  UNL     1       3.375  -4.259  19.367  1.00  0.00     0.706 A 
HETATM    5  N5  UNL     1       3.697  -4.342  20.614  1.00  0.00    -0.233 N 
ATOM      6  H51 UNL     1       3.769  -3.544  21.244  1.00  0.00     0.174 HD
ATOM      7  H52 UNL     1       3.924  -5.180  21.150  1.00  0.00     0.174 HD
HETATM    8  N6  UNL     1       3.077  -3.154  18.659  1.00  0.00    -0.018 N 
ATOM      9  H6  UNL     1       3.065  -2.203  19.026  1.00  0.00     0.203 HD
HETATM   10  C8  UNL     1       2.794  -3.505  17.382  1.00  0.00     0.735 A 
ENDROOT
BRANCH  10  11
HETATM   11  N7  UNL     1       2.429  -2.664  16.293  1.00  0.00    -0.115 N 
HETATM   12  N8  UNL     1       1.363  -1.986  16.420  1.00  0.00    -0.224 N 
ATOM     13  H8  UNL     1       1.081  -1.376  15.653  1.00  0.00     0.209 HD
ATOM     14  H7  UNL     1       2.998  -2.609  15.449  1.00  0.00     0.207 HD
BRANCH  12  15
HETATM   15  N9  UNL     1       0.554  -2.035  17.565  1.00  0.00    -0.246 N 
HETATM   16  C9  UNL     1      -0.143  -3.166  18.135  1.00  0.00     0.207 C 
HETATM   17  C10 UNL     1      -0.506  -2.674  19.514  1.00  0.00     0.303 C 
HETATM   18  N11 UNL     1      -0.309  -1.242  19.480  1.00  0.00    -0.334 N 
HETATM   19  C11 UNL     1       0.285  -0.920  18.380  1.00  0.00     0.208 C 
ATOM     20  H11 UNL     1      -0.593  -0.590  20.210  1.00  0.00     0.164 HD
HETATM   21  N12 UNL     1       0.613   0.449  18.071  1.00  0.00    -0.062 NA
BRANCH  17  22
HETATM   22  N10 UNL     1      -1.902  -2.936  19.830  1.00  0.00    -0.057 N 
ATOM     23 3H10 UNL     1      -2.521  -2.575  19.105  1.00  0.00     0.276 HD
ATOM     24 2H10 UNL     1      -2.121  -3.928  19.749  1.00  0.00     0.276 HD
ATOM     25 1H10 UNL     1      -2.156  -2.572  20.749  1.00  0.00     0.276 HD
ENDBRANCH  17  22
ENDBRANCH  12  15
ENDBRANCH  10  11
BRANCH   1  26
HETATM   26  C6  UNL     1       2.709  -5.615  16.137  1.00  0.00     0.228 C 
BRANCH  26  27
HETATM   27  N2  UNL     1       3.357  -6.838  16.141  1.00  0.00    -0.350 N 
HETATM   28  C5  UNL     1       2.683  -8.012  16.460  1.00  0.00     0.097 C 
HETATM   29  C4  UNL     1       2.825  -8.988  15.303  1.00  0.00     0.224 C 
HETATM   30  C3  UNL     1       4.243  -9.289  15.012  1.00  0.00     0.077 C 
HETATM   31  C2  UNL     1       5.227  -8.239  15.333  1.00  0.00     0.073 C 
HETATM   32  C1  UNL     1       6.114  -8.772  16.471  1.00  0.00     0.047 C 
HETATM   33  C12 UNL     1       4.707  -6.912  15.736  1.00  0.00     0.166 C 
BRANCH  29  34
HETATM   34  N1  UNL     1       2.148  -8.397  14.162  1.00  0.00    -0.070 N 
ATOM     35  H13 UNL     1       1.326  -7.866  14.453  1.00  0.00     0.275 HD
ATOM     36  H12 UNL     1       2.696  -7.638  13.759  1.00  0.00     0.275 HD
ATOM     37  H11 UNL     1       1.907  -9.094  13.457  1.00  0.00     0.275 HD
ENDBRANCH  29  34
BRANCH  31  38
HETATM   38  O1  UNL     1       6.122  -8.038  14.260  1.00  0.00    -0.388 OA
ATOM     39  H1  UNL     1       5.811  -7.245  13.841  1.00  0.00     0.210 HD
ENDBRANCH  31  38
ENDBRANCH  26  27
ENDBRANCH   1  26
TORSDOF 7
ENDMDL
MODEL 5
REMARK VINA RESULT: -6.802674938      8.023     10.638
REMARK  7 active torsions:
REMARK  status: ('A' for Active; 'I' for Inactive)
REMARK    1  A    between atoms: C2_2  and  O1_3 
REMARK    2  A    between atoms: C4_6  and  N1_7 
REMARK    3  A    between atoms: N2_12  and  C6_13 
REMARK    4  A    between atoms: C6_13  and  N3_14 
REMARK    5  A    between atoms: C8_23  and  N7_24 
REMARK    6  A    between atoms: N8_26  and  N9_28 
REMARK    7  A    between atoms: C10_30  and  N10_31 
ROOT
HETATM    1  N3  UNL     1       4.256  -9.179  16.040  1.00  0.00    -0.065 N 
HETATM    2  N4  UNL     1       5.369  -9.875  15.976  1.00  0.00    -0.110 N 
ATOM      3  H4  UNL     1       5.979 -10.112  16.759  1.00  0.00     0.207 HD
HETATM    4  C7  UNL     1       5.560 -10.220  14.683  1.00  0.00     0.706 A 
HETATM    5  N5  UNL     1       6.561 -10.911  14.254  1.00  0.00    -0.233 N 
ATOM      6  H51 UNL     1       6.705 -11.171  13.279  1.00  0.00     0.174 HD
ATOM      7  H52 UNL     1       7.338 -11.295  14.794  1.00  0.00     0.174 HD
HETATM    8  N6  UNL     1       4.535  -9.714  13.973  1.00  0.00    -0.018 N 
ATOM      9  H6  UNL     1       4.410  -9.814  12.966  1.00  0.00     0.203 HD
HETATM   10  C8  UNL     1       3.697  -9.052  14.806  1.00  0.00     0.735 A 
ENDROOT
BRANCH  10  11
HETATM   11  N7  UNL     1       2.491  -8.367  14.488  1.00  0.00    -0.115 N 
HETATM   12  N8  UNL     1       1.517  -9.073  14.082  1.00  0.00    -0.224 N 
ATOM     13  H8  UNL     1       0.643  -8.603  13.847  1.00  0.00     0.209 HD
ATOM     14  H7  UNL     1       2.413  -7.355  14.581  1.00  0.00     0.207 HD
BRANCH  12  15
HETATM   15  N9  UNL     1       1.586 -10.467  13.940  1.00  0.00    -0.246 N 
HETATM   16  C9  UNL     1       1.768 -11.248  12.737  1.00  0.00     0.207 C 
HETATM   17  C10 UNL     1       2.123 -12.611  13.276  1.00  0.00     0.303 C 
HETATM   18  N11 UNL     1       1.774 -12.578  14.679  1.00  0.00    -0.334 N 
HETATM   19  C11 UNL     1       1.480 -11.367  15.016  1.00  0.00     0.208 C 
ATOM     20  H11 UNL     1       1.763 -13.383  15.304  1.00  0.00     0.164 HD
HETATM   21  N12 UNL     1       1.091 -11.030  16.363  1.00  0.00    -0.062 NA
BRANCH  17  22
HETATM   22  N10 UNL     1       1.348 -13.663  12.637  1.00  0.00    -0.057 N 
ATOM     23 3H10 UNL     1       0.959 -13.351  11.748  1.00  0.00     0.276 HD
ATOM     24 2H10 UNL     1       1.950 -14.412  12.294  1.00  0.00     0.276 HD
ATOM     25 1H10 UNL     1       0.621 -14.025  13.254  1.00  0.00     0.276 HD
ENDBRANCH  17  22
ENDBRANCH  12  15
ENDBRANCH  10  11
BRANCH   1  26
HETATM   26  C6  UNL     1       3.643  -8.595  17.213  1.00  0.00     0.228 C 
BRANCH  26  27
HETATM   27  N2  UNL     1       3.829  -7.225  17.291  1.00  0.00    -0.350 N 
HETATM   28  C5  UNL     1       2.801  -6.378  17.690  1.00  0.00     0.097 C 
HETATM   29  C4  UNL     1       3.268  -5.573  18.892  1.00  0.00     0.224 C 
HETATM   30  C3  UNL     1       4.477  -4.781  18.584  1.00  0.00     0.077 C 
HETATM   31  C2  UNL     1       5.379  -5.316  17.547  1.00  0.00     0.073 C 
HETATM   32  C1  UNL     1       5.337  -4.345  16.356  1.00  0.00     0.047 C 
HETATM   33  C12 UNL     1       5.106  -6.680  17.039  1.00  0.00     0.166 C 
BRANCH  29  34
HETATM   34  N1  UNL     1       3.495  -6.516  19.974  1.00  0.00    -0.070 N 
ATOM     35  H13 UNL     1       3.928  -7.375  19.631  1.00  0.00     0.275 HD
ATOM     36  H12 UNL     1       4.239  -6.196  20.593  1.00  0.00     0.275 HD
ATOM     37  H11 UNL     1       2.641  -6.715  20.494  1.00  0.00     0.275 HD
ENDBRANCH  29  34
BRANCH  31  38
HETATM   38  O1  UNL     1       6.723  -5.281  17.976  1.00  0.00    -0.388 OA
ATOM     39  H1  UNL     1       7.205  -5.693  17.269  1.00  0.00     0.210 HD
ENDBRANCH  31  38
ENDBRANCH  26  27
ENDBRANCH   1  26
TORSDOF 7
ENDMDL
