MODEL 1
REMARK VINA RESULT: -6.556592159      0.000      0.000
REMARK  9 active torsions:
REMARK  status: ('A' for Active; 'I' for Inactive)
REMARK    1  A    between atoms: O1_2  and  N1_3 
REMARK    2  A    between atoms: C2_5  and  C3_6 
REMARK    3  A    between atoms: C2_5  and  C7_19 
REMARK    4  A    between atoms: C5_12  and  C6_13 
REMARK    5  A    between atoms: C6_13  and  O3_15 
REMARK    6  A    between atoms: O3_15  and  N4_16 
REMARK    7  A    between atoms: C8_22  and  N6_23 
REMARK    8  A    between atoms: C10_30  and  O5_31 
REMARK    9  A    between atoms: O5_31  and  N8_32 
ROOT
HETATM    1  N1  UNL     1      -2.191  -1.769  21.355  1.00  0.00    -0.263 N 
ATOM      2  H1  UNL     1      -2.240  -2.088  20.387  1.00  0.00     0.194 HD
HETATM    3  C2  UNL     1      -2.137  -0.452  21.604  1.00  0.00     0.113 C 
ENDROOT
BRANCH   3   4
HETATM    4  C3  UNL     1      -2.069  -0.038  23.009  1.00  0.00     0.088 A 
HETATM    5  N2  UNL     1      -3.239  -0.100  23.681  1.00  0.00    -0.336 N 
HETATM    6  C4  UNL     1      -3.287   0.025  24.968  1.00  0.00     0.160 A 
ATOM      7  H2  UNL     1      -4.105  -0.248  23.163  1.00  0.00     0.168 HD
HETATM    8  N3  UNL     1      -4.411  -0.012  25.864  1.00  0.00    -0.074 NA
HETATM    9  S1  UNL     1      -1.662   0.251  25.380  1.00  0.00    -0.049 SA
HETATM   10  C5  UNL     1      -0.974   0.173  23.783  1.00  0.00     0.114 A 
BRANCH  10  11
HETATM   11  C6  UNL     1       0.421   0.527  23.446  1.00  0.00     0.324 C 
HETATM   12  O2  UNL     1       0.934   1.648  23.467  1.00  0.00    -0.257 OA
BRANCH  11  13
HETATM   13  O3  UNL     1       1.243  -0.519  23.064  1.00  0.00    -0.202 OA
BRANCH  13  14
HETATM   14  N4  UNL     1       0.775  -1.831  23.114  1.00  0.00    -0.302 N 
ATOM     15  H42 UNL     1      -0.129  -2.048  22.694  1.00  0.00     0.184 HD
ATOM     16  H41 UNL     1       1.332  -2.557  23.564  1.00  0.00     0.184 HD
ENDBRANCH  13  14
ENDBRANCH  11  13
ENDBRANCH  10  11
ENDBRANCH   3   4
BRANCH   3  17
HETATM   17  C7  UNL     1      -2.044   0.354  20.429  1.00  0.00     0.121 A 
HETATM   18  N5  UNL     1      -2.966   1.268  20.024  1.00  0.00    -0.186 N 
HETATM   19  C8  UNL     1      -2.722   2.095  18.999  1.00  0.00     0.679 A 
ATOM     20  H5  UNL     1      -3.860   1.324  20.509  1.00  0.00     0.184 HD
HETATM   21  N7  UNL     1      -1.576   2.086  18.314  1.00  0.00    -0.154 N 
HETATM   22  C9  UNL     1      -0.647   1.213  18.675  1.00  0.00     0.298 A 
ATOM     23  H7  UNL     1      -1.420   2.729  17.539  1.00  0.00     0.187 HD
HETATM   24  O4  UNL     1       0.460   1.164  18.058  1.00  0.00    -0.264 OA
HETATM   25  C10 UNL     1      -0.833   0.344  19.706  1.00  0.00     0.196 A 
BRANCH  19  26
HETATM   26  N6  UNL     1      -3.661   2.938  18.676  1.00  0.00    -0.234 N 
ATOM     27  H62 UNL     1      -4.543   2.932  19.188  1.00  0.00     0.174 HD
ATOM     28  H61 UNL     1      -3.468   3.581  17.908  1.00  0.00     0.174 HD
ENDBRANCH  19  26
BRANCH  25  29
HETATM   29  O5  UNL     1       0.155  -0.564  20.069  1.00  0.00    -0.237 OA
BRANCH  29  30
HETATM   30  N8  UNL     1       0.791  -1.381  19.192  1.00  0.00    -0.305 N 
ATOM     31  H82 UNL     1       1.808  -1.319  19.155  1.00  0.00     0.184 HD
ATOM     32  H81 UNL     1       0.312  -2.041  18.579  1.00  0.00     0.184 HD
ENDBRANCH  29  30
ENDBRANCH  25  29
ENDBRANCH   3  17
BRANCH   1  33
HETATM   33  O1  UNL     1      -2.184  -2.683  22.345  1.00  0.00    -0.285 OA
HETATM   34  C1  UNL     1      -2.214  -4.085  22.172  1.00  0.00     0.237 C 
ENDBRANCH   1  33
TORSDOF 9
ENDMDL
MODEL 2
REMARK VINA RESULT: -6.406787876      3.544      5.521
REMARK  9 active torsions:
REMARK  status: ('A' for Active; 'I' for Inactive)
REMARK    1  A    between atoms: O1_2  and  N1_3 
REMARK    2  A    between atoms: C2_5  and  C3_6 
REMARK    3  A    between atoms: C2_5  and  C7_19 
REMARK    4  A    between atoms: C5_12  and  C6_13 
REMARK    5  A    between atoms: C6_13  and  O3_15 
REMARK    6  A    between atoms: O3_15  and  N4_16 
REMARK    7  A    between atoms: C8_22  and  N6_23 
REMARK    8  A    between atoms: C10_30  and  O5_31 
REMARK    9  A    between atoms: O5_31  and  N8_32 
ROOT
HETATM    1  N1  UNL     1      -1.241  -2.751  18.661  1.00  0.00    -0.263 N 
ATOM      2  H1  UNL     1      -1.132  -3.714  18.343  1.00  0.00     0.194 HD
HETATM    3  C2  UNL     1      -0.157  -1.967  18.748  1.00  0.00     0.113 C 
ENDROOT
BRANCH   3   4
HETATM    4  C3  UNL     1      -0.360  -0.590  19.208  1.00  0.00     0.088 A 
HETATM    5  N2  UNL     1      -0.832   0.263  18.272  1.00  0.00    -0.336 N 
HETATM    6  C4  UNL     1      -1.261   1.442  18.587  1.00  0.00     0.160 A 
ATOM      7  H2  UNL     1      -0.851  -0.029  17.295  1.00  0.00     0.168 HD
HETATM    8  N3  UNL     1      -1.798   2.487  17.758  1.00  0.00    -0.074 NA
HETATM    9  S1  UNL     1      -1.039   1.483  20.263  1.00  0.00    -0.049 SA
HETATM   10  C5  UNL     1      -0.364  -0.108  20.477  1.00  0.00     0.114 A 
BRANCH  10  11
HETATM   11  C6  UNL     1       0.258  -0.601  21.724  1.00  0.00     0.324 C 
HETATM   12  O2  UNL     1       1.018  -1.563  21.851  1.00  0.00    -0.257 OA
BRANCH  11  13
HETATM   13  O3  UNL     1      -0.048   0.099  22.878  1.00  0.00    -0.202 OA
BRANCH  13  14
HETATM   14  N4  UNL     1       0.893   0.953  23.451  1.00  0.00    -0.302 N 
ATOM     15  H42 UNL     1       1.779   1.104  22.968  1.00  0.00     0.184 HD
ATOM     16  H41 UNL     1       0.693   1.414  24.338  1.00  0.00     0.184 HD
ENDBRANCH  13  14
ENDBRANCH  11  13
ENDBRANCH  10  11
ENDBRANCH   3   4
BRANCH   3  17
HETATM   17  C7  UNL     1       1.069  -2.646  18.473  1.00  0.00     0.121 A 
HETATM   18  N5  UNL     1       1.999  -3.004  19.398  1.00  0.00    -0.186 N 
HETATM   19  C8  UNL     1       3.040  -3.782  19.074  1.00  0.00     0.679 A 
ATOM     20  H5  UNL     1       1.902  -2.673  20.357  1.00  0.00     0.184 HD
HETATM   21  N7  UNL     1       3.236  -4.258  17.843  1.00  0.00    -0.154 N 
HETATM   22  C9  UNL     1       2.354  -3.937  16.908  1.00  0.00     0.298 A 
ATOM     23  H7  UNL     1       4.039  -4.848  17.628  1.00  0.00     0.187 HD
HETATM   24  O4  UNL     1       2.494  -4.364  15.722  1.00  0.00    -0.264 OA
HETATM   25  C10 UNL     1       1.276  -3.149  17.171  1.00  0.00     0.196 A 
BRANCH  19  26
HETATM   26  N6  UNL     1       3.884  -4.074  20.023  1.00  0.00    -0.234 N 
ATOM     27  H62 UNL     1       3.576  -4.062  20.995  1.00  0.00     0.174 HD
ATOM     28  H61 UNL     1       4.837  -4.307  19.744  1.00  0.00     0.174 HD
ENDBRANCH  19  26
BRANCH  25  29
HETATM   29  O5  UNL     1       0.362  -2.824  16.175  1.00  0.00    -0.237 OA
BRANCH  29  30
HETATM   30  N8  UNL     1       0.637  -1.993  15.138  1.00  0.00    -0.305 N 
ATOM     31  H82 UNL     1       1.508  -2.155  14.634  1.00  0.00     0.184 HD
ATOM     32  H81 UNL     1       0.027  -1.231  14.843  1.00  0.00     0.184 HD
ENDBRANCH  29  30
ENDBRANCH  25  29
ENDBRANCH   3  17
BRANCH   1  33
HETATM   33  O1  UNL     1      -2.472  -2.304  18.980  1.00  0.00    -0.285 OA
HETATM   34  C1  UNL     1      -3.084  -2.414  20.249  1.00  0.00     0.237 C 
ENDBRANCH   1  33
TORSDOF 9
ENDMDL
MODEL 3
REMARK VINA RESULT: -6.394483705      4.091      6.454
REMARK  9 active torsions:
REMARK  status: ('A' for Active; 'I' for Inactive)
REMARK    1  A    between atoms: O1_2  and  N1_3 
REMARK    2  A    between atoms: C2_5  and  C3_6 
REMARK    3  A    between atoms: C2_5  and  C7_19 
REMARK    4  A    between atoms: C5_12  and  C6_13 
REMARK    5  A    between atoms: C6_13  and  O3_15 
REMARK    6  A    between atoms: O3_15  and  N4_16 
REMARK    7  A    between atoms: C8_22  and  N6_23 
REMARK    8  A    between atoms: C10_30  and  O5_31 
REMARK    9  A    between atoms: O5_31  and  N8_32 
ROOT
HETATM    1  N1  UNL     1       0.052  -3.573  19.941  1.00  0.00    -0.263 N 
ATOM      2  H1  UNL     1      -0.649  -3.312  20.635  1.00  0.00     0.194 HD
HETATM    3  C2  UNL     1       0.703  -2.605  19.278  1.00  0.00     0.113 C 
ENDROOT
BRANCH   3   4
HETATM    4  C3  UNL     1       1.703  -3.024  18.292  1.00  0.00     0.088 A 
HETATM    5  N2  UNL     1       2.844  -3.530  18.811  1.00  0.00    -0.336 N 
HETATM    6  C4  UNL     1       3.714  -4.135  18.069  1.00  0.00     0.160 A 
ATOM      7  H2  UNL     1       3.022  -3.434  19.810  1.00  0.00     0.168 HD
HETATM    8  N3  UNL     1       4.972  -4.738  18.417  1.00  0.00    -0.074 NA
HETATM    9  S1  UNL     1       3.014  -4.052  16.532  1.00  0.00    -0.049 SA
HETATM   10  C5  UNL     1       1.560  -3.192  16.952  1.00  0.00     0.114 A 
BRANCH  10  11
HETATM   11  C6  UNL     1       0.612  -2.610  15.978  1.00  0.00     0.324 C 
HETATM   12  O2  UNL     1       0.881  -2.071  14.903  1.00  0.00    -0.257 OA
BRANCH  11  13
HETATM   13  O3  UNL     1      -0.729  -2.678  16.315  1.00  0.00    -0.202 OA
BRANCH  13  14
HETATM   14  N4  UNL     1      -1.650  -1.833  15.699  1.00  0.00    -0.302 N 
ATOM     15  H42 UNL     1      -2.489  -2.237  15.284  1.00  0.00     0.184 HD
ATOM     16  H41 UNL     1      -1.481  -0.827  15.667  1.00  0.00     0.184 HD
ENDBRANCH  13  14
ENDBRANCH  11  13
ENDBRANCH  10  11
ENDBRANCH   3   4
BRANCH   3  17
HETATM   17  C7  UNL     1       0.232  -1.289  19.570  1.00  0.00     0.121 A 
HETATM   18  N5  UNL     1      -0.337  -0.438  18.676  1.00  0.00    -0.186 N 
HETATM   19  C8  UNL     1      -0.899   0.712  19.070  1.00  0.00     0.679 A 
ATOM     20  H5  UNL     1      -0.335  -0.679  17.685  1.00  0.00     0.184 HD
HETATM   21  N7  UNL     1      -0.944   1.099  20.347  1.00  0.00    -0.154 N 
HETATM   22  C9  UNL     1      -0.404   0.299  21.255  1.00  0.00     0.298 A 
ATOM     23  H7  UNL     1      -1.380   1.981  20.615  1.00  0.00     0.187 HD
HETATM   24  O4  UNL     1      -0.421   0.620  22.482  1.00  0.00    -0.264 OA
HETATM   25  C10 UNL     1       0.184  -0.881  20.920  1.00  0.00     0.196 A 
BRANCH  19  26
HETATM   26  N6  UNL     1      -1.419   1.470  18.146  1.00  0.00    -0.234 N 
ATOM     27  H62 UNL     1      -1.247   1.259  17.164  1.00  0.00     0.174 HD
ATOM     28  H61 UNL     1      -1.987   2.259  18.455  1.00  0.00     0.174 HD
ENDBRANCH  19  26
BRANCH  25  29
HETATM   29  O5  UNL     1       0.746  -1.706  21.888  1.00  0.00    -0.237 OA
BRANCH  29  30
HETATM   30  N8  UNL     1       0.108  -2.082  23.024  1.00  0.00    -0.305 N 
ATOM     31  H82 UNL     1      -0.730  -1.560  23.279  1.00  0.00     0.184 HD
ATOM     32  H81 UNL     1       0.418  -2.846  23.624  1.00  0.00     0.184 HD
ENDBRANCH  29  30
ENDBRANCH  25  29
ENDBRANCH   3  17
BRANCH   1  33
HETATM   33  O1  UNL     1       0.298  -4.879  19.718  1.00  0.00    -0.285 OA
HETATM   34  C1  UNL     1       0.685  -5.823  20.697  1.00  0.00     0.237 C 
ENDBRANCH   1  33
TORSDOF 9
ENDMDL
MODEL 4
REMARK VINA RESULT: -6.391970476     10.636     12.813
REMARK  9 active torsions:
REMARK  status: ('A' for Active; 'I' for Inactive)
REMARK    1  A    between atoms: O1_2  and  N1_3 
REMARK    2  A    between atoms: C2_5  and  C3_6 
REMARK    3  A    between atoms: C2_5  and  C7_19 
REMARK    4  A    between atoms: C5_12  and  C6_13 
REMARK    5  A    between atoms: C6_13  and  O3_15 
REMARK    6  A    between atoms: O3_15  and  N4_16 
REMARK    7  A    between atoms: C8_22  and  N6_23 
REMARK    8  A    between atoms: C10_30  and  O5_31 
REMARK    9  A    between atoms: O5_31  and  N8_32 
ROOT
HETATM    1  N1  UNL     1       2.337  -9.516  16.396  1.00  0.00    -0.263 N 
ATOM      2  H1  UNL     1       2.013 -10.479  16.301  1.00  0.00     0.194 HD
HETATM    3  C2  UNL     1       3.106  -8.989  15.430  1.00  0.00     0.113 C 
ENDROOT
BRANCH   3   4
HETATM    4  C3  UNL     1       3.547  -7.603  15.606  1.00  0.00     0.088 A 
HETATM    5  N2  UNL     1       2.570  -6.674  15.508  1.00  0.00    -0.336 N 
HETATM    6  C4  UNL     1       2.771  -5.443  15.853  1.00  0.00     0.160 A 
ATOM      7  H2  UNL     1       1.654  -6.948  15.154  1.00  0.00     0.168 HD
HETATM    8  N3  UNL     1       1.880  -4.315  15.829  1.00  0.00    -0.074 NA
HETATM    9  S1  UNL     1       4.385  -5.457  16.358  1.00  0.00    -0.049 SA
HETATM   10  C5  UNL     1       4.733  -7.140  16.077  1.00  0.00     0.114 A 
BRANCH  10  11
HETATM   11  C6  UNL     1       6.082  -7.742  16.121  1.00  0.00     0.324 C 
HETATM   12  O2  UNL     1       7.154  -7.193  15.858  1.00  0.00    -0.257 OA
BRANCH  11  13
HETATM   13  O3  UNL     1       6.147  -9.071  16.499  1.00  0.00    -0.202 OA
BRANCH  13  14
HETATM   14  N4  UNL     1       6.856  -9.441  17.640  1.00  0.00    -0.302 N 
ATOM     15  H42 UNL     1       7.797  -9.820  17.534  1.00  0.00     0.184 HD
ATOM     16  H41 UNL     1       6.435  -9.334  18.563  1.00  0.00     0.184 HD
ENDBRANCH  13  14
ENDBRANCH  11  13
ENDBRANCH  10  11
ENDBRANCH   3   4
BRANCH   3  17
HETATM   17  C7  UNL     1       3.468  -9.921  14.410  1.00  0.00     0.121 A 
HETATM   18  N5  UNL     1       4.593 -10.684  14.401  1.00  0.00    -0.186 N 
HETATM   19  C8  UNL     1       4.772 -11.649  13.490  1.00  0.00     0.679 A 
ATOM     20  H5  UNL     1       5.314 -10.519  15.103  1.00  0.00     0.184 HD
HETATM   21  N7  UNL     1       3.876 -11.929  12.541  1.00  0.00    -0.154 N 
HETATM   22  C9  UNL     1       2.762 -11.211  12.512  1.00  0.00     0.298 A 
ATOM     23  H7  UNL     1       4.042 -12.670  11.861  1.00  0.00     0.187 HD
HETATM   24  O4  UNL     1       1.878 -11.437  11.632  1.00  0.00    -0.264 OA
HETATM   25  C10 UNL     1       2.520 -10.216  13.408  1.00  0.00     0.196 A 
BRANCH  19  26
HETATM   26  N6  UNL     1       5.880 -12.331  13.554  1.00  0.00    -0.234 N 
ATOM     27  H62 UNL     1       5.966 -13.096  14.223  1.00  0.00     0.174 HD
ATOM     28  H61 UNL     1       6.631 -12.063  12.916  1.00  0.00     0.174 HD
ENDBRANCH  19  26
BRANCH  25  29
HETATM   29  O5  UNL     1       1.345  -9.475  13.360  1.00  0.00    -0.237 OA
BRANCH  29  30
HETATM   30  N8  UNL     1       1.137  -8.442  12.506  1.00  0.00    -0.305 N 
ATOM     31  H82 UNL     1       1.457  -8.564  11.546  1.00  0.00     0.184 HD
ATOM     32  H81 UNL     1       0.685  -7.567  12.771  1.00  0.00     0.184 HD
ENDBRANCH  29  30
ENDBRANCH  25  29
ENDBRANCH   3  17
BRANCH   1  33
HETATM   33  O1  UNL     1       1.979  -8.810  17.487  1.00  0.00    -0.285 OA
HETATM   34  C1  UNL     1       1.599  -9.356  18.732  1.00  0.00     0.237 C 
ENDBRANCH   1  33
TORSDOF 9
ENDMDL
MODEL 5
REMARK VINA RESULT: -6.216344209      3.080      5.125
REMARK  9 active torsions:
REMARK  status: ('A' for Active; 'I' for Inactive)
REMARK    1  A    between atoms: O1_2  and  N1_3 
REMARK    2  A    between atoms: C2_5  and  C3_6 
REMARK    3  A    between atoms: C2_5  and  C7_19 
REMARK    4  A    between atoms: C5_12  and  C6_13 
REMARK    5  A    between atoms: C6_13  and  O3_15 
REMARK    6  A    between atoms: O3_15  and  N4_16 
REMARK    7  A    between atoms: C8_22  and  N6_23 
REMARK    8  A    between atoms: C10_30  and  O5_31 
REMARK    9  A    between atoms: O5_31  and  N8_32 
ROOT
HETATM    1  N1  UNL     1      -1.012  -3.503  19.535  1.00  0.00    -0.263 N 
ATOM      2  H1  UNL     1      -0.954  -4.223  18.815  1.00  0.00     0.194 HD
HETATM    3  C2  UNL     1      -0.187  -2.447  19.469  1.00  0.00     0.113 C 
ENDROOT
BRANCH   3   4
HETATM    4  C3  UNL     1      -0.306  -1.436  20.523  1.00  0.00     0.088 A 
HETATM    5  N2  UNL     1       0.270  -1.764  21.700  1.00  0.00    -0.336 N 
HETATM    6  C4  UNL     1       0.432  -0.891  22.641  1.00  0.00     0.160 A 
ATOM      7  H2  UNL     1       0.584  -2.723  21.852  1.00  0.00     0.168 HD
HETATM    8  N3  UNL     1       1.015  -1.031  23.948  1.00  0.00    -0.074 NA
HETATM    9  S1  UNL     1      -0.223   0.513  21.961  1.00  0.00    -0.049 SA
HETATM   10  C5  UNL     1      -0.700  -0.141  20.420  1.00  0.00     0.114 A 
BRANCH  10  11
HETATM   11  C6  UNL     1      -1.550   0.559  19.433  1.00  0.00     0.324 C 
HETATM   12  O2  UNL     1      -2.778   0.671  19.451  1.00  0.00    -0.257 OA
BRANCH  11  13
HETATM   13  O3  UNL     1      -0.892   1.152  18.371  1.00  0.00    -0.202 OA
BRANCH  13  14
HETATM   14  N4  UNL     1      -1.313   2.391  17.890  1.00  0.00    -0.302 N 
ATOM     15  H42 UNL     1      -1.872   2.991  18.496  1.00  0.00     0.184 HD
ATOM     16  H41 UNL     1      -1.063   2.686  16.946  1.00  0.00     0.184 HD
ENDBRANCH  13  14
ENDBRANCH  11  13
ENDBRANCH  10  11
ENDBRANCH   3   4
BRANCH   3  17
HETATM   17  C7  UNL     1       0.773  -2.531  18.414  1.00  0.00     0.121 A 
HETATM   18  N5  UNL     1       2.022  -3.057  18.523  1.00  0.00    -0.186 N 
HETATM   19  C8  UNL     1       2.794  -3.245  17.445  1.00  0.00     0.679 A 
ATOM     20  H5  UNL     1       2.377  -3.313  19.443  1.00  0.00     0.184 HD
HETATM   21  N7  UNL     1       2.401  -2.938  16.207  1.00  0.00    -0.154 N 
HETATM   22  C9  UNL     1       1.190  -2.425  16.052  1.00  0.00     0.298 A 
ATOM     23  H7  UNL     1       3.013  -3.093  15.406  1.00  0.00     0.187 HD
HETATM   24  O4  UNL     1       0.768  -2.117  14.896  1.00  0.00    -0.264 OA
HETATM   25  C10 UNL     1       0.357  -2.207  17.106  1.00  0.00     0.196 A 
BRANCH  19  26
HETATM   26  N6  UNL     1       3.978  -3.752  17.641  1.00  0.00    -0.234 N 
ATOM     27  H62 UNL     1       4.310  -3.908  18.592  1.00  0.00     0.174 HD
ATOM     28  H61 UNL     1       4.533  -3.975  16.814  1.00  0.00     0.174 HD
ENDBRANCH  19  26
BRANCH  25  29
HETATM   29  O5  UNL     1      -0.911  -1.667  16.921  1.00  0.00    -0.237 OA
BRANCH  29  30
HETATM   30  N8  UNL     1      -1.798  -2.115  15.999  1.00  0.00    -0.305 N 
ATOM     31  H82 UNL     1      -1.594  -1.908  15.021  1.00  0.00     0.184 HD
ATOM     32  H81 UNL     1      -2.642  -2.640  16.229  1.00  0.00     0.184 HD
ENDBRANCH  29  30
ENDBRANCH  25  29
ENDBRANCH   3  17
BRANCH   1  33
HETATM   33  O1  UNL     1      -1.917  -3.639  20.524  1.00  0.00    -0.285 OA
HETATM   34  C1  UNL     1      -1.842  -4.569  21.585  1.00  0.00     0.237 C 
ENDBRANCH   1  33
TORSDOF 9
ENDMDL
