MODEL 1
REMARK VINA RESULT: -4.966820063      0.000      0.000
REMARK  4 active torsions:
REMARK  status: ('A' for Active; 'I' for Inactive)
REMARK    1  A    between atoms: C2_2  and  C4_4 
REMARK    2  A    between atoms: C5_5  and  N1_6 
REMARK    3  A    between atoms: N2_8  and  N3_10 
REMARK    4  A    between atoms: C6_13  and  O1_14 
ROOT
HETATM    1  C4  UNL     1      33.334 -33.809 -17.205  1.00  0.00     0.044 C 
HETATM    2  C5  UNL     1      33.621 -35.237 -17.561  1.00  0.00     0.138 C 
HETATM    3  C6  UNL     1      32.753 -34.977 -18.798  1.00  0.00     0.168 C 
HETATM    4  C7  UNL     1      33.082 -33.525 -18.666  1.00  0.00     0.079 C 
HETATM    5  C8  UNL     1      31.810 -32.663 -18.741  1.00  0.00     0.162 C 
HETATM    6  N4  UNL     1      31.624 -32.261 -20.095  1.00  0.00    -0.305 N 
ATOM      7  H4  UNL     1      30.780 -32.249 -20.669  1.00  0.00     0.173 HD
HETATM    8  S1  UNL     1      33.261 -31.796 -20.491  1.00  0.00     0.299 S 
HETATM    9  O2  UNL     1      33.554 -30.403 -20.089  1.00  0.00    -0.188 OA
HETATM   10  O3  UNL     1      33.458 -32.083 -21.929  1.00  0.00    -0.188 OA
HETATM   11  N5  UNL     1      34.074 -32.950 -19.455  1.00  0.00    -0.183 NA
HETATM   12  C9  UNL     1      34.843 -33.777 -20.340  1.00  0.00     0.132 C 
ENDROOT
BRANCH   1  13
HETATM   13  C2  UNL     1      34.366 -33.060 -16.470  1.00  0.00    -0.014 C 
HETATM   14  C1  UNL     1      33.641 -31.947 -15.674  1.00  0.00     0.010 C 
HETATM   15  C3  UNL     1      35.157 -33.780 -15.441  1.00  0.00     0.010 C 
ENDBRANCH   1  13
BRANCH   3  16
HETATM   16  O1  UNL     1      33.120 -35.673 -19.897  1.00  0.00    -0.391 OA
ATOM     17  H1  UNL     1      32.534 -35.576 -20.639  1.00  0.00     0.210 HD
ENDBRANCH   3  16
BRANCH   2  18
HETATM   18  N1  UNL     1      33.037 -36.226 -16.658  1.00  0.00    -0.315 N 
HETATM   19  N2  UNL     1      32.255 -35.909 -15.741  1.00  0.00    -0.253 N 
ATOM     20  H2  UNL     1      31.996 -34.933 -15.592  1.00  0.00     0.207 HD
ATOM     21  H1  UNL     1      33.278 -37.209 -16.783  1.00  0.00     0.182 HD
BRANCH  19  22
HETATM   22  N3  UNL     1      31.740 -36.912 -14.924  1.00  0.00    -0.331 N 
ATOM     23  H32 UNL     1      30.783 -37.235 -15.063  1.00  0.00     0.178 HD
ATOM     24  H31 UNL     1      32.337 -37.306 -14.196  1.00  0.00     0.178 HD
ENDBRANCH  19  22
ENDBRANCH   2  18
TORSDOF 4
ENDMDL
MODEL 2
REMARK VINA RESULT: -4.597252847      1.039      1.119
REMARK  4 active torsions:
REMARK  status: ('A' for Active; 'I' for Inactive)
REMARK    1  A    between atoms: C2_2  and  C4_4 
REMARK    2  A    between atoms: C5_5  and  N1_6 
REMARK    3  A    between atoms: N2_8  and  N3_10 
REMARK    4  A    between atoms: C6_13  and  O1_14 
ROOT
HETATM    1  C4  UNL     1      32.516 -33.340 -17.438  1.00  0.00     0.044 C 
HETATM    2  C5  UNL     1      33.302 -34.614 -17.535  1.00  0.00     0.138 C 
HETATM    3  C6  UNL     1      32.670 -34.756 -18.925  1.00  0.00     0.168 C 
HETATM    4  C7  UNL     1      32.494 -33.271 -18.946  1.00  0.00     0.079 C 
HETATM    5  C8  UNL     1      31.060 -32.892 -19.356  1.00  0.00     0.162 C 
HETATM    6  N4  UNL     1      31.041 -32.683 -20.765  1.00  0.00    -0.305 N 
ATOM      7  H4  UNL     1      30.372 -32.998 -21.468  1.00  0.00     0.173 HD
HETATM    8  S1  UNL     1      32.495 -31.730 -20.940  1.00  0.00     0.299 S 
HETATM    9  O2  UNL     1      32.248 -30.292 -20.696  1.00  0.00    -0.188 OA
HETATM   10  O3  UNL     1      33.063 -32.047 -22.270  1.00  0.00    -0.188 OA
HETATM   11  N5  UNL     1      33.396 -32.462 -19.629  1.00  0.00    -0.183 NA
HETATM   12  C9  UNL     1      34.550 -33.052 -20.246  1.00  0.00     0.132 C 
ENDROOT
BRANCH   1  13
HETATM   13  C2  UNL     1      33.088 -32.235 -16.653  1.00  0.00    -0.014 C 
HETATM   14  C1  UNL     1      32.727 -32.495 -15.170  1.00  0.00     0.010 C 
HETATM   15  C3  UNL     1      34.563 -32.071 -16.641  1.00  0.00     0.010 C 
ENDBRANCH   1  13
BRANCH   3  16
HETATM   16  O1  UNL     1      33.454 -35.373 -19.837  1.00  0.00    -0.391 OA
ATOM     17  H1  UNL     1      33.117 -36.205 -20.148  1.00  0.00     0.210 HD
ENDBRANCH   3  16
BRANCH   2  18
HETATM   18  N1  UNL     1      32.884 -35.667 -16.614  1.00  0.00    -0.315 N 
HETATM   19  N2  UNL     1      32.779 -36.858 -16.968  1.00  0.00    -0.253 N 
ATOM     20  H2  UNL     1      32.986 -37.135 -17.928  1.00  0.00     0.207 HD
ATOM     21  H1  UNL     1      32.669 -35.420 -15.648  1.00  0.00     0.182 HD
BRANCH  19  22
HETATM   22  N3  UNL     1      32.374 -37.802 -16.029  1.00  0.00    -0.331 N 
ATOM     23  H32 UNL     1      33.010 -38.072 -15.278  1.00  0.00     0.178 HD
ATOM     24  H31 UNL     1      31.442 -38.209 -16.112  1.00  0.00     0.178 HD
ENDBRANCH  19  22
ENDBRANCH   2  18
TORSDOF 4
ENDMDL
MODEL 3
REMARK VINA RESULT: -4.442341121      3.394      4.182
REMARK  4 active torsions:
REMARK  status: ('A' for Active; 'I' for Inactive)
REMARK    1  A    between atoms: C2_2  and  C4_4 
REMARK    2  A    between atoms: C5_5  and  N1_6 
REMARK    3  A    between atoms: N2_8  and  N3_10 
REMARK    4  A    between atoms: C6_13  and  O1_14 
ROOT
HETATM    1  C4  UNL     1      34.754 -32.256 -15.211  1.00  0.00     0.044 C 
HETATM    2  C5  UNL     1      36.002 -33.081 -15.319  1.00  0.00     0.138 C 
HETATM    3  C6  UNL     1      35.056 -34.259 -15.582  1.00  0.00     0.168 C 
HETATM    4  C7  UNL     1      34.040 -33.274 -16.067  1.00  0.00     0.079 C 
HETATM    5  C8  UNL     1      32.671 -33.529 -15.412  1.00  0.00     0.162 C 
HETATM    6  N4  UNL     1      31.919 -34.380 -16.272  1.00  0.00    -0.305 N 
ATOM      7  H4  UNL     1      31.351 -35.199 -16.055  1.00  0.00     0.173 HD
HETATM    8  S1  UNL     1      32.249 -33.613 -17.807  1.00  0.00     0.299 S 
HETATM    9  O2  UNL     1      31.330 -32.485 -18.073  1.00  0.00    -0.188 OA
HETATM   10  O3  UNL     1      32.240 -34.678 -18.834  1.00  0.00    -0.188 OA
HETATM   11  N5  UNL     1      33.865 -33.053 -17.429  1.00  0.00    -0.183 NA
HETATM   12  C9  UNL     1      34.724 -33.712 -18.371  1.00  0.00     0.132 C 
ENDROOT
BRANCH   1  13
HETATM   13  C2  UNL     1      34.819 -30.847 -15.631  1.00  0.00    -0.014 C 
HETATM   14  C1  UNL     1      35.518 -30.064 -14.493  1.00  0.00     0.010 C 
HETATM   15  C3  UNL     1      35.614 -30.511 -16.839  1.00  0.00     0.010 C 
ENDBRANCH   1  13
BRANCH   3  16
HETATM   16  O1  UNL     1      35.555 -35.204 -16.410  1.00  0.00    -0.391 OA
ATOM     17  H1  UNL     1      35.044 -36.004 -16.448  1.00  0.00     0.210 HD
ENDBRANCH   3  16
BRANCH   2  18
HETATM   18  N1  UNL     1      36.753 -33.227 -14.074  1.00  0.00    -0.315 N 
HETATM   19  N2  UNL     1      37.985 -33.048 -14.016  1.00  0.00    -0.253 N 
ATOM     20  H2  UNL     1      38.514 -32.790 -14.850  1.00  0.00     0.207 HD
ATOM     21  H1  UNL     1      36.252 -33.485 -13.224  1.00  0.00     0.182 HD
BRANCH  19  22
HETATM   22  N3  UNL     1      38.628 -33.206 -12.791  1.00  0.00    -0.331 N 
ATOM     23  H32 UNL     1      38.698 -32.414 -12.152  1.00  0.00     0.178 HD
ATOM     24  H31 UNL     1      39.018 -34.119 -12.556  1.00  0.00     0.178 HD
ENDBRANCH  19  22
ENDBRANCH   2  18
TORSDOF 4
ENDMDL
MODEL 4
REMARK VINA RESULT: -4.421051149      2.377      4.073
REMARK  4 active torsions:
REMARK  status: ('A' for Active; 'I' for Inactive)
REMARK    1  A    between atoms: C2_2  and  C4_4 
REMARK    2  A    between atoms: C5_5  and  N1_6 
REMARK    3  A    between atoms: N2_8  and  N3_10 
REMARK    4  A    between atoms: C6_13  and  O1_14 
ROOT
HETATM    1  C4  UNL     1      33.949 -33.163 -17.581  1.00  0.00     0.044 C 
HETATM    2  C5  UNL     1      33.703 -31.697 -17.780  1.00  0.00     0.138 C 
HETATM    3  C6  UNL     1      33.889 -31.992 -19.274  1.00  0.00     0.168 C 
HETATM    4  C7  UNL     1      33.485 -33.405 -18.997  1.00  0.00     0.079 C 
HETATM    5  C8  UNL     1      34.477 -34.396 -19.630  1.00  0.00     0.162 C 
HETATM    6  N4  UNL     1      33.988 -34.752 -20.920  1.00  0.00    -0.305 N 
ATOM      7  H4  UNL     1      34.478 -34.830 -21.811  1.00  0.00     0.173 HD
HETATM    8  S1  UNL     1      32.305 -35.018 -20.533  1.00  0.00     0.299 S 
HETATM    9  O2  UNL     1      32.061 -36.388 -20.031  1.00  0.00    -0.188 OA
HETATM   10  O3  UNL     1      31.521 -34.645 -21.731  1.00  0.00    -0.188 OA
HETATM   11  N5  UNL     1      32.185 -33.831 -19.250  1.00  0.00    -0.183 NA
HETATM   12  C9  UNL     1      31.205 -32.885 -19.701  1.00  0.00     0.132 C 
ENDROOT
BRANCH   1  13
HETATM   13  C2  UNL     1      33.275 -33.828 -16.454  1.00  0.00    -0.014 C 
HETATM   14  C1  UNL     1      34.324 -33.990 -15.327  1.00  0.00     0.010 C 
HETATM   15  C3  UNL     1      32.146 -33.125 -15.796  1.00  0.00     0.010 C 
ENDBRANCH   1  13
BRANCH   3  16
HETATM   16  O1  UNL     1      33.153 -31.210 -20.096  1.00  0.00    -0.391 OA
ATOM     17  H1  UNL     1      32.228 -31.180 -19.886  1.00  0.00     0.210 HD
ENDBRANCH   3  16
BRANCH   2  18
HETATM   18  N1  UNL     1      34.742 -30.820 -17.245  1.00  0.00    -0.315 N 
HETATM   19  N2  UNL     1      34.863 -30.601 -16.024  1.00  0.00    -0.253 N 
ATOM     20  H2  UNL     1      34.229 -31.034 -15.352  1.00  0.00     0.207 HD
ATOM     21  H1  UNL     1      35.390 -30.372 -17.893  1.00  0.00     0.182 HD
BRANCH  19  22
HETATM   22  N3  UNL     1      35.880 -29.753 -15.593  1.00  0.00    -0.331 N 
ATOM     23  H32 UNL     1      35.843 -28.761 -15.829  1.00  0.00     0.178 HD
ATOM     24  H31 UNL     1      36.647 -30.145 -15.047  1.00  0.00     0.178 HD
ENDBRANCH  19  22
ENDBRANCH   2  18
TORSDOF 4
ENDMDL
MODEL 5
REMARK VINA RESULT: -4.353830238      3.138      4.943
REMARK  4 active torsions:
REMARK  status: ('A' for Active; 'I' for Inactive)
REMARK    1  A    between atoms: C2_2  and  C4_4 
REMARK    2  A    between atoms: C5_5  and  N1_6 
REMARK    3  A    between atoms: N2_8  and  N3_10 
REMARK    4  A    between atoms: C6_13  and  O1_14 
ROOT
HETATM    1  C4  UNL     1      33.649 -32.945 -17.073  1.00  0.00     0.044 C 
HETATM    2  C5  UNL     1      34.973 -32.688 -16.416  1.00  0.00     0.138 C 
HETATM    3  C6  UNL     1      34.696 -33.975 -15.629  1.00  0.00     0.168 C 
HETATM    4  C7  UNL     1      33.804 -34.411 -16.747  1.00  0.00     0.079 C 
HETATM    5  C8  UNL     1      32.446 -34.896 -16.210  1.00  0.00     0.162 C 
HETATM    6  N4  UNL     1      32.518 -36.306 -16.025  1.00  0.00    -0.305 N 
ATOM      7  H4  UNL     1      32.202 -36.885 -15.247  1.00  0.00     0.173 HD
HETATM    8  S1  UNL     1      33.306 -36.758 -17.518  1.00  0.00     0.299 S 
HETATM    9  O2  UNL     1      32.340 -36.926 -18.626  1.00  0.00    -0.188 OA
HETATM   10  O3  UNL     1      34.132 -37.951 -17.228  1.00  0.00    -0.188 OA
HETATM   11  N5  UNL     1      34.263 -35.304 -17.710  1.00  0.00    -0.183 NA
HETATM   12  C9  UNL     1      35.628 -35.742 -17.676  1.00  0.00     0.132 C 
ENDROOT
BRANCH   1  13
HETATM   13  C2  UNL     1      33.475 -32.509 -18.467  1.00  0.00    -0.014 C 
HETATM   14  C1  UNL     1      31.952 -32.454 -18.741  1.00  0.00     0.010 C 
HETATM   15  C3  UNL     1      33.957 -31.156 -18.846  1.00  0.00     0.010 C 
ENDBRANCH   1  13
BRANCH   3  16
HETATM   16  O1  UNL     1      35.801 -34.685 -15.308  1.00  0.00    -0.391 OA
ATOM     17  H1  UNL     1      36.248 -34.385 -14.526  1.00  0.00     0.210 HD
ENDBRANCH   3  16
BRANCH   2  18
HETATM   18  N1  UNL     1      35.018 -31.503 -15.563  1.00  0.00    -0.315 N 
HETATM   19  N2  UNL     1      35.819 -30.570 -15.763  1.00  0.00    -0.253 N 
ATOM     20  H2  UNL     1      36.479 -30.608 -16.540  1.00  0.00     0.207 HD
ATOM     21  H1  UNL     1      34.371 -31.438 -14.777  1.00  0.00     0.182 HD
BRANCH  19  22
HETATM   22  N3  UNL     1      35.798 -29.474 -14.904  1.00  0.00    -0.331 N 
ATOM     23  H32 UNL     1      36.170 -29.566 -13.959  1.00  0.00     0.178 HD
ATOM     24  H31 UNL     1      35.406 -28.594 -15.241  1.00  0.00     0.178 HD
ENDBRANCH  19  22
ENDBRANCH   2  18
TORSDOF 4
ENDMDL
