MODEL 1
REMARK VINA RESULT: -6.181817459      0.000      0.000
REMARK  5 active torsions:
REMARK  status: ('A' for Active; 'I' for Inactive)
REMARK    1  A    between atoms: N2_4  and  N3_5 
REMARK    2  A    between atoms: C4_9  and  N4_10 
REMARK    3  A    between atoms: N4_10  and  C5_11 
REMARK    4  A    between atoms: C5_11  and  C6_12 
REMARK    5  A    between atoms: C12_20  and  N6_21 
ROOT
HETATM    1  C1  UNL     1     -42.159  14.435   4.502  1.00  0.00     0.158 C 
HETATM    2  N1  UNL     1     -42.831  14.186   3.225  1.00  0.00    -0.330 N 
HETATM    3  C2  UNL     1     -43.634  15.005   2.540  1.00  0.00     0.210 A 
HETATM    4  N2  UNL     1     -44.041  14.372   1.406  1.00  0.00    -0.250 N 
HETATM    5  C3  UNL     1     -43.502  13.132   1.347  1.00  0.00     0.160 A 
HETATM    6  C4  UNL     1     -43.599  12.099   0.413  1.00  0.00     0.225 A 
HETATM    7  N5  UNL     1     -42.868  10.976   0.752  1.00  0.00    -0.162 N 
ATOM      8  H5  UNL     1     -42.884  10.174   0.122  1.00  0.00     0.187 HD
HETATM    9  C12 UNL     1     -42.141  10.898   1.871  1.00  0.00     0.680 A 
HETATM   10  N7  UNL     1     -42.080  11.915   2.733  1.00  0.00    -0.174 N 
ATOM     11  H7  UNL     1     -41.517  11.828   3.579  1.00  0.00     0.186 HD
HETATM   12  C13 UNL     1     -42.750  13.043   2.497  1.00  0.00     0.157 A 
ENDROOT
BRANCH   6  13
HETATM   13  N4  UNL     1     -44.247  12.137  -0.609  1.00  0.00    -0.396 NA
BRANCH  13  14
HETATM   14  C5  UNL     1     -44.638  11.969  -1.874  1.00  0.00     0.196 C 
BRANCH  14  15
HETATM   15  C6  UNL     1     -44.753  10.538  -2.361  1.00  0.00    -0.007 A 
HETATM   16  C7  UNL     1     -43.639   9.865  -2.803  1.00  0.00     0.014 A 
HETATM   17  C8  UNL     1     -43.738   8.543  -3.255  1.00  0.00     0.001 A 
HETATM   18  C9  UNL     1     -44.946   7.881  -3.270  1.00  0.00     0.000 A 
HETATM   19  C10 UNL     1     -46.058   8.562  -2.826  1.00  0.00     0.001 A 
HETATM   20  C11 UNL     1     -45.957   9.888  -2.373  1.00  0.00     0.014 A 
ENDBRANCH  14  15
ENDBRANCH  13  14
ENDBRANCH   6  13
BRANCH   4  21
HETATM   21  N3  UNL     1     -44.881  14.957   0.484  1.00  0.00    -0.337 N 
ATOM     22  H32 UNL     1     -44.994  15.954   0.301  1.00  0.00     0.177 HD
ATOM     23  H31 UNL     1     -45.494  14.417  -0.127  1.00  0.00     0.177 HD
ENDBRANCH   4  21
BRANCH   9  24
HETATM   24  N6  UNL     1     -41.463   9.842   2.175  1.00  0.00    -0.234 N 
ATOM     25  H62 UNL     1     -42.000   9.004   2.400  1.00  0.00     0.174 HD
ATOM     26  H61 UNL     1     -40.443   9.841   2.191  1.00  0.00     0.174 HD
ENDBRANCH   9  24
TORSDOF 5
ENDMDL
MODEL 2
REMARK VINA RESULT: -6.180853093      0.030      1.055
REMARK  5 active torsions:
REMARK  status: ('A' for Active; 'I' for Inactive)
REMARK    1  A    between atoms: N2_4  and  N3_5 
REMARK    2  A    between atoms: C4_9  and  N4_10 
REMARK    3  A    between atoms: N4_10  and  C5_11 
REMARK    4  A    between atoms: C5_11  and  C6_12 
REMARK    5  A    between atoms: C12_20  and  N6_21 
ROOT
HETATM    1  C1  UNL     1     -42.124  14.428   4.486  1.00  0.00     0.158 C 
HETATM    2  N1  UNL     1     -42.805  14.176   3.215  1.00  0.00    -0.330 N 
HETATM    3  C2  UNL     1     -43.612  14.993   2.533  1.00  0.00     0.210 A 
HETATM    4  N2  UNL     1     -44.027  14.358   1.403  1.00  0.00    -0.250 N 
HETATM    5  C3  UNL     1     -43.491  13.117   1.344  1.00  0.00     0.160 A 
HETATM    6  C4  UNL     1     -43.596  12.081   0.415  1.00  0.00     0.225 A 
HETATM    7  N5  UNL     1     -42.864  10.958   0.751  1.00  0.00    -0.162 N 
ATOM      8  H5  UNL     1     -42.885  10.154   0.124  1.00  0.00     0.187 HD
HETATM    9  C12 UNL     1     -42.129  10.883   1.866  1.00  0.00     0.680 A 
HETATM   10  N7  UNL     1     -42.061  11.902   2.725  1.00  0.00    -0.174 N 
ATOM     11  H7  UNL     1     -41.492  11.817   3.567  1.00  0.00     0.186 HD
HETATM   12  C13 UNL     1     -42.730  13.030   2.490  1.00  0.00     0.157 A 
ENDROOT
BRANCH   6  13
HETATM   13  N4  UNL     1     -44.250  12.116  -0.603  1.00  0.00    -0.396 NA
BRANCH  13  14
HETATM   14  C5  UNL     1     -44.647  11.952  -1.866  1.00  0.00     0.196 C 
BRANCH  14  15
HETATM   15  C6  UNL     1     -44.762  10.522  -2.357  1.00  0.00    -0.007 A 
HETATM   16  C7  UNL     1     -45.978   9.882  -2.350  1.00  0.00     0.014 A 
HETATM   17  C8  UNL     1     -46.091   8.561  -2.801  1.00  0.00     0.001 A 
HETATM   18  C9  UNL     1     -44.995   7.867  -3.263  1.00  0.00     0.000 A 
HETATM   19  C10 UNL     1     -43.778   8.515  -3.267  1.00  0.00     0.001 A 
HETATM   20  C11 UNL     1     -43.667   9.839  -2.814  1.00  0.00     0.014 A 
ENDBRANCH  14  15
ENDBRANCH  13  14
ENDBRANCH   6  13
BRANCH   4  21
HETATM   21  N3  UNL     1     -44.874  14.941   0.485  1.00  0.00    -0.337 N 
ATOM     22  H32 UNL     1     -45.881  14.804   0.405  1.00  0.00     0.177 HD
ATOM     23  H31 UNL     1     -44.550  15.592  -0.230  1.00  0.00     0.177 HD
ENDBRANCH   4  21
BRANCH   9  24
HETATM   24  N6  UNL     1     -41.450   9.827   2.168  1.00  0.00    -0.234 N 
ATOM     25  H62 UNL     1     -40.799   9.485   1.461  1.00  0.00     0.174 HD
ATOM     26  H61 UNL     1     -41.556   9.355   3.066  1.00  0.00     0.174 HD
ENDBRANCH   9  24
TORSDOF 5
ENDMDL
MODEL 3
REMARK VINA RESULT: -6.142999897      1.966      6.534
REMARK  5 active torsions:
REMARK  status: ('A' for Active; 'I' for Inactive)
REMARK    1  A    between atoms: N2_4  and  N3_5 
REMARK    2  A    between atoms: C4_9  and  N4_10 
REMARK    3  A    between atoms: N4_10  and  C5_11 
REMARK    4  A    between atoms: C5_11  and  C6_12 
REMARK    5  A    between atoms: C12_20  and  N6_21 
ROOT
HETATM    1  C1  UNL     1     -42.388  10.713  -2.925  1.00  0.00     0.158 C 
HETATM    2  N1  UNL     1     -42.963  11.666  -1.973  1.00  0.00    -0.330 N 
HETATM    3  C2  UNL     1     -43.711  12.742  -2.231  1.00  0.00     0.210 A 
HETATM    4  N2  UNL     1     -44.032  13.345  -1.054  1.00  0.00    -0.250 N 
HETATM    5  C3  UNL     1     -43.492  12.660  -0.019  1.00  0.00     0.160 A 
HETATM    6  C4  UNL     1     -43.520  12.852   1.364  1.00  0.00     0.225 A 
HETATM    7  N5  UNL     1     -42.820  11.893   2.071  1.00  0.00    -0.162 N 
ATOM      8  H5  UNL     1     -42.790  11.960   3.088  1.00  0.00     0.187 HD
HETATM    9  C12 UNL     1     -42.179  10.882   1.475  1.00  0.00     0.680 A 
HETATM   10  N7  UNL     1     -42.182  10.741   0.148  1.00  0.00    -0.174 N 
ATOM     11  H7  UNL     1     -41.685   9.960  -0.279  1.00  0.00     0.186 HD
HETATM   12  C13 UNL     1     -42.829  11.615  -0.623  1.00  0.00     0.157 A 
ENDROOT
BRANCH   6  13
HETATM   13  N4  UNL     1     -44.090  13.755   1.934  1.00  0.00    -0.396 NA
BRANCH  13  14
HETATM   14  C5  UNL     1     -44.428  14.968   2.375  1.00  0.00     0.196 C 
BRANCH  14  15
HETATM   15  C6  UNL     1     -43.581  15.540   3.495  1.00  0.00    -0.007 A 
HETATM   16  C7  UNL     1     -42.254  15.200   3.602  1.00  0.00     0.014 A 
HETATM   17  C8  UNL     1     -41.465  15.724   4.633  1.00  0.00     0.001 A 
HETATM   18  C9  UNL     1     -41.991  16.591   5.566  1.00  0.00     0.000 A 
HETATM   19  C10 UNL     1     -43.323  16.927   5.453  1.00  0.00     0.001 A 
HETATM   20  C11 UNL     1     -44.112  16.400   4.417  1.00  0.00     0.014 A 
ENDBRANCH  14  15
ENDBRANCH  13  14
ENDBRANCH   6  13
BRANCH   4  21
HETATM   21  N3  UNL     1     -44.800  14.487  -0.983  1.00  0.00    -0.337 N 
ATOM     22  H32 UNL     1     -45.811  14.556  -1.102  1.00  0.00     0.177 HD
ATOM     23  H31 UNL     1     -44.405  15.408  -0.796  1.00  0.00     0.177 HD
ENDBRANCH   4  21
BRANCH   9  24
HETATM   24  N6  UNL     1     -41.528   9.993   2.148  1.00  0.00    -0.234 N 
ATOM     25  H62 UNL     1     -42.019   9.565   2.934  1.00  0.00     0.174 HD
ATOM     26  H61 UNL     1     -40.571   9.730   1.912  1.00  0.00     0.174 HD
ENDBRANCH   9  24
TORSDOF 5
ENDMDL
MODEL 4
REMARK VINA RESULT: -6.012498454      1.987      6.282
REMARK  5 active torsions:
REMARK  status: ('A' for Active; 'I' for Inactive)
REMARK    1  A    between atoms: N2_4  and  N3_5 
REMARK    2  A    between atoms: C4_9  and  N4_10 
REMARK    3  A    between atoms: N4_10  and  C5_11 
REMARK    4  A    between atoms: C5_11  and  C6_12 
REMARK    5  A    between atoms: C12_20  and  N6_21 
ROOT
HETATM    1  C1  UNL     1     -45.157  13.370  -5.251  1.00  0.00     0.158 C 
HETATM    2  N1  UNL     1     -44.916  13.375  -3.807  1.00  0.00    -0.330 N 
HETATM    3  C2  UNL     1     -44.961  14.411  -2.965  1.00  0.00     0.210 A 
HETATM    4  N2  UNL     1     -44.671  13.970  -1.711  1.00  0.00    -0.250 N 
HETATM    5  C3  UNL     1     -44.436  12.637  -1.730  1.00  0.00     0.160 A 
HETATM    6  C4  UNL     1     -44.104  11.718  -0.733  1.00  0.00     0.225 A 
HETATM    7  N5  UNL     1     -43.951  10.426  -1.200  1.00  0.00    -0.162 N 
ATOM      8  H5  UNL     1     -43.709   9.691  -0.535  1.00  0.00     0.187 HD
HETATM    9  C12 UNL     1     -44.109  10.100  -2.487  1.00  0.00     0.680 A 
HETATM   10  N7  UNL     1     -44.427  11.016  -3.403  1.00  0.00    -0.174 N 
ATOM     11  H7  UNL     1     -44.541  10.739  -4.378  1.00  0.00     0.186 HD
HETATM   12  C13 UNL     1     -44.596  12.292  -3.054  1.00  0.00     0.157 A 
ENDROOT
BRANCH   6  13
HETATM   13  N4  UNL     1     -43.955  11.979   0.439  1.00  0.00    -0.396 NA
BRANCH  13  14
HETATM   14  C5  UNL     1     -43.767  11.859   1.755  1.00  0.00     0.196 C 
BRANCH  14  15
HETATM   15  C6  UNL     1     -43.341  13.113   2.493  1.00  0.00    -0.007 A 
HETATM   16  C7  UNL     1     -42.242  13.092   3.318  1.00  0.00     0.014 A 
HETATM   17  C8  UNL     1     -41.843  14.246   4.003  1.00  0.00     0.001 A 
HETATM   18  C9  UNL     1     -42.534  15.431   3.872  1.00  0.00     0.000 A 
HETATM   19  C10 UNL     1     -43.635  15.444   3.043  1.00  0.00     0.001 A 
HETATM   20  C11 UNL     1     -44.033  14.285   2.357  1.00  0.00     0.014 A 
ENDBRANCH  14  15
ENDBRANCH  13  14
ENDBRANCH   6  13
BRANCH   4  21
HETATM   21  N3  UNL     1     -44.637  14.803  -0.614  1.00  0.00    -0.337 N 
ATOM     22  H32 UNL     1     -45.402  15.003   0.031  1.00  0.00     0.177 HD
ATOM     23  H31 UNL     1     -43.802  15.318  -0.337  1.00  0.00     0.177 HD
ENDBRANCH   4  21
BRANCH   9  24
HETATM   24  N6  UNL     1     -43.963   8.888  -2.909  1.00  0.00    -0.234 N 
ATOM     25  H62 UNL     1     -43.281   8.312  -2.416  1.00  0.00     0.174 HD
ATOM     26  H61 UNL     1     -44.499   8.522  -3.696  1.00  0.00     0.174 HD
ENDBRANCH   9  24
TORSDOF 5
ENDMDL
MODEL 5
REMARK VINA RESULT: -5.984645100      2.572      6.390
REMARK  5 active torsions:
REMARK  status: ('A' for Active; 'I' for Inactive)
REMARK    1  A    between atoms: N2_4  and  N3_5 
REMARK    2  A    between atoms: C4_9  and  N4_10 
REMARK    3  A    between atoms: N4_10  and  C5_11 
REMARK    4  A    between atoms: C5_11  and  C6_12 
REMARK    5  A    between atoms: C12_20  and  N6_21 
ROOT
HETATM    1  C1  UNL     1     -40.219  10.257  -4.649  1.00  0.00     0.158 C 
HETATM    2  N1  UNL     1     -41.124  10.426  -3.511  1.00  0.00    -0.330 N 
HETATM    3  C2  UNL     1     -42.443  10.221  -3.468  1.00  0.00     0.210 A 
HETATM    4  N2  UNL     1     -42.889  10.500  -2.212  1.00  0.00    -0.250 N 
HETATM    5  C3  UNL     1     -41.857  10.890  -1.429  1.00  0.00     0.160 A 
HETATM    6  C4  UNL     1     -41.776  11.279  -0.091  1.00  0.00     0.225 A 
HETATM    7  N5  UNL     1     -40.495  11.604   0.315  1.00  0.00    -0.162 N 
ATOM      8  H5  UNL     1     -40.347  11.898   1.280  1.00  0.00     0.187 HD
HETATM    9  C12 UNL     1     -39.441  11.547  -0.506  1.00  0.00     0.680 A 
HETATM   10  N7  UNL     1     -39.571  11.168  -1.779  1.00  0.00    -0.174 N 
ATOM     11  H7  UNL     1     -38.750  11.133  -2.383  1.00  0.00     0.186 HD
HETATM   12  C13 UNL     1     -40.765  10.834  -2.267  1.00  0.00     0.157 A 
ENDROOT
BRANCH   6  13
HETATM   13  N4  UNL     1     -42.708  11.341   0.679  1.00  0.00    -0.396 NA
BRANCH  13  14
HETATM   14  C5  UNL     1     -43.688  11.808   1.454  1.00  0.00     0.196 C 
BRANCH  14  15
HETATM   15  C6  UNL     1     -43.378  13.059   2.253  1.00  0.00    -0.007 A 
HETATM   16  C7  UNL     1     -42.351  13.061   3.166  1.00  0.00     0.014 A 
HETATM   17  C8  UNL     1     -42.060  14.212   3.908  1.00  0.00     0.001 A 
HETATM   18  C9  UNL     1     -42.788  15.371   3.748  1.00  0.00     0.000 A 
HETATM   19  C10 UNL     1     -43.818  15.361   2.831  1.00  0.00     0.001 A 
HETATM   20  C11 UNL     1     -44.108  14.205   2.088  1.00  0.00     0.014 A 
ENDBRANCH  14  15
ENDBRANCH  13  14
ENDBRANCH   6  13
BRANCH   4  21
HETATM   21  N3  UNL     1     -44.212  10.385  -1.845  1.00  0.00    -0.337 N 
ATOM     22  H32 UNL     1     -44.911   9.764  -2.253  1.00  0.00     0.177 HD
ATOM     23  H31 UNL     1     -44.629  10.938  -1.096  1.00  0.00     0.177 HD
ENDBRANCH   4  21
BRANCH   9  24
HETATM   24  N6  UNL     1     -38.250  11.853  -0.113  1.00  0.00    -0.234 N 
ATOM     25  H62 UNL     1     -37.838  11.255   0.603  1.00  0.00     0.174 HD
ATOM     26  H61 UNL     1     -37.743  12.651  -0.496  1.00  0.00     0.174 HD
ENDBRANCH   9  24
TORSDOF 5
ENDMDL
