MODEL 1
REMARK VINA RESULT: -5.261646425      0.000      0.000
REMARK  6 active torsions:
REMARK  status: ('A' for Active; 'I' for Inactive)
REMARK    1  A    between atoms: N1_2  and  C3_4 
REMARK    2  A    between atoms: C3_4  and  C4_5 
REMARK    3  A    between atoms: C4_5  and  O1_6 
REMARK    4  A    between atoms: C5_8  and  O2_9 
REMARK    5  A    between atoms: C6_11  and  O3_12 
REMARK    6  A    between atoms: C9_16  and  O4_17 
ROOT
HETATM    1  C4  UNL     1      58.872  28.001  14.757  1.00  0.00     0.116 C 
HETATM    2  C5  UNL     1      59.258  29.323  15.437  1.00  0.00     0.184 C 
HETATM    3  C6  UNL     1      60.306  30.143  14.662  1.00  0.00     0.161 C 
HETATM    4  C7  UNL     1      59.950  30.412  13.212  1.00  0.00     0.015 C 
HETATM    5  C8  UNL     1      59.705  31.840  12.962  1.00  0.00     0.021 C 
HETATM    6  C9  UNL     1      60.830  29.726  12.189  1.00  0.00     0.133 C 
HETATM    7  C10 UNL     1      59.993  28.753  11.387  1.00  0.00     0.016 C 
HETATM    8  C11 UNL     1      59.511  27.524  12.206  1.00  0.00     0.015 C 
HETATM    9  C12 UNL     1      59.428  28.171  13.443  1.00  0.00     0.030 C 
HETATM   10  C13 UNL     1      58.763  29.501  13.034  1.00  0.00     0.006 C 
HETATM   11  C14 UNL     1      58.627  29.460  11.520  1.00  0.00     0.013 C 
ENDROOT
BRANCH   1  12
HETATM   12  C3  UNL     1      59.377  26.827  15.542  1.00  0.00     0.312 C 
BRANCH  12  13
HETATM   13  N1  UNL     1      58.825  25.554  15.068  1.00  0.00     0.083 N 
HETATM   14  C1  UNL     1      58.211  24.938  16.275  1.00  0.00     0.309 C 
HETATM   15  C2  UNL     1      59.954  24.628  14.817  1.00  0.00     0.309 C 
ENDBRANCH  12  13
ENDBRANCH   1  12
BRANCH   1  16
HETATM   16  O1  UNL     1      57.493  27.942  14.626  1.00  0.00    -0.385 OA
ATOM     17  H1  UNL     1      57.253  27.518  13.810  1.00  0.00     0.210 HD
ENDBRANCH   1  16
BRANCH   2  18
HETATM   18  O2  UNL     1      59.874  29.063  16.663  1.00  0.00    -0.390 OA
ATOM     19  H2  UNL     1      60.381  29.819  16.936  1.00  0.00     0.210 HD
ENDBRANCH   2  18
BRANCH   3  20
HETATM   20  O3  UNL     1      60.330  31.376  15.320  1.00  0.00    -0.392 OA
ATOM     21  H3  UNL     1      59.518  31.795  15.059  1.00  0.00     0.210 HD
ENDBRANCH   3  20
BRANCH   6  22
HETATM   22  O4  UNL     1      61.203  30.708  11.240  1.00  0.00    -0.394 OA
ATOM     23  H4  UNL     1      61.850  30.310  10.670  1.00  0.00     0.210 HD
ENDBRANCH   6  22
TORSDOF 6
ENDMDL
MODEL 2
REMARK VINA RESULT: -4.827853963      7.303      9.083
REMARK  6 active torsions:
REMARK  status: ('A' for Active; 'I' for Inactive)
REMARK    1  A    between atoms: N1_2  and  C3_4 
REMARK    2  A    between atoms: C3_4  and  C4_5 
REMARK    3  A    between atoms: C4_5  and  O1_6 
REMARK    4  A    between atoms: C5_8  and  O2_9 
REMARK    5  A    between atoms: C6_11  and  O3_12 
REMARK    6  A    between atoms: C9_16  and  O4_17 
ROOT
HETATM    1  C4  UNL     1      62.935  26.263   6.591  1.00  0.00     0.116 C 
HETATM    2  C5  UNL     1      62.402  25.238   5.580  1.00  0.00     0.184 C 
HETATM    3  C6  UNL     1      60.891  24.965   5.702  1.00  0.00     0.161 C 
HETATM    4  C7  UNL     1      60.021  26.207   5.661  1.00  0.00     0.015 C 
HETATM    5  C8  UNL     1      59.181  26.250   4.454  1.00  0.00     0.021 C 
HETATM    6  C9  UNL     1      59.302  26.540   6.951  1.00  0.00     0.133 C 
HETATM    7  C10 UNL     1      59.800  27.872   7.467  1.00  0.00     0.016 C 
HETATM    8  C11 UNL     1      61.270  27.834   7.971  1.00  0.00     0.015 C 
HETATM    9  C12 UNL     1      61.719  26.840   7.097  1.00  0.00     0.030 C 
HETATM   10  C13 UNL     1      61.061  27.291   5.776  1.00  0.00     0.006 C 
HETATM   11  C14 UNL     1      60.209  28.503   6.119  1.00  0.00     0.013 C 
ENDROOT
BRANCH   1  12
HETATM   12  C3  UNL     1      63.825  25.604   7.604  1.00  0.00     0.312 C 
BRANCH  12  13
HETATM   13  N1  UNL     1      65.080  26.335   7.808  1.00  0.00     0.083 N 
HETATM   14  C1  UNL     1      66.099  25.275   8.033  1.00  0.00     0.309 C 
HETATM   15  C2  UNL     1      65.029  26.972   9.145  1.00  0.00     0.309 C 
ENDBRANCH  12  13
ENDBRANCH   1  12
BRANCH   1  16
HETATM   16  O1  UNL     1      63.621  27.257   5.913  1.00  0.00    -0.385 OA
ATOM     17  H1  UNL     1      63.605  27.096   4.977  1.00  0.00     0.210 HD
ENDBRANCH   1  16
BRANCH   2  18
HETATM   18  O2  UNL     1      62.988  23.992   5.815  1.00  0.00    -0.390 OA
ATOM     19  H2  UNL     1      63.342  23.644   5.005  1.00  0.00     0.210 HD
ENDBRANCH   2  18
BRANCH   3  20
HETATM   20  O3  UNL     1      60.588  24.206   4.568  1.00  0.00    -0.392 OA
ATOM     21  H3  UNL     1      59.726  23.850   4.750  1.00  0.00     0.210 HD
ENDBRANCH   3  20
BRANCH   6  22
HETATM   22  O4  UNL     1      57.950  26.795   6.616  1.00  0.00    -0.394 OA
ATOM     23  H4  UNL     1      57.638  26.039   6.133  1.00  0.00     0.210 HD
ENDBRANCH   6  22
TORSDOF 6
ENDMDL
MODEL 3
REMARK VINA RESULT: -4.701113540      3.004      5.227
REMARK  6 active torsions:
REMARK  status: ('A' for Active; 'I' for Inactive)
REMARK    1  A    between atoms: N1_2  and  C3_4 
REMARK    2  A    between atoms: C3_4  and  C4_5 
REMARK    3  A    between atoms: C4_5  and  O1_6 
REMARK    4  A    between atoms: C5_8  and  O2_9 
REMARK    5  A    between atoms: C6_11  and  O3_12 
REMARK    6  A    between atoms: C9_16  and  O4_17 
ROOT
HETATM    1  C4  UNL     1      61.094  31.491  12.649  1.00  0.00     0.116 C 
HETATM    2  C5  UNL     1      61.726  30.987  11.343  1.00  0.00     0.184 C 
HETATM    3  C6  UNL     1      61.680  29.458  11.174  1.00  0.00     0.161 C 
HETATM    4  C7  UNL     1      60.300  28.847  11.329  1.00  0.00     0.015 C 
HETATM    5  C8  UNL     1      59.807  28.277  10.066  1.00  0.00     0.021 C 
HETATM    6  C9  UNL     1      60.112  27.965  12.544  1.00  0.00     0.133 C 
HETATM    7  C10 UNL     1      59.071  28.585  13.451  1.00  0.00     0.016 C 
HETATM    8  C11 UNL     1      59.542  29.899  14.132  1.00  0.00     0.015 C 
HETATM    9  C12 UNL     1      60.391  30.323  13.106  1.00  0.00     0.030 C 
HETATM   10  C13 UNL     1      59.525  30.022  11.866  1.00  0.00     0.006 C 
HETATM   11  C14 UNL     1      58.262  29.351  12.382  1.00  0.00     0.013 C 
ENDROOT
BRANCH   1  12
HETATM   12  C3  UNL     1      62.140  32.037  13.575  1.00  0.00     0.312 C 
BRANCH  12  13
HETATM   13  N1  UNL     1      61.575  32.920  14.601  1.00  0.00     0.083 N 
HETATM   14  C1  UNL     1      62.462  34.115  14.597  1.00  0.00     0.309 C 
HETATM   15  C2  UNL     1      61.884  32.339  15.929  1.00  0.00     0.309 C 
ENDBRANCH  12  13
ENDBRANCH   1  12
BRANCH   1  16
HETATM   16  O1  UNL     1      60.150  32.461  12.354  1.00  0.00    -0.385 OA
ATOM     17  H1  UNL     1      59.843  32.368  11.459  1.00  0.00     0.210 HD
ENDBRANCH   1  16
BRANCH   2  18
HETATM   18  O2  UNL     1      63.091  31.286  11.331  1.00  0.00    -0.390 OA
ATOM     19  H2  UNL     1      63.590  30.506  11.120  1.00  0.00     0.210 HD
ENDBRANCH   2  18
BRANCH   3  20
HETATM   20  O3  UNL     1      62.083  29.247   9.852  1.00  0.00    -0.392 OA
ATOM     21  H3  UNL     1      62.691  28.520   9.907  1.00  0.00     0.210 HD
ENDBRANCH   3  20
BRANCH   6  22
HETATM   22  O4  UNL     1      59.499  26.771  12.097  1.00  0.00    -0.394 OA
ATOM     23  H4  UNL     1      58.750  26.616  12.660  1.00  0.00     0.210 HD
ENDBRANCH   6  22
TORSDOF 6
ENDMDL
MODEL 4
REMARK VINA RESULT: -4.428121861      7.283      9.286
REMARK  6 active torsions:
REMARK  status: ('A' for Active; 'I' for Inactive)
REMARK    1  A    between atoms: N1_2  and  C3_4 
REMARK    2  A    between atoms: C3_4  and  C4_5 
REMARK    3  A    between atoms: C4_5  and  O1_6 
REMARK    4  A    between atoms: C5_8  and  O2_9 
REMARK    5  A    between atoms: C6_11  and  O3_12 
REMARK    6  A    between atoms: C9_16  and  O4_17 
ROOT
HETATM    1  C4  UNL     1      62.860  27.399   6.841  1.00  0.00     0.116 C 
HETATM    2  C5  UNL     1      63.255  25.920   6.719  1.00  0.00     0.184 C 
HETATM    3  C6  UNL     1      62.093  24.991   6.320  1.00  0.00     0.161 C 
HETATM    4  C7  UNL     1      61.349  25.415   5.068  1.00  0.00     0.015 C 
HETATM    5  C8  UNL     1      61.537  24.458   3.967  1.00  0.00     0.021 C 
HETATM    6  C9  UNL     1      59.921  25.868   5.283  1.00  0.00     0.133 C 
HETATM    7  C10 UNL     1      59.799  27.325   4.890  1.00  0.00     0.016 C 
HETATM    8  C11 UNL     1      60.544  28.293   5.849  1.00  0.00     0.015 C 
HETATM    9  C12 UNL     1      61.566  27.411   6.213  1.00  0.00     0.030 C 
HETATM   10  C13 UNL     1      61.919  26.791   4.845  1.00  0.00     0.006 C 
HETATM   11  C14 UNL     1      60.935  27.378   3.847  1.00  0.00     0.013 C 
ENDROOT
BRANCH   1  12
HETATM   12  C3  UNL     1      62.905  27.850   8.271  1.00  0.00     0.312 C 
BRANCH  12  13
HETATM   13  N1  UNL     1      63.936  28.865   8.507  1.00  0.00     0.083 N 
HETATM   14  C1  UNL     1      64.702  28.357   9.677  1.00  0.00     0.309 C 
HETATM   15  C2  UNL     1      63.281  30.059   9.091  1.00  0.00     0.309 C 
ENDBRANCH  12  13
ENDBRANCH   1  12
BRANCH   1  16
HETATM   16  O1  UNL     1      63.712  28.165   6.061  1.00  0.00    -0.385 OA
ATOM     17  H1  UNL     1      63.753  29.056   6.388  1.00  0.00     0.210 HD
ENDBRANCH   1  16
BRANCH   2  18
HETATM   18  O2  UNL     1      63.662  25.434   7.964  1.00  0.00    -0.390 OA
ATOM     19  H2  UNL     1      62.987  25.601   8.611  1.00  0.00     0.210 HD
ENDBRANCH   2  18
BRANCH   3  20
HETATM   20  O3  UNL     1      62.712  23.769   6.044  1.00  0.00    -0.392 OA
ATOM     21  H3  UNL     1      62.721  23.318   6.880  1.00  0.00     0.210 HD
ENDBRANCH   3  20
BRANCH   6  22
HETATM   22  O4  UNL     1      59.126  25.195   4.325  1.00  0.00    -0.394 OA
ATOM     23  H4  UNL     1      58.224  25.260   4.619  1.00  0.00     0.210 HD
ENDBRANCH   6  22
TORSDOF 6
ENDMDL
MODEL 5
REMARK VINA RESULT: -4.274616881      2.692      4.706
REMARK  6 active torsions:
REMARK  status: ('A' for Active; 'I' for Inactive)
REMARK    1  A    between atoms: N1_2  and  C3_4 
REMARK    2  A    between atoms: C3_4  and  C4_5 
REMARK    3  A    between atoms: C4_5  and  O1_6 
REMARK    4  A    between atoms: C5_8  and  O2_9 
REMARK    5  A    between atoms: C6_11  and  O3_12 
REMARK    6  A    between atoms: C9_16  and  O4_17 
ROOT
HETATM    1  C4  UNL     1      60.493  31.151  15.331  1.00  0.00     0.116 C 
HETATM    2  C5  UNL     1      60.042  29.693  15.501  1.00  0.00     0.184 C 
HETATM    3  C6  UNL     1      59.123  29.187  14.374  1.00  0.00     0.161 C 
HETATM    4  C7  UNL     1      59.676  29.380  12.974  1.00  0.00     0.015 C 
HETATM    5  C8  UNL     1      59.977  28.097  12.321  1.00  0.00     0.021 C 
HETATM    6  C9  UNL     1      58.931  30.376  12.112  1.00  0.00     0.133 C 
HETATM    7  C10 UNL     1      59.851  31.530  11.778  1.00  0.00     0.016 C 
HETATM    8  C11 UNL     1      60.196  32.425  13.000  1.00  0.00     0.015 C 
HETATM    9  C12 UNL     1      60.122  31.419  13.968  1.00  0.00     0.030 C 
HETATM   10  C13 UNL     1      60.860  30.268  13.253  1.00  0.00     0.006 C 
HETATM   11  C14 UNL     1      61.198  30.781  11.862  1.00  0.00     0.013 C 
ENDROOT
BRANCH   1  12
HETATM   12  C3  UNL     1      59.865  32.031  16.372  1.00  0.00     0.312 C 
BRANCH  12  13
HETATM   13  N1  UNL     1      60.512  33.344  16.462  1.00  0.00     0.083 N 
HETATM   14  C1  UNL     1      60.803  33.521  17.910  1.00  0.00     0.309 C 
HETATM   15  C2  UNL     1      59.477  34.382  16.249  1.00  0.00     0.309 C 
ENDBRANCH  12  13
ENDBRANCH   1  12
BRANCH   1  16
HETATM   16  O1  UNL     1      61.875  31.213  15.411  1.00  0.00    -0.385 OA
ATOM     17  H1  UNL     1      62.263  30.390  15.136  1.00  0.00     0.210 HD
ENDBRANCH   1  16
BRANCH   2  18
HETATM   18  O2  UNL     1      59.261  29.569  16.652  1.00  0.00    -0.390 OA
ATOM     19  H2  UNL     1      59.822  29.472  17.413  1.00  0.00     0.210 HD
ENDBRANCH   2  18
BRANCH   3  20
HETATM   20  O3  UNL     1      59.031  27.811  14.599  1.00  0.00    -0.392 OA
ATOM     21  H3  UNL     1      59.931  27.537  14.736  1.00  0.00     0.210 HD
ENDBRANCH   3  20
BRANCH   6  22
HETATM   22  O4  UNL     1      58.706  29.753  10.861  1.00  0.00    -0.394 OA
ATOM     23  H4  UNL     1      58.656  28.818  11.022  1.00  0.00     0.210 HD
ENDBRANCH   6  22
TORSDOF 6
ENDMDL
