MODEL 1
REMARK VINA RESULT: -8.366483255      0.000      0.000
REMARK  4 active torsions:
REMARK  status: ('A' for Active; 'I' for Inactive)
REMARK       I    between atoms: C2_2  and  N1_4 
REMARK       I    between atoms: N1_4  and  C3_6 
REMARK    1  A    between atoms: C3_6  and  C4_8 
REMARK    2  A    between atoms: C10_17  and  C11_18 
REMARK    3  A    between atoms: C11_18  and  O6_20 
REMARK    4  A    between atoms: O6_20  and  C12_21 
ROOT
HETATM    1  C4  UNL     1      42.409  32.556  14.392  1.00  0.00     0.025 C 
HETATM    2  C5  UNL     1      43.682  32.519  13.576  1.00  0.00     0.060 C 
HETATM    3  C6  UNL     1      44.910  32.723  14.431  1.00  0.00     0.146 C 
HETATM    4  S1  UNL     1      44.785  34.263  15.260  1.00  0.00     0.157 S 
HETATM    5  O3  UNL     1      44.901  35.362  14.245  1.00  0.00    -0.227 OA
HETATM    6  O4  UNL     1      45.854  34.444  16.297  1.00  0.00    -0.227 OA
HETATM    7  C7  UNL     1      43.190  34.374  16.009  1.00  0.00     0.090 C 
HETATM    8  C8  UNL     1      42.900  35.894  16.108  1.00  0.00     0.037 C 
HETATM    9  C9  UNL     1      43.269  33.837  17.399  1.00  0.00     0.037 C 
HETATM   10  C10 UNL     1      42.162  33.811  15.117  1.00  0.00     0.051 C 
ENDROOT
BRANCH  10  11
HETATM   11  C11 UNL     1      40.792  33.825  15.701  1.00  0.00     0.292 C 
HETATM   12  O5  UNL     1      40.517  32.975  16.575  1.00  0.00    -0.260 OA
BRANCH  11  13
HETATM   13  O6  UNL     1      39.799  34.718  15.338  1.00  0.00    -0.312 OA
BRANCH  13  14
HETATM   14  C12 UNL     1      39.367  34.886  14.010  1.00  0.00     0.137 C 
HETATM   15  C13 UNL     1      39.834  36.173  13.410  1.00  0.00     0.070 C 
HETATM   16  C14 UNL     1      38.415  36.527  12.979  1.00  0.00     0.175 C 
HETATM   17  F1  UNL     1      37.985  37.766  13.380  1.00  0.00    -0.249 F 
HETATM   18  C15 UNL     1      37.944  35.370  13.854  1.00  0.00     0.070 C 
ENDBRANCH  13  14
ENDBRANCH  11  13
ENDBRANCH  10  11
BRANCH   1  19
HETATM   19  C3  UNL     1      42.216  31.288  15.087  1.00  0.00     0.255 C 
HETATM   20  N1  UNL     1      41.174  30.428  14.664  1.00  0.00    -0.294 N 
HETATM   21  C2  UNL     1      40.865  29.188  15.224  1.00  0.00     0.220 C 
ATOM     22  H1  UNL     1      40.599  30.742  13.882  1.00  0.00     0.172 HD
HETATM   23  C1  UNL     1      41.648  28.666  16.359  1.00  0.00     0.117 C 
HETATM   24  O1  UNL     1      39.919  28.509  14.769  1.00  0.00    -0.274 OA
HETATM   25  O2  UNL     1      42.926  30.931  16.035  1.00  0.00    -0.268 OA
ENDBRANCH   1  19
TORSDOF 4
ENDMDL
MODEL 2
REMARK VINA RESULT: -7.649692423      3.180      5.735
REMARK  4 active torsions:
REMARK  status: ('A' for Active; 'I' for Inactive)
REMARK       I    between atoms: C2_2  and  N1_4 
REMARK       I    between atoms: N1_4  and  C3_6 
REMARK    1  A    between atoms: C3_6  and  C4_8 
REMARK    2  A    between atoms: C10_17  and  C11_18 
REMARK    3  A    between atoms: C11_18  and  O6_20 
REMARK    4  A    between atoms: O6_20  and  C12_21 
ROOT
HETATM    1  C4  UNL     1      44.493  34.782  17.262  1.00  0.00     0.025 C 
HETATM    2  C5  UNL     1      44.330  33.723  18.330  1.00  0.00     0.060 C 
HETATM    3  C6  UNL     1      45.395  32.656  18.238  1.00  0.00     0.146 C 
HETATM    4  S1  UNL     1      45.328  31.911  16.653  1.00  0.00     0.157 S 
HETATM    5  O3  UNL     1      44.057  31.120  16.551  1.00  0.00    -0.227 OA
HETATM    6  O4  UNL     1      46.490  30.996  16.399  1.00  0.00    -0.227 OA
HETATM    7  C7  UNL     1      45.282  33.184  15.431  1.00  0.00     0.090 C 
HETATM    8  C8  UNL     1      44.570  32.543  14.211  1.00  0.00     0.037 C 
HETATM    9  C9  UNL     1      46.678  33.511  15.019  1.00  0.00     0.037 C 
HETATM   10  C10 UNL     1      44.424  34.295  15.877  1.00  0.00     0.051 C 
ENDROOT
BRANCH  10  11
HETATM   11  C11 UNL     1      44.373  35.432  14.917  1.00  0.00     0.292 C 
HETATM   12  O5  UNL     1      45.303  36.266  14.944  1.00  0.00    -0.260 OA
BRANCH  11  13
HETATM   13  O6  UNL     1      43.360  35.630  13.995  1.00  0.00    -0.312 OA
BRANCH  13  14
HETATM   14  C12 UNL     1      42.082  35.056  14.126  1.00  0.00     0.137 C 
HETATM   15  C13 UNL     1      41.358  34.959  12.822  1.00  0.00     0.070 C 
HETATM   16  C14 UNL     1      40.133  35.650  13.411  1.00  0.00     0.175 C 
HETATM   17  F1  UNL     1      39.683  36.731  12.697  1.00  0.00    -0.249 F 
HETATM   18  C15 UNL     1      41.004  35.996  14.615  1.00  0.00     0.070 C 
ENDBRANCH  13  14
ENDBRANCH  11  13
ENDBRANCH  10  11
BRANCH   1  19
HETATM   19  C3  UNL     1      45.553  35.714  17.632  1.00  0.00     0.255 C 
HETATM   20  N1  UNL     1      45.265  37.101  17.656  1.00  0.00    -0.294 N 
HETATM   21  C2  UNL     1      46.167  38.113  17.988  1.00  0.00     0.220 C 
ATOM     22  H1  UNL     1      44.317  37.384  17.410  1.00  0.00     0.172 HD
HETATM   23  C1  UNL     1      47.556  37.783  18.354  1.00  0.00     0.117 C 
HETATM   24  O1  UNL     1      45.803  39.309  17.976  1.00  0.00    -0.274 OA
HETATM   25  O2  UNL     1      46.696  35.345  17.926  1.00  0.00    -0.268 OA
ENDBRANCH   1  19
TORSDOF 4
ENDMDL
MODEL 3
REMARK VINA RESULT: -7.589455488      2.313      4.508
REMARK  4 active torsions:
REMARK  status: ('A' for Active; 'I' for Inactive)
REMARK       I    between atoms: C2_2  and  N1_4 
REMARK       I    between atoms: N1_4  and  C3_6 
REMARK    1  A    between atoms: C3_6  and  C4_8 
REMARK    2  A    between atoms: C10_17  and  C11_18 
REMARK    3  A    between atoms: C11_18  and  O6_20 
REMARK    4  A    between atoms: O6_20  and  C12_21 
ROOT
HETATM    1  C4  UNL     1      41.658  31.902  15.036  1.00  0.00     0.025 C 
HETATM    2  C5  UNL     1      41.120  30.543  15.428  1.00  0.00     0.060 C 
HETATM    3  C6  UNL     1      42.021  29.423  14.966  1.00  0.00     0.146 C 
HETATM    4  S1  UNL     1      42.199  29.507  13.225  1.00  0.00     0.157 S 
HETATM    5  O3  UNL     1      40.885  29.157  12.593  1.00  0.00    -0.227 OA
HETATM    6  O4  UNL     1      43.251  28.569  12.710  1.00  0.00    -0.227 OA
HETATM    7  C7  UNL     1      42.599  31.168  12.778  1.00  0.00     0.090 C 
HETATM    8  C8  UNL     1      42.089  31.323  11.321  1.00  0.00     0.037 C 
HETATM    9  C9  UNL     1      44.083  31.320  12.756  1.00  0.00     0.037 C 
HETATM   10  C10 UNL     1      41.826  32.121  13.592  1.00  0.00     0.051 C 
ENDROOT
BRANCH  10  11
HETATM   11  C11 UNL     1      42.145  33.547  13.305  1.00  0.00     0.292 C 
HETATM   12  O5  UNL     1      43.309  33.945  13.528  1.00  0.00    -0.260 OA
BRANCH  11  13
HETATM   13  O6  UNL     1      41.235  34.465  12.809  1.00  0.00    -0.312 OA
BRANCH  13  14
HETATM   14  C12 UNL     1      40.550  35.382  13.626  1.00  0.00     0.137 C 
HETATM   15  C13 UNL     1      39.348  34.782  14.283  1.00  0.00     0.070 C 
HETATM   16  C14 UNL     1      38.465  35.921  13.787  1.00  0.00     0.175 C 
HETATM   17  F1  UNL     1      37.337  35.523  13.116  1.00  0.00    -0.249 F 
HETATM   18  C15 UNL     1      39.631  36.332  12.893  1.00  0.00     0.070 C 
ENDBRANCH  13  14
ENDBRANCH  11  13
ENDBRANCH  10  11
BRANCH   1  19
HETATM   19  C3  UNL     1      42.730  32.302  15.942  1.00  0.00     0.255 C 
HETATM   20  N1  UNL     1      42.734  33.622  16.456  1.00  0.00    -0.294 N 
HETATM   21  C2  UNL     1      43.684  34.152  17.328  1.00  0.00     0.220 C 
ATOM     22  H1  UNL     1      41.975  34.238  16.162  1.00  0.00     0.172 HD
HETATM   23  C1  UNL     1      44.811  33.325  17.796  1.00  0.00     0.117 C 
HETATM   24  O1  UNL     1      43.589  35.336  17.720  1.00  0.00    -0.274 OA
HETATM   25  O2  UNL     1      43.640  31.536  16.281  1.00  0.00    -0.268 OA
ENDBRANCH   1  19
TORSDOF 4
ENDMDL
MODEL 4
REMARK VINA RESULT: -7.586288620      2.818      5.194
REMARK  4 active torsions:
REMARK  status: ('A' for Active; 'I' for Inactive)
REMARK       I    between atoms: C2_2  and  N1_4 
REMARK       I    between atoms: N1_4  and  C3_6 
REMARK    1  A    between atoms: C3_6  and  C4_8 
REMARK    2  A    between atoms: C10_17  and  C11_18 
REMARK    3  A    between atoms: C11_18  and  O6_20 
REMARK    4  A    between atoms: O6_20  and  C12_21 
ROOT
HETATM    1  C4  UNL     1      40.987  33.802  16.279  1.00  0.00     0.025 C 
HETATM    2  C5  UNL     1      41.448  34.917  17.192  1.00  0.00     0.060 C 
HETATM    3  C6  UNL     1      42.258  35.955  16.455  1.00  0.00     0.146 C 
HETATM    4  S1  UNL     1      43.649  35.183  15.717  1.00  0.00     0.157 S 
HETATM    5  O3  UNL     1      44.584  34.744  16.805  1.00  0.00    -0.227 OA
HETATM    6  O4  UNL     1      44.385  36.100  14.784  1.00  0.00    -0.227 OA
HETATM    7  C7  UNL     1      43.102  33.746  14.849  1.00  0.00     0.090 C 
HETATM    8  C8  UNL     1      44.334  32.804  14.822  1.00  0.00     0.037 C 
HETATM    9  C9  UNL     1      42.790  34.122  13.439  1.00  0.00     0.037 C 
HETATM   10  C10 UNL     1      42.059  33.046  15.617  1.00  0.00     0.051 C 
ENDROOT
BRANCH  10  11
HETATM   11  C11 UNL     1      41.513  31.846  14.925  1.00  0.00     0.292 C 
HETATM   12  O5  UNL     1      40.935  30.981  15.616  1.00  0.00    -0.260 OA
BRANCH  11  13
HETATM   13  O6  UNL     1      41.604  31.624  13.561  1.00  0.00    -0.312 OA
BRANCH  13  14
HETATM   14  C12 UNL     1      42.266  30.512  13.009  1.00  0.00     0.137 C 
HETATM   15  C13 UNL     1      43.192  30.887  11.897  1.00  0.00     0.070 C 
HETATM   16  C14 UNL     1      42.561  29.848  10.976  1.00  0.00     0.175 C 
HETATM   17  F1  UNL     1      42.150  30.332   9.760  1.00  0.00    -0.249 F 
HETATM   18  C15 UNL     1      41.456  29.709  12.018  1.00  0.00     0.070 C 
ENDBRANCH  13  14
ENDBRANCH  11  13
ENDBRANCH  10  11
BRANCH   1  19
HETATM   19  C3  UNL     1      39.837  34.236  15.492  1.00  0.00     0.255 C 
HETATM   20  N1  UNL     1      40.018  35.250  14.520  1.00  0.00    -0.294 N 
HETATM   21  C2  UNL     1      39.022  35.769  13.691  1.00  0.00     0.220 C 
ATOM     22  H1  UNL     1      40.957  35.634  14.417  1.00  0.00     0.172 HD
HETATM   23  C1  UNL     1      37.640  35.266  13.782  1.00  0.00     0.117 C 
HETATM   24  O1  UNL     1      39.295  36.667  12.865  1.00  0.00    -0.274 OA
HETATM   25  O2  UNL     1      38.707  33.755  15.638  1.00  0.00    -0.268 OA
ENDBRANCH   1  19
TORSDOF 4
ENDMDL
MODEL 5
REMARK VINA RESULT: -7.494993669      3.307      5.549
REMARK  4 active torsions:
REMARK  status: ('A' for Active; 'I' for Inactive)
REMARK       I    between atoms: C2_2  and  N1_4 
REMARK       I    between atoms: N1_4  and  C3_6 
REMARK    1  A    between atoms: C3_6  and  C4_8 
REMARK    2  A    between atoms: C10_17  and  C11_18 
REMARK    3  A    between atoms: C11_18  and  O6_20 
REMARK    4  A    between atoms: O6_20  and  C12_21 
ROOT
HETATM    1  C4  UNL     1      40.871  34.146  15.441  1.00  0.00     0.025 C 
HETATM    2  C5  UNL     1      40.940  34.459  16.919  1.00  0.00     0.060 C 
HETATM    3  C6  UNL     1      41.962  35.528  17.225  1.00  0.00     0.146 C 
HETATM    4  S1  UNL     1      43.535  34.998  16.660  1.00  0.00     0.157 S 
HETATM    5  O3  UNL     1      43.988  33.852  17.513  1.00  0.00    -0.227 OA
HETATM    6  O4  UNL     1      44.564  36.089  16.724  1.00  0.00    -0.227 OA
HETATM    7  C7  UNL     1      43.373  34.417  15.000  1.00  0.00     0.090 C 
HETATM    8  C8  UNL     1      44.529  33.400  14.819  1.00  0.00     0.037 C 
HETATM    9  C9  UNL     1      43.619  35.552  14.063  1.00  0.00     0.037 C 
HETATM   10  C10 UNL     1      42.121  33.658  14.841  1.00  0.00     0.051 C 
ENDROOT
BRANCH  10  11
HETATM   11  C11 UNL     1      41.889  33.175  13.452  1.00  0.00     0.292 C 
HETATM   12  O5  UNL     1      41.547  34.010  12.588  1.00  0.00    -0.260 OA
BRANCH  11  13
HETATM   13  O6  UNL     1      42.026  31.856  13.052  1.00  0.00    -0.312 OA
BRANCH  13  14
HETATM   14  C12 UNL     1      42.813  31.467  11.953  1.00  0.00     0.137 C 
HETATM   15  C13 UNL     1      41.999  30.905  10.832  1.00  0.00     0.070 C 
HETATM   16  C14 UNL     1      42.878  29.662  10.769  1.00  0.00     0.175 C 
HETATM   17  F1  UNL     1      42.198  28.473  10.830  1.00  0.00    -0.249 F 
HETATM   18  C15 UNL     1      43.487  30.121  12.091  1.00  0.00     0.070 C 
ENDBRANCH  13  14
ENDBRANCH  11  13
ENDBRANCH  10  11
BRANCH   1  19
HETATM   19  C3  UNL     1      40.105  35.173  14.741  1.00  0.00     0.255 C 
HETATM   20  N1  UNL     1      38.871  34.817  14.144  1.00  0.00    -0.294 N 
HETATM   21  C2  UNL     1      38.027  35.681  13.445  1.00  0.00     0.220 C 
ATOM     22  H1  UNL     1      38.573  33.845  14.233  1.00  0.00     0.172 HD
HETATM   23  C1  UNL     1      38.388  37.099  13.273  1.00  0.00     0.117 C 
HETATM   24  O1  UNL     1      36.956  35.257  12.958  1.00  0.00    -0.274 OA
HETATM   25  O2  UNL     1      40.489  36.345  14.646  1.00  0.00    -0.268 OA
ENDBRANCH   1  19
TORSDOF 4
ENDMDL
