MODEL 1
REMARK VINA RESULT: -7.445871540      0.000      0.000
REMARK  5 active torsions:
REMARK  status: ('A' for Active; 'I' for Inactive)
REMARK       I    between atoms: N1_5  and  C4_6 
REMARK    1  A    between atoms: C4_6  and  C5_8 
REMARK    2  A    between atoms: C5_8  and  O3_9 
REMARK    3  A    between atoms: C7_12  and  S1_13 
REMARK    4  A    between atoms: S1_13  and  C8_14 
REMARK    5  A    between atoms: C8_14  and  C9_16 
ROOT
HETATM    1  C1  UNL     1      46.011  32.220  17.213  1.00  0.00     0.021 C 
HETATM    2  C2  UNL     1      44.684  32.886  16.833  1.00  0.00     0.095 C 
HETATM    3  C3  UNL     1      43.875  31.965  15.986  1.00  0.00     0.232 C 
HETATM    4  O1  UNL     1      43.704  30.751  16.314  1.00  0.00    -0.272 OA
HETATM    5  N1  UNL     1      43.385  32.660  14.848  1.00  0.00    -0.278 N 
HETATM    6  C4  UNL     1      42.526  32.091  13.877  1.00  0.00     0.250 C 
HETATM    7  O2  UNL     1      42.148  32.799  12.902  1.00  0.00    -0.271 OA
HETATM    8  C6  UNL     1      43.909  33.985  14.884  1.00  0.00     0.144 C 
HETATM    9  C7  UNL     1      43.094  35.070  15.450  1.00  0.00     0.202 C 
HETATM   10  S2  UNL     1      44.414  35.579  16.527  1.00  0.00     0.167 S 
HETATM   11  O5  UNL     1      44.035  35.571  17.976  1.00  0.00    -0.226 OA
HETATM   12  O6  UNL     1      45.178  36.766  16.066  1.00  0.00    -0.226 OA
HETATM   13  C13 UNL     1      45.003  34.018  15.916  1.00  0.00     0.148 C 
ENDROOT
BRANCH   9  14
HETATM   14  S1  UNL     1      41.625  34.643  16.372  1.00  0.00    -0.069 SA
BRANCH  14  15
HETATM   15  C8  UNL     1      40.185  34.870  15.332  1.00  0.00     0.194 C 
HETATM   16  O4  UNL     1      39.211  34.120  15.390  1.00  0.00    -0.285 OA
BRANCH  15  17
HETATM   17  C9  UNL     1      40.120  35.978  14.360  1.00  0.00     0.109 A 
HETATM   18  C10 UNL     1      40.405  35.730  12.903  1.00  0.00     0.060 A 
HETATM   19  C11 UNL     1      39.023  36.075  13.372  1.00  0.00     0.112 A 
HETATM   20  C12 UNL     1      38.428  37.414  13.084  1.00  0.00     0.053 C 
HETATM   21  F1  UNL     1      38.128  35.020  13.295  1.00  0.00    -0.242 F 
ENDBRANCH  15  17
ENDBRANCH  14  15
ENDBRANCH   9  14
BRANCH   6  22
HETATM   22  C5  UNL     1      42.050  30.684  13.961  1.00  0.00     0.267 C 
BRANCH  22  23
HETATM   23  O3  UNL     1      40.991  30.537  14.827  1.00  0.00    -0.392 OA
ATOM     24  H3  UNL     1      40.412  29.826  14.577  1.00  0.00     0.210 HD
ENDBRANCH  22  23
ENDBRANCH   6  22
TORSDOF 5
ENDMDL
MODEL 2
REMARK VINA RESULT: -7.329364498      2.218      4.078
REMARK  5 active torsions:
REMARK  status: ('A' for Active; 'I' for Inactive)
REMARK       I    between atoms: N1_5  and  C4_6 
REMARK    1  A    between atoms: C4_6  and  C5_8 
REMARK    2  A    between atoms: C5_8  and  O3_9 
REMARK    3  A    between atoms: C7_12  and  S1_13 
REMARK    4  A    between atoms: S1_13  and  C8_14 
REMARK    5  A    between atoms: C8_14  and  C9_16 
ROOT
HETATM    1  C1  UNL     1      45.624  30.597  15.516  1.00  0.00     0.021 C 
HETATM    2  C2  UNL     1      44.551  31.467  14.850  1.00  0.00     0.095 C 
HETATM    3  C3  UNL     1      44.854  32.909  15.070  1.00  0.00     0.232 C 
HETATM    4  O1  UNL     1      46.017  33.374  14.865  1.00  0.00    -0.272 OA
HETATM    5  N1  UNL     1      43.687  33.586  15.513  1.00  0.00    -0.278 N 
HETATM    6  C4  UNL     1      43.617  34.980  15.749  1.00  0.00     0.250 C 
HETATM    7  O2  UNL     1      42.527  35.483  16.142  1.00  0.00    -0.271 OA
HETATM    8  C6  UNL     1      42.649  32.621  15.664  1.00  0.00     0.144 C 
HETATM    9  C7  UNL     1      41.684  32.421  14.574  1.00  0.00     0.202 C 
HETATM   10  S2  UNL     1      41.963  30.666  14.567  1.00  0.00     0.167 S 
HETATM   11  O5  UNL     1      42.411  30.140  13.238  1.00  0.00    -0.226 OA
HETATM   12  O6  UNL     1      40.926  29.862  15.262  1.00  0.00    -0.226 OA
HETATM   13  C13 UNL     1      43.280  31.256  15.602  1.00  0.00     0.148 C 
ENDROOT
BRANCH   9  14
HETATM   14  S1  UNL     1      42.033  33.146  12.979  1.00  0.00    -0.069 SA
BRANCH  14  15
HETATM   15  C8  UNL     1      41.454  34.840  12.956  1.00  0.00     0.194 C 
HETATM   16  O4  UNL     1      42.228  35.796  12.910  1.00  0.00    -0.285 OA
BRANCH  15  17
HETATM   17  C9  UNL     1      40.012  35.147  12.992  1.00  0.00     0.109 A 
HETATM   18  C10 UNL     1      39.203  34.858  14.228  1.00  0.00     0.060 A 
HETATM   19  C11 UNL     1      39.481  36.268  13.799  1.00  0.00     0.112 A 
HETATM   20  C12 UNL     1      38.399  37.121  13.224  1.00  0.00     0.053 C 
HETATM   21  F1  UNL     1      40.363  36.940  14.631  1.00  0.00    -0.242 F 
ENDBRANCH  15  17
ENDBRANCH  14  15
ENDBRANCH   9  14
BRANCH   6  22
HETATM   22  C5  UNL     1      44.784  35.882  15.551  1.00  0.00     0.267 C 
BRANCH  22  23
HETATM   23  O3  UNL     1      44.989  36.195  14.227  1.00  0.00    -0.392 OA
ATOM     24  H3  UNL     1      45.835  35.901  13.910  1.00  0.00     0.210 HD
ENDBRANCH  22  23
ENDBRANCH   6  22
TORSDOF 5
ENDMDL
MODEL 3
REMARK VINA RESULT: -7.214840918      1.350      1.410
REMARK  5 active torsions:
REMARK  status: ('A' for Active; 'I' for Inactive)
REMARK       I    between atoms: N1_5  and  C4_6 
REMARK    1  A    between atoms: C4_6  and  C5_8 
REMARK    2  A    between atoms: C5_8  and  O3_9 
REMARK    3  A    between atoms: C7_12  and  S1_13 
REMARK    4  A    between atoms: S1_13  and  C8_14 
REMARK    5  A    between atoms: C8_14  and  C9_16 
ROOT
HETATM    1  C1  UNL     1      45.855  31.186  16.853  1.00  0.00     0.021 C 
HETATM    2  C2  UNL     1      44.630  31.913  16.284  1.00  0.00     0.095 C 
HETATM    3  C3  UNL     1      43.697  30.932  15.663  1.00  0.00     0.232 C 
HETATM    4  O1  UNL     1      43.361  29.869  16.271  1.00  0.00    -0.272 OA
HETATM    5  N1  UNL     1      43.302  31.388  14.377  1.00  0.00    -0.278 N 
HETATM    6  C4  UNL     1      42.368  30.720  13.548  1.00  0.00     0.250 C 
HETATM    7  O2  UNL     1      42.087  31.214  12.420  1.00  0.00    -0.271 OA
HETATM    8  C6  UNL     1      44.005  32.597  14.105  1.00  0.00     0.144 C 
HETATM    9  C7  UNL     1      43.353  33.888  14.367  1.00  0.00     0.202 C 
HETATM   10  S2  UNL     1      44.736  34.460  15.326  1.00  0.00     0.167 S 
HETATM   11  O5  UNL     1      44.367  34.859  16.722  1.00  0.00    -0.226 OA
HETATM   12  O6  UNL     1      45.655  35.384  14.613  1.00  0.00    -0.226 OA
HETATM   13  C13 UNL     1      45.099  32.733  15.130  1.00  0.00     0.148 C 
ENDROOT
BRANCH   9  14
HETATM   14  S1  UNL     1      41.843  33.903  15.322  1.00  0.00    -0.069 SA
BRANCH  14  15
HETATM   15  C8  UNL     1      41.194  35.571  15.380  1.00  0.00     0.194 C 
HETATM   16  O4  UNL     1      41.238  36.255  16.403  1.00  0.00    -0.285 OA
BRANCH  15  17
HETATM   17  C9  UNL     1      40.578  36.186  14.189  1.00  0.00     0.109 A 
HETATM   18  C10 UNL     1      40.385  35.382  12.931  1.00  0.00     0.060 A 
HETATM   19  C11 UNL     1      39.211  35.824  13.753  1.00  0.00     0.112 A 
HETATM   20  C12 UNL     1      38.300  36.904  13.268  1.00  0.00     0.053 C 
HETATM   21  F1  UNL     1      38.573  34.789  14.418  1.00  0.00    -0.242 F 
ENDBRANCH  15  17
ENDBRANCH  14  15
ENDBRANCH   9  14
BRANCH   6  22
HETATM   22  C5  UNL     1      41.701  29.455  13.958  1.00  0.00     0.267 C 
BRANCH  22  23
HETATM   23  O3  UNL     1      40.688  29.663  14.864  1.00  0.00    -0.392 OA
ATOM     24  H3  UNL     1      39.830  29.482  14.499  1.00  0.00     0.210 HD
ENDBRANCH  22  23
ENDBRANCH   6  22
TORSDOF 5
ENDMDL
MODEL 4
REMARK VINA RESULT: -7.121017272      2.071      2.353
REMARK  5 active torsions:
REMARK  status: ('A' for Active; 'I' for Inactive)
REMARK       I    between atoms: N1_5  and  C4_6 
REMARK    1  A    between atoms: C4_6  and  C5_8 
REMARK    2  A    between atoms: C5_8  and  O3_9 
REMARK    3  A    between atoms: C7_12  and  S1_13 
REMARK    4  A    between atoms: S1_13  and  C8_14 
REMARK    5  A    between atoms: C8_14  and  C9_16 
ROOT
HETATM    1  C1  UNL     1      45.068  33.416  19.022  1.00  0.00     0.021 C 
HETATM    2  C2  UNL     1      44.492  33.589  17.612  1.00  0.00     0.095 C 
HETATM    3  C3  UNL     1      44.828  32.403  16.774  1.00  0.00     0.232 C 
HETATM    4  O1  UNL     1      44.648  31.223  17.204  1.00  0.00    -0.272 OA
HETATM    5  N1  UNL     1      45.341  32.829  15.520  1.00  0.00    -0.278 N 
HETATM    6  C4  UNL     1      45.695  31.951  14.466  1.00  0.00     0.250 C 
HETATM    7  O2  UNL     1      46.143  32.435  13.389  1.00  0.00    -0.271 OA
HETATM    8  C6  UNL     1      45.423  34.251  15.538  1.00  0.00     0.144 C 
HETATM    9  C7  UNL     1      44.333  35.045  14.955  1.00  0.00     0.202 C 
HETATM   10  S2  UNL     1      44.175  36.023  16.431  1.00  0.00     0.167 S 
HETATM   11  O5  UNL     1      42.801  35.984  17.026  1.00  0.00    -0.226 OA
HETATM   12  O6  UNL     1      44.813  37.362  16.369  1.00  0.00    -0.226 OA
HETATM   13  C13 UNL     1      45.240  34.703  16.961  1.00  0.00     0.148 C 
ENDROOT
BRANCH   9  14
HETATM   14  S1  UNL     1      42.800  34.223  14.547  1.00  0.00    -0.069 SA
BRANCH  14  15
HETATM   15  C8  UNL     1      41.924  35.179  13.313  1.00  0.00     0.194 C 
HETATM   16  O4  UNL     1      42.510  35.893  12.500  1.00  0.00    -0.285 OA
BRANCH  15  17
HETATM   17  C9  UNL     1      40.451  35.141  13.230  1.00  0.00     0.109 A 
HETATM   18  C10 UNL     1      39.631  34.763  14.435  1.00  0.00     0.060 A 
HETATM   19  C11 UNL     1      39.614  36.163  13.897  1.00  0.00     0.112 A 
HETATM   20  C12 UNL     1      38.416  36.693  13.180  1.00  0.00     0.053 C 
HETATM   21  F1  UNL     1      40.248  37.084  14.716  1.00  0.00    -0.242 F 
ENDBRANCH  15  17
ENDBRANCH  14  15
ENDBRANCH   9  14
BRANCH   6  22
HETATM   22  C5  UNL     1      45.558  30.474  14.579  1.00  0.00     0.267 C 
BRANCH  22  23
HETATM   23  O3  UNL     1      44.266  30.047  14.379  1.00  0.00    -0.392 OA
ATOM     24  H3  UNL     1      43.835  30.513  13.672  1.00  0.00     0.210 HD
ENDBRANCH  22  23
ENDBRANCH   6  22
TORSDOF 5
ENDMDL
MODEL 5
REMARK VINA RESULT: -7.117417424      1.791      3.996
REMARK  5 active torsions:
REMARK  status: ('A' for Active; 'I' for Inactive)
REMARK       I    between atoms: N1_5  and  C4_6 
REMARK    1  A    between atoms: C4_6  and  C5_8 
REMARK    2  A    between atoms: C5_8  and  O3_9 
REMARK    3  A    between atoms: C7_12  and  S1_13 
REMARK    4  A    between atoms: S1_13  and  C8_14 
REMARK    5  A    between atoms: C8_14  and  C9_16 
ROOT
HETATM    1  C1  UNL     1      46.746  31.967  14.465  1.00  0.00     0.021 C 
HETATM    2  C2  UNL     1      45.325  32.536  14.556  1.00  0.00     0.095 C 
HETATM    3  C3  UNL     1      45.375  33.971  14.953  1.00  0.00     0.232 C 
HETATM    4  O1  UNL     1      46.161  34.785  14.378  1.00  0.00    -0.272 OA
HETATM    5  N1  UNL     1      44.451  34.214  16.005  1.00  0.00    -0.278 N 
HETATM    6  C4  UNL     1      44.203  35.489  16.567  1.00  0.00     0.250 C 
HETATM    7  O2  UNL     1      43.359  35.595  17.501  1.00  0.00    -0.271 OA
HETATM    8  C6  UNL     1      43.854  32.970  16.361  1.00  0.00     0.144 C 
HETATM    9  C7  UNL     1      42.552  32.602  15.787  1.00  0.00     0.202 C 
HETATM   10  S2  UNL     1      43.168  31.024  15.248  1.00  0.00     0.167 S 
HETATM   11  O5  UNL     1      43.021  30.800  13.775  1.00  0.00    -0.226 OA
HETATM   12  O6  UNL     1      42.799  29.877  16.116  1.00  0.00    -0.226 OA
HETATM   13  C13 UNL     1      44.657  31.874  15.713  1.00  0.00     0.148 C 
ENDROOT
BRANCH   9  14
HETATM   14  S1  UNL     1      41.921  33.561  14.417  1.00  0.00    -0.069 SA
BRANCH  14  15
HETATM   15  C8  UNL     1      40.843  34.847  15.040  1.00  0.00     0.194 C 
HETATM   16  O4  UNL     1      40.404  34.834  16.189  1.00  0.00    -0.285 OA
BRANCH  15  17
HETATM   17  C9  UNL     1      40.442  35.979  14.183  1.00  0.00     0.109 A 
HETATM   18  C10 UNL     1      40.435  35.834  12.684  1.00  0.00     0.060 A 
HETATM   19  C11 UNL     1      39.155  35.976  13.452  1.00  0.00     0.112 A 
HETATM   20  C12 UNL     1      38.359  37.238  13.388  1.00  0.00     0.053 C 
HETATM   21  F1  UNL     1      38.394  34.818  13.487  1.00  0.00    -0.242 F 
ENDBRANCH  15  17
ENDBRANCH  14  15
ENDBRANCH   9  14
BRANCH   6  22
HETATM   22  C5  UNL     1      44.901  36.717  16.098  1.00  0.00     0.267 C 
BRANCH  22  23
HETATM   23  O3  UNL     1      45.053  37.651  17.096  1.00  0.00    -0.392 OA
ATOM     24  H3  UNL     1      45.349  38.491  16.766  1.00  0.00     0.210 HD
ENDBRANCH  22  23
ENDBRANCH   6  22
TORSDOF 5
ENDMDL
