MODEL 1
REMARK VINA RESULT: -7.504868245      0.000      0.000
REMARK  7 active torsions:
REMARK  status: ('A' for Active; 'I' for Inactive)
REMARK    1  A    between atoms: N1_2  and  C2_4 
REMARK    2  A    between atoms: C5_13  and  C6_14 
REMARK    3  A    between atoms: C10_18  and  C11_19 
REMARK       I    between atoms: C11_19  and  N5_21 
REMARK    4  A    between atoms: N5_21  and  C12_23 
REMARK    5  A    between atoms: C12_23  and  C13_24 
REMARK    6  A    between atoms: C12_23  and  C20_31 
REMARK    7  A    between atoms: C13_24  and  C14_25 
REMARK       I    between atoms: C20_31  and  N6_33 
ROOT
HETATM    1  C11 UNL     1      -2.065   9.824  -0.284  1.00  0.00     0.252 C 
HETATM    2  O1  UNL     1      -1.318   8.849   0.019  1.00  0.00    -0.268 OA
HETATM    3  N5  UNL     1      -3.418   9.551  -0.515  1.00  0.00    -0.343 N 
ATOM      4  H5  UNL     1      -4.037  10.324  -0.758  1.00  0.00     0.163 HD
ENDROOT
BRANCH   1   5
HETATM    5  C10 UNL     1      -1.517  11.174  -0.382  1.00  0.00     0.032 A 
HETATM    6  C9  UNL     1      -0.700  11.637   0.629  1.00  0.00     0.017 A 
HETATM    7  C8  UNL     1      -0.181  12.908   0.534  1.00  0.00     0.002 A 
HETATM    8  C7  UNL     1      -0.469  13.717  -0.558  1.00  0.00     0.014 A 
HETATM    9  C6  UNL     1      -1.282  13.277  -1.581  1.00  0.00    -0.008 A 
HETATM   10  C26 UNL     1      -1.793  11.987  -1.457  1.00  0.00     0.030 A 
BRANCH   9  11
HETATM   11  C5  UNL     1      -1.603  14.098  -2.736  1.00  0.00     0.045 A 
HETATM   12  N4  UNL     1      -0.919  15.177  -3.158  1.00  0.00    -0.341 N 
HETATM   13  C4  UNL     1      -1.483  15.697  -4.245  1.00  0.00     0.120 A 
ATOM     14  H4  UNL     1      -0.082  15.546  -2.706  1.00  0.00     0.167 HD
HETATM   15  N3  UNL     1      -1.166  16.750  -5.002  1.00  0.00    -0.338 N 
HETATM   16  C28 UNL     1      -2.595  14.929  -4.564  1.00  0.00     0.054 A 
HETATM   17  C3  UNL     1      -1.916  17.091  -6.091  1.00  0.00     0.183 A 
ATOM     18  H3  UNL     1      -0.348  17.310  -4.762  1.00  0.00     0.168 HD
HETATM   19  N2  UNL     1      -2.980  16.351  -6.388  1.00  0.00    -0.338 N 
HETATM   20  C2  UNL     1      -3.352  15.275  -5.663  1.00  0.00     0.115 A 
ATOM     21  H2  UNL     1      -3.540  16.608  -7.201  1.00  0.00     0.168 HD
HETATM   22  C27 UNL     1      -2.639  13.940  -3.600  1.00  0.00     0.049 A 
BRANCH  20  23
HETATM   23  N1  UNL     1      -4.489  14.500  -6.007  1.00  0.00    -0.380 N 
HETATM   24  C1  UNL     1      -4.301  13.339  -6.852  1.00  0.00     0.147 C 
ATOM     25  H1  UNL     1      -5.417  14.754  -5.669  1.00  0.00     0.160 HD
ENDBRANCH  20  23
ENDBRANCH   9  11
ENDBRANCH   1   5
BRANCH   3  26
HETATM   26  C12 UNL     1      -3.984   8.204  -0.422  1.00  0.00     0.181 C 
BRANCH  26  27
HETATM   27  C13 UNL     1      -4.939   8.005  -1.577  1.00  0.00     0.073 C 
BRANCH  27  28
HETATM   28  C14 UNL     1      -4.581   6.726  -2.285  1.00  0.00    -0.056 A 
HETATM   29  C15 UNL     1      -4.056   6.798  -3.550  1.00  0.00     0.007 A 
HETATM   30  C16 UNL     1      -3.724   5.647  -4.226  1.00  0.00     0.001 A 
HETATM   31  C17 UNL     1      -3.907   4.397  -3.657  1.00  0.00     0.000 A 
HETATM   32  C18 UNL     1      -4.429   4.344  -2.399  1.00  0.00     0.001 A 
HETATM   33  C19 UNL     1      -4.772   5.490  -1.698  1.00  0.00     0.007 A 
ENDBRANCH  27  28
ENDBRANCH  26  27
BRANCH  26  34
HETATM   34  C20 UNL     1      -4.616   8.046   0.902  1.00  0.00     0.246 C 
HETATM   35  O2  UNL     1      -5.100   9.114   1.443  1.00  0.00    -0.271 OA
HETATM   36  N6  UNL     1      -4.722   6.875   1.577  1.00  0.00    -0.311 N 
HETATM   37  C21 UNL     1      -4.063   5.893   1.942  1.00  0.00     0.107 A 
ATOM     38  H6  UNL     1      -5.683   6.764   1.898  1.00  0.00     0.170 HD
HETATM   39  C22 UNL     1      -2.735   5.706   1.689  1.00  0.00     0.048 A 
HETATM   40  N7  UNL     1      -4.766   4.934   2.642  1.00  0.00    -0.352 N 
HETATM   41  C23 UNL     1      -2.092   4.543   2.141  1.00  0.00     0.005 A 
HETATM   42  C24 UNL     1      -2.832   3.614   2.834  1.00  0.00     0.017 A 
HETATM   43  C25 UNL     1      -4.177   3.835   3.074  1.00  0.00     0.089 A 
ATOM     44  H7  UNL     1      -5.759   5.076   2.829  1.00  0.00     0.166 HD
ENDBRANCH  26  34
ENDBRANCH   3  26
TORSDOF 7
ENDMDL
MODEL 2
REMARK VINA RESULT: -7.189350769      0.795      1.641
REMARK  7 active torsions:
REMARK  status: ('A' for Active; 'I' for Inactive)
REMARK    1  A    between atoms: N1_2  and  C2_4 
REMARK    2  A    between atoms: C5_13  and  C6_14 
REMARK    3  A    between atoms: C10_18  and  C11_19 
REMARK       I    between atoms: C11_19  and  N5_21 
REMARK    4  A    between atoms: N5_21  and  C12_23 
REMARK    5  A    between atoms: C12_23  and  C13_24 
REMARK    6  A    between atoms: C12_23  and  C20_31 
REMARK    7  A    between atoms: C13_24  and  C14_25 
REMARK       I    between atoms: C20_31  and  N6_33 
ROOT
HETATM    1  C11 UNL     1      -2.173   9.786  -0.509  1.00  0.00     0.252 C 
HETATM    2  O1  UNL     1      -1.373   8.838  -0.258  1.00  0.00    -0.268 OA
HETATM    3  N5  UNL     1      -3.532   9.472  -0.609  1.00  0.00    -0.343 N 
ATOM      4  H5  UNL     1      -4.193  10.223  -0.808  1.00  0.00     0.163 HD
ENDROOT
BRANCH   1   5
HETATM    5  C10 UNL     1      -1.675  11.148  -0.680  1.00  0.00     0.032 A 
HETATM    6  C9  UNL     1      -0.866  11.691   0.297  1.00  0.00     0.017 A 
HETATM    7  C8  UNL     1      -0.395  12.973   0.132  1.00  0.00     0.002 A 
HETATM    8  C7  UNL     1      -0.721  13.715  -0.997  1.00  0.00     0.014 A 
HETATM    9  C6  UNL     1      -1.526  13.194  -1.987  1.00  0.00    -0.008 A 
HETATM   10  C26 UNL     1      -1.989  11.894  -1.792  1.00  0.00     0.030 A 
BRANCH   9  11
HETATM   11  C5  UNL     1      -1.887  13.942  -3.179  1.00  0.00     0.045 A 
HETATM   12  N4  UNL     1      -2.581  13.471  -4.232  1.00  0.00    -0.341 N 
HETATM   13  C4  UNL     1      -2.738  14.418  -5.154  1.00  0.00     0.120 A 
ATOM     14  H4  UNL     1      -2.937  12.519  -4.312  1.00  0.00     0.167 HD
HETATM   15  N3  UNL     1      -3.344  14.417  -6.343  1.00  0.00    -0.338 N 
HETATM   16  C28 UNL     1      -2.121  15.574  -4.695  1.00  0.00     0.054 A 
HETATM   17  C3  UNL     1      -3.371  15.537  -7.124  1.00  0.00     0.183 A 
ATOM     18  H3  UNL     1      -3.795  13.565  -6.675  1.00  0.00     0.168 HD
HETATM   19  N2  UNL     1      -2.778  16.639  -6.679  1.00  0.00    -0.338 N 
HETATM   20  C2  UNL     1      -2.148  16.703  -5.486  1.00  0.00     0.115 A 
ATOM     21  H2  UNL     1      -2.798  17.475  -7.264  1.00  0.00     0.168 HD
HETATM   22  C27 UNL     1      -1.601  15.240  -3.460  1.00  0.00     0.049 A 
BRANCH  20  23
HETATM   23  N1  UNL     1      -1.528  17.896  -5.033  1.00  0.00    -0.380 N 
HETATM   24  C1  UNL     1      -2.252  18.739  -4.105  1.00  0.00     0.147 C 
ATOM     25  H1  UNL     1      -0.595  18.153  -5.353  1.00  0.00     0.160 HD
ENDBRANCH  20  23
ENDBRANCH   9  11
ENDBRANCH   1   5
BRANCH   3  26
HETATM   26  C12 UNL     1      -4.049   8.113  -0.441  1.00  0.00     0.181 C 
BRANCH  26  27
HETATM   27  C13 UNL     1      -5.042   7.837  -1.547  1.00  0.00     0.073 C 
BRANCH  27  28
HETATM   28  C14 UNL     1      -4.637   6.572  -2.255  1.00  0.00    -0.056 A 
HETATM   29  C15 UNL     1      -4.091   6.666  -3.510  1.00  0.00     0.007 A 
HETATM   30  C16 UNL     1      -3.717   5.529  -4.187  1.00  0.00     0.001 A 
HETATM   31  C17 UNL     1      -3.876   4.270  -3.628  1.00  0.00     0.000 A 
HETATM   32  C18 UNL     1      -4.418   4.196  -2.380  1.00  0.00     0.001 A 
HETATM   33  C19 UNL     1      -4.804   5.328  -1.678  1.00  0.00     0.007 A 
ENDBRANCH  27  28
ENDBRANCH  26  27
BRANCH  26  34
HETATM   34  C20 UNL     1      -4.621   7.988   0.914  1.00  0.00     0.246 C 
HETATM   35  O2  UNL     1      -5.064   9.073   1.457  1.00  0.00    -0.271 OA
HETATM   36  N6  UNL     1      -4.713   6.830   1.615  1.00  0.00    -0.311 N 
HETATM   37  C21 UNL     1      -4.053   5.845   1.967  1.00  0.00     0.107 A 
ATOM     38  H6  UNL     1      -5.660   6.741   1.981  1.00  0.00     0.170 HD
HETATM   39  C22 UNL     1      -2.741   5.633   1.657  1.00  0.00     0.048 A 
HETATM   40  N7  UNL     1      -4.738   4.909   2.716  1.00  0.00    -0.352 N 
HETATM   41  C23 UNL     1      -2.096   4.468   2.101  1.00  0.00     0.005 A 
HETATM   42  C24 UNL     1      -2.816   3.563   2.844  1.00  0.00     0.017 A 
HETATM   43  C25 UNL     1      -4.146   3.810   3.141  1.00  0.00     0.089 A 
ATOM     44  H7  UNL     1      -5.718   5.071   2.945  1.00  0.00     0.166 HD
ENDBRANCH  26  34
ENDBRANCH   3  26
TORSDOF 7
ENDMDL
MODEL 3
REMARK VINA RESULT: -7.130638006      1.255      2.320
REMARK  7 active torsions:
REMARK  status: ('A' for Active; 'I' for Inactive)
REMARK    1  A    between atoms: N1_2  and  C2_4 
REMARK    2  A    between atoms: C5_13  and  C6_14 
REMARK    3  A    between atoms: C10_18  and  C11_19 
REMARK       I    between atoms: C11_19  and  N5_21 
REMARK    4  A    between atoms: N5_21  and  C12_23 
REMARK    5  A    between atoms: C12_23  and  C13_24 
REMARK    6  A    between atoms: C12_23  and  C20_31 
REMARK    7  A    between atoms: C13_24  and  C14_25 
REMARK       I    between atoms: C20_31  and  N6_33 
ROOT
HETATM    1  C11 UNL     1      -2.654   9.731  -1.612  1.00  0.00     0.252 C 
HETATM    2  O1  UNL     1      -1.929   8.771  -2.007  1.00  0.00    -0.268 OA
HETATM    3  N5  UNL     1      -3.794   9.411  -0.867  1.00  0.00    -0.343 N 
ATOM      4  H5  UNL     1      -4.390  10.170  -0.538  1.00  0.00     0.163 HD
ENDROOT
BRANCH   1   5
HETATM    5  C10 UNL     1      -2.294  11.110  -1.929  1.00  0.00     0.032 A 
HETATM    6  C9  UNL     1      -1.556  11.834  -1.016  1.00  0.00     0.017 A 
HETATM    7  C8  UNL     1      -1.215  13.132  -1.318  1.00  0.00     0.002 A 
HETATM    8  C7  UNL     1      -1.602  13.711  -2.521  1.00  0.00     0.014 A 
HETATM    9  C6  UNL     1      -2.338  13.008  -3.450  1.00  0.00    -0.008 A 
HETATM   10  C26 UNL     1      -2.670  11.696  -3.116  1.00  0.00     0.030 A 
BRANCH   9  11
HETATM   11  C5  UNL     1      -2.760  13.583  -4.716  1.00  0.00     0.045 A 
HETATM   12  N4  UNL     1      -3.549  12.992  -5.632  1.00  0.00    -0.341 N 
HETATM   13  C4  UNL     1      -3.739  13.794  -6.677  1.00  0.00     0.120 A 
ATOM     14  H4  UNL     1      -3.946  12.057  -5.538  1.00  0.00     0.167 HD
HETATM   15  N3  UNL     1      -4.433  13.642  -7.807  1.00  0.00    -0.338 N 
HETATM   16  C28 UNL     1      -3.046  14.975  -6.447  1.00  0.00     0.054 A 
HETATM   17  C3  UNL     1      -4.477  14.630  -8.749  1.00  0.00     0.183 A 
ATOM     18  H3  UNL     1      -4.940  12.773  -7.970  1.00  0.00     0.168 HD
HETATM   19  N2  UNL     1      -3.810  15.757  -8.522  1.00  0.00    -0.338 N 
HETATM   20  C2  UNL     1      -3.090  15.971  -7.400  1.00  0.00     0.115 A 
ATOM     21  H2  UNL     1      -3.842  16.494  -9.227  1.00  0.00     0.168 HD
HETATM   22  C27 UNL     1      -2.446  14.807  -5.213  1.00  0.00     0.049 A 
BRANCH  20  23
HETATM   23  N1  UNL     1      -2.392  17.186  -7.181  1.00  0.00    -0.380 N 
HETATM   24  C1  UNL     1      -2.337  18.152  -8.259  1.00  0.00     0.147 C 
ATOM     25  H1  UNL     1      -1.941  17.376  -6.287  1.00  0.00     0.160 HD
ENDBRANCH  20  23
ENDBRANCH   9  11
ENDBRANCH   1   5
BRANCH   3  26
HETATM   26  C12 UNL     1      -4.170   8.034  -0.540  1.00  0.00     0.181 C 
BRANCH  26  27
HETATM   27  C13 UNL     1      -5.241   7.587  -1.508  1.00  0.00     0.073 C 
BRANCH  27  28
HETATM   28  C14 UNL     1      -4.747   6.373  -2.249  1.00  0.00    -0.056 A 
HETATM   29  C15 UNL     1      -4.826   5.150  -1.634  1.00  0.00     0.007 A 
HETATM   30  C16 UNL     1      -4.377   4.022  -2.282  1.00  0.00     0.001 A 
HETATM   31  C17 UNL     1      -3.840   4.087  -3.557  1.00  0.00     0.000 A 
HETATM   32  C18 UNL     1      -3.770   5.311  -4.153  1.00  0.00     0.001 A 
HETATM   33  C19 UNL     1      -4.215   6.462  -3.521  1.00  0.00     0.007 A 
ENDBRANCH  27  28
ENDBRANCH  26  27
BRANCH  26  34
HETATM   34  C20 UNL     1      -4.590   7.980   0.873  1.00  0.00     0.246 C 
HETATM   35  O2  UNL     1      -4.938   9.100   1.416  1.00  0.00    -0.271 OA
HETATM   36  N6  UNL     1      -4.635   6.855   1.629  1.00  0.00    -0.311 N 
HETATM   37  C21 UNL     1      -3.968   5.863   1.946  1.00  0.00     0.107 A 
ATOM     38  H6  UNL     1      -5.537   6.810   2.102  1.00  0.00     0.170 HD
HETATM   39  C22 UNL     1      -2.705   5.596   1.502  1.00  0.00     0.048 A 
HETATM   40  N7  UNL     1      -4.590   4.980   2.806  1.00  0.00    -0.352 N 
HETATM   41  C23 UNL     1      -2.047   4.428   1.920  1.00  0.00     0.005 A 
HETATM   42  C24 UNL     1      -2.705   3.577   2.776  1.00  0.00     0.017 A 
HETATM   43  C25 UNL     1      -3.985   3.879   3.208  1.00  0.00     0.089 A 
ATOM     44  H7  UNL     1      -5.534   5.182   3.135  1.00  0.00     0.166 HD
ENDBRANCH  26  34
ENDBRANCH   3  26
TORSDOF 7
ENDMDL
MODEL 4
REMARK VINA RESULT: -6.890888254      1.723      2.103
REMARK  7 active torsions:
REMARK  status: ('A' for Active; 'I' for Inactive)
REMARK    1  A    between atoms: N1_2  and  C2_4 
REMARK    2  A    between atoms: C5_13  and  C6_14 
REMARK    3  A    between atoms: C10_18  and  C11_19 
REMARK       I    between atoms: C11_19  and  N5_21 
REMARK    4  A    between atoms: N5_21  and  C12_23 
REMARK    5  A    between atoms: C12_23  and  C13_24 
REMARK    6  A    between atoms: C12_23  and  C20_31 
REMARK    7  A    between atoms: C13_24  and  C14_25 
REMARK       I    between atoms: C20_31  and  N6_33 
ROOT
HETATM    1  C11 UNL     1      -2.066  10.090  -0.293  1.00  0.00     0.252 C 
HETATM    2  O1  UNL     1      -1.424   9.079  -0.703  1.00  0.00    -0.268 OA
HETATM    3  N5  UNL     1      -3.308   9.863   0.310  1.00  0.00    -0.343 N 
ATOM      4  H5  UNL     1      -3.839  10.664   0.649  1.00  0.00     0.163 HD
ENDROOT
BRANCH   1   5
HETATM    5  C10 UNL     1      -1.513  11.432  -0.452  1.00  0.00     0.032 A 
HETATM    6  C9  UNL     1      -0.683  11.932   0.530  1.00  0.00     0.017 A 
HETATM    7  C8  UNL     1      -0.160  13.196   0.378  1.00  0.00     0.002 A 
HETATM    8  C7  UNL     1      -0.455  13.961  -0.744  1.00  0.00     0.014 A 
HETATM    9  C6  UNL     1      -1.281  13.483  -1.739  1.00  0.00    -0.008 A 
HETATM   10  C26 UNL     1      -1.797  12.201  -1.556  1.00  0.00     0.030 A 
BRANCH   9  11
HETATM   11  C5  UNL     1      -1.612  14.257  -2.923  1.00  0.00     0.045 A 
HETATM   12  N4  UNL     1      -0.931  15.319  -3.392  1.00  0.00    -0.341 N 
HETATM   13  C4  UNL     1      -1.503  15.795  -4.496  1.00  0.00     0.120 A 
ATOM     14  H4  UNL     1      -0.091  15.706  -2.962  1.00  0.00     0.167 HD
HETATM   15  N3  UNL     1      -1.192  16.817  -5.296  1.00  0.00    -0.338 N 
HETATM   16  C28 UNL     1      -2.617  15.014  -4.776  1.00  0.00     0.054 A 
HETATM   17  C3  UNL     1      -1.951  17.114  -6.392  1.00  0.00     0.183 A 
ATOM     18  H3  UNL     1      -0.374  17.387  -5.084  1.00  0.00     0.168 HD
HETATM   19  N2  UNL     1      -3.015  16.363  -6.653  1.00  0.00    -0.338 N 
HETATM   20  C2  UNL     1      -3.382  15.316  -5.883  1.00  0.00     0.115 A 
ATOM     21  H2  UNL     1      -3.581  16.586  -7.472  1.00  0.00     0.168 HD
HETATM   22  C27 UNL     1      -2.653  14.064  -3.774  1.00  0.00     0.049 A 
BRANCH  20  23
HETATM   23  N1  UNL     1      -4.521  14.527  -6.188  1.00  0.00    -0.380 N 
HETATM   24  C1  UNL     1      -4.345  13.361  -7.029  1.00  0.00     0.147 C 
ATOM     25  H1  UNL     1      -5.440  14.775  -5.825  1.00  0.00     0.160 HD
ENDBRANCH  20  23
ENDBRANCH   9  11
ENDBRANCH   1   5
BRANCH   3  26
HETATM   26  C12 UNL     1      -3.877   8.524   0.477  1.00  0.00     0.181 C 
BRANCH  26  27
HETATM   27  C13 UNL     1      -4.932   8.317  -0.586  1.00  0.00     0.073 C 
BRANCH  27  28
HETATM   28  C14 UNL     1      -4.530   7.148  -1.444  1.00  0.00    -0.056 A 
HETATM   29  C15 UNL     1      -4.558   5.890  -0.898  1.00  0.00     0.007 A 
HETATM   30  C16 UNL     1      -4.190   4.801  -1.654  1.00  0.00     0.001 A 
HETATM   31  C17 UNL     1      -3.788   4.940  -2.973  1.00  0.00     0.000 A 
HETATM   32  C18 UNL     1      -3.768   6.197  -3.499  1.00  0.00     0.001 A 
HETATM   33  C19 UNL     1      -4.133   7.310  -2.757  1.00  0.00     0.007 A 
ENDBRANCH  27  28
ENDBRANCH  26  27
BRANCH  26  34
HETATM   34  C20 UNL     1      -4.391   8.396   1.854  1.00  0.00     0.246 C 
HETATM   35  O2  UNL     1      -5.628   8.716   2.042  1.00  0.00    -0.271 OA
HETATM   36  N6  UNL     1      -3.665   7.971   2.918  1.00  0.00    -0.311 N 
HETATM   37  C21 UNL     1      -2.586   8.144   3.497  1.00  0.00     0.107 A 
ATOM     38  H6  UNL     1      -4.195   7.257   3.416  1.00  0.00     0.170 HD
HETATM   39  C22 UNL     1      -1.623   9.030   3.108  1.00  0.00     0.048 A 
HETATM   40  N7  UNL     1      -2.375   7.352   4.608  1.00  0.00    -0.352 N 
HETATM   41  C23 UNL     1      -0.428   9.132   3.837  1.00  0.00     0.005 A 
HETATM   42  C24 UNL     1      -0.261   8.324   4.936  1.00  0.00     0.017 A 
HETATM   43  C25 UNL     1      -1.258   7.436   5.304  1.00  0.00     0.089 A 
ATOM     44  H7  UNL     1      -3.096   6.691   4.896  1.00  0.00     0.166 HD
ENDBRANCH  26  34
ENDBRANCH   3  26
TORSDOF 7
ENDMDL
MODEL 5
REMARK VINA RESULT: -6.876816160      1.459      1.877
REMARK  7 active torsions:
REMARK  status: ('A' for Active; 'I' for Inactive)
REMARK    1  A    between atoms: N1_2  and  C2_4 
REMARK    2  A    between atoms: C5_13  and  C6_14 
REMARK    3  A    between atoms: C10_18  and  C11_19 
REMARK       I    between atoms: C11_19  and  N5_21 
REMARK    4  A    between atoms: N5_21  and  C12_23 
REMARK    5  A    between atoms: C12_23  and  C13_24 
REMARK    6  A    between atoms: C12_23  and  C20_31 
REMARK    7  A    between atoms: C13_24  and  C14_25 
REMARK       I    between atoms: C20_31  and  N6_33 
ROOT
HETATM    1  C11 UNL     1      -2.521   9.730  -1.482  1.00  0.00     0.252 C 
HETATM    2  O1  UNL     1      -1.815   8.766  -1.901  1.00  0.00    -0.268 OA
HETATM    3  N5  UNL     1      -3.694   9.414  -0.789  1.00  0.00    -0.343 N 
ATOM      4  H5  UNL     1      -4.275  10.177  -0.441  1.00  0.00     0.163 HD
ENDROOT
BRANCH   1   5
HETATM    5  C10 UNL     1      -2.106  11.109  -1.722  1.00  0.00     0.032 A 
HETATM    6  C9  UNL     1      -1.475  11.801  -0.708  1.00  0.00     0.017 A 
HETATM    7  C8  UNL     1      -1.081  13.100  -0.937  1.00  0.00     0.002 A 
HETATM    8  C7  UNL     1      -1.310  13.711  -2.164  1.00  0.00     0.014 A 
HETATM    9  C6  UNL     1      -1.937  13.040  -3.192  1.00  0.00    -0.008 A 
HETATM   10  C26 UNL     1      -2.325  11.727  -2.931  1.00  0.00     0.030 A 
BRANCH   9  11
HETATM   11  C5  UNL     1      -2.193  13.649  -4.486  1.00  0.00     0.045 A 
HETATM   12  N4  UNL     1      -2.585  14.918  -4.701  1.00  0.00    -0.341 N 
HETATM   13  C4  UNL     1      -2.729  15.152  -6.004  1.00  0.00     0.120 A 
ATOM     14  H4  UNL     1      -2.750  15.607  -3.967  1.00  0.00     0.167 HD
HETATM   15  N3  UNL     1      -3.095  16.241  -6.682  1.00  0.00    -0.338 N 
HETATM   16  C28 UNL     1      -2.418  13.984  -6.688  1.00  0.00     0.054 A 
HETATM   17  C3  UNL     1      -3.170  16.233  -8.046  1.00  0.00     0.183 A 
ATOM     18  H3  UNL     1      -3.323  17.095  -6.174  1.00  0.00     0.168 HD
HETATM   19  N2  UNL     1      -2.872  15.112  -8.694  1.00  0.00    -0.338 N 
HETATM   20  C2  UNL     1      -2.495  13.978  -8.065  1.00  0.00     0.115 A 
ATOM     21  H2  UNL     1      -2.930  15.107  -9.713  1.00  0.00     0.168 HD
HETATM   22  C27 UNL     1      -2.087  13.068  -5.709  1.00  0.00     0.049 A 
BRANCH  20  23
HETATM   23  N1  UNL     1      -2.177  12.797  -8.783  1.00  0.00    -0.380 N 
HETATM   24  C1  UNL     1      -2.221  12.837 -10.230  1.00  0.00     0.147 C 
ATOM     25  H1  UNL     1      -1.922  11.940  -8.292  1.00  0.00     0.160 HD
ENDBRANCH  20  23
ENDBRANCH   9  11
ENDBRANCH   1   5
BRANCH   3  26
HETATM   26  C12 UNL     1      -4.125   8.037  -0.541  1.00  0.00     0.181 C 
BRANCH  26  27
HETATM   27  C13 UNL     1      -5.142   7.657  -1.593  1.00  0.00     0.073 C 
BRANCH  27  28
HETATM   28  C14 UNL     1      -4.645   6.441  -2.328  1.00  0.00    -0.056 A 
HETATM   29  C15 UNL     1      -4.787   5.211  -1.738  1.00  0.00     0.007 A 
HETATM   30  C16 UNL     1      -4.337   4.081  -2.381  1.00  0.00     0.001 A 
HETATM   31  C17 UNL     1      -3.736   4.151  -3.628  1.00  0.00     0.000 A 
HETATM   32  C18 UNL     1      -3.605   5.381  -4.200  1.00  0.00     0.001 A 
HETATM   33  C19 UNL     1      -4.050   6.534  -3.571  1.00  0.00     0.007 A 
ENDBRANCH  27  28
ENDBRANCH  26  27
BRANCH  26  34
HETATM   34  C20 UNL     1      -4.638   7.943   0.839  1.00  0.00     0.246 C 
HETATM   35  O2  UNL     1      -4.999   9.049   1.399  1.00  0.00    -0.271 OA
HETATM   36  N6  UNL     1      -4.754   6.792   1.548  1.00  0.00    -0.311 N 
HETATM   37  C21 UNL     1      -4.128   5.775   1.871  1.00  0.00     0.107 A 
ATOM     38  H6  UNL     1      -5.686   6.751   1.960  1.00  0.00     0.170 HD
HETATM   39  C22 UNL     1      -2.845   5.497   1.500  1.00  0.00     0.048 A 
HETATM   40  N7  UNL     1      -4.822   4.876   2.656  1.00  0.00    -0.352 N 
HETATM   41  C23 UNL     1      -2.238   4.301   1.916  1.00  0.00     0.005 A 
HETATM   42  C24 UNL     1      -2.967   3.435   2.696  1.00  0.00     0.017 A 
HETATM   43  C25 UNL     1      -4.267   3.748   3.055  1.00  0.00     0.089 A 
ATOM     44  H7  UNL     1      -5.781   5.087   2.931  1.00  0.00     0.166 HD
ENDBRANCH  26  34
ENDBRANCH   3  26
TORSDOF 7
ENDMDL
