MODEL 1
REMARK VINA RESULT: -7.971628543      0.000      0.000
REMARK  3 active torsions:
REMARK  status: ('A' for Active; 'I' for Inactive)
REMARK    1  A    between atoms: N1_1  and  N2_4 
REMARK    2  A    between atoms: N2_4  and  N3_6 
REMARK    3  A    between atoms: C1_8  and  C2_9 
REMARK       I    between atoms: C2_9  and  N4_11 
ROOT
HETATM    1  C2  UNL     1      12.856   3.584 -33.161  1.00  0.00     0.263 C 
HETATM    2  O1  UNL     1      12.445   4.726 -33.528  1.00  0.00    -0.267 OA
HETATM    3  N4  UNL     1      13.895   2.932 -33.834  1.00  0.00    -0.319 N 
ATOM      4  H4  UNL     1      14.423   2.242 -33.299  1.00  0.00     0.169 HD
HETATM    5  C3  UNL     1      14.251   3.109 -35.048  1.00  0.00     0.065 C 
HETATM    6  S1  UNL     1      13.299   4.323 -35.939  1.00  0.00    -0.110 SA
HETATM    7  C4  UNL     1      13.235   3.509 -37.585  1.00  0.00     0.058 C 
HETATM    8  C5  UNL     1      12.459   4.288 -38.568  1.00  0.00     0.016 C 
HETATM    9  C6  UNL     1      12.469   3.434 -39.844  1.00  0.00     0.001 C 
HETATM   10  C7  UNL     1      13.865   3.435 -40.348  1.00  0.00     0.000 C 
HETATM   11  C8  UNL     1      14.913   3.025 -39.396  1.00  0.00     0.006 C 
HETATM   12  C9  UNL     1      14.668   3.317 -37.955  1.00  0.00     0.006 C 
HETATM   13  C10 UNL     1      15.367   2.272 -37.133  1.00  0.00     0.022 C 
HETATM   14  C11 UNL     1      16.775   2.165 -37.707  1.00  0.00     0.093 C 
HETATM   15  S2  UNL     1      18.036   1.773 -36.506  1.00  0.00    -0.086 SA
HETATM   16  S3  UNL     1      17.356   0.034 -35.427  1.00  0.00    -0.024 SA
HETATM   17  S4  UNL     1      15.372   0.714 -34.932  1.00  0.00    -0.074 SA
HETATM   18  C12 UNL     1      15.332   2.403 -35.680  1.00  0.00     0.121 C 
ENDROOT
BRANCH   1  19
HETATM   19  C1  UNL     1      12.234   2.946 -32.022  1.00  0.00     0.182 C 
HETATM   20  N3  UNL     1      11.355   3.558 -31.325  1.00  0.00    -0.293 N 
ATOM     21  H3  UNL     1      11.080   4.510 -31.566  1.00  0.00     0.187 HD
BRANCH  20  22
HETATM   22  N2  UNL     1      10.775   2.914 -30.235  1.00  0.00    -0.250 N 
ATOM     23  H2  UNL     1      11.330   2.731 -29.398  1.00  0.00     0.207 HD
BRANCH  22  24
HETATM   24  N1  UNL     1       9.542   2.550 -30.280  1.00  0.00    -0.331 N 
ATOM     25  H12 UNL     1       9.147   2.252 -31.172  1.00  0.00     0.178 HD
ATOM     26  H11 UNL     1       8.973   2.561 -29.433  1.00  0.00     0.178 HD
ENDBRANCH  22  24
ENDBRANCH  20  22
ENDBRANCH   1  19
TORSDOF 3
ENDMDL
MODEL 2
REMARK VINA RESULT: -7.648074581      1.301      1.651
REMARK  3 active torsions:
REMARK  status: ('A' for Active; 'I' for Inactive)
REMARK    1  A    between atoms: N1_1  and  N2_4 
REMARK    2  A    between atoms: N2_4  and  N3_6 
REMARK    3  A    between atoms: C1_8  and  C2_9 
REMARK       I    between atoms: C2_9  and  N4_11 
ROOT
HETATM    1  C2  UNL     1      12.808   3.470 -33.413  1.00  0.00     0.263 C 
HETATM    2  O1  UNL     1      12.338   4.367 -34.175  1.00  0.00    -0.267 OA
HETATM    3  N4  UNL     1      14.115   2.995 -33.564  1.00  0.00    -0.319 N 
ATOM      4  H4  UNL     1      14.553   2.590 -32.737  1.00  0.00     0.169 HD
HETATM    5  C3  UNL     1      14.819   3.017 -34.631  1.00  0.00     0.065 C 
HETATM    6  S1  UNL     1      14.011   3.736 -36.048  1.00  0.00    -0.110 SA
HETATM    7  C4  UNL     1      14.658   2.625 -37.360  1.00  0.00     0.058 C 
HETATM    8  C5  UNL     1      14.126   2.961 -38.694  1.00  0.00     0.016 C 
HETATM    9  C6  UNL     1      14.723   1.905 -39.635  1.00  0.00     0.001 C 
HETATM   10  C7  UNL     1      16.181   2.175 -39.709  1.00  0.00     0.000 C 
HETATM   11  C8  UNL     1      16.906   2.252 -38.427  1.00  0.00     0.006 C 
HETATM   12  C9  UNL     1      16.141   2.748 -37.248  1.00  0.00     0.006 C 
HETATM   13  C10 UNL     1      16.706   2.108 -36.012  1.00  0.00     0.022 C 
HETATM   14  C11 UNL     1      18.218   2.265 -36.117  1.00  0.00     0.093 C 
HETATM   15  S2  UNL     1      19.052   2.465 -34.552  1.00  0.00    -0.086 SA
HETATM   16  S3  UNL     1      18.388   0.857 -33.277  1.00  0.00    -0.024 SA
HETATM   17  S4  UNL     1      16.263   1.074 -33.561  1.00  0.00    -0.074 SA
HETATM   18  C12 UNL     1      16.161   2.510 -34.719  1.00  0.00     0.121 C 
ENDROOT
BRANCH   1  19
HETATM   19  C1  UNL     1      11.971   2.929 -32.365  1.00  0.00     0.182 C 
HETATM   20  N3  UNL     1      11.548   3.670 -31.414  1.00  0.00    -0.293 N 
ATOM     21  H3  UNL     1      11.798   4.658 -31.382  1.00  0.00     0.187 HD
BRANCH  20  22
HETATM   22  N2  UNL     1      10.744   3.117 -30.420  1.00  0.00    -0.250 N 
ATOM     23  H2  UNL     1      11.123   2.962 -29.487  1.00  0.00     0.207 HD
BRANCH  22  24
HETATM   24  N1  UNL     1       9.523   2.802 -30.678  1.00  0.00    -0.331 N 
ATOM     25  H12 UNL     1       9.266   2.567 -31.637  1.00  0.00     0.178 HD
ATOM     26  H11 UNL     1       8.829   2.789 -29.931  1.00  0.00     0.178 HD
ENDBRANCH  22  24
ENDBRANCH  20  22
ENDBRANCH   1  19
TORSDOF 3
ENDMDL
MODEL 3
REMARK VINA RESULT: -7.594147369      4.697      6.592
REMARK  3 active torsions:
REMARK  status: ('A' for Active; 'I' for Inactive)
REMARK    1  A    between atoms: N1_1  and  N2_4 
REMARK    2  A    between atoms: N2_4  and  N3_6 
REMARK    3  A    between atoms: C1_8  and  C2_9 
REMARK       I    between atoms: C2_9  and  N4_11 
ROOT
HETATM    1  C2  UNL     1      17.883   0.473 -37.109  1.00  0.00     0.263 C 
HETATM    2  O1  UNL     1      18.166   1.217 -36.122  1.00  0.00    -0.267 OA
HETATM    3  N4  UNL     1      17.110   0.942 -38.177  1.00  0.00    -0.319 N 
ATOM      4  H4  UNL     1      17.234   0.469 -39.072  1.00  0.00     0.169 HD
HETATM    5  C3  UNL     1      16.265   1.900 -38.148  1.00  0.00     0.065 C 
HETATM    6  S1  UNL     1      16.086   2.695 -36.563  1.00  0.00    -0.110 SA
HETATM    7  C4  UNL     1      14.276   3.011 -36.586  1.00  0.00     0.058 C 
HETATM    8  C5  UNL     1      13.802   3.657 -35.349  1.00  0.00     0.016 C 
HETATM    9  C6  UNL     1      12.283   3.785 -35.527  1.00  0.00     0.001 C 
HETATM   10  C7  UNL     1      12.061   4.781 -36.605  1.00  0.00     0.000 C 
HETATM   11  C8  UNL     1      12.753   4.536 -37.884  1.00  0.00     0.006 C 
HETATM   12  C9  UNL     1      14.061   3.824 -37.819  1.00  0.00     0.006 C 
HETATM   13  C10 UNL     1      14.244   3.048 -39.091  1.00  0.00     0.022 C 
HETATM   14  C11 UNL     1      13.907   4.015 -40.220  1.00  0.00     0.093 C 
HETATM   15  S2  UNL     1      14.841   3.759 -41.719  1.00  0.00    -0.086 SA
HETATM   16  S3  UNL     1      14.657   1.670 -42.223  1.00  0.00    -0.024 SA
HETATM   17  S4  UNL     1      15.172   0.827 -40.307  1.00  0.00    -0.074 SA
HETATM   18  C12 UNL     1      15.500   2.332 -39.287  1.00  0.00     0.121 C 
ENDROOT
BRANCH   1  19
HETATM   19  C1  UNL     1      18.373  -0.887 -37.127  1.00  0.00     0.182 C 
HETATM   20  N3  UNL     1      17.686  -1.824 -37.659  1.00  0.00    -0.293 N 
ATOM     21  H3  UNL     1      16.779  -1.623 -38.079  1.00  0.00     0.187 HD
BRANCH  20  22
HETATM   22  N2  UNL     1      18.187  -3.124 -37.660  1.00  0.00    -0.250 N 
ATOM     23  H2  UNL     1      18.316  -3.620 -36.778  1.00  0.00     0.207 HD
BRANCH  22  24
HETATM   24  N1  UNL     1      18.486  -3.701 -38.770  1.00  0.00    -0.331 N 
ATOM     25  H12 UNL     1      18.062  -3.360 -39.634  1.00  0.00     0.178 HD
ATOM     26  H11 UNL     1      19.138  -4.486 -38.781  1.00  0.00     0.178 HD
ENDBRANCH  22  24
ENDBRANCH  20  22
ENDBRANCH   1  19
TORSDOF 3
ENDMDL
MODEL 4
REMARK VINA RESULT: -7.592583251      2.239      4.196
REMARK  3 active torsions:
REMARK  status: ('A' for Active; 'I' for Inactive)
REMARK    1  A    between atoms: N1_1  and  N2_4 
REMARK    2  A    between atoms: N2_4  and  N3_6 
REMARK    3  A    between atoms: C1_8  and  C2_9 
REMARK       I    between atoms: C2_9  and  N4_11 
ROOT
HETATM    1  C2  UNL     1      13.445   2.282 -32.832  1.00  0.00     0.263 C 
HETATM    2  O1  UNL     1      14.139   1.413 -32.223  1.00  0.00    -0.267 OA
HETATM    3  N4  UNL     1      13.628   2.536 -34.196  1.00  0.00    -0.319 N 
ATOM      4  H4  UNL     1      12.832   2.931 -34.697  1.00  0.00     0.169 HD
HETATM    5  C3  UNL     1      14.687   2.326 -34.879  1.00  0.00     0.065 C 
HETATM    6  S1  UNL     1      16.048   1.634 -33.959  1.00  0.00    -0.110 SA
HETATM    7  C4  UNL     1      17.439   2.529 -34.759  1.00  0.00     0.058 C 
HETATM    8  C5  UNL     1      18.745   2.180 -34.171  1.00  0.00     0.016 C 
HETATM    9  C6  UNL     1      19.761   3.056 -34.916  1.00  0.00     0.001 C 
HETATM   10  C7  UNL     1      19.809   2.559 -36.315  1.00  0.00     0.000 C 
HETATM   11  C8  UNL     1      18.522   2.469 -37.029  1.00  0.00     0.006 C 
HETATM   12  C9  UNL     1      17.311   2.188 -36.206  1.00  0.00     0.006 C 
HETATM   13  C10 UNL     1      16.126   2.824 -36.872  1.00  0.00     0.022 C 
HETATM   14  C11 UNL     1      16.213   2.428 -38.342  1.00  0.00     0.093 C 
HETATM   15  S2  UNL     1      14.634   2.221 -39.147  1.00  0.00    -0.086 SA
HETATM   16  S3  UNL     1      13.488   4.004 -38.750  1.00  0.00    -0.024 SA
HETATM   17  S4  UNL     1      13.762   4.097 -36.614  1.00  0.00    -0.074 SA
HETATM   18  C12 UNL     1      14.808   2.611 -36.283  1.00  0.00     0.121 C 
ENDROOT
BRANCH   1  19
HETATM   19  C1  UNL     1      12.445   3.024 -32.097  1.00  0.00     0.182 C 
HETATM   20  N3  UNL     1      12.080   2.655 -30.929  1.00  0.00    -0.293 N 
ATOM     21  H3  UNL     1      12.493   1.828 -30.499  1.00  0.00     0.187 HD
BRANCH  20  22
HETATM   22  N2  UNL     1      11.114   3.392 -30.249  1.00  0.00    -0.250 N 
ATOM     23  H2  UNL     1      11.369   4.271 -29.798  1.00  0.00     0.207 HD
BRANCH  22  24
HETATM   24  N1  UNL     1       9.902   2.967 -30.187  1.00  0.00    -0.331 N 
ATOM     25  H12 UNL     1       9.366   2.876 -31.051  1.00  0.00     0.178 HD
ATOM     26  H11 UNL     1       9.488   2.726 -29.287  1.00  0.00     0.178 HD
ENDBRANCH  22  24
ENDBRANCH  20  22
ENDBRANCH   1  19
TORSDOF 3
ENDMDL
MODEL 5
REMARK VINA RESULT: -7.581492378      3.239      3.741
REMARK  3 active torsions:
REMARK  status: ('A' for Active; 'I' for Inactive)
REMARK    1  A    between atoms: N1_1  and  N2_4 
REMARK    2  A    between atoms: N2_4  and  N3_6 
REMARK    3  A    between atoms: C1_8  and  C2_9 
REMARK       I    between atoms: C2_9  and  N4_11 
ROOT
HETATM    1  C2  UNL     1      14.202   0.967 -30.903  1.00  0.00     0.263 C 
HETATM    2  O1  UNL     1      13.432   1.913 -30.555  1.00  0.00    -0.267 OA
HETATM    3  N4  UNL     1      15.158   1.138 -31.910  1.00  0.00    -0.319 N 
ATOM      4  H4  UNL     1      15.966   0.516 -31.882  1.00  0.00     0.169 HD
HETATM    5  C3  UNL     1      15.125   1.991 -32.861  1.00  0.00     0.065 C 
HETATM    6  S1  UNL     1      13.695   3.054 -32.865  1.00  0.00    -0.110 SA
HETATM    7  C4  UNL     1      13.410   3.171 -34.676  1.00  0.00     0.058 C 
HETATM    8  C5  UNL     1      12.231   3.992 -35.009  1.00  0.00     0.016 C 
HETATM    9  C6  UNL     1      12.122   3.924 -36.539  1.00  0.00     0.001 C 
HETATM   10  C7  UNL     1      13.288   4.665 -37.083  1.00  0.00     0.000 C 
HETATM   11  C8  UNL     1      14.619   4.250 -36.601  1.00  0.00     0.006 C 
HETATM   12  C9  UNL     1      14.695   3.704 -35.217  1.00  0.00     0.006 C 
HETATM   13  C10 UNL     1      15.828   2.719 -35.156  1.00  0.00     0.022 C 
HETATM   14  C11 UNL     1      17.014   3.410 -35.818  1.00  0.00     0.093 C 
HETATM   15  S2  UNL     1      18.603   2.966 -35.137  1.00  0.00    -0.086 SA
HETATM   16  S3  UNL     1      18.698   0.812 -35.116  1.00  0.00    -0.024 SA
HETATM   17  S4  UNL     1      16.808   0.413 -34.159  1.00  0.00    -0.074 SA
HETATM   18  C12 UNL     1      16.145   2.113 -33.867  1.00  0.00     0.121 C 
ENDROOT
BRANCH   1  19
HETATM   19  C1  UNL     1      14.085  -0.313 -30.240  1.00  0.00     0.182 C 
HETATM   20  N3  UNL     1      14.776  -0.578 -29.199  1.00  0.00    -0.293 N 
ATOM     21  H3  UNL     1      15.421   0.114 -28.820  1.00  0.00     0.187 HD
BRANCH  20  22
HETATM   22  N2  UNL     1      14.640  -1.821 -28.585  1.00  0.00    -0.250 N 
ATOM     23  H2  UNL     1      14.130  -2.568 -29.056  1.00  0.00     0.207 HD
BRANCH  22  24
HETATM   24  N1  UNL     1      15.155  -2.029 -27.425  1.00  0.00    -0.331 N 
ATOM     25  H12 UNL     1      16.054  -2.509 -27.362  1.00  0.00     0.178 HD
ATOM     26  H11 UNL     1      14.669  -1.716 -26.584  1.00  0.00     0.178 HD
ENDBRANCH  22  24
ENDBRANCH  20  22
ENDBRANCH   1  19
TORSDOF 3
ENDMDL
