MODEL 1
REMARK VINA RESULT: -8.101606468      0.000      0.000
REMARK  8 active torsions:
REMARK  status: ('A' for Active; 'I' for Inactive)
REMARK    1  A    between atoms: S1_2  and  C2_3 
REMARK    2  A    between atoms: C2_3  and  C3_5 
REMARK       I    between atoms: C3_5  and  N1_7 
REMARK    3  A    between atoms: N1_7  and  C4_9 
REMARK    4  A    between atoms: C4_9  and  C5_10 
REMARK    5  A    between atoms: C8_13  and  C9_14 
REMARK       I    between atoms: C9_14  and  N2_16 
REMARK    6  A    between atoms: C13_20  and  N3_21 
REMARK    7  A    between atoms: N3_21  and  S2_23 
REMARK    8  A    between atoms: S2_23  and  C15_26 
ROOT
HETATM    1  C5  UNL     1      60.839  48.422 141.267  1.00  0.00     0.022 C 
HETATM    2  C6  UNL     1      60.770  47.370 140.275  1.00  0.00     0.009 C 
HETATM    3  C7  UNL     1      59.367  46.967 139.863  1.00  0.00     0.014 C 
HETATM    4  C8  UNL     1      58.787  48.225 139.211  1.00  0.00     0.079 C 
HETATM    5  C12 UNL     1      58.636  49.202 140.359  1.00  0.00     0.035 C 
HETATM    6  C13 UNL     1      59.992  49.648 140.842  1.00  0.00     0.080 C 
ENDROOT
BRANCH   6   7
HETATM    7  N3  UNL     1      59.877  50.624 141.868  1.00  0.00    -0.205 NA
HETATM    8  C14 UNL     1      58.536  50.964 142.243  1.00  0.00     0.130 C 
BRANCH   7   9
HETATM    9  S2  UNL     1      60.714  52.048 141.488  1.00  0.00     0.248 S 
HETATM   10  O4  UNL     1      61.413  52.620 142.719  1.00  0.00    -0.206 OA
HETATM   11  O5  UNL     1      61.863  51.771 140.522  1.00  0.00    -0.206 OA
BRANCH   9  12
HETATM   12  C15 UNL     1      59.789  53.332 140.810  1.00  0.00     0.130 A 
HETATM   13  C16 UNL     1      59.220  54.466 141.334  1.00  0.00     0.054 A 
HETATM   14  C17 UNL     1      59.340  54.882 142.744  1.00  0.00     0.072 C 
HETATM   15  N4  UNL     1      58.597  55.062 140.312  1.00  0.00    -0.264 N 
HETATM   16  O6  UNL     1      58.737  54.396 139.221  1.00  0.00    -0.241 OA
ATOM     17  H4  UNL     1      58.076  55.936 140.388  1.00  0.00     0.194 HD
HETATM   18  C18 UNL     1      59.449  53.342 139.467  1.00  0.00     0.097 A 
HETATM   19  C19 UNL     1      59.813  52.330 138.415  1.00  0.00     0.081 C 
ENDBRANCH   9  12
ENDBRANCH   7   9
ENDBRANCH   6   7
BRANCH   1  20
HETATM   20  C4  UNL     1      60.608  48.099 142.679  1.00  0.00     0.129 C 
BRANCH  20  21
HETATM   21  N1  UNL     1      61.534  48.525 143.655  1.00  0.00    -0.353 N 
HETATM   22  C3  UNL     1      62.744  49.237 143.556  1.00  0.00     0.298 C 
HETATM   23  O2  UNL     1      63.249  49.615 142.475  1.00  0.00    -0.264 OA
ATOM     24  H1  UNL     1      61.279  48.269 144.608  1.00  0.00     0.162 HD
BRANCH  22  25
HETATM   25  C2  UNL     1      63.502  49.582 144.795  1.00  0.00     0.275 C 
HETATM   26  O1  UNL     1      63.566  48.712 145.691  1.00  0.00    -0.275 OA
BRANCH  25  27
HETATM   27  S1  UNL     1      64.245  51.178 144.899  1.00  0.00    -0.087 SA
HETATM   28  C1  UNL     1      64.711  51.490 146.633  1.00  0.00     0.099 C 
ENDBRANCH  25  27
ENDBRANCH  22  25
ENDBRANCH  20  21
ENDBRANCH   1  20
BRANCH   4  29
HETATM   29  C9  UNL     1      57.504  47.995 138.543  1.00  0.00     0.223 C 
HETATM   30  O3  UNL     1      56.659  47.241 139.098  1.00  0.00    -0.273 OA
HETATM   31  N2  UNL     1      57.184  48.589 137.301  1.00  0.00    -0.360 N 
HETATM   32  C10 UNL     1      58.045  49.479 136.556  1.00  0.00     0.152 C 
HETATM   33  C11 UNL     1      55.883  48.310 136.671  1.00  0.00     0.152 C 
ENDBRANCH   4  29
TORSDOF 8
ENDMDL
MODEL 2
REMARK VINA RESULT: -8.034429636      0.565      1.480
REMARK  8 active torsions:
REMARK  status: ('A' for Active; 'I' for Inactive)
REMARK    1  A    between atoms: S1_2  and  C2_3 
REMARK    2  A    between atoms: C2_3  and  C3_5 
REMARK       I    between atoms: C3_5  and  N1_7 
REMARK    3  A    between atoms: N1_7  and  C4_9 
REMARK    4  A    between atoms: C4_9  and  C5_10 
REMARK    5  A    between atoms: C8_13  and  C9_14 
REMARK       I    between atoms: C9_14  and  N2_16 
REMARK    6  A    between atoms: C13_20  and  N3_21 
REMARK    7  A    between atoms: N3_21  and  S2_23 
REMARK    8  A    between atoms: S2_23  and  C15_26 
ROOT
HETATM    1  C5  UNL     1      60.885  48.522 141.243  1.00  0.00     0.022 C 
HETATM    2  C6  UNL     1      60.869  47.484 140.235  1.00  0.00     0.009 C 
HETATM    3  C7  UNL     1      59.488  47.025 139.807  1.00  0.00     0.014 C 
HETATM    4  C8  UNL     1      58.856  48.266 139.171  1.00  0.00     0.079 C 
HETATM    5  C12 UNL     1      58.654  49.216 140.332  1.00  0.00     0.035 C 
HETATM    6  C13 UNL     1      59.986  49.716 140.832  1.00  0.00     0.080 C 
ENDROOT
BRANCH   6   7
HETATM    7  N3  UNL     1      59.820  50.669 141.871  1.00  0.00    -0.205 NA
HETATM    8  C14 UNL     1      58.472  50.864 142.316  1.00  0.00     0.130 C 
BRANCH   7   9
HETATM    9  S2  UNL     1      60.481  52.176 141.463  1.00  0.00     0.248 S 
HETATM   10  O4  UNL     1      60.580  53.083 142.688  1.00  0.00    -0.206 OA
HETATM   11  O5  UNL     1      61.931  52.036 141.006  1.00  0.00    -0.206 OA
BRANCH   9  12
HETATM   12  C15 UNL     1      59.659  53.080 140.251  1.00  0.00     0.130 A 
HETATM   13  C16 UNL     1      59.637  53.021 138.880  1.00  0.00     0.054 A 
HETATM   14  C17 UNL     1      60.368  52.022 138.078  1.00  0.00     0.072 C 
HETATM   15  N4  UNL     1      58.826  54.011 138.490  1.00  0.00    -0.264 N 
HETATM   16  O6  UNL     1      58.357  54.660 139.495  1.00  0.00    -0.241 OA
ATOM     17  H4  UNL     1      58.608  54.223 137.516  1.00  0.00     0.194 HD
HETATM   18  C18 UNL     1      58.829  54.139 140.583  1.00  0.00     0.097 A 
HETATM   19  C19 UNL     1      58.488  54.649 141.956  1.00  0.00     0.081 C 
ENDBRANCH   9  12
ENDBRANCH   7   9
ENDBRANCH   6   7
BRANCH   1  20
HETATM   20  C4  UNL     1      60.660  48.168 142.649  1.00  0.00     0.129 C 
BRANCH  20  21
HETATM   21  N1  UNL     1      61.569  48.605 143.635  1.00  0.00    -0.353 N 
HETATM   22  C3  UNL     1      62.805  49.273 143.545  1.00  0.00     0.298 C 
HETATM   23  O2  UNL     1      63.356  49.587 142.466  1.00  0.00    -0.264 OA
ATOM     24  H1  UNL     1      61.277  48.399 144.590  1.00  0.00     0.162 HD
BRANCH  22  25
HETATM   25  C2  UNL     1      63.537  49.646 144.792  1.00  0.00     0.275 C 
HETATM   26  O1  UNL     1      63.599  48.789 145.700  1.00  0.00    -0.275 OA
BRANCH  25  27
HETATM   27  S1  UNL     1      64.251  51.255 144.888  1.00  0.00    -0.087 SA
HETATM   28  C1  UNL     1      64.738  51.572 146.615  1.00  0.00     0.099 C 
ENDBRANCH  25  27
ENDBRANCH  22  25
ENDBRANCH  20  21
ENDBRANCH   1  20
BRANCH   4  29
HETATM   29  C9  UNL     1      57.588  47.988 138.491  1.00  0.00     0.223 C 
HETATM   30  O3  UNL     1      56.764  47.208 139.041  1.00  0.00    -0.273 OA
HETATM   31  N2  UNL     1      57.261  48.565 137.242  1.00  0.00    -0.360 N 
HETATM   32  C10 UNL     1      58.098  49.480 136.502  1.00  0.00     0.152 C 
HETATM   33  C11 UNL     1      55.977  48.239 136.600  1.00  0.00     0.152 C 
ENDBRANCH   4  29
TORSDOF 8
ENDMDL
MODEL 3
REMARK VINA RESULT: -7.710405896      2.593      6.972
REMARK  8 active torsions:
REMARK  status: ('A' for Active; 'I' for Inactive)
REMARK    1  A    between atoms: S1_2  and  C2_3 
REMARK    2  A    between atoms: C2_3  and  C3_5 
REMARK       I    between atoms: C3_5  and  N1_7 
REMARK    3  A    between atoms: N1_7  and  C4_9 
REMARK    4  A    between atoms: C4_9  and  C5_10 
REMARK    5  A    between atoms: C8_13  and  C9_14 
REMARK       I    between atoms: C9_14  and  N2_16 
REMARK    6  A    between atoms: C13_20  and  N3_21 
REMARK    7  A    between atoms: N3_21  and  S2_23 
REMARK    8  A    between atoms: S2_23  and  C15_26 
ROOT
HETATM    1  C5  UNL     1      60.869  50.782 140.770  1.00  0.00     0.022 C 
HETATM    2  C6  UNL     1      62.070  51.507 141.126  1.00  0.00     0.009 C 
HETATM    3  C7  UNL     1      62.462  51.421 142.590  1.00  0.00     0.014 C 
HETATM    4  C8  UNL     1      62.760  49.936 142.815  1.00  0.00     0.079 C 
HETATM    5  C12 UNL     1      61.410  49.263 142.690  1.00  0.00     0.035 C 
HETATM    6  C13 UNL     1      60.935  49.313 141.260  1.00  0.00     0.080 C 
ENDROOT
BRANCH   6   7
HETATM    7  N3  UNL     1      59.706  48.620 141.102  1.00  0.00    -0.205 NA
HETATM    8  C14 UNL     1      59.360  47.732 142.173  1.00  0.00     0.130 C 
BRANCH   7   9
HETATM    9  S2  UNL     1      59.643  47.762 139.642  1.00  0.00     0.248 S 
HETATM   10  O4  UNL     1      61.031  47.274 139.230  1.00  0.00    -0.206 OA
HETATM   11  O5  UNL     1      58.843  46.471 139.795  1.00  0.00    -0.206 OA
BRANCH   9  12
HETATM   12  C15 UNL     1      58.995  48.594 138.282  1.00  0.00     0.130 A 
HETATM   13  C16 UNL     1      59.542  49.408 137.322  1.00  0.00     0.054 A 
HETATM   14  C17 UNL     1      60.978  49.735 137.229  1.00  0.00     0.072 C 
HETATM   15  N4  UNL     1      58.523  49.780 136.541  1.00  0.00    -0.264 N 
HETATM   16  O6  UNL     1      57.413  49.268 136.937  1.00  0.00    -0.241 OA
ATOM     17  H4  UNL     1      58.615  50.394 135.731  1.00  0.00     0.194 HD
HETATM   18  C18 UNL     1      57.642  48.542 137.986  1.00  0.00     0.097 A 
HETATM   19  C19 UNL     1      56.564  47.789 138.717  1.00  0.00     0.081 C 
ENDBRANCH   9  12
ENDBRANCH   7   9
ENDBRANCH   6   7
BRANCH   1  20
HETATM   20  C4  UNL     1      59.557  51.366 141.069  1.00  0.00     0.129 C 
BRANCH  20  21
HETATM   21  N1  UNL     1      59.370  52.760 140.959  1.00  0.00    -0.353 N 
HETATM   22  C3  UNL     1      58.724  53.691 141.795  1.00  0.00     0.298 C 
HETATM   23  O2  UNL     1      58.133  53.389 142.857  1.00  0.00    -0.264 OA
ATOM     24  H1  UNL     1      59.777  53.169 140.119  1.00  0.00     0.162 HD
BRANCH  22  25
HETATM   25  C2  UNL     1      58.722  55.138 141.427  1.00  0.00     0.275 C 
HETATM   26  O1  UNL     1      59.604  55.531 140.633  1.00  0.00    -0.275 OA
BRANCH  25  27
HETATM   27  S1  UNL     1      57.484  56.175 142.135  1.00  0.00    -0.087 SA
HETATM   28  C1  UNL     1      56.622  57.052 140.791  1.00  0.00     0.099 C 
ENDBRANCH  25  27
ENDBRANCH  22  25
ENDBRANCH  20  21
ENDBRANCH   1  20
BRANCH   4  29
HETATM   29  C9  UNL     1      63.369  49.658 144.118  1.00  0.00     0.223 C 
HETATM   30  O3  UNL     1      63.316  48.482 144.572  1.00  0.00    -0.273 OA
HETATM   31  N2  UNL     1      64.011  50.660 144.880  1.00  0.00    -0.360 N 
HETATM   32  C10 UNL     1      64.157  52.042 144.484  1.00  0.00     0.152 C 
HETATM   33  C11 UNL     1      64.594  50.324 146.189  1.00  0.00     0.152 C 
ENDBRANCH   4  29
TORSDOF 8
ENDMDL
MODEL 4
REMARK VINA RESULT: -7.698058001      2.568      6.968
REMARK  8 active torsions:
REMARK  status: ('A' for Active; 'I' for Inactive)
REMARK    1  A    between atoms: S1_2  and  C2_3 
REMARK    2  A    between atoms: C2_3  and  C3_5 
REMARK       I    between atoms: C3_5  and  N1_7 
REMARK    3  A    between atoms: N1_7  and  C4_9 
REMARK    4  A    between atoms: C4_9  and  C5_10 
REMARK    5  A    between atoms: C8_13  and  C9_14 
REMARK       I    between atoms: C9_14  and  N2_16 
REMARK    6  A    between atoms: C13_20  and  N3_21 
REMARK    7  A    between atoms: N3_21  and  S2_23 
REMARK    8  A    between atoms: S2_23  and  C15_26 
ROOT
HETATM    1  C5  UNL     1      60.860  50.770 140.757  1.00  0.00     0.022 C 
HETATM    2  C6  UNL     1      62.064  51.493 141.108  1.00  0.00     0.009 C 
HETATM    3  C7  UNL     1      62.457  51.414 142.571  1.00  0.00     0.014 C 
HETATM    4  C8  UNL     1      62.751  49.930 142.805  1.00  0.00     0.079 C 
HETATM    5  C12 UNL     1      61.399  49.260 142.684  1.00  0.00     0.035 C 
HETATM    6  C13 UNL     1      60.923  49.304 141.255  1.00  0.00     0.080 C 
ENDROOT
BRANCH   6   7
HETATM    7  N3  UNL     1      59.692  48.613 141.101  1.00  0.00    -0.205 NA
HETATM    8  C14 UNL     1      59.339  47.740 142.182  1.00  0.00     0.130 C 
BRANCH   7   9
HETATM    9  S2  UNL     1      59.631  47.736 139.652  1.00  0.00     0.248 S 
HETATM   10  O4  UNL     1      61.035  47.430 139.134  1.00  0.00    -0.206 OA
HETATM   11  O5  UNL     1      59.023  46.353 139.870  1.00  0.00    -0.206 OA
BRANCH   9  12
HETATM   12  C15 UNL     1      58.775  48.458 138.346  1.00  0.00     0.130 A 
HETATM   13  C16 UNL     1      57.469  48.407 137.927  1.00  0.00     0.054 A 
HETATM   14  C17 UNL     1      56.401  47.666 138.625  1.00  0.00     0.072 C 
HETATM   15  N4  UNL     1      57.413  49.160 136.823  1.00  0.00    -0.264 N 
HETATM   16  O6  UNL     1      58.561  49.662 136.537  1.00  0.00    -0.241 OA
ATOM     17  H4  UNL     1      56.566  49.316 136.278  1.00  0.00     0.194 HD
HETATM   18  C18 UNL     1      59.419  49.269 137.425  1.00  0.00     0.097 A 
HETATM   19  C19 UNL     1      60.870  49.668 137.401  1.00  0.00     0.081 C 
ENDBRANCH   9  12
ENDBRANCH   7   9
ENDBRANCH   6   7
BRANCH   1  20
HETATM   20  C4  UNL     1      59.550  51.359 141.054  1.00  0.00     0.129 C 
BRANCH  20  21
HETATM   21  N1  UNL     1      59.368  52.754 140.944  1.00  0.00    -0.353 N 
HETATM   22  C3  UNL     1      58.744  53.690 141.790  1.00  0.00     0.298 C 
HETATM   23  O2  UNL     1      58.172  53.395 142.862  1.00  0.00    -0.264 OA
ATOM     24  H1  UNL     1      59.762  53.158 140.095  1.00  0.00     0.162 HD
BRANCH  22  25
HETATM   25  C2  UNL     1      58.743  55.137 141.417  1.00  0.00     0.275 C 
HETATM   26  O1  UNL     1      59.627  55.527 140.625  1.00  0.00    -0.275 OA
BRANCH  25  27
HETATM   27  S1  UNL     1      57.502  56.175 142.118  1.00  0.00    -0.087 SA
HETATM   28  C1  UNL     1      56.620  57.021 140.766  1.00  0.00     0.099 C 
ENDBRANCH  25  27
ENDBRANCH  22  25
ENDBRANCH  20  21
ENDBRANCH   1  20
BRANCH   4  29
HETATM   29  C9  UNL     1      63.361  49.657 144.109  1.00  0.00     0.223 C 
HETATM   30  O3  UNL     1      63.307  48.483 144.567  1.00  0.00    -0.273 OA
HETATM   31  N2  UNL     1      64.004  50.662 144.865  1.00  0.00    -0.360 N 
HETATM   32  C10 UNL     1      64.151  52.042 144.464  1.00  0.00     0.152 C 
HETATM   33  C11 UNL     1      64.588  50.331 146.175  1.00  0.00     0.152 C 
ENDBRANCH   4  29
TORSDOF 8
ENDMDL
MODEL 5
REMARK VINA RESULT: -7.596416674      2.749      5.804
REMARK  8 active torsions:
REMARK  status: ('A' for Active; 'I' for Inactive)
REMARK    1  A    between atoms: S1_2  and  C2_3 
REMARK    2  A    between atoms: C2_3  and  C3_5 
REMARK       I    between atoms: C3_5  and  N1_7 
REMARK    3  A    between atoms: N1_7  and  C4_9 
REMARK    4  A    between atoms: C4_9  and  C5_10 
REMARK    5  A    between atoms: C8_13  and  C9_14 
REMARK       I    between atoms: C9_14  and  N2_16 
REMARK    6  A    between atoms: C13_20  and  N3_21 
REMARK    7  A    between atoms: N3_21  and  S2_23 
REMARK    8  A    between atoms: S2_23  and  C15_26 
ROOT
HETATM    1  C5  UNL     1      59.865  51.419 140.845  1.00  0.00     0.022 C 
HETATM    2  C6  UNL     1      59.236  51.771 142.101  1.00  0.00     0.009 C 
HETATM    3  C7  UNL     1      59.339  53.236 142.481  1.00  0.00     0.014 C 
HETATM    4  C8  UNL     1      58.565  53.968 141.381  1.00  0.00     0.079 C 
HETATM    5  C12 UNL     1      59.417  53.784 140.143  1.00  0.00     0.035 C 
HETATM    6  C13 UNL     1      59.383  52.344 139.699  1.00  0.00     0.080 C 
ENDROOT
BRANCH   6   7
HETATM    7  N3  UNL     1      60.112  52.160 138.494  1.00  0.00    -0.205 NA
HETATM    8  C14 UNL     1      60.307  53.342 137.708  1.00  0.00     0.130 C 
BRANCH   7   9
HETATM    9  S2  UNL     1      59.426  50.960 137.513  1.00  0.00     0.248 S 
HETATM   10  O4  UNL     1      58.534  50.026 138.328  1.00  0.00    -0.206 OA
HETATM   11  O5  UNL     1      58.468  51.566 136.491  1.00  0.00    -0.206 OA
BRANCH   9  12
HETATM   12  C15 UNL     1      60.518  49.956 136.640  1.00  0.00     0.130 A 
HETATM   13  C16 UNL     1      61.099  50.044 135.400  1.00  0.00     0.054 A 
HETATM   14  C17 UNL     1      60.914  51.177 134.474  1.00  0.00     0.072 C 
HETATM   15  N4  UNL     1      61.836  48.936 135.267  1.00  0.00    -0.264 N 
HETATM   16  O6  UNL     1      61.756  48.188 136.309  1.00  0.00    -0.241 OA
ATOM     17  H4  UNL     1      62.392  48.713 134.442  1.00  0.00     0.194 HD
HETATM   18  C18 UNL     1      60.972  48.758 137.169  1.00  0.00     0.097 A 
HETATM   19  C19 UNL     1      60.649  48.160 138.512  1.00  0.00     0.081 C 
ENDBRANCH   9  12
ENDBRANCH   7   9
ENDBRANCH   6   7
BRANCH   1  20
HETATM   20  C4  UNL     1      61.320  51.245 140.790  1.00  0.00     0.129 C 
BRANCH  20  21
HETATM   21  N1  UNL     1      62.020  50.830 141.942  1.00  0.00    -0.353 N 
HETATM   22  C3  UNL     1      62.268  49.554 142.483  1.00  0.00     0.298 C 
HETATM   23  O2  UNL     1      61.837  48.487 141.990  1.00  0.00    -0.264 OA
ATOM     24  H1  UNL     1      62.422  51.595 142.483  1.00  0.00     0.162 HD
BRANCH  22  25
HETATM   25  C2  UNL     1      63.092  49.423 143.722  1.00  0.00     0.275 C 
HETATM   26  O1  UNL     1      63.031  48.339 144.341  1.00  0.00    -0.275 OA
BRANCH  25  27
HETATM   27  S1  UNL     1      64.081  50.798 144.212  1.00  0.00    -0.087 SA
HETATM   28  C1  UNL     1      64.657  50.520 145.918  1.00  0.00     0.099 C 
ENDBRANCH  25  27
ENDBRANCH  22  25
ENDBRANCH  20  21
ENDBRANCH   1  20
BRANCH   4  29
HETATM   29  C9  UNL     1      58.352  55.390 141.667  1.00  0.00     0.223 C 
HETATM   30  O3  UNL     1      58.941  55.901 142.658  1.00  0.00    -0.273 OA
HETATM   31  N2  UNL     1      57.512  56.201 140.872  1.00  0.00    -0.360 N 
HETATM   32  C10 UNL     1      56.785  55.756 139.705  1.00  0.00     0.152 C 
HETATM   33  C11 UNL     1      57.327  57.620 141.216  1.00  0.00     0.152 C 
ENDBRANCH   4  29
TORSDOF 8
ENDMDL
