MODEL 1
REMARK VINA RESULT: -7.958154796      0.000      0.000
REMARK  18 active torsions:
REMARK  status: ('A' for Active; 'I' for Inactive)
REMARK    1  A    between atoms: C6_6  and  S1_7 
REMARK    2  A    between atoms: S1_7  and  N1_10 
REMARK    3  A    between atoms: N1_10  and  C7_12 
REMARK    4  A    between atoms: C7_12  and  N2_13 
REMARK    5  A    between atoms: C7_12  and  C8_17 
REMARK    6  A    between atoms: C11_20  and  N3_21 
REMARK       I    between atoms: N3_21  and  C12_23 
REMARK    7  A    between atoms: C12_23  and  C13_25 
REMARK    8  A    between atoms: C13_25  and  C14_26 
REMARK    9  A    between atoms: C13_25  and  N9_40 
REMARK   10  A    between atoms: C14_26  and  C15_27 
REMARK   11  A    between atoms: C15_27  and  C16_28 
REMARK   12  A    between atoms: C16_28  and  N4_29 
REMARK       I    between atoms: N4_29  and  C17_31 
REMARK       I    between atoms: C17_31  and  N6_33 
REMARK   13  A    between atoms: N6_33  and  N7_35 
REMARK   14  A    between atoms: N7_35  and  N8_37 
REMARK   15  A    between atoms: N9_40  and  N10_42 
REMARK   16  A    between atoms: C19_46  and  O4_47 
REMARK   17  A    between atoms: C20_51  and  N12_52 
REMARK   18  A    between atoms: N12_52  and  C21_54 
ROOT
HETATM    1  C8  UNL     1     -31.349  14.256 -14.432  1.00  0.00     0.085 A 
HETATM    2  C9  UNL     1     -32.047  14.137 -15.636  1.00  0.00     0.032 A 
HETATM    3  C10 UNL     1     -32.505  15.264 -16.262  1.00  0.00     0.034 A 
HETATM    4  C11 UNL     1     -32.264  16.480 -15.687  1.00  0.00     0.067 A 
HETATM    5  C18 UNL     1     -31.559  16.555 -14.476  1.00  0.00     0.135 A 
HETATM    6  C19 UNL     1     -31.186  17.626 -13.691  1.00  0.00     0.185 A 
HETATM    7  N11 UNL     1     -30.527  17.142 -12.634  1.00  0.00    -0.168 N 
ATOM      8  H11 UNL     1     -30.133  17.707 -11.882  1.00  0.00     0.186 HD
HETATM    9  C20 UNL     1     -30.461  15.801 -12.706  1.00  0.00     0.693 A 
HETATM   10  N16 UNL     1     -31.095  15.427 -13.842  1.00  0.00    -0.141 N 
ENDROOT
BRANCH   4  11
HETATM   11  N3  UNL     1     -32.701  17.657 -16.307  1.00  0.00    -0.320 N 
HETATM   12  C12 UNL     1     -33.860  18.402 -16.103  1.00  0.00     0.270 C 
HETATM   13  O3  UNL     1     -34.732  18.109 -15.280  1.00  0.00    -0.266 OA
ATOM     14  H3  UNL     1     -32.073  18.026 -17.021  1.00  0.00     0.169 HD
BRANCH  12  15
HETATM   15  C13 UNL     1     -34.134  19.644 -16.890  1.00  0.00     0.093 C 
BRANCH  15  16
HETATM   16  C14 UNL     1     -33.452  19.751 -18.181  1.00  0.00     0.066 C 
BRANCH  16  17
HETATM   17  C15 UNL     1     -34.180  20.408 -19.290  1.00  0.00     0.026 C 
BRANCH  17  18
HETATM   18  C16 UNL     1     -33.670  19.876 -20.657  1.00  0.00     0.122 C 
BRANCH  18  19
HETATM   19  N4  UNL     1     -32.894  20.966 -21.203  1.00  0.00    -0.363 N 
HETATM   20  C17 UNL     1     -33.325  21.742 -22.106  1.00  0.00     0.204 C 
HETATM   21  N5  UNL     1     -32.523  22.796 -22.608  1.00  0.00    -0.062 NA
HETATM   22  N6  UNL     1     -34.629  21.556 -22.628  1.00  0.00    -0.260 N 
ATOM     23  H6  UNL     1     -34.845  20.672 -23.087  1.00  0.00     0.191 HD
ATOM     24  H4  UNL     1     -31.951  21.118 -20.843  1.00  0.00     0.162 HD
BRANCH  22  25
HETATM   25  N7  UNL     1     -35.630  22.520 -22.547  1.00  0.00    -0.247 N 
ATOM     26  H7  UNL     1     -36.598  22.273 -22.754  1.00  0.00     0.207 HD
BRANCH  25  27
HETATM   27  N8  UNL     1     -35.333  23.694 -22.217  1.00  0.00    -0.331 N 
ATOM     28  H82 UNL     1     -34.532  23.852 -21.604  1.00  0.00     0.178 HD
ATOM     29  H81 UNL     1     -35.894  24.471 -22.565  1.00  0.00     0.178 HD
ENDBRANCH  25  27
ENDBRANCH  22  25
ENDBRANCH  18  19
ENDBRANCH  17  18
ENDBRANCH  16  17
ENDBRANCH  15  16
BRANCH  15  30
HETATM   30  N9  UNL     1     -34.925  20.518 -16.426  1.00  0.00    -0.306 N 
ATOM     31  H9  UNL     1     -34.462  21.307 -15.975  1.00  0.00     0.186 HD
BRANCH  30  32
HETATM   32  N10 UNL     1     -36.291  20.590 -16.425  1.00  0.00    -0.345 N 
ATOM     33 2H10 UNL     1     -36.740  19.682 -16.305  1.00  0.00     0.176 HD
ATOM     34 1H10 UNL     1     -36.924  21.385 -16.521  1.00  0.00     0.176 HD
ENDBRANCH  30  32
ENDBRANCH  15  30
ENDBRANCH  12  15
ENDBRANCH   4  11
BRANCH   6  35
HETATM   35  O4  UNL     1     -31.419  18.982 -13.901  1.00  0.00    -0.344 OA
ATOM     36  H4  UNL     1     -32.239  19.459 -13.849  1.00  0.00     0.219 HD
ENDBRANCH   6  35
BRANCH   1  37
HETATM   37  C7  UNL     1     -30.890  12.976 -13.830  1.00  0.00     0.343 C 
BRANCH  37  38
HETATM   38  N1  UNL     1     -29.768  12.432 -14.549  1.00  0.00    -0.281 N 
ATOM     39  H1  UNL     1     -29.798  12.373 -15.566  1.00  0.00     0.175 HD
BRANCH  38  40
HETATM   40  S1  UNL     1     -28.426  11.899 -13.728  1.00  0.00     0.261 S 
HETATM   41  O1  UNL     1     -27.106  12.274 -14.361  1.00  0.00    -0.200 OA
HETATM   42  O2  UNL     1     -28.398  12.686 -12.405  1.00  0.00    -0.200 OA
BRANCH  40  43
HETATM   43  C6  UNL     1     -28.352  10.202 -13.331  1.00  0.00     0.091 A 
HETATM   44  C4  UNL     1     -29.083   9.221 -13.967  1.00  0.00    -0.038 A 
HETATM   45  C3  UNL     1     -29.008   7.885 -13.577  1.00  0.00     0.015 A 
HETATM   46  C5  UNL     1     -29.933   9.572 -15.113  1.00  0.00     0.050 C 
HETATM   47  C2  UNL     1     -28.206   7.473 -12.545  1.00  0.00    -0.061 A 
HETATM   48  C1  UNL     1     -28.116   6.039 -12.123  1.00  0.00     0.048 C 
HETATM   49  C25 UNL     1     -27.466   8.439 -11.897  1.00  0.00     0.015 A 
HETATM   50  C23 UNL     1     -27.536   9.766 -12.278  1.00  0.00    -0.038 A 
HETATM   51  C24 UNL     1     -26.736  10.818 -11.584  1.00  0.00     0.050 C 
ENDBRANCH  40  43
ENDBRANCH  38  40
ENDBRANCH  37  38
BRANCH  37  52
HETATM   52  N2  UNL     1     -31.977  11.995 -14.203  1.00  0.00    -0.052 N 
ATOM     53  H23 UNL     1     -31.663  11.163 -14.703  1.00  0.00     0.277 HD
ATOM     54  H22 UNL     1     -32.389  11.481 -13.424  1.00  0.00     0.277 HD
ATOM     55  H21 UNL     1     -32.618  12.600 -14.716  1.00  0.00     0.277 HD
ENDBRANCH  37  52
ENDBRANCH   1  37
BRANCH   9  56
HETATM   56  N12 UNL     1     -29.887  15.028 -11.845  1.00  0.00    -0.170 N 
ATOM     57  H12 UNL     1     -29.057  14.511 -12.133  1.00  0.00     0.186 HD
BRANCH  56  58
HETATM   58  C21 UNL     1     -30.351  14.867 -10.533  1.00  0.00     0.188 A 
HETATM   59  N13 UNL     1     -29.737  15.269  -9.405  1.00  0.00    -0.221 N 
HETATM   60  O5  UNL     1     -30.489  14.933  -8.424  1.00  0.00    -0.153 OA
ATOM     61  H13 UNL     1     -28.841  15.750  -9.343  1.00  0.00     0.198 HD
HETATM   62  N14 UNL     1     -31.563  14.335  -8.814  1.00  0.00    -0.222 N 
HETATM   63  C22 UNL     1     -31.547  14.254 -10.164  1.00  0.00     0.168 A 
ATOM     64  H14 UNL     1     -32.302  13.982  -8.205  1.00  0.00     0.198 HD
HETATM   65  N15 UNL     1     -32.416  13.738 -10.954  1.00  0.00    -0.381 N 
ATOM     66 2H15 UNL     1     -32.405  13.677 -11.972  1.00  0.00     0.157 HD
ATOM     67 1H15 UNL     1     -33.291  13.290 -10.683  1.00  0.00     0.157 HD
ENDBRANCH  56  58
ENDBRANCH   9  56
TORSDOF 18
ENDMDL
MODEL 2
REMARK VINA RESULT: -7.881481977      1.022      1.539
REMARK  18 active torsions:
REMARK  status: ('A' for Active; 'I' for Inactive)
REMARK    1  A    between atoms: C6_6  and  S1_7 
REMARK    2  A    between atoms: S1_7  and  N1_10 
REMARK    3  A    between atoms: N1_10  and  C7_12 
REMARK    4  A    between atoms: C7_12  and  N2_13 
REMARK    5  A    between atoms: C7_12  and  C8_17 
REMARK    6  A    between atoms: C11_20  and  N3_21 
REMARK       I    between atoms: N3_21  and  C12_23 
REMARK    7  A    between atoms: C12_23  and  C13_25 
REMARK    8  A    between atoms: C13_25  and  C14_26 
REMARK    9  A    between atoms: C13_25  and  N9_40 
REMARK   10  A    between atoms: C14_26  and  C15_27 
REMARK   11  A    between atoms: C15_27  and  C16_28 
REMARK   12  A    between atoms: C16_28  and  N4_29 
REMARK       I    between atoms: N4_29  and  C17_31 
REMARK       I    between atoms: C17_31  and  N6_33 
REMARK   13  A    between atoms: N6_33  and  N7_35 
REMARK   14  A    between atoms: N7_35  and  N8_37 
REMARK   15  A    between atoms: N9_40  and  N10_42 
REMARK   16  A    between atoms: C19_46  and  O4_47 
REMARK   17  A    between atoms: C20_51  and  N12_52 
REMARK   18  A    between atoms: N12_52  and  C21_54 
ROOT
HETATM    1  C8  UNL     1     -31.925  14.219 -14.586  1.00  0.00     0.085 A 
HETATM    2  C9  UNL     1     -32.690  14.230 -15.755  1.00  0.00     0.032 A 
HETATM    3  C10 UNL     1     -33.050  15.427 -16.312  1.00  0.00     0.034 A 
HETATM    4  C11 UNL     1     -32.647  16.583 -15.705  1.00  0.00     0.067 A 
HETATM    5  C18 UNL     1     -31.879  16.527 -14.532  1.00  0.00     0.135 A 
HETATM    6  C19 UNL     1     -31.351  17.516 -13.728  1.00  0.00     0.185 A 
HETATM    7  N11 UNL     1     -30.699  16.917 -12.727  1.00  0.00    -0.168 N 
ATOM      8  H11 UNL     1     -30.208  17.403 -11.976  1.00  0.00     0.186 HD
HETATM    9  C20 UNL     1     -30.787  15.582 -12.853  1.00  0.00     0.693 A 
HETATM   10  N16 UNL     1     -31.514  15.329 -13.967  1.00  0.00    -0.141 N 
ENDROOT
BRANCH   4  11
HETATM   11  N3  UNL     1     -32.980  17.826 -16.257  1.00  0.00    -0.320 N 
HETATM   12  C12 UNL     1     -34.097  18.631 -16.047  1.00  0.00     0.270 C 
HETATM   13  O3  UNL     1     -35.023  18.340 -15.283  1.00  0.00    -0.266 OA
ATOM     14  H3  UNL     1     -32.298  18.202 -16.915  1.00  0.00     0.169 HD
BRANCH  12  15
HETATM   15  C13 UNL     1     -34.256  19.939 -16.753  1.00  0.00     0.093 C 
BRANCH  15  16
HETATM   16  C14 UNL     1     -33.313  20.202 -17.842  1.00  0.00     0.066 C 
BRANCH  16  17
HETATM   17  C15 UNL     1     -33.806  20.970 -19.007  1.00  0.00     0.026 C 
BRANCH  17  18
HETATM   18  C16 UNL     1     -33.421  20.249 -20.328  1.00  0.00     0.122 C 
BRANCH  18  19
HETATM   19  N4  UNL     1     -32.668  21.233 -21.072  1.00  0.00    -0.363 N 
HETATM   20  C17 UNL     1     -33.135  21.856 -22.071  1.00  0.00     0.204 C 
HETATM   21  N5  UNL     1     -32.354  22.811 -22.766  1.00  0.00    -0.062 NA
HETATM   22  N6  UNL     1     -34.458  21.594 -22.506  1.00  0.00    -0.260 N 
ATOM     23  H6  UNL     1     -34.690  20.648 -22.807  1.00  0.00     0.191 HD
ATOM     24  H4  UNL     1     -31.713  21.437 -20.777  1.00  0.00     0.162 HD
BRANCH  22  25
HETATM   25  N7  UNL     1     -35.457  22.562 -22.543  1.00  0.00    -0.247 N 
ATOM     26  H7  UNL     1     -36.389  22.325 -22.880  1.00  0.00     0.207 HD
BRANCH  25  27
HETATM   27  N8  UNL     1     -35.200  23.730 -22.159  1.00  0.00    -0.331 N 
ATOM     28  H82 UNL     1     -34.271  24.117 -22.326  1.00  0.00     0.178 HD
ATOM     29  H81 UNL     1     -35.923  24.272 -21.686  1.00  0.00     0.178 HD
ENDBRANCH  25  27
ENDBRANCH  22  25
ENDBRANCH  18  19
ENDBRANCH  17  18
ENDBRANCH  16  17
ENDBRANCH  15  16
BRANCH  15  30
HETATM   30  N9  UNL     1     -35.175  20.737 -16.397  1.00  0.00    -0.306 N 
ATOM     31  H9  UNL     1     -34.838  21.615 -16.001  1.00  0.00     0.186 HD
BRANCH  30  32
HETATM   32  N10 UNL     1     -36.536  20.627 -16.451  1.00  0.00    -0.345 N 
ATOM     33 2H10 UNL     1     -36.888  19.778 -16.007  1.00  0.00     0.176 HD
ATOM     34 1H10 UNL     1     -37.247  21.239 -16.853  1.00  0.00     0.176 HD
ENDBRANCH  30  32
ENDBRANCH  15  30
ENDBRANCH  12  15
ENDBRANCH   4  11
BRANCH   6  35
HETATM   35  O4  UNL     1     -31.441  18.898 -13.874  1.00  0.00    -0.344 OA
ATOM     36  H4  UNL     1     -32.202  19.423 -14.093  1.00  0.00     0.219 HD
ENDBRANCH   6  35
BRANCH   1  37
HETATM   37  C7  UNL     1     -31.583  12.872 -14.058  1.00  0.00     0.343 C 
BRANCH  37  38
HETATM   38  N1  UNL     1     -30.294  12.437 -14.528  1.00  0.00    -0.281 N 
ATOM     39  H1  UNL     1     -30.069  12.501 -15.521  1.00  0.00     0.175 HD
BRANCH  38  40
HETATM   40  S1  UNL     1     -29.173  11.831 -13.462  1.00  0.00     0.261 S 
HETATM   41  O1  UNL     1     -28.180  12.845 -12.943  1.00  0.00    -0.200 OA
HETATM   42  O2  UNL     1     -29.958  11.451 -12.193  1.00  0.00    -0.200 OA
BRANCH  40  43
HETATM   43  C6  UNL     1     -28.272  10.424 -13.963  1.00  0.00     0.091 A 
HETATM   44  C4  UNL     1     -26.904  10.395 -14.132  1.00  0.00    -0.038 A 
HETATM   45  C3  UNL     1     -26.246   9.247 -14.571  1.00  0.00     0.015 A 
HETATM   46  C5  UNL     1     -26.103  11.582 -13.804  1.00  0.00     0.050 C 
HETATM   47  C2  UNL     1     -26.919   8.089 -14.857  1.00  0.00    -0.061 A 
HETATM   48  C1  UNL     1     -26.219   6.850 -15.323  1.00  0.00     0.048 C 
HETATM   49  C25 UNL     1     -28.288   8.097 -14.692  1.00  0.00     0.015 A 
HETATM   50  C23 UNL     1     -28.947   9.231 -14.257  1.00  0.00    -0.038 A 
HETATM   51  C24 UNL     1     -30.429   9.249 -14.074  1.00  0.00     0.050 C 
ENDBRANCH  40  43
ENDBRANCH  38  40
ENDBRANCH  37  38
BRANCH  37  52
HETATM   52  N2  UNL     1     -32.498  11.945 -14.822  1.00  0.00    -0.052 N 
ATOM     53  H23 UNL     1     -32.153  10.993 -14.946  1.00  0.00     0.277 HD
ATOM     54  H22 UNL     1     -33.349  11.669 -14.333  1.00  0.00     0.277 HD
ATOM     55  H21 UNL     1     -32.640  12.475 -15.682  1.00  0.00     0.277 HD
ENDBRANCH  37  52
ENDBRANCH   1  37
BRANCH   9  56
HETATM   56  N12 UNL     1     -30.261  14.714 -12.054  1.00  0.00    -0.170 N 
ATOM     57  H12 UNL     1     -29.585  14.051 -12.432  1.00  0.00     0.186 HD
BRANCH  56  58
HETATM   58  C21 UNL     1     -30.576  14.641 -10.691  1.00  0.00     0.188 A 
HETATM   59  N13 UNL     1     -29.963  15.293  -9.685  1.00  0.00    -0.221 N 
HETATM   60  O5  UNL     1     -30.551  14.954  -8.599  1.00  0.00    -0.153 OA
ATOM     61  H13 UNL     1     -29.177  15.937  -9.772  1.00  0.00     0.198 HD
HETATM   62  N14 UNL     1     -31.514  14.121  -8.805  1.00  0.00    -0.222 N 
HETATM   63  C22 UNL     1     -31.593  13.870 -10.132  1.00  0.00     0.168 A 
ATOM     64  H14 UNL     1     -32.117  13.719  -8.086  1.00  0.00     0.198 HD
HETATM   65  N15 UNL     1     -32.405  13.103 -10.764  1.00  0.00    -0.381 N 
ATOM     66 2H15 UNL     1     -32.465  12.914 -11.764  1.00  0.00     0.157 HD
ATOM     67 1H15 UNL     1     -33.149  12.539 -10.354  1.00  0.00     0.157 HD
ENDBRANCH  56  58
ENDBRANCH   9  56
TORSDOF 18
ENDMDL
MODEL 3
REMARK VINA RESULT: -7.855024037      3.570      5.678
REMARK  18 active torsions:
REMARK  status: ('A' for Active; 'I' for Inactive)
REMARK    1  A    between atoms: C6_6  and  S1_7 
REMARK    2  A    between atoms: S1_7  and  N1_10 
REMARK    3  A    between atoms: N1_10  and  C7_12 
REMARK    4  A    between atoms: C7_12  and  N2_13 
REMARK    5  A    between atoms: C7_12  and  C8_17 
REMARK    6  A    between atoms: C11_20  and  N3_21 
REMARK       I    between atoms: N3_21  and  C12_23 
REMARK    7  A    between atoms: C12_23  and  C13_25 
REMARK    8  A    between atoms: C13_25  and  C14_26 
REMARK    9  A    between atoms: C13_25  and  N9_40 
REMARK   10  A    between atoms: C14_26  and  C15_27 
REMARK   11  A    between atoms: C15_27  and  C16_28 
REMARK   12  A    between atoms: C16_28  and  N4_29 
REMARK       I    between atoms: N4_29  and  C17_31 
REMARK       I    between atoms: C17_31  and  N6_33 
REMARK   13  A    between atoms: N6_33  and  N7_35 
REMARK   14  A    between atoms: N7_35  and  N8_37 
REMARK   15  A    between atoms: N9_40  and  N10_42 
REMARK   16  A    between atoms: C19_46  and  O4_47 
REMARK   17  A    between atoms: C20_51  and  N12_52 
REMARK   18  A    between atoms: N12_52  and  C21_54 
ROOT
HETATM    1  C8  UNL     1     -31.554  16.850 -16.663  1.00  0.00     0.085 A 
HETATM    2  C9  UNL     1     -31.469  18.217 -16.937  1.00  0.00     0.032 A 
HETATM    3  C10 UNL     1     -32.229  18.750 -17.942  1.00  0.00     0.034 A 
HETATM    4  C11 UNL     1     -33.053  17.924 -18.653  1.00  0.00     0.067 A 
HETATM    5  C18 UNL     1     -33.108  16.556 -18.345  1.00  0.00     0.135 A 
HETATM    6  C19 UNL     1     -33.834  15.517 -18.889  1.00  0.00     0.185 A 
HETATM    7  N11 UNL     1     -33.509  14.405 -18.223  1.00  0.00    -0.168 N 
ATOM      8  H11 UNL     1     -33.893  13.478 -18.410  1.00  0.00     0.186 HD
HETATM    9  C20 UNL     1     -32.603  14.686 -17.270  1.00  0.00     0.693 A 
HETATM   10  N16 UNL     1     -32.349  16.014 -17.336  1.00  0.00    -0.141 N 
ENDROOT
BRANCH   4  11
HETATM   11  N3  UNL     1     -33.860  18.436 -19.676  1.00  0.00    -0.320 N 
HETATM   12  C12 UNL     1     -33.511  18.943 -20.925  1.00  0.00     0.270 C 
HETATM   13  O3  UNL     1     -32.349  19.016 -21.340  1.00  0.00    -0.266 OA
ATOM     14  H3  UNL     1     -34.860  18.439 -19.476  1.00  0.00     0.169 HD
BRANCH  12  15
HETATM   15  C13 UNL     1     -34.547  19.449 -21.876  1.00  0.00     0.093 C 
BRANCH  15  16
HETATM   16  C14 UNL     1     -35.388  20.545 -21.389  1.00  0.00     0.066 C 
BRANCH  16  17
HETATM   17  C15 UNL     1     -35.505  21.752 -22.239  1.00  0.00     0.026 C 
BRANCH  17  18
HETATM   18  C16 UNL     1     -34.523  22.851 -21.749  1.00  0.00     0.122 C 
BRANCH  18  19
HETATM   19  N4  UNL     1     -33.347  22.679 -22.573  1.00  0.00    -0.363 N 
HETATM   20  C17 UNL     1     -32.177  22.573 -22.099  1.00  0.00     0.204 C 
HETATM   21  N5  UNL     1     -31.057  22.406 -22.951  1.00  0.00    -0.062 NA
HETATM   22  N6  UNL     1     -31.979  22.624 -20.697  1.00  0.00    -0.260 N 
ATOM     23  H6  UNL     1     -32.258  23.470 -20.200  1.00  0.00     0.191 HD
ATOM     24  H4  UNL     1     -33.466  22.641 -23.585  1.00  0.00     0.162 HD
BRANCH  22  25
HETATM   25  N7  UNL     1     -31.425  21.579 -19.965  1.00  0.00    -0.247 N 
ATOM     26  H7  UNL     1     -31.906  21.216 -19.142  1.00  0.00     0.207 HD
BRANCH  25  27
HETATM   27  N8  UNL     1     -30.327  21.087 -20.324  1.00  0.00    -0.331 N 
ATOM     28  H82 UNL     1     -29.773  21.567 -21.034  1.00  0.00     0.178 HD
ATOM     29  H81 UNL     1     -30.006  20.216 -19.902  1.00  0.00     0.178 HD
ENDBRANCH  25  27
ENDBRANCH  22  25
ENDBRANCH  18  19
ENDBRANCH  17  18
ENDBRANCH  16  17
ENDBRANCH  15  16
BRANCH  15  30
HETATM   30  N9  UNL     1     -34.647  18.932 -23.029  1.00  0.00    -0.306 N 
ATOM     31  H9  UNL     1     -35.378  19.342 -23.611  1.00  0.00     0.186 HD
BRANCH  30  32
HETATM   32  N10 UNL     1     -33.948  17.923 -23.629  1.00  0.00    -0.345 N 
ATOM     33 2H10 UNL     1     -33.833  17.104 -23.031  1.00  0.00     0.176 HD
ATOM     34 1H10 UNL     1     -33.529  17.851 -24.557  1.00  0.00     0.176 HD
ENDBRANCH  30  32
ENDBRANCH  15  30
ENDBRANCH  12  15
ENDBRANCH   4  11
BRANCH   6  35
HETATM   35  O4  UNL     1     -34.750  15.550 -19.937  1.00  0.00    -0.344 OA
ATOM     36  H4  UNL     1     -35.250  16.287 -20.265  1.00  0.00     0.219 HD
ENDBRANCH   6  35
BRANCH   1  37
HETATM   37  C7  UNL     1     -30.692  16.366 -15.553  1.00  0.00     0.343 C 
BRANCH  37  38
HETATM   38  N1  UNL     1     -31.386  16.412 -14.292  1.00  0.00    -0.281 N 
ATOM     39  H1  UNL     1     -32.404  16.357 -14.272  1.00  0.00     0.175 HD
BRANCH  38  40
HETATM   40  S1  UNL     1     -30.537  16.555 -12.872  1.00  0.00     0.261 S 
HETATM   41  O1  UNL     1     -29.038  16.427 -13.014  1.00  0.00    -0.200 OA
HETATM   42  O2  UNL     1     -30.708  18.018 -12.422  1.00  0.00    -0.200 OA
BRANCH  40  43
HETATM   43  C6  UNL     1     -31.025  15.537 -11.542  1.00  0.00     0.091 A 
HETATM   44  C4  UNL     1     -31.513  16.007 -10.341  1.00  0.00    -0.038 A 
HETATM   45  C3  UNL     1     -31.852  15.142  -9.302  1.00  0.00     0.015 A 
HETATM   46  C5  UNL     1     -31.728  17.448 -10.154  1.00  0.00     0.050 C 
HETATM   47  C2  UNL     1     -31.720  13.783  -9.415  1.00  0.00    -0.061 A 
HETATM   48  C1  UNL     1     -32.086  12.847  -8.305  1.00  0.00     0.048 C 
HETATM   49  C25 UNL     1     -31.235  13.294 -10.608  1.00  0.00     0.015 A 
HETATM   50  C23 UNL     1     -30.897  14.145 -11.644  1.00  0.00    -0.038 A 
HETATM   51  C24 UNL     1     -30.373  13.624 -12.941  1.00  0.00     0.050 C 
ENDBRANCH  40  43
ENDBRANCH  38  40
ENDBRANCH  37  38
BRANCH  37  52
HETATM   52  N2  UNL     1     -29.685  17.477 -15.370  1.00  0.00    -0.052 N 
ATOM     53  H23 UNL     1     -29.902  18.349 -15.853  1.00  0.00     0.277 HD
ATOM     54  H22 UNL     1     -29.659  17.895 -14.440  1.00  0.00     0.277 HD
ATOM     55  H21 UNL     1     -28.826  17.013 -15.666  1.00  0.00     0.277 HD
ENDBRANCH  37  52
ENDBRANCH   1  37
BRANCH   9  56
HETATM   56  N12 UNL     1     -32.087  13.834 -16.447  1.00  0.00    -0.170 N 
ATOM     57  H12 UNL     1     -31.088  13.641 -16.510  1.00  0.00     0.186 HD
BRANCH  56  58
HETATM   58  C21 UNL     1     -32.837  13.163 -15.472  1.00  0.00     0.188 A 
HETATM   59  N13 UNL     1     -33.665  13.718 -14.567  1.00  0.00    -0.221 N 
HETATM   60  O5  UNL     1     -34.153  12.766 -13.865  1.00  0.00    -0.153 OA
ATOM     61  H13 UNL     1     -33.866  14.713 -14.462  1.00  0.00     0.198 HD
HETATM   62  N14 UNL     1     -33.711  11.611 -14.233  1.00  0.00    -0.222 N 
HETATM   63  C22 UNL     1     -32.855  11.785 -15.267  1.00  0.00     0.168 A 
ATOM     64  H14 UNL     1     -33.964  10.716 -13.815  1.00  0.00     0.198 HD
HETATM   65  N15 UNL     1     -32.196  10.906 -15.928  1.00  0.00    -0.381 N 
ATOM     66 2H15 UNL     1     -31.551  11.037 -16.708  1.00  0.00     0.157 HD
ATOM     67 1H15 UNL     1     -32.210   9.897 -15.778  1.00  0.00     0.157 HD
ENDBRANCH  56  58
ENDBRANCH   9  56
TORSDOF 18
ENDMDL
MODEL 4
REMARK VINA RESULT: -7.848647638      3.072      4.733
REMARK  18 active torsions:
REMARK  status: ('A' for Active; 'I' for Inactive)
REMARK    1  A    between atoms: C6_6  and  S1_7 
REMARK    2  A    between atoms: S1_7  and  N1_10 
REMARK    3  A    between atoms: N1_10  and  C7_12 
REMARK    4  A    between atoms: C7_12  and  N2_13 
REMARK    5  A    between atoms: C7_12  and  C8_17 
REMARK    6  A    between atoms: C11_20  and  N3_21 
REMARK       I    between atoms: N3_21  and  C12_23 
REMARK    7  A    between atoms: C12_23  and  C13_25 
REMARK    8  A    between atoms: C13_25  and  C14_26 
REMARK    9  A    between atoms: C13_25  and  N9_40 
REMARK   10  A    between atoms: C14_26  and  C15_27 
REMARK   11  A    between atoms: C15_27  and  C16_28 
REMARK   12  A    between atoms: C16_28  and  N4_29 
REMARK       I    between atoms: N4_29  and  C17_31 
REMARK       I    between atoms: C17_31  and  N6_33 
REMARK   13  A    between atoms: N6_33  and  N7_35 
REMARK   14  A    between atoms: N7_35  and  N8_37 
REMARK   15  A    between atoms: N9_40  and  N10_42 
REMARK   16  A    between atoms: C19_46  and  O4_47 
REMARK   17  A    between atoms: C20_51  and  N12_52 
REMARK   18  A    between atoms: N12_52  and  C21_54 
ROOT
HETATM    1  C8  UNL     1     -32.198  14.159 -16.332  1.00  0.00     0.085 A 
HETATM    2  C9  UNL     1     -31.873  14.992 -17.405  1.00  0.00     0.032 A 
HETATM    3  C10 UNL     1     -32.569  16.156 -17.588  1.00  0.00     0.034 A 
HETATM    4  C11 UNL     1     -33.567  16.471 -16.709  1.00  0.00     0.067 A 
HETATM    5  C18 UNL     1     -33.861  15.605 -15.645  1.00  0.00     0.135 A 
HETATM    6  C19 UNL     1     -34.797  15.673 -14.634  1.00  0.00     0.185 A 
HETATM    7  N11 UNL     1     -34.656  14.580 -13.879  1.00  0.00    -0.168 N 
ATOM      8  H11 UNL     1     -35.217  14.361 -13.055  1.00  0.00     0.186 HD
HETATM    9  C20 UNL     1     -33.666  13.810 -14.362  1.00  0.00     0.693 A 
HETATM   10  N16 UNL     1     -33.167  14.435 -15.454  1.00  0.00    -0.141 N 
ENDROOT
BRANCH   4  11
HETATM   11  N3  UNL     1     -34.288  17.662 -16.853  1.00  0.00    -0.320 N 
HETATM   12  C12 UNL     1     -34.075  18.915 -16.283  1.00  0.00     0.270 C 
HETATM   13  O3  UNL     1     -33.145  19.172 -15.512  1.00  0.00    -0.266 OA
ATOM     14  H3  UNL     1     -35.097  17.604 -17.472  1.00  0.00     0.169 HD
BRANCH  12  15
HETATM   15  C13 UNL     1     -34.983  20.066 -16.574  1.00  0.00     0.093 C 
BRANCH  15  16
HETATM   16  C14 UNL     1     -34.341  21.281 -17.080  1.00  0.00     0.066 C 
BRANCH  16  17
HETATM   17  C15 UNL     1     -33.365  21.132 -18.184  1.00  0.00     0.026 C 
BRANCH  17  18
HETATM   18  C16 UNL     1     -34.102  21.098 -19.551  1.00  0.00     0.122 C 
BRANCH  18  19
HETATM   19  N4  UNL     1     -33.169  21.694 -20.480  1.00  0.00    -0.363 N 
HETATM   20  C17 UNL     1     -33.494  22.075 -21.643  1.00  0.00     0.204 C 
HETATM   21  N5  UNL     1     -32.540  22.653 -22.516  1.00  0.00    -0.062 NA
HETATM   22  N6  UNL     1     -34.832  21.922 -22.084  1.00  0.00    -0.260 N 
ATOM     23  H6  UNL     1     -35.221  20.980 -22.130  1.00  0.00     0.191 HD
ATOM     24  H4  UNL     1     -32.200  21.813 -20.184  1.00  0.00     0.162 HD
BRANCH  22  25
HETATM   25  N7  UNL     1     -35.641  22.990 -22.458  1.00  0.00    -0.247 N 
ATOM     26  H7  UNL     1     -36.508  22.823 -22.969  1.00  0.00     0.207 HD
BRANCH  25  27
HETATM   27  N8  UNL     1     -35.297  24.160 -22.163  1.00  0.00    -0.331 N 
ATOM     28  H82 UNL     1     -34.339  24.460 -22.348  1.00  0.00     0.178 HD
ATOM     29  H81 UNL     1     -35.977  24.793 -21.742  1.00  0.00     0.178 HD
ENDBRANCH  25  27
ENDBRANCH  22  25
ENDBRANCH  18  19
ENDBRANCH  17  18
ENDBRANCH  16  17
ENDBRANCH  15  16
BRANCH  15  30
HETATM   30  N9  UNL     1     -36.230  19.946 -16.384  1.00  0.00    -0.306 N 
ATOM     31  H9  UNL     1     -36.808  20.339 -17.127  1.00  0.00     0.186 HD
BRANCH  30  32
HETATM   32  N10 UNL     1     -36.937  19.381 -15.358  1.00  0.00    -0.345 N 
ATOM     33 2H10 UNL     1     -36.536  18.501 -15.032  1.00  0.00     0.176 HD
ATOM     34 1H10 UNL     1     -37.781  19.686 -14.873  1.00  0.00     0.176 HD
ENDBRANCH  30  32
ENDBRANCH  15  30
ENDBRANCH  12  15
ENDBRANCH   4  11
BRANCH   6  35
HETATM   35  O4  UNL     1     -35.743  16.665 -14.388  1.00  0.00    -0.344 OA
ATOM     36  H4  UNL     1     -35.929  17.120 -13.575  1.00  0.00     0.219 HD
ENDBRANCH   6  35
BRANCH   1  37
HETATM   37  C7  UNL     1     -31.386  12.919 -16.216  1.00  0.00     0.343 C 
BRANCH  37  38
HETATM   38  N1  UNL     1     -29.999  13.223 -15.974  1.00  0.00    -0.281 N 
ATOM     39  H1  UNL     1     -29.384  13.441 -16.757  1.00  0.00     0.175 HD
BRANCH  38  40
HETATM   40  S1  UNL     1     -29.398  13.218 -14.425  1.00  0.00     0.261 S 
HETATM   41  O1  UNL     1     -29.443  11.876 -13.732  1.00  0.00    -0.200 OA
HETATM   42  O2  UNL     1     -27.885  13.475 -14.559  1.00  0.00    -0.200 OA
BRANCH  40  43
HETATM   43  C6  UNL     1     -30.035  14.403 -13.316  1.00  0.00     0.091 A 
HETATM   44  C4  UNL     1     -30.630  14.099 -12.109  1.00  0.00    -0.038 A 
HETATM   45  C3  UNL     1     -31.154  15.091 -11.283  1.00  0.00     0.015 A 
HETATM   46  C5  UNL     1     -30.680  12.704 -11.652  1.00  0.00     0.050 C 
HETATM   47  C2  UNL     1     -31.108  16.418 -11.621  1.00  0.00    -0.061 A 
HETATM   48  C1  UNL     1     -31.665  17.490 -10.737  1.00  0.00     0.048 C 
HETATM   49  C25 UNL     1     -30.516  16.743 -12.823  1.00  0.00     0.015 A 
HETATM   50  C23 UNL     1     -29.994  15.764 -13.648  1.00  0.00    -0.038 A 
HETATM   51  C24 UNL     1     -29.348  16.106 -14.950  1.00  0.00     0.050 C 
ENDBRANCH  40  43
ENDBRANCH  38  40
ENDBRANCH  37  38
BRANCH  37  52
HETATM   52  N2  UNL     1     -31.325  12.397 -17.632  1.00  0.00    -0.052 N 
ATOM     53  H23 UNL     1     -30.651  12.861 -18.241  1.00  0.00     0.277 HD
ATOM     54  H22 UNL     1     -30.917  11.468 -17.739  1.00  0.00     0.277 HD
ATOM     55  H21 UNL     1     -32.302  12.482 -17.914  1.00  0.00     0.277 HD
ENDBRANCH  37  52
ENDBRANCH   1  37
BRANCH   9  56
HETATM   56  N12 UNL     1     -33.271  12.687 -13.860  1.00  0.00    -0.170 N 
ATOM     57  H12 UNL     1     -32.505  12.698 -13.188  1.00  0.00     0.186 HD
BRANCH  56  58
HETATM   58  C21 UNL     1     -33.846  11.455 -14.198  1.00  0.00     0.188 A 
HETATM   59  N13 UNL     1     -35.121  11.234 -14.570  1.00  0.00    -0.221 N 
HETATM   60  O5  UNL     1     -35.240   9.979 -14.790  1.00  0.00    -0.153 OA
ATOM     61  H13 UNL     1     -35.855  11.937 -14.660  1.00  0.00     0.198 HD
HETATM   62  N14 UNL     1     -34.137   9.341 -14.592  1.00  0.00    -0.222 N 
HETATM   63  C22 UNL     1     -33.189  10.226 -14.207  1.00  0.00     0.168 A 
ATOM     64  H14 UNL     1     -34.002   8.336 -14.706  1.00  0.00     0.198 HD
HETATM   65  N15 UNL     1     -31.959  10.016 -13.910  1.00  0.00    -0.381 N 
ATOM     66 2H15 UNL     1     -31.243  10.683 -13.620  1.00  0.00     0.157 HD
ATOM     67 1H15 UNL     1     -31.478   9.117 -13.917  1.00  0.00     0.157 HD
ENDBRANCH  56  58
ENDBRANCH   9  56
TORSDOF 18
ENDMDL
MODEL 5
REMARK VINA RESULT: -7.841076617      1.220      1.859
REMARK  18 active torsions:
REMARK  status: ('A' for Active; 'I' for Inactive)
REMARK    1  A    between atoms: C6_6  and  S1_7 
REMARK    2  A    between atoms: S1_7  and  N1_10 
REMARK    3  A    between atoms: N1_10  and  C7_12 
REMARK    4  A    between atoms: C7_12  and  N2_13 
REMARK    5  A    between atoms: C7_12  and  C8_17 
REMARK    6  A    between atoms: C11_20  and  N3_21 
REMARK       I    between atoms: N3_21  and  C12_23 
REMARK    7  A    between atoms: C12_23  and  C13_25 
REMARK    8  A    between atoms: C13_25  and  C14_26 
REMARK    9  A    between atoms: C13_25  and  N9_40 
REMARK   10  A    between atoms: C14_26  and  C15_27 
REMARK   11  A    between atoms: C15_27  and  C16_28 
REMARK   12  A    between atoms: C16_28  and  N4_29 
REMARK       I    between atoms: N4_29  and  C17_31 
REMARK       I    between atoms: C17_31  and  N6_33 
REMARK   13  A    between atoms: N6_33  and  N7_35 
REMARK   14  A    between atoms: N7_35  and  N8_37 
REMARK   15  A    between atoms: N9_40  and  N10_42 
REMARK   16  A    between atoms: C19_46  and  O4_47 
REMARK   17  A    between atoms: C20_51  and  N12_52 
REMARK   18  A    between atoms: N12_52  and  C21_54 
ROOT
HETATM    1  C8  UNL     1     -32.082  14.156 -14.577  1.00  0.00     0.085 A 
HETATM    2  C9  UNL     1     -32.890  14.157 -15.717  1.00  0.00     0.032 A 
HETATM    3  C10 UNL     1     -33.242  15.349 -16.290  1.00  0.00     0.034 A 
HETATM    4  C11 UNL     1     -32.790  16.509 -15.727  1.00  0.00     0.067 A 
HETATM    5  C18 UNL     1     -31.980  16.462 -14.581  1.00  0.00     0.135 A 
HETATM    6  C19 UNL     1     -31.399  17.456 -13.822  1.00  0.00     0.185 A 
HETATM    7  N11 UNL     1     -30.726  16.866 -12.831  1.00  0.00    -0.168 N 
ATOM      8  H11 UNL     1     -30.195  17.357 -12.111  1.00  0.00     0.186 HD
HETATM    9  C20 UNL     1     -30.849  15.530 -12.921  1.00  0.00     0.693 A 
HETATM   10  N16 UNL     1     -31.622  15.269 -14.001  1.00  0.00    -0.141 N 
ENDROOT
BRANCH   4  11
HETATM   11  N3  UNL     1     -33.114  17.747 -16.296  1.00  0.00    -0.320 N 
HETATM   12  C12 UNL     1     -34.211  18.575 -16.078  1.00  0.00     0.270 C 
HETATM   13  O3  UNL     1     -35.125  18.316 -15.288  1.00  0.00    -0.266 OA
ATOM     14  H3  UNL     1     -32.440  18.097 -16.977  1.00  0.00     0.169 HD
BRANCH  12  15
HETATM   15  C13 UNL     1     -34.364  19.872 -16.806  1.00  0.00     0.093 C 
BRANCH  15  16
HETATM   16  C14 UNL     1     -33.557  20.027 -18.019  1.00  0.00     0.066 C 
BRANCH  16  17
HETATM   17  C15 UNL     1     -34.224  20.573 -19.222  1.00  0.00     0.026 C 
BRANCH  17  18
HETATM   18  C16 UNL     1     -33.604  19.957 -20.506  1.00  0.00     0.122 C 
BRANCH  18  19
HETATM   19  N4  UNL     1     -32.830  21.032 -21.085  1.00  0.00    -0.363 N 
HETATM   20  C17 UNL     1     -33.246  21.751 -22.041  1.00  0.00     0.204 C 
HETATM   21  N5  UNL     1     -32.447  22.793 -22.573  1.00  0.00    -0.062 NA
HETATM   22  N6  UNL     1     -34.530  21.513 -22.592  1.00  0.00    -0.260 N 
ATOM     23  H6  UNL     1     -34.715  20.601 -23.009  1.00  0.00     0.191 HD
ATOM     24  H4  UNL     1     -31.902  21.221 -20.705  1.00  0.00     0.162 HD
BRANCH  22  25
HETATM   25  N7  UNL     1     -35.550  22.460 -22.592  1.00  0.00    -0.247 N 
ATOM     26  H7  UNL     1     -36.493  22.198 -22.876  1.00  0.00     0.207 HD
BRANCH  25  27
HETATM   27  N8  UNL     1     -35.299  23.639 -22.241  1.00  0.00    -0.331 N 
ATOM     28  H82 UNL     1     -35.189  23.851 -21.249  1.00  0.00     0.178 HD
ATOM     29  H81 UNL     1     -35.210  24.366 -22.951  1.00  0.00     0.178 HD
ENDBRANCH  25  27
ENDBRANCH  22  25
ENDBRANCH  18  19
ENDBRANCH  17  18
ENDBRANCH  16  17
ENDBRANCH  15  16
BRANCH  15  30
HETATM   30  N9  UNL     1     -35.164  20.749 -16.365  1.00  0.00    -0.306 N 
ATOM     31  H9  UNL     1     -34.711  21.525 -15.881  1.00  0.00     0.186 HD
BRANCH  30  32
HETATM   32  N10 UNL     1     -36.527  20.840 -16.423  1.00  0.00    -0.345 N 
ATOM     33 2H10 UNL     1     -36.923  20.401 -17.255  1.00  0.00     0.176 HD
ATOM     34 1H10 UNL     1     -37.202  21.264 -15.786  1.00  0.00     0.176 HD
ENDBRANCH  30  32
ENDBRANCH  15  30
ENDBRANCH  12  15
ENDBRANCH   4  11
BRANCH   6  35
HETATM   35  O4  UNL     1     -31.463  18.836 -13.999  1.00  0.00    -0.344 OA
ATOM     36  H4  UNL     1     -30.944  19.513 -13.580  1.00  0.00     0.219 HD
ENDBRANCH   6  35
BRANCH   1  37
HETATM   37  C7  UNL     1     -31.753  12.813 -14.028  1.00  0.00     0.343 C 
BRANCH  37  38
HETATM   38  N1  UNL     1     -30.658  12.210 -14.743  1.00  0.00    -0.281 N 
ATOM     39  H1  UNL     1     -30.235  12.701 -15.530  1.00  0.00     0.175 HD
BRANCH  38  40
HETATM   40  S1  UNL     1     -30.083  10.719 -14.291  1.00  0.00     0.261 S 
HETATM   41  O1  UNL     1     -30.957   9.972 -13.312  1.00  0.00    -0.200 OA
HETATM   42  O2  UNL     1     -30.161   9.836 -15.551  1.00  0.00    -0.200 OA
BRANCH  40  43
HETATM   43  C6  UNL     1     -28.445  10.640 -13.697  1.00  0.00     0.091 A 
HETATM   44  C4  UNL     1     -27.893   9.538 -13.079  1.00  0.00    -0.038 A 
HETATM   45  C3  UNL     1     -26.587   9.551 -12.592  1.00  0.00     0.015 A 
HETATM   46  C5  UNL     1     -28.674   8.299 -12.963  1.00  0.00     0.050 C 
HETATM   47  C2  UNL     1     -25.782  10.654 -12.700  1.00  0.00    -0.061 A 
HETATM   48  C1  UNL     1     -24.377  10.674 -12.183  1.00  0.00     0.048 C 
HETATM   49  C25 UNL     1     -26.315  11.766 -13.316  1.00  0.00     0.015 A 
HETATM   50  C23 UNL     1     -27.609  11.761 -13.802  1.00  0.00    -0.038 A 
HETATM   51  C24 UNL     1     -28.194  12.960 -14.473  1.00  0.00     0.050 C 
ENDBRANCH  40  43
ENDBRANCH  38  40
ENDBRANCH  37  38
BRANCH  37  52
HETATM   52  N2  UNL     1     -32.905  11.949 -14.482  1.00  0.00    -0.052 N 
ATOM     53  H23 UNL     1     -32.763  11.456 -15.364  1.00  0.00     0.277 HD
ATOM     54  H22 UNL     1     -33.062  11.104 -13.932  1.00  0.00     0.277 HD
ATOM     55  H21 UNL     1     -33.671  12.624 -14.475  1.00  0.00     0.277 HD
ENDBRANCH  37  52
ENDBRANCH   1  37
BRANCH   9  56
HETATM   56  N12 UNL     1     -30.314  14.669 -12.120  1.00  0.00    -0.170 N 
ATOM     57  H12 UNL     1     -29.678  13.974 -12.509  1.00  0.00     0.186 HD
BRANCH  56  58
HETATM   58  C21 UNL     1     -30.568  14.645 -10.743  1.00  0.00     0.188 A 
HETATM   59  N13 UNL     1     -29.882  15.296  -9.785  1.00  0.00    -0.221 N 
HETATM   60  O5  UNL     1     -30.433  15.012  -8.664  1.00  0.00    -0.153 OA
ATOM     61  H13 UNL     1     -29.074  15.902  -9.925  1.00  0.00     0.198 HD
HETATM   62  N14 UNL     1     -31.439  14.217  -8.802  1.00  0.00    -0.222 N 
HETATM   63  C22 UNL     1     -31.590  13.935 -10.117  1.00  0.00     0.168 A 
ATOM     64  H14 UNL     1     -32.024  13.860  -8.046  1.00  0.00     0.198 HD
HETATM   65  N15 UNL     1     -32.462  13.188 -10.689  1.00  0.00    -0.381 N 
ATOM     66 2H15 UNL     1     -32.577  12.976 -11.680  1.00  0.00     0.157 HD
ATOM     67 1H15 UNL     1     -33.210  12.668 -10.230  1.00  0.00     0.157 HD
ENDBRANCH  56  58
ENDBRANCH   9  56
TORSDOF 18
ENDMDL
