MODEL 1
REMARK VINA RESULT: -7.337665344      0.000      0.000
REMARK  18 active torsions:
REMARK  status: ('A' for Active; 'I' for Inactive)
REMARK    1  A    between atoms: O1_2  and  C2_3 
REMARK    2  A    between atoms: C5_6  and  N1_7 
REMARK    3  A    between atoms: N1_7  and  C6_9 
REMARK    4  A    between atoms: C7_12  and  N3_13 
REMARK       I    between atoms: N3_13  and  C8_15 
REMARK    5  A    between atoms: C8_15  and  C9_17 
REMARK    6  A    between atoms: C9_17  and  C10_18 
REMARK    7  A    between atoms: C9_17  and  N9_34 
REMARK    8  A    between atoms: C10_18  and  C11_19 
REMARK    9  A    between atoms: C12_22  and  N5_23 
REMARK   10  A    between atoms: C13_28  and  N7_29 
REMARK       I    between atoms: N9_34  and  C14_36 
REMARK   11  A    between atoms: C14_36  and  C15_38 
REMARK   12  A    between atoms: C15_38  and  C16_39 
REMARK   13  A    between atoms: C16_39  and  N10_40 
REMARK       I    between atoms: N10_40  and  C17_42 
REMARK   14  A    between atoms: C17_42  and  C18_44 
REMARK   15  A    between atoms: C18_44  and  O5_47 
REMARK   16  A    between atoms: C21_51  and  N12_52 
REMARK   17  A    between atoms: N12_52  and  C22_54 
REMARK   18  A    between atoms: C24_58  and  N14_59 
ROOT
HETATM    1  N3  UNL     1     -29.153  15.003 -14.390  1.00  0.00    -0.157 N 
ATOM      2  H3  UNL     1     -28.724  15.372 -13.541  1.00  0.00     0.187 HD
HETATM    3  C8  UNL     1     -29.548  15.922 -15.393  1.00  0.00     0.259 C 
HETATM    4  O2  UNL     1     -28.956  15.988 -16.501  1.00  0.00    -0.270 OA
ENDROOT
BRANCH   1   5
HETATM    5  C7  UNL     1     -29.304  13.750 -14.488  1.00  0.00     0.714 A 
HETATM    6  N2  UNL     1     -30.288  13.210 -15.265  1.00  0.00    -0.021 N 
HETATM    7  C6  UNL     1     -30.454  11.889 -15.375  1.00  0.00     0.711 A 
ATOM      8  H2  UNL     1     -30.914  13.832 -15.776  1.00  0.00     0.203 HD
HETATM    9  N16 UNL     1     -29.668  11.021 -14.734  1.00  0.00    -0.021 N 
HETATM   10  C21 UNL     1     -28.678  11.544 -13.952  1.00  0.00     0.712 A 
ATOM     11  H16 UNL     1     -29.801  10.014 -14.823  1.00  0.00     0.203 HD
HETATM   12  N11 UNL     1     -28.514  12.874 -13.843  1.00  0.00    -0.021 N 
ATOM     13  H11 UNL     1     -27.763  13.231 -13.251  1.00  0.00     0.203 HD
BRANCH   7  14
HETATM   14  N1  UNL     1     -31.389  11.427 -16.139  1.00  0.00    -0.191 N 
ATOM     15  H1  UNL     1     -31.158  11.099 -17.076  1.00  0.00     0.184 HD
BRANCH  14  16
HETATM   16  C5  UNL     1     -32.741  11.371 -15.688  1.00  0.00     0.049 A 
HETATM   17  C4  UNL     1     -33.635  12.390 -15.905  1.00  0.00     0.033 A 
HETATM   18  C3  UNL     1     -34.963  12.295 -15.452  1.00  0.00     0.039 A 
HETATM   19  C2  UNL     1     -35.373  11.174 -14.785  1.00  0.00     0.068 A 
HETATM   20  C27 UNL     1     -34.463  10.150 -14.570  1.00  0.00     0.039 A 
HETATM   21  C26 UNL     1     -33.158  10.229 -15.009  1.00  0.00     0.033 A 
BRANCH  19  22
HETATM   22  O1  UNL     1     -36.674  11.027 -14.315  1.00  0.00    -0.356 OA
HETATM   23  C1  UNL     1     -37.680  11.970 -14.677  1.00  0.00     0.210 C 
ENDBRANCH  19  22
ENDBRANCH  14  16
ENDBRANCH   7  14
BRANCH  10  24
HETATM   24  N12 UNL     1     -27.891  10.727 -13.316  1.00  0.00    -0.188 N 
ATOM     25  H12 UNL     1     -28.183   9.759 -13.179  1.00  0.00     0.184 HD
BRANCH  24  26
HETATM   26  C22 UNL     1     -26.632  11.154 -12.807  1.00  0.00     0.081 A 
HETATM   27  C23 UNL     1     -26.565  11.429 -11.450  1.00  0.00     0.137 A 
HETATM   28  N13 UNL     1     -25.416  11.833 -10.926  1.00  0.00    -0.200 N 
HETATM   29  C24 UNL     1     -24.280  11.998 -11.648  1.00  0.00     0.675 A 
ATOM     30  H13 UNL     1     -25.385  12.031  -9.926  1.00  0.00     0.183 HD
HETATM   31  N15 UNL     1     -24.374  11.725 -12.959  1.00  0.00    -0.200 N 
HETATM   32  C25 UNL     1     -25.505  11.312 -13.560  1.00  0.00     0.137 A 
ATOM     33  H15 UNL     1     -23.539  11.838 -13.534  1.00  0.00     0.183 HD
BRANCH  29  34
HETATM   34  N14 UNL     1     -23.177  12.397 -11.082  1.00  0.00    -0.234 N 
ATOM     35 2H14 UNL     1     -23.154  12.868 -10.178  1.00  0.00     0.174 HD
ATOM     36 1H14 UNL     1     -22.273  12.251 -11.531  1.00  0.00     0.174 HD
ENDBRANCH  29  34
ENDBRANCH  24  26
ENDBRANCH  10  24
ENDBRANCH   1   5
BRANCH   3  37
HETATM   37  C9  UNL     1     -30.691  16.852 -15.157  1.00  0.00     0.184 C 
BRANCH  37  38
HETATM   38  C10 UNL     1     -31.747  16.469 -16.173  1.00  0.00     0.112 C 
BRANCH  38  39
HETATM   39  C11 UNL     1     -33.100  16.882 -15.834  1.00  0.00     0.116 A 
HETATM   40  N4  UNL     1     -33.586  18.085 -16.172  1.00  0.00    -0.180 N 
HETATM   41  C12 UNL     1     -34.853  18.458 -15.857  1.00  0.00     0.691 A 
ATOM     42  H4  UNL     1     -32.987  18.737 -16.679  1.00  0.00     0.185 HD
HETATM   43  N6  UNL     1     -35.646  17.587 -15.181  1.00  0.00    -0.023 N 
HETATM   44  C13 UNL     1     -35.178  16.388 -14.838  1.00  0.00     0.691 A 
ATOM     45  H6  UNL     1     -36.601  17.852 -14.936  1.00  0.00     0.203 HD
HETATM   46  N8  UNL     1     -33.916  16.050 -15.167  1.00  0.00    -0.180 N 
ATOM     47  H8  UNL     1     -33.568  15.129 -14.900  1.00  0.00     0.185 HD
BRANCH  41  48
HETATM   48  N5  UNL     1     -35.330  19.599 -16.169  1.00  0.00    -0.234 N 
ATOM     49  H52 UNL     1     -34.957  20.073 -16.991  1.00  0.00     0.174 HD
ATOM     50  H51 UNL     1     -36.069  20.051 -15.630  1.00  0.00     0.174 HD
ENDBRANCH  41  48
BRANCH  44  51
HETATM   51  N7  UNL     1     -35.920  15.542 -14.194  1.00  0.00    -0.234 N 
ATOM     52  H72 UNL     1     -36.251  15.774 -13.258  1.00  0.00     0.174 HD
ATOM     53  H71 UNL     1     -36.176  14.646 -14.609  1.00  0.00     0.174 HD
ENDBRANCH  44  51
ENDBRANCH  38  39
ENDBRANCH  37  38
BRANCH  37  54
HETATM   54  N9  UNL     1     -31.113  16.780 -13.800  1.00  0.00    -0.347 N 
HETATM   55  C14 UNL     1     -31.135  17.867 -12.903  1.00  0.00     0.219 C 
HETATM   56  O3  UNL     1     -30.756  18.991 -13.291  1.00  0.00    -0.274 OA
ATOM     57  H9  UNL     1     -31.423  15.873 -13.450  1.00  0.00     0.163 HD
BRANCH  55  58
HETATM   58  C15 UNL     1     -31.607  17.677 -11.518  1.00  0.00     0.122 C 
BRANCH  58  59
HETATM   59  C16 UNL     1     -30.751  16.701 -10.754  1.00  0.00     0.132 C 
BRANCH  59  60
HETATM   60  N10 UNL     1     -31.323  15.386 -10.880  1.00  0.00    -0.358 N 
HETATM   61  C17 UNL     1     -30.583  14.201 -11.084  1.00  0.00     0.251 C 
HETATM   62  O4  UNL     1     -29.339  14.159 -11.172  1.00  0.00    -0.270 OA
ATOM     63  H10 UNL     1     -32.338  15.304 -10.817  1.00  0.00     0.162 HD
BRANCH  61  64
HETATM   64  C18 UNL     1     -31.349  12.920 -11.203  1.00  0.00     0.131 C 
HETATM   65  C19 UNL     1     -32.326  13.122 -12.357  1.00  0.00     0.056 C 
HETATM   66  C20 UNL     1     -32.104  12.694  -9.925  1.00  0.00     0.056 C 
BRANCH  64  67
HETATM   67  O5  UNL     1     -30.515  11.873 -11.557  1.00  0.00    -0.381 OA
ATOM     68  H5  UNL     1     -30.900  11.349 -12.250  1.00  0.00     0.211 HD
ENDBRANCH  64  67
ENDBRANCH  61  64
ENDBRANCH  59  60
ENDBRANCH  58  59
ENDBRANCH  55  58
ENDBRANCH  37  54
ENDBRANCH   3  37
TORSDOF 18
ENDMDL
MODEL 2
REMARK VINA RESULT: -7.241466148      1.060      1.848
REMARK  18 active torsions:
REMARK  status: ('A' for Active; 'I' for Inactive)
REMARK    1  A    between atoms: O1_2  and  C2_3 
REMARK    2  A    between atoms: C5_6  and  N1_7 
REMARK    3  A    between atoms: N1_7  and  C6_9 
REMARK    4  A    between atoms: C7_12  and  N3_13 
REMARK       I    between atoms: N3_13  and  C8_15 
REMARK    5  A    between atoms: C8_15  and  C9_17 
REMARK    6  A    between atoms: C9_17  and  C10_18 
REMARK    7  A    between atoms: C9_17  and  N9_34 
REMARK    8  A    between atoms: C10_18  and  C11_19 
REMARK    9  A    between atoms: C12_22  and  N5_23 
REMARK   10  A    between atoms: C13_28  and  N7_29 
REMARK       I    between atoms: N9_34  and  C14_36 
REMARK   11  A    between atoms: C14_36  and  C15_38 
REMARK   12  A    between atoms: C15_38  and  C16_39 
REMARK   13  A    between atoms: C16_39  and  N10_40 
REMARK       I    between atoms: N10_40  and  C17_42 
REMARK   14  A    between atoms: C17_42  and  C18_44 
REMARK   15  A    between atoms: C18_44  and  O5_47 
REMARK   16  A    between atoms: C21_51  and  N12_52 
REMARK   17  A    between atoms: N12_52  and  C22_54 
REMARK   18  A    between atoms: C24_58  and  N14_59 
ROOT
HETATM    1  N3  UNL     1     -29.063  15.102 -14.418  1.00  0.00    -0.157 N 
ATOM      2  H3  UNL     1     -28.622  15.444 -13.565  1.00  0.00     0.187 HD
HETATM    3  C8  UNL     1     -29.418  16.047 -15.411  1.00  0.00     0.259 C 
HETATM    4  O2  UNL     1     -28.822  16.103 -16.518  1.00  0.00    -0.270 OA
ENDROOT
BRANCH   1   5
HETATM    5  C7  UNL     1     -29.263  13.857 -14.532  1.00  0.00     0.714 A 
HETATM    6  N2  UNL     1     -30.256  13.365 -15.329  1.00  0.00    -0.021 N 
HETATM    7  C6  UNL     1     -30.474  12.053 -15.454  1.00  0.00     0.711 A 
ATOM      8  H2  UNL     1     -30.849  14.018 -15.843  1.00  0.00     0.203 HD
HETATM    9  N16 UNL     1     -29.734  11.148 -14.811  1.00  0.00    -0.021 N 
HETATM   10  C21 UNL     1     -28.736  11.623 -14.009  1.00  0.00     0.712 A 
ATOM     11  H16 UNL     1     -29.907  10.148 -14.913  1.00  0.00     0.203 HD
HETATM   12  N11 UNL     1     -28.519  12.943 -13.884  1.00  0.00    -0.021 N 
ATOM     13  H11 UNL     1     -27.764  13.264 -13.278  1.00  0.00     0.203 HD
BRANCH   7  14
HETATM   14  N1  UNL     1     -31.416  11.638 -16.237  1.00  0.00    -0.191 N 
ATOM     15  H1  UNL     1     -31.213  11.463 -17.221  1.00  0.00     0.184 HD
BRANCH  14  16
HETATM   16  C5  UNL     1     -32.736  11.420 -15.743  1.00  0.00     0.049 A 
HETATM   17  C4  UNL     1     -33.129  10.229 -15.184  1.00  0.00     0.033 A 
HETATM   18  C3  UNL     1     -34.438  10.055 -14.701  1.00  0.00     0.039 A 
HETATM   19  C2  UNL     1     -35.335  11.084 -14.787  1.00  0.00     0.068 A 
HETATM   20  C27 UNL     1     -34.929  12.283 -15.353  1.00  0.00     0.039 A 
HETATM   21  C26 UNL     1     -33.649  12.468 -15.831  1.00  0.00     0.033 A 
BRANCH  19  22
HETATM   22  O1  UNL     1     -36.642  10.966 -14.325  1.00  0.00    -0.356 OA
HETATM   23  C1  UNL     1     -37.618  11.945 -14.672  1.00  0.00     0.210 C 
ENDBRANCH  19  22
ENDBRANCH  14  16
ENDBRANCH   7  14
BRANCH  10  24
HETATM   24  N12 UNL     1     -27.993  10.768 -13.370  1.00  0.00    -0.188 N 
ATOM     25  H12 UNL     1     -28.335   9.817 -13.230  1.00  0.00     0.184 HD
BRANCH  24  26
HETATM   26  C22 UNL     1     -26.713  11.131 -12.862  1.00  0.00     0.081 A 
HETATM   27  C23 UNL     1     -26.622  11.359 -11.497  1.00  0.00     0.137 A 
HETATM   28  N13 UNL     1     -25.454  11.702 -10.974  1.00  0.00    -0.200 N 
HETATM   29  C24 UNL     1     -24.320  11.848 -11.702  1.00  0.00     0.675 A 
ATOM     30  H13 UNL     1     -25.406  11.866  -9.968  1.00  0.00     0.183 HD
HETATM   31  N15 UNL     1     -24.437  11.622 -13.021  1.00  0.00    -0.200 N 
HETATM   32  C25 UNL     1     -25.588  11.271 -13.622  1.00  0.00     0.137 A 
ATOM     33  H15 UNL     1     -23.604  11.722 -13.601  1.00  0.00     0.183 HD
BRANCH  29  34
HETATM   34  N14 UNL     1     -23.197  12.187 -11.136  1.00  0.00    -0.234 N 
ATOM     35 2H14 UNL     1     -22.601  12.937 -11.486  1.00  0.00     0.174 HD
ATOM     36 1H14 UNL     1     -22.861  11.703 -10.303  1.00  0.00     0.174 HD
ENDBRANCH  29  34
ENDBRANCH  24  26
ENDBRANCH  10  24
ENDBRANCH   1   5
BRANCH   3  37
HETATM   37  C9  UNL     1     -30.525  17.019 -15.168  1.00  0.00     0.184 C 
BRANCH  37  38
HETATM   38  C10 UNL     1     -31.542  16.765 -16.260  1.00  0.00     0.112 C 
BRANCH  38  39
HETATM   39  C11 UNL     1     -32.216  17.954 -16.757  1.00  0.00     0.116 A 
HETATM   40  N4  UNL     1     -33.352  18.412 -16.211  1.00  0.00    -0.180 N 
HETATM   41  C12 UNL     1     -33.970  19.527 -16.679  1.00  0.00     0.691 A 
ATOM     42  H4  UNL     1     -33.762  17.910 -15.424  1.00  0.00     0.185 HD
HETATM   43  N6  UNL     1     -33.421  20.193 -17.727  1.00  0.00    -0.023 N 
HETATM   44  C13 UNL     1     -32.293  19.751 -18.280  1.00  0.00     0.691 A 
ATOM     45  H6  UNL     1     -33.872  21.032 -18.091  1.00  0.00     0.203 HD
HETATM   46  N8  UNL     1     -31.705  18.641 -17.791  1.00  0.00    -0.180 N 
ATOM     47  H8  UNL     1     -30.842  18.311 -18.222  1.00  0.00     0.185 HD
BRANCH  41  48
HETATM   48  N5  UNL     1     -35.051  19.976 -16.173  1.00  0.00    -0.234 N 
ATOM     49  H52 UNL     1     -35.062  20.933 -15.820  1.00  0.00     0.174 HD
ATOM     50  H51 UNL     1     -35.902  19.416 -16.110  1.00  0.00     0.174 HD
ENDBRANCH  41  48
BRANCH  44  51
HETATM   51  N7  UNL     1     -31.752  20.373 -19.281  1.00  0.00    -0.234 N 
ATOM     52  H72 UNL     1     -30.741  20.329 -19.414  1.00  0.00     0.174 HD
ATOM     53  H71 UNL     1     -32.321  20.906 -19.938  1.00  0.00     0.174 HD
ENDBRANCH  44  51
ENDBRANCH  38  39
ENDBRANCH  37  38
BRANCH  37  54
HETATM   54  N9  UNL     1     -31.022  16.877 -13.842  1.00  0.00    -0.347 N 
HETATM   55  C14 UNL     1     -31.130  17.924 -12.904  1.00  0.00     0.219 C 
HETATM   56  O3  UNL     1     -30.765  19.074 -13.222  1.00  0.00    -0.274 OA
ATOM     57  H9  UNL     1     -31.322  15.947 -13.548  1.00  0.00     0.163 HD
BRANCH  55  58
HETATM   58  C15 UNL     1     -31.675  17.662 -11.558  1.00  0.00     0.122 C 
BRANCH  58  59
HETATM   59  C16 UNL     1     -30.813  16.710 -10.772  1.00  0.00     0.132 C 
BRANCH  59  60
HETATM   60  N10 UNL     1     -31.358  15.382 -10.893  1.00  0.00    -0.358 N 
HETATM   61  C17 UNL     1     -30.594  14.213 -11.100  1.00  0.00     0.251 C 
HETATM   62  O4  UNL     1     -29.349  14.197 -11.193  1.00  0.00    -0.270 OA
ATOM     63  H10 UNL     1     -32.370  15.279 -10.825  1.00  0.00     0.162 HD
BRANCH  61  64
HETATM   64  C18 UNL     1     -31.332  12.916 -11.213  1.00  0.00     0.131 C 
HETATM   65  C19 UNL     1     -32.306  13.090 -12.374  1.00  0.00     0.056 C 
HETATM   66  C20 UNL     1     -32.089  12.683  -9.938  1.00  0.00     0.056 C 
BRANCH  64  67
HETATM   67  O5  UNL     1     -30.475  11.884 -11.556  1.00  0.00    -0.381 OA
ATOM     68  H5  UNL     1     -30.081  11.497 -10.783  1.00  0.00     0.211 HD
ENDBRANCH  64  67
ENDBRANCH  61  64
ENDBRANCH  59  60
ENDBRANCH  58  59
ENDBRANCH  55  58
ENDBRANCH  37  54
ENDBRANCH   3  37
TORSDOF 18
ENDMDL
MODEL 3
REMARK VINA RESULT: -7.170405214      1.379      1.839
REMARK  18 active torsions:
REMARK  status: ('A' for Active; 'I' for Inactive)
REMARK    1  A    between atoms: O1_2  and  C2_3 
REMARK    2  A    between atoms: C5_6  and  N1_7 
REMARK    3  A    between atoms: N1_7  and  C6_9 
REMARK    4  A    between atoms: C7_12  and  N3_13 
REMARK       I    between atoms: N3_13  and  C8_15 
REMARK    5  A    between atoms: C8_15  and  C9_17 
REMARK    6  A    between atoms: C9_17  and  C10_18 
REMARK    7  A    between atoms: C9_17  and  N9_34 
REMARK    8  A    between atoms: C10_18  and  C11_19 
REMARK    9  A    between atoms: C12_22  and  N5_23 
REMARK   10  A    between atoms: C13_28  and  N7_29 
REMARK       I    between atoms: N9_34  and  C14_36 
REMARK   11  A    between atoms: C14_36  and  C15_38 
REMARK   12  A    between atoms: C15_38  and  C16_39 
REMARK   13  A    between atoms: C16_39  and  N10_40 
REMARK       I    between atoms: N10_40  and  C17_42 
REMARK   14  A    between atoms: C17_42  and  C18_44 
REMARK   15  A    between atoms: C18_44  and  O5_47 
REMARK   16  A    between atoms: C21_51  and  N12_52 
REMARK   17  A    between atoms: N12_52  and  C22_54 
REMARK   18  A    between atoms: C24_58  and  N14_59 
ROOT
HETATM    1  N3  UNL     1     -29.166  15.259 -14.459  1.00  0.00    -0.157 N 
ATOM      2  H3  UNL     1     -28.761  15.571 -13.577  1.00  0.00     0.187 HD
HETATM    3  C8  UNL     1     -29.503  16.240 -15.424  1.00  0.00     0.259 C 
HETATM    4  O2  UNL     1     -28.870  16.354 -16.504  1.00  0.00    -0.270 OA
ENDROOT
BRANCH   1   5
HETATM    5  C7  UNL     1     -29.340  14.018 -14.633  1.00  0.00     0.714 A 
HETATM    6  N2  UNL     1     -30.215  13.544 -15.568  1.00  0.00    -0.021 N 
HETATM    7  C6  UNL     1     -30.404  12.235 -15.758  1.00  0.00     0.711 A 
ATOM      8  H2  UNL     1     -30.739  14.208 -16.138  1.00  0.00     0.203 HD
HETATM    9  N16 UNL     1     -29.749  11.315 -15.046  1.00  0.00    -0.021 N 
HETATM   10  C21 UNL     1     -28.869  11.771 -14.106  1.00  0.00     0.712 A 
ATOM     11  H16 UNL     1     -29.899  10.318 -15.198  1.00  0.00     0.203 HD
HETATM   12  N11 UNL     1     -28.682  13.089 -13.918  1.00  0.00    -0.021 N 
ATOM     13  H11 UNL     1     -28.017  13.395 -13.207  1.00  0.00     0.203 HD
BRANCH   7  14
HETATM   14  N1  UNL     1     -31.230  11.838 -16.669  1.00  0.00    -0.191 N 
ATOM     15  H1  UNL     1     -31.041  10.975 -17.178  1.00  0.00     0.184 HD
BRANCH  14  16
HETATM   16  C5  UNL     1     -32.402  12.590 -16.973  1.00  0.00     0.049 A 
HETATM   17  C4  UNL     1     -33.534  12.540 -16.197  1.00  0.00     0.033 A 
HETATM   18  C3  UNL     1     -34.669  13.304 -16.525  1.00  0.00     0.039 A 
HETATM   19  C2  UNL     1     -34.649  14.107 -17.631  1.00  0.00     0.068 A 
HETATM   20  C27 UNL     1     -33.502  14.150 -18.409  1.00  0.00     0.039 A 
HETATM   21  C26 UNL     1     -32.382  13.408 -18.100  1.00  0.00     0.033 A 
BRANCH  19  22
HETATM   22  O1  UNL     1     -35.744  14.882 -18.002  1.00  0.00    -0.356 OA
HETATM   23  C1  UNL     1     -35.649  15.780 -19.104  1.00  0.00     0.210 C 
ENDBRANCH  19  22
ENDBRANCH  14  16
ENDBRANCH   7  14
BRANCH  10  24
HETATM   24  N12 UNL     1     -28.212  10.901 -13.397  1.00  0.00    -0.188 N 
ATOM     25  H12 UNL     1     -28.668  10.031 -13.126  1.00  0.00     0.184 HD
BRANCH  24  26
HETATM   26  C22 UNL     1     -26.867  11.139 -12.992  1.00  0.00     0.081 A 
HETATM   27  C23 UNL     1     -26.618  11.159 -11.628  1.00  0.00     0.137 A 
HETATM   28  N13 UNL     1     -25.384  11.379 -11.198  1.00  0.00    -0.200 N 
HETATM   29  C24 UNL     1     -24.329  11.590 -12.023  1.00  0.00     0.675 A 
ATOM     30  H13 UNL     1     -25.219  11.390 -10.192  1.00  0.00     0.183 HD
HETATM   31  N15 UNL     1     -24.599  11.566 -13.339  1.00  0.00    -0.200 N 
HETATM   32  C25 UNL     1     -25.825  11.349 -13.848  1.00  0.00     0.137 A 
ATOM     33  H15 UNL     1     -23.829  11.721 -13.990  1.00  0.00     0.183 HD
BRANCH  29  34
HETATM   34  N14 UNL     1     -23.135  11.800 -11.547  1.00  0.00    -0.234 N 
ATOM     35 2H14 UNL     1     -22.507  11.047 -11.268  1.00  0.00     0.174 HD
ATOM     36 1H14 UNL     1     -22.775  12.747 -11.429  1.00  0.00     0.174 HD
ENDBRANCH  29  34
ENDBRANCH  24  26
ENDBRANCH  10  24
ENDBRANCH   1   5
BRANCH   3  37
HETATM   37  C9  UNL     1     -30.635  17.182 -15.179  1.00  0.00     0.184 C 
BRANCH  37  38
HETATM   38  C10 UNL     1     -31.632  16.923 -16.288  1.00  0.00     0.112 C 
BRANCH  38  39
HETATM   39  C11 UNL     1     -32.901  17.621 -16.146  1.00  0.00     0.116 A 
HETATM   40  N4  UNL     1     -32.999  18.954 -16.251  1.00  0.00    -0.180 N 
HETATM   41  C12 UNL     1     -34.189  19.595 -16.123  1.00  0.00     0.691 A 
ATOM     42  H4  UNL     1     -32.157  19.501 -16.431  1.00  0.00     0.185 HD
HETATM   43  N6  UNL     1     -35.308  18.863 -15.882  1.00  0.00    -0.023 N 
HETATM   44  C13 UNL     1     -35.227  17.538 -15.775  1.00  0.00     0.691 A 
ATOM     45  H6  UNL     1     -36.210  19.329 -15.784  1.00  0.00     0.203 HD
HETATM   46  N8  UNL     1     -34.029  16.934 -15.908  1.00  0.00    -0.180 N 
ATOM     47  H8  UNL     1     -33.978  15.919 -15.824  1.00  0.00     0.185 HD
BRANCH  41  48
HETATM   48  N5  UNL     1     -34.300  20.862 -16.218  1.00  0.00    -0.234 N 
ATOM     49  H52 UNL     1     -34.962  21.242 -16.895  1.00  0.00     0.174 HD
ATOM     50  H51 UNL     1     -33.757  21.505 -15.643  1.00  0.00     0.174 HD
ENDBRANCH  41  48
BRANCH  44  51
HETATM   51  N7  UNL     1     -36.283  16.821 -15.547  1.00  0.00    -0.234 N 
ATOM     52  H72 UNL     1     -36.775  16.919 -14.659  1.00  0.00     0.174 HD
ATOM     53  H71 UNL     1     -36.628  16.159 -16.242  1.00  0.00     0.174 HD
ENDBRANCH  44  51
ENDBRANCH  38  39
ENDBRANCH  37  38
BRANCH  37  54
HETATM   54  N9  UNL     1     -31.146  17.007 -13.862  1.00  0.00    -0.347 N 
HETATM   55  C14 UNL     1     -31.189  18.009 -12.872  1.00  0.00     0.219 C 
HETATM   56  O3  UNL     1     -30.746  19.148 -13.131  1.00  0.00    -0.274 OA
ATOM     57  H9  UNL     1     -31.509  16.085 -13.616  1.00  0.00     0.163 HD
BRANCH  55  58
HETATM   58  C15 UNL     1     -31.755  17.716 -11.542  1.00  0.00     0.122 C 
BRANCH  58  59
HETATM   59  C16 UNL     1     -30.880  16.786 -10.743  1.00  0.00     0.132 C 
BRANCH  59  60
HETATM   60  N10 UNL     1     -31.398  15.448 -10.858  1.00  0.00    -0.358 N 
HETATM   61  C17 UNL     1     -30.615  14.297 -11.089  1.00  0.00     0.251 C 
HETATM   62  O4  UNL     1     -29.373  14.308 -11.212  1.00  0.00    -0.270 OA
ATOM     63  H10 UNL     1     -32.406  15.322 -10.766  1.00  0.00     0.162 HD
BRANCH  61  64
HETATM   64  C18 UNL     1     -31.328  12.984 -11.191  1.00  0.00     0.131 C 
HETATM   65  C19 UNL     1     -32.152  13.054 -12.473  1.00  0.00     0.056 C 
HETATM   66  C20 UNL     1     -32.236  12.839 -10.005  1.00  0.00     0.056 C 
BRANCH  64  67
HETATM   67  O5  UNL     1     -30.431  11.941 -11.344  1.00  0.00    -0.381 OA
ATOM     68  H5  UNL     1     -29.767  11.958 -10.663  1.00  0.00     0.211 HD
ENDBRANCH  64  67
ENDBRANCH  61  64
ENDBRANCH  59  60
ENDBRANCH  58  59
ENDBRANCH  55  58
ENDBRANCH  37  54
ENDBRANCH   3  37
TORSDOF 18
ENDMDL
MODEL 4
REMARK VINA RESULT: -7.126417183      5.206      8.933
REMARK  18 active torsions:
REMARK  status: ('A' for Active; 'I' for Inactive)
REMARK    1  A    between atoms: O1_2  and  C2_3 
REMARK    2  A    between atoms: C5_6  and  N1_7 
REMARK    3  A    between atoms: N1_7  and  C6_9 
REMARK    4  A    between atoms: C7_12  and  N3_13 
REMARK       I    between atoms: N3_13  and  C8_15 
REMARK    5  A    between atoms: C8_15  and  C9_17 
REMARK    6  A    between atoms: C9_17  and  C10_18 
REMARK    7  A    between atoms: C9_17  and  N9_34 
REMARK    8  A    between atoms: C10_18  and  C11_19 
REMARK    9  A    between atoms: C12_22  and  N5_23 
REMARK   10  A    between atoms: C13_28  and  N7_29 
REMARK       I    between atoms: N9_34  and  C14_36 
REMARK   11  A    between atoms: C14_36  and  C15_38 
REMARK   12  A    between atoms: C15_38  and  C16_39 
REMARK   13  A    between atoms: C16_39  and  N10_40 
REMARK       I    between atoms: N10_40  and  C17_42 
REMARK   14  A    between atoms: C17_42  and  C18_44 
REMARK   15  A    between atoms: C18_44  and  O5_47 
REMARK   16  A    between atoms: C21_51  and  N12_52 
REMARK   17  A    between atoms: N12_52  and  C22_54 
REMARK   18  A    between atoms: C24_58  and  N14_59 
ROOT
HETATM    1  N3  UNL     1     -31.900  19.274 -17.582  1.00  0.00    -0.157 N 
ATOM      2  H3  UNL     1     -32.540  19.910 -17.108  1.00  0.00     0.187 HD
HETATM    3  C8  UNL     1     -31.208  19.748 -18.723  1.00  0.00     0.259 C 
HETATM    4  O2  UNL     1     -29.966  19.949 -18.711  1.00  0.00    -0.270 OA
ENDROOT
BRANCH   1   5
HETATM    5  C7  UNL     1     -31.767  18.103 -17.118  1.00  0.00     0.714 A 
HETATM    6  N2  UNL     1     -30.894  17.834 -16.103  1.00  0.00    -0.021 N 
HETATM    7  C6  UNL     1     -30.748  16.602 -15.607  1.00  0.00     0.711 A 
ATOM      8  H2  UNL     1     -30.339  18.595 -15.712  1.00  0.00     0.203 HD
HETATM    9  N16 UNL     1     -31.446  15.564 -16.073  1.00  0.00    -0.021 N 
HETATM   10  C21 UNL     1     -32.324  15.816 -17.089  1.00  0.00     0.712 A 
ATOM     11  H16 UNL     1     -31.329  14.627 -15.689  1.00  0.00     0.203 HD
HETATM   12  N11 UNL     1     -32.468  17.056 -17.586  1.00  0.00    -0.021 N 
ATOM     13  H11 UNL     1     -33.134  17.209 -18.344  1.00  0.00     0.203 HD
BRANCH   7  14
HETATM   14  N1  UNL     1     -29.922  16.403 -14.633  1.00  0.00    -0.191 N 
ATOM     15  H1  UNL     1     -28.919  16.390 -14.819  1.00  0.00     0.184 HD
BRANCH  14  16
HETATM   16  C5  UNL     1     -30.393  16.202 -13.303  1.00  0.00     0.049 A 
HETATM   17  C4  UNL     1     -30.909  17.221 -12.540  1.00  0.00     0.033 A 
HETATM   18  C3  UNL     1     -31.371  16.982 -11.233  1.00  0.00     0.039 A 
HETATM   19  C2  UNL     1     -31.306  15.719 -10.711  1.00  0.00     0.068 A 
HETATM   20  C27 UNL     1     -30.782  14.698 -11.489  1.00  0.00     0.039 A 
HETATM   21  C26 UNL     1     -30.326  14.917 -12.771  1.00  0.00     0.033 A 
BRANCH  19  22
HETATM   22  O1  UNL     1     -31.748  15.427  -9.424  1.00  0.00    -0.356 OA
HETATM   23  C1  UNL     1     -31.679  14.094  -8.926  1.00  0.00     0.210 C 
ENDBRANCH  19  22
ENDBRANCH  14  16
ENDBRANCH   7  14
BRANCH  10  24
HETATM   24  N12 UNL     1     -33.023  14.827 -17.564  1.00  0.00    -0.188 N 
ATOM     25  H12 UNL     1     -33.902  14.575 -17.113  1.00  0.00     0.184 HD
BRANCH  24  26
HETATM   26  C22 UNL     1     -32.587  14.090 -18.702  1.00  0.00     0.081 A 
HETATM   27  C23 UNL     1     -31.746  13.013 -18.466  1.00  0.00     0.137 A 
HETATM   28  N13 UNL     1     -31.309  12.295 -19.491  1.00  0.00    -0.200 N 
HETATM   29  C24 UNL     1     -31.639  12.552 -20.781  1.00  0.00     0.675 A 
ATOM     30  H13 UNL     1     -30.691  11.507 -19.299  1.00  0.00     0.183 HD
HETATM   31  N15 UNL     1     -32.454  13.600 -20.980  1.00  0.00    -0.200 N 
HETATM   32  C25 UNL     1     -32.936  14.374 -19.990  1.00  0.00     0.137 A 
ATOM     33  H15 UNL     1     -32.723  13.824 -21.938  1.00  0.00     0.183 HD
BRANCH  29  34
HETATM   34  N14 UNL     1     -31.182  11.812 -21.751  1.00  0.00    -0.234 N 
ATOM     35 2H14 UNL     1     -30.395  11.174 -21.640  1.00  0.00     0.174 HD
ATOM     36 1H14 UNL     1     -31.601  11.845 -22.679  1.00  0.00     0.174 HD
ENDBRANCH  29  34
ENDBRANCH  24  26
ENDBRANCH  10  24
ENDBRANCH   1   5
BRANCH   3  37
HETATM   37  C9  UNL     1     -31.946  20.030 -19.990  1.00  0.00     0.184 C 
BRANCH  37  38
HETATM   38  C10 UNL     1     -33.172  20.819 -19.584  1.00  0.00     0.112 C 
BRANCH  38  39
HETATM   39  C11 UNL     1     -34.048  21.198 -20.682  1.00  0.00     0.116 A 
HETATM   40  N4  UNL     1     -34.294  22.480 -20.991  1.00  0.00    -0.180 N 
HETATM   41  C12 UNL     1     -35.108  22.823 -22.022  1.00  0.00     0.691 A 
ATOM     42  H4  UNL     1     -33.858  23.216 -20.436  1.00  0.00     0.185 HD
HETATM   43  N6  UNL     1     -35.686  21.839 -22.758  1.00  0.00    -0.023 N 
HETATM   44  C13 UNL     1     -35.452  20.561 -22.464  1.00  0.00     0.691 A 
ATOM     45  H6  UNL     1     -36.301  22.079 -23.537  1.00  0.00     0.203 HD
HETATM   46  N8  UNL     1     -34.638  20.256 -21.434  1.00  0.00    -0.180 N 
ATOM     47  H8  UNL     1     -34.466  19.274 -21.218  1.00  0.00     0.185 HD
BRANCH  41  48
HETATM   48  N5  UNL     1     -35.354  24.036 -22.328  1.00  0.00    -0.234 N 
ATOM     49  H52 UNL     1     -35.471  24.713 -21.574  1.00  0.00     0.174 HD
ATOM     50  H51 UNL     1     -35.435  24.353 -23.294  1.00  0.00     0.174 HD
ENDBRANCH  41  48
BRANCH  44  51
HETATM   51  N7  UNL     1     -35.994  19.607 -23.156  1.00  0.00    -0.234 N 
ATOM     52  H72 UNL     1     -36.999  19.619 -23.328  1.00  0.00     0.174 HD
ATOM     53  H71 UNL     1     -35.430  18.844 -23.529  1.00  0.00     0.174 HD
ENDBRANCH  44  51
ENDBRANCH  38  39
ENDBRANCH  37  38
BRANCH  37  54
HETATM   54  N9  UNL     1     -31.093  20.687 -20.921  1.00  0.00    -0.347 N 
HETATM   55  C14 UNL     1     -30.637  20.128 -22.132  1.00  0.00     0.219 C 
HETATM   56  O3  UNL     1     -30.981  18.968 -22.441  1.00  0.00    -0.274 OA
ATOM     57  H9  UNL     1     -30.788  21.634 -20.694  1.00  0.00     0.163 HD
BRANCH  55  58
HETATM   58  C15 UNL     1     -29.764  20.909 -23.029  1.00  0.00     0.122 C 
BRANCH  58  59
HETATM   59  C16 UNL     1     -28.327  20.466 -22.951  1.00  0.00     0.132 C 
BRANCH  59  60
HETATM   60  N10 UNL     1     -27.723  21.053 -21.783  1.00  0.00    -0.358 N 
HETATM   61  C17 UNL     1     -27.111  20.325 -20.740  1.00  0.00     0.251 C 
HETATM   62  O4  UNL     1     -27.018  19.081 -20.715  1.00  0.00    -0.270 OA
ATOM     63  H10 UNL     1     -27.737  22.069 -21.705  1.00  0.00     0.162 HD
BRANCH  61  64
HETATM   64  C18 UNL     1     -26.543  21.104 -19.594  1.00  0.00     0.131 C 
HETATM   65  C19 UNL     1     -27.111  22.514 -19.725  1.00  0.00     0.056 C 
HETATM   66  C20 UNL     1     -25.049  21.138 -19.734  1.00  0.00     0.056 C 
BRANCH  64  67
HETATM   67  O5  UNL     1     -26.984  20.601 -18.383  1.00  0.00    -0.381 OA
ATOM     68  H5  UNL     1     -26.323  20.046 -17.983  1.00  0.00     0.211 HD
ENDBRANCH  64  67
ENDBRANCH  61  64
ENDBRANCH  59  60
ENDBRANCH  58  59
ENDBRANCH  55  58
ENDBRANCH  37  54
ENDBRANCH   3  37
TORSDOF 18
ENDMDL
MODEL 5
REMARK VINA RESULT: -7.089672474      3.053      8.367
REMARK  18 active torsions:
REMARK  status: ('A' for Active; 'I' for Inactive)
REMARK    1  A    between atoms: O1_2  and  C2_3 
REMARK    2  A    between atoms: C5_6  and  N1_7 
REMARK    3  A    between atoms: N1_7  and  C6_9 
REMARK    4  A    between atoms: C7_12  and  N3_13 
REMARK       I    between atoms: N3_13  and  C8_15 
REMARK    5  A    between atoms: C8_15  and  C9_17 
REMARK    6  A    between atoms: C9_17  and  C10_18 
REMARK    7  A    between atoms: C9_17  and  N9_34 
REMARK    8  A    between atoms: C10_18  and  C11_19 
REMARK    9  A    between atoms: C12_22  and  N5_23 
REMARK   10  A    between atoms: C13_28  and  N7_29 
REMARK       I    between atoms: N9_34  and  C14_36 
REMARK   11  A    between atoms: C14_36  and  C15_38 
REMARK   12  A    between atoms: C15_38  and  C16_39 
REMARK   13  A    between atoms: C16_39  and  N10_40 
REMARK       I    between atoms: N10_40  and  C17_42 
REMARK   14  A    between atoms: C17_42  and  C18_44 
REMARK   15  A    between atoms: C18_44  and  O5_47 
REMARK   16  A    between atoms: C21_51  and  N12_52 
REMARK   17  A    between atoms: N12_52  and  C22_54 
REMARK   18  A    between atoms: C24_58  and  N14_59 
ROOT
HETATM    1  N3  UNL     1     -31.405  18.055 -16.564  1.00  0.00    -0.157 N 
ATOM      2  H3  UNL     1     -30.528  18.157 -17.074  1.00  0.00     0.187 HD
HETATM    3  C8  UNL     1     -31.342  17.809 -15.171  1.00  0.00     0.259 C 
HETATM    4  O2  UNL     1     -31.706  18.669 -14.328  1.00  0.00    -0.270 OA
ENDROOT
BRANCH   1   5
HETATM    5  C7  UNL     1     -32.488  18.155 -17.210  1.00  0.00     0.714 A 
HETATM    6  N2  UNL     1     -33.700  18.011 -16.597  1.00  0.00    -0.021 N 
HETATM    7  C6  UNL     1     -34.848  18.115 -17.271  1.00  0.00     0.711 A 
ATOM      8  H2  UNL     1     -33.729  17.818 -15.596  1.00  0.00     0.203 HD
HETATM    9  N16 UNL     1     -34.879  18.367 -18.581  1.00  0.00    -0.021 N 
HETATM   10  C21 UNL     1     -33.676  18.515 -19.211  1.00  0.00     0.712 A 
ATOM     11  H16 UNL     1     -35.761  18.446 -19.089  1.00  0.00     0.203 HD
HETATM   12  N11 UNL     1     -32.523  18.409 -18.530  1.00  0.00    -0.021 N 
ATOM     13  H11 UNL     1     -31.642  18.526 -19.031  1.00  0.00     0.203 HD
BRANCH   7  14
HETATM   14  N1  UNL     1     -35.969  17.989 -16.640  1.00  0.00    -0.191 N 
ATOM     15  H1  UNL     1     -36.611  18.780 -16.590  1.00  0.00     0.184 HD
BRANCH  14  16
HETATM   16  C5  UNL     1     -36.321  16.758 -16.012  1.00  0.00     0.049 A 
HETATM   17  C4  UNL     1     -36.632  15.627 -16.725  1.00  0.00     0.033 A 
HETATM   18  C3  UNL     1     -36.967  14.429 -16.069  1.00  0.00     0.039 A 
HETATM   19  C2  UNL     1     -36.986  14.386 -14.703  1.00  0.00     0.068 A 
HETATM   20  C27 UNL     1     -36.672  15.534 -13.991  1.00  0.00     0.039 A 
HETATM   21  C26 UNL     1     -36.341  16.715 -14.620  1.00  0.00     0.033 A 
BRANCH  19  22
HETATM   22  O1  UNL     1     -37.311  13.228 -14.003  1.00  0.00    -0.356 OA
HETATM   23  C1  UNL     1     -38.448  12.456 -14.379  1.00  0.00     0.210 C 
ENDBRANCH  19  22
ENDBRANCH  14  16
ENDBRANCH   7  14
BRANCH  10  24
HETATM   24  N12 UNL     1     -33.670  18.765 -20.487  1.00  0.00    -0.188 N 
ATOM     25  H12 UNL     1     -33.340  18.050 -21.134  1.00  0.00     0.184 HD
BRANCH  24  26
HETATM   26  C22 UNL     1     -34.114  20.018 -21.000  1.00  0.00     0.081 A 
HETATM   27  C23 UNL     1     -33.661  21.156 -20.351  1.00  0.00     0.137 A 
HETATM   28  N13 UNL     1     -34.047  22.347 -20.786  1.00  0.00    -0.200 N 
HETATM   29  C24 UNL     1     -34.873  22.527 -21.847  1.00  0.00     0.675 A 
ATOM     30  H13 UNL     1     -33.704  23.174 -20.297  1.00  0.00     0.183 HD
HETATM   31  N15 UNL     1     -35.296  21.407 -22.456  1.00  0.00    -0.200 N 
HETATM   32  C25 UNL     1     -34.947  20.166 -22.070  1.00  0.00     0.137 A 
ATOM     33  H15 UNL     1     -35.919  21.503 -23.258  1.00  0.00     0.183 HD
BRANCH  29  34
HETATM   34  N14 UNL     1     -35.219  23.721 -22.234  1.00  0.00    -0.234 N 
ATOM     35 2H14 UNL     1     -35.241  24.524 -21.606  1.00  0.00     0.174 HD
ATOM     36 1H14 UNL     1     -35.489  23.903 -23.200  1.00  0.00     0.174 HD
ENDBRANCH  29  34
ENDBRANCH  24  26
ENDBRANCH  10  24
ENDBRANCH   1   5
BRANCH   3  37
HETATM   37  C9  UNL     1     -30.832  16.504 -14.656  1.00  0.00     0.184 C 
BRANCH  37  38
HETATM   38  C10 UNL     1     -30.002  16.840 -13.436  1.00  0.00     0.112 C 
BRANCH  38  39
HETATM   39  C11 UNL     1     -30.661  16.600 -12.162  1.00  0.00     0.116 A 
HETATM   40  N4  UNL     1     -30.535  15.441 -11.499  1.00  0.00    -0.180 N 
HETATM   41  C12 UNL     1     -31.149  15.230 -10.306  1.00  0.00     0.691 A 
ATOM     42  H4  UNL     1     -29.962  14.699 -11.901  1.00  0.00     0.185 HD
HETATM   43  N6  UNL     1     -31.911  16.220  -9.774  1.00  0.00    -0.023 N 
HETATM   44  C13 UNL     1     -32.047  17.377 -10.421  1.00  0.00     0.691 A 
ATOM     45  H6  UNL     1     -32.380  16.078  -8.879  1.00  0.00     0.203 HD
HETATM   46  N8  UNL     1     -31.422  17.553 -11.602  1.00  0.00    -0.180 N 
ATOM     47  H8  UNL     1     -31.533  18.443 -12.089  1.00  0.00     0.185 HD
BRANCH  41  48
HETATM   48  N5  UNL     1     -31.041  14.134  -9.664  1.00  0.00    -0.234 N 
ATOM     49  H52 UNL     1     -30.312  13.477  -9.942  1.00  0.00     0.174 HD
ATOM     50  H51 UNL     1     -31.652  13.892  -8.884  1.00  0.00     0.174 HD
ENDBRANCH  41  48
BRANCH  44  51
HETATM   51  N7  UNL     1     -32.769  18.336  -9.929  1.00  0.00    -0.234 N 
ATOM     52  H72 UNL     1     -33.606  18.110  -9.392  1.00  0.00     0.174 HD
ATOM     53  H71 UNL     1     -32.513  19.312 -10.074  1.00  0.00     0.174 HD
ENDBRANCH  44  51
ENDBRANCH  38  39
ENDBRANCH  37  38
BRANCH  37  54
HETATM   54  N9  UNL     1     -31.915  15.613 -14.416  1.00  0.00    -0.347 N 
HETATM   55  C14 UNL     1     -32.239  14.500 -15.218  1.00  0.00     0.219 C 
HETATM   56  O3  UNL     1     -31.550  14.251 -16.230  1.00  0.00    -0.274 OA
ATOM     57  H9  UNL     1     -32.502  15.792 -13.600  1.00  0.00     0.163 HD
BRANCH  55  58
HETATM   58  C15 UNL     1     -33.380  13.634 -14.863  1.00  0.00     0.122 C 
BRANCH  58  59
HETATM   59  C16 UNL     1     -32.945  12.390 -14.134  1.00  0.00     0.132 C 
BRANCH  59  60
HETATM   60  N10 UNL     1     -31.514  12.424 -13.972  1.00  0.00    -0.358 N 
HETATM   61  C17 UNL     1     -30.834  12.173 -12.761  1.00  0.00     0.251 C 
HETATM   62  O4  UNL     1     -31.400  11.883 -11.686  1.00  0.00    -0.270 OA
ATOM     63  H10 UNL     1     -30.951  12.646 -14.792  1.00  0.00     0.162 HD
BRANCH  61  64
HETATM   64  C18 UNL     1     -29.340  12.263 -12.775  1.00  0.00     0.131 C 
HETATM   65  C19 UNL     1     -28.982  13.067 -14.021  1.00  0.00     0.056 C 
HETATM   66  C20 UNL     1     -28.778  10.875 -12.881  1.00  0.00     0.056 C 
BRANCH  64  67
HETATM   67  O5  UNL     1     -28.874  12.978 -11.685  1.00  0.00    -0.381 OA
ATOM     68  H5  UNL     1     -27.946  12.824 -11.547  1.00  0.00     0.211 HD
ENDBRANCH  64  67
ENDBRANCH  61  64
ENDBRANCH  59  60
ENDBRANCH  58  59
ENDBRANCH  55  58
ENDBRANCH  37  54
ENDBRANCH   3  37
TORSDOF 18
ENDMDL
