MODEL 1
REMARK VINA RESULT: -5.833422028      0.000      0.000
REMARK  3 active torsions:
REMARK  status: ('A' for Active; 'I' for Inactive)
REMARK    1  A    between atoms: C4_14  and  C5_15 
REMARK    2  A    between atoms: C5_15  and  O3_16 
REMARK    3  A    between atoms: C5_15  and  O4_18 
ROOT
HETATM    1  O1  UNL     1     -14.773   0.329   4.734  1.00  0.00    -0.194 OA
HETATM    2  S1  UNL     1     -14.768  -0.830   3.755  1.00  0.00     0.285 S 
HETATM    3  O2  UNL     1     -15.849  -1.797   4.180  1.00  0.00    -0.194 OA
HETATM    4  N1  UNL     1     -13.222  -1.604   3.736  1.00  0.00    -0.291 N 
ATOM      5  H1  UNL     1     -12.666  -1.850   4.555  1.00  0.00     0.174 HD
HETATM    6  C1  UNL     1     -12.857  -1.841   2.371  1.00  0.00     0.205 C 
HETATM    7  S2  UNL     1     -11.601  -3.121   2.310  1.00  0.00    -0.116 SA
HETATM    8  C2  UNL     1     -10.049  -2.276   1.924  1.00  0.00     0.215 C 
HETATM    9  N2  UNL     1     -10.127  -0.865   2.031  1.00  0.00    -0.327 N 
ATOM     10  H2  UNL     1      -9.372  -0.341   2.474  1.00  0.00     0.181 HD
HETATM   11  N3  UNL     1     -11.233  -0.205   1.531  1.00  0.00    -0.308 N 
ATOM     12  H3  UNL     1     -11.080   0.664   1.019  1.00  0.00     0.186 HD
HETATM   13  C3  UNL     1     -12.428  -0.610   1.666  1.00  0.00     0.056 C 
HETATM   14  C4  UNL     1     -13.510   0.212   1.067  1.00  0.00     0.169 C 
HETATM   15  S3  UNL     1     -15.124  -0.156   1.806  1.00  0.00     0.001 SA
ENDROOT
BRANCH  14  16
HETATM   16  C5  UNL     1     -13.549   0.094  -0.438  1.00  0.00     0.274 C 
BRANCH  16  17
HETATM   17  O3  UNL     1     -12.538   0.927  -0.941  1.00  0.00    -0.370 OA
ATOM     18  H3  UNL     1     -12.185   0.501  -1.713  1.00  0.00     0.212 HD
ENDBRANCH  16  17
BRANCH  16  19
HETATM   19  O4  UNL     1     -14.754   0.577  -0.944  1.00  0.00    -0.370 OA
ATOM     20  H4  UNL     1     -14.669   1.484  -1.215  1.00  0.00     0.212 HD
ENDBRANCH  16  19
ENDBRANCH  14  16
TORSDOF 3
ENDMDL
MODEL 2
REMARK VINA RESULT: -5.786429638      2.947      4.158
REMARK  3 active torsions:
REMARK  status: ('A' for Active; 'I' for Inactive)
REMARK    1  A    between atoms: C4_14  and  C5_15 
REMARK    2  A    between atoms: C5_15  and  O3_16 
REMARK    3  A    between atoms: C5_15  and  O4_18 
ROOT
HETATM    1  O1  UNL     1     -14.883  -4.305   1.077  1.00  0.00    -0.194 OA
HETATM    2  S1  UNL     1     -14.339  -3.291   2.065  1.00  0.00     0.285 S 
HETATM    3  O2  UNL     1     -13.886  -4.043   3.296  1.00  0.00    -0.194 OA
HETATM    4  N1  UNL     1     -15.549  -2.124   2.467  1.00  0.00    -0.291 N 
ATOM      5  H1  UNL     1     -16.524  -2.325   2.690  1.00  0.00     0.174 HD
HETATM    6  C1  UNL     1     -14.946  -0.824   2.433  1.00  0.00     0.205 C 
HETATM    7  S2  UNL     1     -15.953   0.318   3.382  1.00  0.00    -0.116 SA
HETATM    8  C2  UNL     1     -16.794   1.364   2.170  1.00  0.00     0.215 C 
HETATM    9  N2  UNL     1     -16.691   0.890   0.839  1.00  0.00    -0.327 N 
ATOM     10  H2  UNL     1     -17.505   0.902   0.224  1.00  0.00     0.181 HD
HETATM   11  N3  UNL     1     -15.478   0.410   0.381  1.00  0.00    -0.308 N 
ATOM     12  H3  UNL     1     -15.187   0.672  -0.561  1.00  0.00     0.186 HD
HETATM   13  C3  UNL     1     -14.704  -0.336   1.055  1.00  0.00     0.056 C 
HETATM   14  C4  UNL     1     -13.432  -0.767   0.422  1.00  0.00     0.169 C 
HETATM   15  S3  UNL     1     -12.737  -2.231   1.234  1.00  0.00     0.001 SA
ENDROOT
BRANCH  14  16
HETATM   16  C5  UNL     1     -12.425   0.355   0.344  1.00  0.00     0.274 C 
BRANCH  16  17
HETATM   17  O3  UNL     1     -12.507   0.892  -0.950  1.00  0.00    -0.370 OA
ATOM     18  H3  UNL     1     -11.794   1.514  -1.039  1.00  0.00     0.212 HD
ENDBRANCH  16  17
BRANCH  16  19
HETATM   19  O4  UNL     1     -11.128  -0.130   0.493  1.00  0.00    -0.370 OA
ATOM     20  H4  UNL     1     -10.522   0.575   0.690  1.00  0.00     0.212 HD
ENDBRANCH  16  19
ENDBRANCH  14  16
TORSDOF 3
ENDMDL
MODEL 3
REMARK VINA RESULT: -5.682001054      3.645      4.655
REMARK  3 active torsions:
REMARK  status: ('A' for Active; 'I' for Inactive)
REMARK    1  A    between atoms: C4_14  and  C5_15 
REMARK    2  A    between atoms: C5_15  and  O3_16 
REMARK    3  A    between atoms: C5_15  and  O4_18 
ROOT
HETATM    1  O1  UNL     1      -8.634  -4.786   2.622  1.00  0.00    -0.194 OA
HETATM    2  S1  UNL     1      -9.613  -3.934   3.408  1.00  0.00     0.285 S 
HETATM    3  O2  UNL     1      -9.173  -3.941   4.854  1.00  0.00    -0.194 OA
HETATM    4  N1  UNL     1     -11.220  -4.552   3.250  1.00  0.00    -0.291 N 
ATOM      5  H1  UNL     1     -11.493  -5.532   3.318  1.00  0.00     0.174 HD
HETATM    6  C1  UNL     1     -12.102  -3.449   3.008  1.00  0.00     0.205 C 
HETATM    7  S2  UNL     1     -13.780  -3.935   3.415  1.00  0.00    -0.116 SA
HETATM    8  C2  UNL     1     -14.632  -4.153   1.834  1.00  0.00     0.215 C 
HETATM    9  N2  UNL     1     -13.762  -4.165   0.716  1.00  0.00    -0.327 N 
ATOM     10  H2  UNL     1     -13.894  -4.846  -0.031  1.00  0.00     0.181 HD
HETATM   11  N3  UNL     1     -12.732  -3.246   0.646  1.00  0.00    -0.308 N 
ATOM     12  H3  UNL     1     -12.550  -2.800  -0.254  1.00  0.00     0.186 HD
HETATM   13  C3  UNL     1     -11.998  -2.919   1.628  1.00  0.00     0.056 C 
HETATM   14  C4  UNL     1     -10.932  -1.913   1.392  1.00  0.00     0.169 C 
HETATM   15  S3  UNL     1      -9.650  -1.976   2.671  1.00  0.00     0.001 SA
ENDROOT
BRANCH  14  16
HETATM   16  C5  UNL     1     -11.490  -0.518   1.234  1.00  0.00     0.274 C 
BRANCH  16  17
HETATM   17  O3  UNL     1     -11.842  -0.367  -0.117  1.00  0.00    -0.370 OA
ATOM     18  H3  UNL     1     -11.410   0.418  -0.430  1.00  0.00     0.212 HD
ENDBRANCH  16  17
BRANCH  16  19
HETATM   19  O4  UNL     1     -10.515   0.441   1.501  1.00  0.00    -0.370 OA
ATOM     20  H4  UNL     1     -10.042   0.674   0.711  1.00  0.00     0.212 HD
ENDBRANCH  16  19
ENDBRANCH  14  16
TORSDOF 3
ENDMDL
MODEL 4
REMARK VINA RESULT: -5.652234783      2.566      3.187
REMARK  3 active torsions:
REMARK  status: ('A' for Active; 'I' for Inactive)
REMARK    1  A    between atoms: C4_14  and  C5_15 
REMARK    2  A    between atoms: C5_15  and  O3_16 
REMARK    3  A    between atoms: C5_15  and  O4_18 
ROOT
HETATM    1  O1  UNL     1     -15.368  -3.450   2.246  1.00  0.00    -0.194 OA
HETATM    2  S1  UNL     1     -14.045  -3.617   1.524  1.00  0.00     0.285 S 
HETATM    3  O2  UNL     1     -14.241  -4.643   0.432  1.00  0.00    -0.194 OA
HETATM    4  N1  UNL     1     -12.809  -4.117   2.625  1.00  0.00    -0.291 N 
ATOM      5  H1  UNL     1     -12.901  -4.842   3.337  1.00  0.00     0.174 HD
HETATM    6  C1  UNL     1     -11.635  -3.338   2.364  1.00  0.00     0.205 C 
HETATM    7  S2  UNL     1     -10.204  -4.185   3.038  1.00  0.00    -0.116 SA
HETATM    8  C2  UNL     1      -9.730  -3.260   4.518  1.00  0.00     0.215 C 
HETATM    9  N2  UNL     1     -10.699  -2.313   4.933  1.00  0.00    -0.327 N 
ATOM     10  H2  UNL     1     -10.931  -2.215   5.921  1.00  0.00     0.181 HD
HETATM   11  N3  UNL     1     -11.327  -1.524   3.987  1.00  0.00    -0.308 N 
ATOM     12  H3  UNL     1     -11.466  -0.537   4.205  1.00  0.00     0.186 HD
HETATM   13  C3  UNL     1     -11.742  -1.948   2.865  1.00  0.00     0.056 C 
HETATM   14  C4  UNL     1     -12.396  -0.973   1.956  1.00  0.00     0.169 C 
HETATM   15  S3  UNL     1     -13.414  -1.798   0.703  1.00  0.00     0.001 SA
ENDROOT
BRANCH  14  16
HETATM   16  C5  UNL     1     -11.404  -0.025   1.328  1.00  0.00     0.274 C 
BRANCH  16  17
HETATM   17  O3  UNL     1     -11.745   0.088  -0.029  1.00  0.00    -0.370 OA
ATOM     18  H3  UNL     1     -12.410   0.763  -0.094  1.00  0.00     0.212 HD
ENDBRANCH  16  17
BRANCH  16  19
HETATM   19  O4  UNL     1     -10.115  -0.552   1.372  1.00  0.00    -0.370 OA
ATOM     20  H4  UNL     1      -9.476   0.086   1.077  1.00  0.00     0.212 HD
ENDBRANCH  16  19
ENDBRANCH  14  16
TORSDOF 3
ENDMDL
MODEL 5
REMARK VINA RESULT: -5.626364884      2.463      3.245
REMARK  3 active torsions:
REMARK  status: ('A' for Active; 'I' for Inactive)
REMARK    1  A    between atoms: C4_14  and  C5_15 
REMARK    2  A    between atoms: C5_15  and  O3_16 
REMARK    3  A    between atoms: C5_15  and  O4_18 
ROOT
HETATM    1  O1  UNL     1     -14.757   0.777   2.003  1.00  0.00    -0.194 OA
HETATM    2  S1  UNL     1     -14.429  -0.289   3.031  1.00  0.00     0.285 S 
HETATM    3  O2  UNL     1     -14.876   0.220   4.382  1.00  0.00    -0.194 OA
HETATM    4  N1  UNL     1     -12.735  -0.634   3.033  1.00  0.00    -0.291 N 
ATOM      5  H1  UNL     1     -11.984   0.055   3.009  1.00  0.00     0.174 HD
HETATM    6  C1  UNL     1     -12.569  -2.057   3.073  1.00  0.00     0.205 C 
HETATM    7  S2  UNL     1     -10.916  -2.441   3.655  1.00  0.00    -0.116 SA
HETATM    8  C2  UNL     1      -9.994  -3.002   2.204  1.00  0.00     0.215 C 
HETATM    9  N2  UNL     1     -10.660  -2.756   0.977  1.00  0.00    -0.327 N 
ATOM     10  H2  UNL     1     -10.143  -2.399   0.174  1.00  0.00     0.181 HD
HETATM   11  N3  UNL     1     -12.016  -3.004   0.878  1.00  0.00    -0.308 N 
ATOM     12  H3  UNL     1     -12.358  -3.454   0.029  1.00  0.00     0.186 HD
HETATM   13  C3  UNL     1     -12.864  -2.710   1.775  1.00  0.00     0.056 C 
HETATM   14  C4  UNL     1     -14.288  -3.044   1.520  1.00  0.00     0.169 C 
HETATM   15  S3  UNL     1     -15.406  -2.084   2.575  1.00  0.00     0.001 SA
ENDROOT
BRANCH  14  16
HETATM   16  C5  UNL     1     -14.554  -4.526   1.633  1.00  0.00     0.274 C 
BRANCH  16  17
HETATM   17  O3  UNL     1     -14.048  -5.124   0.469  1.00  0.00    -0.370 OA
ATOM     18  H3  UNL     1     -13.829  -4.422  -0.132  1.00  0.00     0.212 HD
ENDBRANCH  16  17
BRANCH  16  19
HETATM   19  O4  UNL     1     -15.923  -4.785   1.652  1.00  0.00    -0.370 OA
ATOM     20  H4  UNL     1     -16.122  -5.521   2.219  1.00  0.00     0.212 HD
ENDBRANCH  16  19
ENDBRANCH  14  16
TORSDOF 3
ENDMDL
