MODEL 1
REMARK VINA RESULT: -8.204267417      0.000      0.000
REMARK  13 active torsions:
REMARK  status: ('A' for Active; 'I' for Inactive)
REMARK    1  A    between atoms: C5_5  and  C6_6 
REMARK    2  A    between atoms: C6_6  and  C7_7 
REMARK    3  A    between atoms: C9_11  and  C10_12 
REMARK    4  A    between atoms: C10_12  and  C11_13 
REMARK    5  A    between atoms: C15_20  and  C16_21 
REMARK    6  A    between atoms: C16_21  and  C17_22 
REMARK    7  A    between atoms: C21_29  and  C22_30 
REMARK    8  A    between atoms: C22_30  and  C23_31 
REMARK    9  A    between atoms: C23_31  and  C24_32 
REMARK   10  A    between atoms: C24_32  and  C25_33 
REMARK   11  A    between atoms: C25_33  and  C26_34 
REMARK   12  A    between atoms: C26_34  and  C27_35 
REMARK   13  A    between atoms: C34_50  and  N7_51 
ROOT
HETATM    1  C1  UNL     1     -16.968   5.347 -15.116  1.00  0.00     0.019 C 
HETATM    2  C2  UNL     1     -17.613   5.542 -16.115  1.00  0.00    -0.060 C 
HETATM    3  C3  UNL     1     -18.352   5.775 -17.305  1.00  0.00     0.086 A 
HETATM    4  C4  UNL     1     -18.762   7.020 -17.758  1.00  0.00     0.047 A 
HETATM    5  C5  UNL     1     -19.444   6.850 -18.928  1.00  0.00    -0.039 A 
HETATM    6  C35 UNL     1     -19.419   5.465 -19.145  1.00  0.00     0.096 A 
HETATM    7  N9  UNL     1     -18.758   4.843 -18.158  1.00  0.00    -0.358 N 
ATOM      8  H9  UNL     1     -18.597   3.839 -18.078  1.00  0.00     0.166 HD
ENDROOT
BRANCH   5   9
HETATM    9  C6  UNL     1     -20.095   7.821 -19.812  1.00  0.00     0.062 C 
BRANCH   9  10
HETATM   10  C7  UNL     1     -19.587   9.241 -19.733  1.00  0.00     0.158 C 
HETATM   11  C8  UNL     1     -20.247   9.954 -20.896  1.00  0.00     0.271 C 
HETATM   12  O1  UNL     1     -20.594   9.199 -21.826  1.00  0.00    -0.264 OA
HETATM   13  O2  UNL     1     -20.418  11.265 -20.879  1.00  0.00    -0.306 OA
HETATM   14  C9  UNL     1     -19.762  12.409 -21.265  1.00  0.00     0.224 C 
HETATM   15  C14 UNL     1     -18.354  12.198 -21.741  1.00  0.00     0.248 C 
HETATM   16  O3  UNL     1     -18.101  11.037 -22.173  1.00  0.00    -0.271 OA
HETATM   17  N1  UNL     1     -17.346  13.187 -21.728  1.00  0.00    -0.346 N 
HETATM   18  C15 UNL     1     -17.459  14.532 -21.297  1.00  0.00     0.177 C 
ATOM     19  H1  UNL     1     -16.429  12.898 -22.069  1.00  0.00     0.163 HD
HETATM   20  C20 UNL     1     -16.816  14.793 -19.965  1.00  0.00     0.241 C 
HETATM   21  O4  UNL     1     -17.490  15.577 -19.205  1.00  0.00    -0.271 OA
HETATM   22  N2  UNL     1     -15.614  14.288 -19.498  1.00  0.00    -0.346 N 
HETATM   23  C21 UNL     1     -15.169  12.914 -19.394  1.00  0.00     0.176 C 
ATOM     24  H2  UNL     1     -14.943  14.988 -19.181  1.00  0.00     0.163 HD
HETATM   25  C28 UNL     1     -15.050  12.491 -17.973  1.00  0.00     0.243 C 
HETATM   26  O5  UNL     1     -14.420  13.306 -17.201  1.00  0.00    -0.271 OA
HETATM   27  N5  UNL     1     -15.568  11.292 -17.435  1.00  0.00    -0.341 N 
HETATM   28  C29 UNL     1     -15.163  10.578 -16.242  1.00  0.00     0.127 C 
HETATM   29  C32 UNL     1     -16.667  10.564 -18.037  1.00  0.00     0.125 C 
HETATM   30  C30 UNL     1     -15.343   9.147 -16.620  1.00  0.00     0.022 C 
HETATM   31  C31 UNL     1     -16.617   9.202 -17.438  1.00  0.00     0.032 C 
HETATM   32  C33 UNL     1     -17.941  11.314 -17.841  1.00  0.00     0.087 C 
HETATM   33  N6  UNL     1     -19.157  10.691 -17.892  1.00  0.00    -0.356 N 
HETATM   34  C34 UNL     1     -19.914   9.932 -18.475  1.00  0.00     0.109 C 
ATOM     35  H6  UNL     1     -19.662  11.003 -17.063  1.00  0.00     0.166 HD
BRANCH  14  36
HETATM   36  C10 UNL     1     -20.489  13.004 -22.452  1.00  0.00     0.046 C 
BRANCH  36  37
HETATM   37  C11 UNL     1     -20.127  14.411 -22.773  1.00  0.00    -0.020 C 
HETATM   38  C12 UNL     1     -19.652  14.477 -24.237  1.00  0.00     0.009 C 
HETATM   39  C13 UNL     1     -21.366  15.310 -22.753  1.00  0.00     0.009 C 
ENDBRANCH  36  37
ENDBRANCH  14  36
BRANCH  18  40
HETATM   40  C16 UNL     1     -16.793  15.484 -22.245  1.00  0.00     0.038 C 
BRANCH  40  41
HETATM   41  C17 UNL     1     -17.193  16.901 -22.206  1.00  0.00    -0.020 C 
HETATM   42  C18 UNL     1     -18.062  17.421 -23.290  1.00  0.00     0.009 C 
HETATM   43  C19 UNL     1     -15.947  17.793 -22.023  1.00  0.00     0.009 C 
ENDBRANCH  40  41
ENDBRANCH  18  40
BRANCH  23  44
HETATM   44  C22 UNL     1     -13.879  12.707 -20.170  1.00  0.00     0.035 C 
BRANCH  44  45
HETATM   45  C23 UNL     1     -13.679  13.684 -21.285  1.00  0.00     0.002 C 
BRANCH  45  46
HETATM   46  C24 UNL     1     -12.180  13.956 -21.466  1.00  0.00     0.000 C 
BRANCH  46  47
HETATM   47  C25 UNL     1     -12.018  15.399 -21.891  1.00  0.00     0.007 C 
BRANCH  47  48
HETATM   48  C26 UNL     1     -13.153  15.881 -22.731  1.00  0.00     0.072 C 
BRANCH  48  49
HETATM   49  C27 UNL     1     -12.697  15.951 -24.146  1.00  0.00     0.086 C 
HETATM   50  N3  UNL     1     -12.661  14.917 -24.918  1.00  0.00    -0.391 N 
ATOM     51  H32 UNL     1     -12.963  14.031 -24.514  1.00  0.00     0.157 HD
ATOM     52  H31 UNL     1     -12.349  14.966 -25.888  1.00  0.00     0.157 HD
HETATM   53  N4  UNL     1     -12.275  17.190 -24.710  1.00  0.00    -0.088 NA
ENDBRANCH  48  49
ENDBRANCH  47  48
ENDBRANCH  46  47
ENDBRANCH  45  46
ENDBRANCH  44  45
ENDBRANCH  23  44
BRANCH  34  54
HETATM   54  N7  UNL     1     -21.229   9.714 -17.942  1.00  0.00    -0.295 N 
HETATM   55  N8  UNL     1     -21.467   9.158 -16.841  1.00  0.00    -0.344 N 
ATOM     56  H82 UNL     1     -20.659   8.847 -16.301  1.00  0.00     0.176 HD
ATOM     57  H81 UNL     1     -22.401   9.003 -16.462  1.00  0.00     0.176 HD
ATOM     58  H7  UNL     1     -22.025  10.032 -18.495  1.00  0.00     0.187 HD
ENDBRANCH  34  54
ENDBRANCH   9  10
ENDBRANCH   5   9
TORSDOF 13
ENDMDL
MODEL 2
REMARK VINA RESULT: -8.112044437      3.271      5.979
REMARK  13 active torsions:
REMARK  status: ('A' for Active; 'I' for Inactive)
REMARK    1  A    between atoms: C5_5  and  C6_6 
REMARK    2  A    between atoms: C6_6  and  C7_7 
REMARK    3  A    between atoms: C9_11  and  C10_12 
REMARK    4  A    between atoms: C10_12  and  C11_13 
REMARK    5  A    between atoms: C15_20  and  C16_21 
REMARK    6  A    between atoms: C16_21  and  C17_22 
REMARK    7  A    between atoms: C21_29  and  C22_30 
REMARK    8  A    between atoms: C22_30  and  C23_31 
REMARK    9  A    between atoms: C23_31  and  C24_32 
REMARK   10  A    between atoms: C24_32  and  C25_33 
REMARK   11  A    between atoms: C25_33  and  C26_34 
REMARK   12  A    between atoms: C26_34  and  C27_35 
REMARK   13  A    between atoms: C34_50  and  N7_51 
ROOT
HETATM    1  C1  UNL     1     -13.596  10.581 -17.029  1.00  0.00     0.019 C 
HETATM    2  C2  UNL     1     -14.602  10.880 -17.619  1.00  0.00    -0.060 C 
HETATM    3  C3  UNL     1     -15.791  11.209 -18.324  1.00  0.00     0.086 A 
HETATM    4  C4  UNL     1     -15.839  11.694 -19.622  1.00  0.00     0.047 A 
HETATM    5  C5  UNL     1     -17.147  11.892 -19.960  1.00  0.00    -0.039 A 
HETATM    6  C35 UNL     1     -17.862  11.507 -18.818  1.00  0.00     0.096 A 
HETATM    7  N9  UNL     1     -17.026  11.101 -17.851  1.00  0.00    -0.358 N 
ATOM      8  H9  UNL     1     -17.291  10.770 -16.923  1.00  0.00     0.166 HD
ENDROOT
BRANCH   5   9
HETATM    9  C6  UNL     1     -17.755  12.397 -21.194  1.00  0.00     0.062 C 
BRANCH   9  10
HETATM   10  C7  UNL     1     -17.337  13.781 -21.627  1.00  0.00     0.158 C 
HETATM   11  C8  UNL     1     -18.578  14.385 -22.254  1.00  0.00     0.271 C 
HETATM   12  O1  UNL     1     -19.393  13.542 -22.681  1.00  0.00    -0.264 OA
HETATM   13  O2  UNL     1     -18.737  15.695 -22.318  1.00  0.00    -0.306 OA
HETATM   14  C9  UNL     1     -18.470  16.739 -23.170  1.00  0.00     0.224 C 
HETATM   15  C14 UNL     1     -17.620  16.385 -24.355  1.00  0.00     0.248 C 
HETATM   16  O3  UNL     1     -17.647  15.166 -24.689  1.00  0.00    -0.271 OA
HETATM   17  N1  UNL     1     -16.830  17.303 -25.079  1.00  0.00    -0.346 N 
HETATM   18  C15 UNL     1     -16.696  18.696 -24.854  1.00  0.00     0.177 C 
ATOM     19  H1  UNL     1     -16.291  16.919 -25.855  1.00  0.00     0.163 HD
HETATM   20  C20 UNL     1     -15.391  19.080 -24.215  1.00  0.00     0.241 C 
HETATM   21  O4  UNL     1     -15.498  19.993 -23.319  1.00  0.00    -0.271 OA
HETATM   22  N2  UNL     1     -14.137  18.564 -24.491  1.00  0.00    -0.346 N 
HETATM   23  C21 UNL     1     -13.683  17.189 -24.486  1.00  0.00     0.176 C 
ATOM     24  H2  UNL     1     -13.426  19.255 -24.734  1.00  0.00     0.163 HD
HETATM   25  C28 UNL     1     -12.729  16.939 -23.372  1.00  0.00     0.243 C 
HETATM   26  O5  UNL     1     -11.783  17.804 -23.246  1.00  0.00    -0.271 OA
HETATM   27  N5  UNL     1     -12.793  15.851 -22.474  1.00  0.00    -0.341 N 
HETATM   28  C29 UNL     1     -11.739  15.267 -21.673  1.00  0.00     0.127 C 
HETATM   29  C32 UNL     1     -14.015  15.123 -22.199  1.00  0.00     0.125 C 
HETATM   30  C30 UNL     1     -12.073  13.814 -21.669  1.00  0.00     0.022 C 
HETATM   31  C31 UNL     1     -13.584  13.845 -21.569  1.00  0.00     0.032 C 
HETATM   32  C33 UNL     1     -14.939  15.968 -21.389  1.00  0.00     0.087 C 
HETATM   33  N6  UNL     1     -15.929  15.420 -20.622  1.00  0.00    -0.356 N 
HETATM   34  C34 UNL     1     -16.865  14.643 -20.530  1.00  0.00     0.109 C 
ATOM     35  H6  UNL     1     -15.847  15.863 -19.707  1.00  0.00     0.166 HD
BRANCH  14  36
HETATM   36  C10 UNL     1     -19.777  17.227 -23.759  1.00  0.00     0.046 C 
BRANCH  36  37
HETATM   37  C11 UNL     1     -20.525  16.216 -24.555  1.00  0.00    -0.020 C 
HETATM   38  C12 UNL     1     -21.830  15.871 -23.812  1.00  0.00     0.009 C 
HETATM   39  C13 UNL     1     -21.009  16.816 -25.879  1.00  0.00     0.009 C 
ENDBRANCH  36  37
ENDBRANCH  14  36
BRANCH  18  40
HETATM   40  C16 UNL     1     -16.752  19.480 -26.130  1.00  0.00     0.038 C 
BRANCH  40  41
HETATM   41  C17 UNL     1     -16.583  18.756 -27.402  1.00  0.00    -0.020 C 
HETATM   42  C18 UNL     1     -15.254  18.783 -28.060  1.00  0.00     0.009 C 
HETATM   43  C19 UNL     1     -17.697  19.162 -28.390  1.00  0.00     0.009 C 
ENDBRANCH  40  41
ENDBRANCH  18  40
BRANCH  23  44
HETATM   44  C22 UNL     1     -13.107  16.808 -25.839  1.00  0.00     0.035 C 
BRANCH  44  45
HETATM   45  C23 UNL     1     -12.135  15.673 -25.786  1.00  0.00     0.002 C 
BRANCH  45  46
HETATM   46  C24 UNL     1     -11.376  15.584 -27.117  1.00  0.00     0.000 C 
BRANCH  46  47
HETATM   47  C25 UNL     1     -11.105  14.123 -27.401  1.00  0.00     0.007 C 
BRANCH  47  48
HETATM   48  C26 UNL     1      -9.647  13.808 -27.449  1.00  0.00     0.072 C 
BRANCH  48  49
HETATM   49  C27 UNL     1      -9.383  12.650 -26.553  1.00  0.00     0.086 C 
HETATM   50  N3  UNL     1     -10.325  11.906 -26.080  1.00  0.00    -0.391 N 
ATOM     51  H32 UNL     1     -11.280  12.145 -26.350  1.00  0.00     0.157 HD
ATOM     52  H31 UNL     1     -10.144  11.112 -25.467  1.00  0.00     0.157 HD
HETATM   53  N4  UNL     1      -8.049  12.316 -26.176  1.00  0.00    -0.088 NA
ENDBRANCH  48  49
ENDBRANCH  47  48
ENDBRANCH  46  47
ENDBRANCH  45  46
ENDBRANCH  44  45
ENDBRANCH  23  44
BRANCH  34  54
HETATM   54  N7  UNL     1     -17.595  14.574 -19.296  1.00  0.00    -0.295 N 
HETATM   55  N8  UNL     1     -18.065  15.568 -18.690  1.00  0.00    -0.344 N 
ATOM     56  H82 UNL     1     -17.908  16.481 -19.118  1.00  0.00     0.176 HD
ATOM     57  H81 UNL     1     -18.584  15.520 -17.814  1.00  0.00     0.176 HD
ATOM     58  H7  UNL     1     -17.742  13.653 -18.882  1.00  0.00     0.187 HD
ENDBRANCH  34  54
ENDBRANCH   9  10
ENDBRANCH   5   9
TORSDOF 13
ENDMDL
MODEL 3
REMARK VINA RESULT: -8.028093466      3.109     10.511
REMARK  13 active torsions:
REMARK  status: ('A' for Active; 'I' for Inactive)
REMARK    1  A    between atoms: C5_5  and  C6_6 
REMARK    2  A    between atoms: C6_6  and  C7_7 
REMARK    3  A    between atoms: C9_11  and  C10_12 
REMARK    4  A    between atoms: C10_12  and  C11_13 
REMARK    5  A    between atoms: C15_20  and  C16_21 
REMARK    6  A    between atoms: C16_21  and  C17_22 
REMARK    7  A    between atoms: C21_29  and  C22_30 
REMARK    8  A    between atoms: C22_30  and  C23_31 
REMARK    9  A    between atoms: C23_31  and  C24_32 
REMARK   10  A    between atoms: C24_32  and  C25_33 
REMARK   11  A    between atoms: C25_33  and  C26_34 
REMARK   12  A    between atoms: C26_34  and  C27_35 
REMARK   13  A    between atoms: C34_50  and  N7_51 
ROOT
HETATM    1  C1  UNL     1     -18.800  22.404 -28.319  1.00  0.00     0.019 C 
HETATM    2  C2  UNL     1     -18.297  21.406 -27.868  1.00  0.00    -0.060 C 
HETATM    3  C3  UNL     1     -17.718  20.233 -27.315  1.00  0.00     0.086 A 
HETATM    4  C4  UNL     1     -16.580  20.202 -26.524  1.00  0.00     0.047 A 
HETATM    5  C5  UNL     1     -16.328  18.905 -26.181  1.00  0.00    -0.039 A 
HETATM    6  C35 UNL     1     -17.356  18.178 -26.797  1.00  0.00     0.096 A 
HETATM    7  N9  UNL     1     -18.177  18.997 -27.471  1.00  0.00    -0.358 N 
ATOM      8  H9  UNL     1     -19.002  18.721 -28.004  1.00  0.00     0.166 HD
ENDROOT
BRANCH   5   9
HETATM    9  C6  UNL     1     -15.255  18.314 -25.376  1.00  0.00     0.062 C 
BRANCH   9  10
HETATM   10  C7  UNL     1     -15.684  17.577 -24.130  1.00  0.00     0.158 C 
HETATM   11  C8  UNL     1     -14.390  17.187 -23.444  1.00  0.00     0.271 C 
HETATM   12  O1  UNL     1     -13.410  17.112 -24.213  1.00  0.00    -0.264 OA
HETATM   13  O2  UNL     1     -14.354  16.957 -22.144  1.00  0.00    -0.306 OA
HETATM   14  C9  UNL     1     -14.492  15.911 -21.263  1.00  0.00     0.224 C 
HETATM   15  C14 UNL     1     -14.959  14.625 -21.880  1.00  0.00     0.248 C 
HETATM   16  O3  UNL     1     -14.722  14.505 -23.116  1.00  0.00    -0.271 OA
HETATM   17  N1  UNL     1     -15.621  13.593 -21.181  1.00  0.00    -0.346 N 
HETATM   18  C15 UNL     1     -15.950  13.555 -19.803  1.00  0.00     0.177 C 
ATOM     19  H1  UNL     1     -15.895  12.780 -21.732  1.00  0.00     0.163 HD
HETATM   20  C20 UNL     1     -17.409  13.784 -19.526  1.00  0.00     0.241 C 
HETATM   21  O4  UNL     1     -17.636  14.522 -18.501  1.00  0.00    -0.271 OA
HETATM   22  N2  UNL     1     -18.488  13.294 -20.243  1.00  0.00    -0.346 N 
HETATM   23  C21 UNL     1     -18.784  13.406 -21.656  1.00  0.00     0.176 C 
ATOM     24  H2  UNL     1     -19.176  12.778 -19.694  1.00  0.00     0.163 HD
HETATM   25  C28 UNL     1     -19.967  14.277 -21.892  1.00  0.00     0.243 C 
HETATM   26  O5  UNL     1     -20.995  14.028 -21.159  1.00  0.00    -0.271 OA
HETATM   27  N5  UNL     1     -20.031  15.324 -22.838  1.00  0.00    -0.341 N 
HETATM   28  C29 UNL     1     -21.194  15.924 -23.456  1.00  0.00     0.127 C 
HETATM   29  C32 UNL     1     -18.856  16.002 -23.348  1.00  0.00     0.125 C 
HETATM   30  C30 UNL     1     -20.726  16.240 -24.837  1.00  0.00     0.022 C 
HETATM   31  C31 UNL     1     -19.306  16.702 -24.583  1.00  0.00     0.032 C 
HETATM   32  C33 UNL     1     -18.270  16.870 -22.286  1.00  0.00     0.087 C 
HETATM   33  N6  UNL     1     -17.466  17.933 -22.590  1.00  0.00    -0.356 N 
HETATM   34  C34 UNL     1     -16.513  18.374 -23.210  1.00  0.00     0.109 C 
ATOM     35  H6  UNL     1     -17.831  18.718 -22.049  1.00  0.00     0.166 HD
BRANCH  14  36
HETATM   36  C10 UNL     1     -13.133  15.591 -20.678  1.00  0.00     0.046 C 
BRANCH  36  37
HETATM   37  C11 UNL     1     -12.230  14.814 -21.569  1.00  0.00    -0.020 C 
HETATM   38  C12 UNL     1     -10.804  15.384 -21.445  1.00  0.00     0.009 C 
HETATM   39  C13 UNL     1     -12.087  13.371 -21.075  1.00  0.00     0.009 C 
ENDBRANCH  36  37
ENDBRANCH  14  36
BRANCH  18  40
HETATM   40  C16 UNL     1     -15.641  12.223 -19.188  1.00  0.00     0.038 C 
BRANCH  40  41
HETATM   41  C17 UNL     1     -15.694  12.103 -17.721  1.00  0.00    -0.020 C 
HETATM   42  C18 UNL     1     -14.426  11.883 -16.982  1.00  0.00     0.009 C 
HETATM   43  C19 UNL     1     -16.756  11.059 -17.317  1.00  0.00     0.009 C 
ENDBRANCH  40  41
ENDBRANCH  18  40
BRANCH  23  44
HETATM   44  C22 UNL     1     -18.941  12.031 -22.282  1.00  0.00     0.035 C 
BRANCH  44  45
HETATM   45  C23 UNL     1     -18.812  10.903 -21.309  1.00  0.00     0.002 C 
BRANCH  45  46
HETATM   46  C24 UNL     1     -20.190  10.274 -21.065  1.00  0.00     0.000 C 
BRANCH  46  47
HETATM   47  C25 UNL     1     -20.538  10.468 -19.606  1.00  0.00     0.007 C 
BRANCH  47  48
HETATM   48  C26 UNL     1     -21.589   9.519 -19.135  1.00  0.00     0.072 C 
BRANCH  48  49
HETATM   49  C27 UNL     1     -21.079   8.808 -17.931  1.00  0.00     0.086 C 
HETATM   50  N3  UNL     1     -21.846   8.132 -17.144  1.00  0.00    -0.391 N 
ATOM     51  H32 UNL     1     -22.838   8.101 -17.384  1.00  0.00     0.157 HD
ATOM     52  H31 UNL     1     -21.496   7.645 -16.319  1.00  0.00     0.157 HD
HETATM   53  N4  UNL     1     -19.694   8.853 -17.596  1.00  0.00    -0.088 NA
ENDBRANCH  48  49
ENDBRANCH  47  48
ENDBRANCH  46  47
ENDBRANCH  45  46
ENDBRANCH  44  45
ENDBRANCH  23  44
BRANCH  34  54
HETATM   54  N7  UNL     1     -16.131  19.745 -23.019  1.00  0.00    -0.295 N 
HETATM   55  N8  UNL     1     -15.907  20.272 -21.902  1.00  0.00    -0.344 N 
ATOM     56  H82 UNL     1     -16.009  19.672 -21.084  1.00  0.00     0.176 HD
ATOM     57  H81 UNL     1     -15.635  21.245 -21.766  1.00  0.00     0.176 HD
ATOM     58  H7  UNL     1     -16.033  20.330 -23.849  1.00  0.00     0.187 HD
ENDBRANCH  34  54
ENDBRANCH   9  10
ENDBRANCH   5   9
TORSDOF 13
ENDMDL
MODEL 4
REMARK VINA RESULT: -7.969333960      2.370      8.584
REMARK  13 active torsions:
REMARK  status: ('A' for Active; 'I' for Inactive)
REMARK    1  A    between atoms: C5_5  and  C6_6 
REMARK    2  A    between atoms: C6_6  and  C7_7 
REMARK    3  A    between atoms: C9_11  and  C10_12 
REMARK    4  A    between atoms: C10_12  and  C11_13 
REMARK    5  A    between atoms: C15_20  and  C16_21 
REMARK    6  A    between atoms: C16_21  and  C17_22 
REMARK    7  A    between atoms: C21_29  and  C22_30 
REMARK    8  A    between atoms: C22_30  and  C23_31 
REMARK    9  A    between atoms: C23_31  and  C24_32 
REMARK   10  A    between atoms: C24_32  and  C25_33 
REMARK   11  A    between atoms: C25_33  and  C26_34 
REMARK   12  A    between atoms: C26_34  and  C27_35 
REMARK   13  A    between atoms: C34_50  and  N7_51 
ROOT
HETATM    1  C1  UNL     1     -15.670  19.739 -25.654  1.00  0.00     0.019 C 
HETATM    2  C2  UNL     1     -16.669  19.104 -25.432  1.00  0.00    -0.060 C 
HETATM    3  C3  UNL     1     -17.857  18.375 -25.160  1.00  0.00     0.086 A 
HETATM    4  C4  UNL     1     -18.094  17.636 -24.010  1.00  0.00     0.047 A 
HETATM    5  C5  UNL     1     -19.336  17.080 -24.103  1.00  0.00    -0.039 A 
HETATM    6  C35 UNL     1     -19.820  17.517 -25.344  1.00  0.00     0.096 A 
HETATM    7  N9  UNL     1     -18.914  18.293 -25.958  1.00  0.00    -0.358 N 
ATOM      8  H9  UNL     1     -19.020  18.737 -26.870  1.00  0.00     0.166 HD
ENDROOT
BRANCH   5   9
HETATM    9  C6  UNL     1     -20.071  16.207 -23.183  1.00  0.00     0.062 C 
BRANCH   9  10
HETATM   10  C7  UNL     1     -19.313  15.019 -22.641  1.00  0.00     0.158 C 
HETATM   11  C8  UNL     1     -20.376  14.121 -22.040  1.00  0.00     0.271 C 
HETATM   12  O1  UNL     1     -21.419  14.720 -21.708  1.00  0.00    -0.264 OA
HETATM   13  O2  UNL     1     -20.169  12.823 -21.901  1.00  0.00    -0.306 OA
HETATM   14  C9  UNL     1     -19.679  11.938 -20.971  1.00  0.00     0.224 C 
HETATM   15  C14 UNL     1     -19.040  12.572 -19.770  1.00  0.00     0.248 C 
HETATM   16  O3  UNL     1     -19.426  13.749 -19.516  1.00  0.00    -0.271 OA
HETATM   17  N1  UNL     1     -18.075  11.949 -18.951  1.00  0.00    -0.346 N 
HETATM   18  C15 UNL     1     -17.545  10.641 -19.080  1.00  0.00     0.177 C 
ATOM     19  H1  UNL     1     -17.716  12.506 -18.175  1.00  0.00     0.163 HD
HETATM   20  C20 UNL     1     -16.146  10.609 -19.627  1.00  0.00     0.241 C 
HETATM   21  O4  UNL     1     -15.936   9.662 -20.466  1.00  0.00    -0.271 OA
HETATM   22  N2  UNL     1     -15.105  11.470 -19.322  1.00  0.00    -0.346 N 
HETATM   23  C21 UNL     1     -15.052  12.915 -19.393  1.00  0.00     0.176 C 
ATOM     24  H2  UNL     1     -14.248  11.019 -19.000  1.00  0.00     0.163 HD
HETATM   25  C28 UNL     1     -14.134  13.370 -20.471  1.00  0.00     0.243 C 
HETATM   26  O5  UNL     1     -12.979  12.802 -20.495  1.00  0.00    -0.271 OA
HETATM   27  N5  UNL     1     -14.439  14.353 -21.439  1.00  0.00    -0.341 N 
HETATM   28  C29 UNL     1     -13.538  15.171 -22.223  1.00  0.00     0.127 C 
HETATM   29  C32 UNL     1     -15.795  14.694 -21.820  1.00  0.00     0.125 C 
HETATM   30  C30 UNL     1     -14.262  16.470 -22.335  1.00  0.00     0.022 C 
HETATM   31  C31 UNL     1     -15.695  16.010 -22.509  1.00  0.00     0.032 C 
HETATM   32  C33 UNL     1     -16.392  13.586 -22.620  1.00  0.00     0.087 C 
HETATM   33  N6  UNL     1     -17.442  13.797 -23.469  1.00  0.00    -0.356 N 
HETATM   34  C34 UNL     1     -18.549  14.273 -23.657  1.00  0.00     0.109 C 
ATOM     35  H6  UNL     1     -17.180  13.351 -24.349  1.00  0.00     0.166 HD
BRANCH  14  36
HETATM   36  C10 UNL     1     -20.834  11.131 -20.417  1.00  0.00     0.046 C 
BRANCH  36  37
HETATM   37  C11 UNL     1     -20.602   9.663 -20.344  1.00  0.00    -0.020 C 
HETATM   38  C12 UNL     1     -21.574   9.061 -19.312  1.00  0.00     0.009 C 
HETATM   39  C13 UNL     1     -20.999   8.983 -21.657  1.00  0.00     0.009 C 
ENDBRANCH  36  37
ENDBRANCH  14  36
BRANCH  18  40
HETATM   40  C16 UNL     1     -17.465   9.934 -17.760  1.00  0.00     0.038 C 
BRANCH  40  41
HETATM   41  C17 UNL     1     -18.573   9.044 -17.376  1.00  0.00    -0.020 C 
HETATM   42  C18 UNL     1     -18.829   8.813 -15.933  1.00  0.00     0.009 C 
HETATM   43  C19 UNL     1     -18.460   7.706 -18.137  1.00  0.00     0.009 C 
ENDBRANCH  40  41
ENDBRANCH  18  40
BRANCH  23  44
HETATM   44  C22 UNL     1     -14.695  13.507 -18.040  1.00  0.00     0.035 C 
BRANCH  44  45
HETATM   45  C23 UNL     1     -14.863  12.554 -16.899  1.00  0.00     0.002 C 
BRANCH  45  46
HETATM   46  C24 UNL     1     -13.634  11.639 -16.808  1.00  0.00     0.000 C 
BRANCH  46  47
HETATM   47  C25 UNL     1     -13.989  10.472 -15.913  1.00  0.00     0.007 C 
BRANCH  47  48
HETATM   48  C26 UNL     1     -13.988   9.170 -16.641  1.00  0.00     0.072 C 
BRANCH  48  49
HETATM   49  C27 UNL     1     -14.911   8.236 -15.940  1.00  0.00     0.086 C 
HETATM   50  N3  UNL     1     -15.199   7.065 -16.401  1.00  0.00    -0.391 N 
ATOM     51  H32 UNL     1     -14.761   6.797 -17.283  1.00  0.00     0.157 HD
ATOM     52  H31 UNL     1     -15.831   6.425 -15.920  1.00  0.00     0.157 HD
HETATM   53  N4  UNL     1     -15.523   8.611 -14.709  1.00  0.00    -0.088 NA
ENDBRANCH  48  49
ENDBRANCH  47  48
ENDBRANCH  46  47
ENDBRANCH  45  46
ENDBRANCH  44  45
ENDBRANCH  23  44
BRANCH  34  54
HETATM   54  N7  UNL     1     -19.187  14.076 -24.927  1.00  0.00    -0.295 N 
HETATM   55  N8  UNL     1     -18.595  14.110 -26.034  1.00  0.00    -0.344 N 
ATOM     56  H82 UNL     1     -17.592  14.291 -26.010  1.00  0.00     0.176 HD
ATOM     57  H81 UNL     1     -19.048  13.970 -26.936  1.00  0.00     0.176 HD
ATOM     58  H7  UNL     1     -20.191  13.895 -24.931  1.00  0.00     0.187 HD
ENDBRANCH  34  54
ENDBRANCH   9  10
ENDBRANCH   5   9
TORSDOF 13
ENDMDL
MODEL 5
REMARK VINA RESULT: -7.454859436      3.194      5.880
REMARK  13 active torsions:
REMARK  status: ('A' for Active; 'I' for Inactive)
REMARK    1  A    between atoms: C5_5  and  C6_6 
REMARK    2  A    between atoms: C6_6  and  C7_7 
REMARK    3  A    between atoms: C9_11  and  C10_12 
REMARK    4  A    between atoms: C10_12  and  C11_13 
REMARK    5  A    between atoms: C15_20  and  C16_21 
REMARK    6  A    between atoms: C16_21  and  C17_22 
REMARK    7  A    between atoms: C21_29  and  C22_30 
REMARK    8  A    between atoms: C22_30  and  C23_31 
REMARK    9  A    between atoms: C23_31  and  C24_32 
REMARK   10  A    between atoms: C24_32  and  C25_33 
REMARK   11  A    between atoms: C25_33  and  C26_34 
REMARK   12  A    between atoms: C26_34  and  C27_35 
REMARK   13  A    between atoms: C34_50  and  N7_51 
ROOT
HETATM    1  C1  UNL     1     -13.718  10.555 -17.230  1.00  0.00     0.019 C 
HETATM    2  C2  UNL     1     -14.727  10.801 -17.841  1.00  0.00    -0.060 C 
HETATM    3  C3  UNL     1     -15.916  11.068 -18.571  1.00  0.00     0.086 A 
HETATM    4  C4  UNL     1     -15.964  11.653 -19.828  1.00  0.00     0.047 A 
HETATM    5  C5  UNL     1     -17.271  11.749 -20.208  1.00  0.00    -0.039 A 
HETATM    6  C35 UNL     1     -17.986  11.201 -19.134  1.00  0.00     0.096 A 
HETATM    7  N9  UNL     1     -17.150  10.800 -18.165  1.00  0.00    -0.358 N 
ATOM      8  H9  UNL     1     -17.415  10.369 -17.279  1.00  0.00     0.166 HD
ENDROOT
BRANCH   5   9
HETATM    9  C6  UNL     1     -17.882  12.292 -21.425  1.00  0.00     0.062 C 
BRANCH   9  10
HETATM   10  C7  UNL     1     -17.475  13.695 -21.808  1.00  0.00     0.158 C 
HETATM   11  C8  UNL     1     -18.717  14.305 -22.425  1.00  0.00     0.271 C 
HETATM   12  O1  UNL     1     -19.518  13.468 -22.889  1.00  0.00    -0.264 OA
HETATM   13  O2  UNL     1     -18.890  15.615 -22.446  1.00  0.00    -0.306 OA
HETATM   14  C9  UNL     1     -18.628  16.691 -23.260  1.00  0.00     0.224 C 
HETATM   15  C14 UNL     1     -17.762  16.386 -24.448  1.00  0.00     0.248 C 
HETATM   16  O3  UNL     1     -17.772  15.179 -24.824  1.00  0.00    -0.271 OA
HETATM   17  N1  UNL     1     -16.975  17.337 -25.133  1.00  0.00    -0.346 N 
HETATM   18  C15 UNL     1     -16.860  18.723 -24.859  1.00  0.00     0.177 C 
ATOM     19  H1  UNL     1     -16.425  16.985 -25.916  1.00  0.00     0.163 HD
HETATM   20  C20 UNL     1     -15.566  19.100 -24.195  1.00  0.00     0.241 C 
HETATM   21  O4  UNL     1     -15.692  19.980 -23.270  1.00  0.00    -0.271 OA
HETATM   22  N2  UNL     1     -14.303  18.607 -24.476  1.00  0.00    -0.346 N 
HETATM   23  C21 UNL     1     -13.833  17.238 -24.513  1.00  0.00     0.176 C 
ATOM     24  H2  UNL     1     -13.598  19.314 -24.688  1.00  0.00     0.163 HD
HETATM   25  C28 UNL     1     -12.887  16.961 -23.399  1.00  0.00     0.243 C 
HETATM   26  O5  UNL     1     -11.953  17.831 -23.234  1.00  0.00    -0.271 OA
HETATM   27  N5  UNL     1     -12.948  15.842 -22.539  1.00  0.00    -0.341 N 
HETATM   28  C29 UNL     1     -11.894  15.243 -21.747  1.00  0.00     0.127 C 
HETATM   29  C32 UNL     1     -14.164  15.092 -22.301  1.00  0.00     0.125 C 
HETATM   30  C30 UNL     1     -12.211  13.787 -21.796  1.00  0.00     0.022 C 
HETATM   31  C31 UNL     1     -13.723  13.798 -21.709  1.00  0.00     0.032 C 
HETATM   32  C33 UNL     1     -15.105  15.898 -21.472  1.00  0.00     0.087 C 
HETATM   33  N6  UNL     1     -16.095  15.313 -20.733  1.00  0.00    -0.356 N 
HETATM   34  C34 UNL     1     -17.023  14.524 -20.677  1.00  0.00     0.109 C 
ATOM     35  H6  UNL     1     -16.027  15.727 -19.803  1.00  0.00     0.166 HD
BRANCH  14  36
HETATM   36  C10 UNL     1     -19.934  17.183 -23.846  1.00  0.00     0.046 C 
BRANCH  36  37
HETATM   37  C11 UNL     1     -20.661  16.194 -24.687  1.00  0.00    -0.020 C 
HETATM   38  C12 UNL     1     -21.962  15.794 -23.965  1.00  0.00     0.009 C 
HETATM   39  C13 UNL     1     -21.150  16.839 -25.986  1.00  0.00     0.009 C 
ENDBRANCH  36  37
ENDBRANCH  14  36
BRANCH  18  40
HETATM   40  C16 UNL     1     -16.913  19.549 -26.109  1.00  0.00     0.038 C 
BRANCH  40  41
HETATM   41  C17 UNL     1     -16.667  18.880 -27.398  1.00  0.00    -0.020 C 
HETATM   42  C18 UNL     1     -15.309  18.962 -27.990  1.00  0.00     0.009 C 
HETATM   43  C19 UNL     1     -17.742  19.303 -28.423  1.00  0.00     0.009 C 
ENDBRANCH  40  41
ENDBRANCH  18  40
BRANCH  23  44
HETATM   44  C22 UNL     1     -13.241  16.909 -25.872  1.00  0.00     0.035 C 
BRANCH  44  45
HETATM   45  C23 UNL     1     -12.201  15.835 -25.836  1.00  0.00     0.002 C 
BRANCH  45  46
HETATM   46  C24 UNL     1     -11.357  15.894 -27.117  1.00  0.00     0.000 C 
BRANCH  46  47
HETATM   47  C25 UNL     1     -11.047  17.347 -27.403  1.00  0.00     0.007 C 
BRANCH  47  48
HETATM   48  C26 UNL     1     -10.009  17.903 -26.487  1.00  0.00     0.072 C 
BRANCH  48  49
HETATM   49  C27 UNL     1     -10.422  19.273 -26.079  1.00  0.00     0.086 C 
HETATM   50  N3  UNL     1     -10.427  19.662 -24.849  1.00  0.00    -0.391 N 
ATOM     51  H32 UNL     1     -10.129  18.981 -24.150  1.00  0.00     0.157 HD
ATOM     52  H31 UNL     1     -10.711  20.601 -24.569  1.00  0.00     0.157 HD
HETATM   53  N4  UNL     1     -10.839  20.225 -27.056  1.00  0.00    -0.088 NA
ENDBRANCH  48  49
ENDBRANCH  47  48
ENDBRANCH  46  47
ENDBRANCH  45  46
ENDBRANCH  44  45
ENDBRANCH  23  44
BRANCH  34  54
HETATM   54  N7  UNL     1     -17.764  14.405 -19.453  1.00  0.00    -0.295 N 
HETATM   55  N8  UNL     1     -17.284  14.595 -18.309  1.00  0.00    -0.344 N 
ATOM     56  H82 UNL     1     -16.299  14.853 -18.264  1.00  0.00     0.176 HD
ATOM     57  H81 UNL     1     -17.810  14.511 -17.440  1.00  0.00     0.176 HD
ATOM     58  H7  UNL     1     -18.749  14.147 -19.518  1.00  0.00     0.187 HD
ENDBRANCH  34  54
ENDBRANCH   9  10
ENDBRANCH   5   9
TORSDOF 13
ENDMDL
