MODEL 1
REMARK VINA RESULT: -8.652117982      0.000      0.000
REMARK  11 active torsions:
REMARK  status: ('A' for Active; 'I' for Inactive)
REMARK    1  A    between atoms: C2_2  and  C3_3 
REMARK    2  A    between atoms: C3_3  and  N1_4 
REMARK    3  A    between atoms: N2_7  and  C6_8 
REMARK    4  A    between atoms: C6_8  and  C7_9 
REMARK    5  A    between atoms: C7_9  and  C8_10 
REMARK    6  A    between atoms: C8_10  and  N3_11 
REMARK       I    between atoms: N3_11  and  C9_13 
REMARK    7  A    between atoms: C9_13  and  C10_15 
REMARK    8  A    between atoms: C12_17  and  N4_18 
REMARK       I    between atoms: N4_18  and  C13_20 
REMARK    9  A    between atoms: C13_20  and  C14_22 
REMARK   10  A    between atoms: C16_24  and  N5_25 
REMARK       I    between atoms: N5_25  and  C17_27 
REMARK   11  A    between atoms: C17_27  and  C18_29 
ROOT
HETATM    1  N4  UNL     1     -14.983  12.539 -19.584  1.00  0.00    -0.320 N 
ATOM      2  H4  UNL     1     -14.219  12.381 -20.240  1.00  0.00     0.169 HD
HETATM    3  C13 UNL     1     -15.619  13.787 -19.609  1.00  0.00     0.273 C 
HETATM    4  O2  UNL     1     -16.581  13.950 -18.766  1.00  0.00    -0.266 OA
ENDROOT
BRANCH   1   5
HETATM    5  C12 UNL     1     -15.334  11.475 -18.701  1.00  0.00     0.053 A 
HETATM    6  C11 UNL     1     -16.442  10.670 -18.653  1.00  0.00     0.066 A 
HETATM    7  C10 UNL     1     -16.335   9.773 -17.573  1.00  0.00     0.104 A 
HETATM    8  N9  UNL     1     -15.172  10.045 -16.986  1.00  0.00    -0.354 N 
HETATM    9  C25 UNL     1     -14.551  11.063 -17.642  1.00  0.00     0.120 A 
HETATM   10  C26 UNL     1     -14.556   9.411 -15.837  1.00  0.00     0.156 C 
BRANCH   7  11
HETATM   11  C9  UNL     1     -17.329   8.775 -17.253  1.00  0.00     0.268 C 
HETATM   12  N3  UNL     1     -18.483   8.936 -16.476  1.00  0.00    -0.356 N 
ATOM     13  H3  UNL     1     -18.664   9.862 -16.090  1.00  0.00     0.162 HD
HETATM   14  O1  UNL     1     -17.183   7.574 -17.718  1.00  0.00    -0.266 OA
BRANCH  12  15
HETATM   15  C8  UNL     1     -19.433   7.897 -16.180  1.00  0.00     0.125 C 
BRANCH  15  16
HETATM   16  C7  UNL     1     -20.789   8.139 -16.759  1.00  0.00     0.050 C 
BRANCH  16  17
HETATM   17  C6  UNL     1     -20.932   7.378 -18.080  1.00  0.00     0.274 C 
BRANCH  17  18
HETATM   18  N2  UNL     1     -21.016   8.367 -19.142  1.00  0.00     0.091 N 
HETATM   19  C5  UNL     1     -19.776   8.391 -19.895  1.00  0.00     0.292 C 
HETATM   20  C4  UNL     1     -19.958   9.323 -21.106  1.00  0.00     0.152 C 
HETATM   21  N1  UNL     1     -20.308  10.589 -20.581  1.00  0.00    -0.390 N 
HETATM   22  C28 UNL     1     -20.425  10.710 -19.174  1.00  0.00     0.152 C 
HETATM   23  C27 UNL     1     -21.299   9.653 -18.538  1.00  0.00     0.292 C 
BRANCH  21  24
HETATM   24  C3  UNL     1     -20.008  11.740 -21.332  1.00  0.00     0.058 C 
BRANCH  24  25
HETATM   25  C2  UNL     1     -18.657  12.346 -21.041  1.00  0.00     0.040 C 
HETATM   26  C1  UNL     1     -17.665  11.935 -22.105  1.00  0.00     0.010 C 
ENDBRANCH  24  25
ENDBRANCH  21  24
ENDBRANCH  17  18
ENDBRANCH  16  17
ENDBRANCH  15  16
ENDBRANCH  12  15
ENDBRANCH   7  11
ENDBRANCH   1   5
BRANCH   3  27
HETATM   27  C14 UNL     1     -15.314  14.904 -20.472  1.00  0.00     0.105 A 
HETATM   28  C15 UNL     1     -15.924  15.049 -21.720  1.00  0.00     0.066 A 
HETATM   29  C16 UNL     1     -15.459  16.199 -22.317  1.00  0.00     0.053 A 
HETATM   30  C23 UNL     1     -14.579  16.736 -21.432  1.00  0.00     0.120 A 
HETATM   31  N8  UNL     1     -14.495  15.946 -20.312  1.00  0.00    -0.354 N 
HETATM   32  C24 UNL     1     -13.643  16.258 -19.183  1.00  0.00     0.156 C 
BRANCH  29  33
HETATM   33  N5  UNL     1     -15.868  16.653 -23.593  1.00  0.00    -0.320 N 
HETATM   34  C17 UNL     1     -16.284  17.964 -23.848  1.00  0.00     0.274 C 
HETATM   35  O3  UNL     1     -16.308  18.808 -22.920  1.00  0.00    -0.266 OA
ATOM     36  H5  UNL     1     -15.860  15.989 -24.367  1.00  0.00     0.169 HD
BRANCH  34  37
HETATM   37  C18 UNL     1     -16.696  18.370 -25.191  1.00  0.00     0.116 A 
HETATM   38  C19 UNL     1     -17.964  18.756 -25.478  1.00  0.00     0.123 A 
HETATM   39  N6  UNL     1     -18.286  19.125 -26.751  1.00  0.00    -0.366 N 
HETATM   40  C20 UNL     1     -17.360  19.109 -27.722  1.00  0.00     0.020 A 
ATOM     41  H6  UNL     1     -19.240  19.416 -26.967  1.00  0.00     0.165 HD
HETATM   42  C21 UNL     1     -17.708  19.511 -29.107  1.00  0.00     0.069 C 
HETATM   43  C22 UNL     1     -16.071  18.714 -27.414  1.00  0.00     0.113 A 
HETATM   44  N7  UNL     1     -15.753  18.354 -26.176  1.00  0.00    -0.358 N 
ATOM     45  H7  UNL     1     -14.799  18.063 -25.961  1.00  0.00     0.165 HD
ENDBRANCH  34  37
ENDBRANCH  29  33
ENDBRANCH   3  27
TORSDOF 11
ENDMDL
MODEL 2
REMARK VINA RESULT: -8.647321476      1.805      4.084
REMARK  11 active torsions:
REMARK  status: ('A' for Active; 'I' for Inactive)
REMARK    1  A    between atoms: C2_2  and  C3_3 
REMARK    2  A    between atoms: C3_3  and  N1_4 
REMARK    3  A    between atoms: N2_7  and  C6_8 
REMARK    4  A    between atoms: C6_8  and  C7_9 
REMARK    5  A    between atoms: C7_9  and  C8_10 
REMARK    6  A    between atoms: C8_10  and  N3_11 
REMARK       I    between atoms: N3_11  and  C9_13 
REMARK    7  A    between atoms: C9_13  and  C10_15 
REMARK    8  A    between atoms: C12_17  and  N4_18 
REMARK       I    between atoms: N4_18  and  C13_20 
REMARK    9  A    between atoms: C13_20  and  C14_22 
REMARK   10  A    between atoms: C16_24  and  N5_25 
REMARK       I    between atoms: N5_25  and  C17_27 
REMARK   11  A    between atoms: C17_27  and  C18_29 
ROOT
HETATM    1  N4  UNL     1     -17.687  11.689 -20.911  1.00  0.00    -0.320 N 
ATOM      2  H4  UNL     1     -16.997  11.403 -21.605  1.00  0.00     0.169 HD
HETATM    3  C13 UNL     1     -17.785  13.054 -20.609  1.00  0.00     0.273 C 
HETATM    4  O2  UNL     1     -18.668  13.378 -19.728  1.00  0.00    -0.266 OA
ENDROOT
BRANCH   1   5
HETATM    5  C12 UNL     1     -18.489  10.674 -20.311  1.00  0.00     0.053 A 
HETATM    6  C11 UNL     1     -18.226   9.800 -19.288  1.00  0.00     0.066 A 
HETATM    7  C10 UNL     1     -19.338   8.965 -19.073  1.00  0.00     0.104 A 
HETATM    8  N9  UNL     1     -20.254   9.341 -19.962  1.00  0.00    -0.354 N 
HETATM    9  C25 UNL     1     -19.771  10.364 -20.718  1.00  0.00     0.120 A 
HETATM   10  C26 UNL     1     -21.594   8.826 -20.169  1.00  0.00     0.156 C 
BRANCH   7  11
HETATM   11  C9  UNL     1     -19.394   7.944 -18.053  1.00  0.00     0.268 C 
HETATM   12  N3  UNL     1     -18.632   6.771 -17.975  1.00  0.00    -0.356 N 
ATOM     13  H3  UNL     1     -17.946   6.606 -18.711  1.00  0.00     0.162 HD
HETATM   14  O1  UNL     1     -20.228   8.084 -17.070  1.00  0.00    -0.266 OA
BRANCH  12  15
HETATM   15  C8  UNL     1     -18.741   5.781 -16.937  1.00  0.00     0.125 C 
BRANCH  15  16
HETATM   16  C7  UNL     1     -17.936   6.095 -15.718  1.00  0.00     0.050 C 
BRANCH  16  17
HETATM   17  C6  UNL     1     -16.532   5.499 -15.857  1.00  0.00     0.274 C 
BRANCH  17  18
HETATM   18  N2  UNL     1     -15.590   6.607 -15.866  1.00  0.00     0.091 N 
HETATM   19  C5  UNL     1     -16.192   7.773 -15.246  1.00  0.00     0.292 C 
HETATM   20  C4  UNL     1     -15.120   8.869 -15.124  1.00  0.00     0.152 C 
HETATM   21  N1  UNL     1     -14.658   9.120 -16.437  1.00  0.00    -0.390 N 
HETATM   22  C28 UNL     1     -15.222   8.358 -17.491  1.00  0.00     0.152 C 
HETATM   23  C27 UNL     1     -15.215   6.867 -17.242  1.00  0.00     0.292 C 
BRANCH  21  24
HETATM   24  C3  UNL     1     -14.119  10.385 -16.736  1.00  0.00     0.058 C 
BRANCH  24  25
HETATM   25  C2  UNL     1     -14.777  11.089 -17.898  1.00  0.00     0.040 C 
HETATM   26  C1  UNL     1     -15.989  11.854 -17.420  1.00  0.00     0.010 C 
ENDBRANCH  24  25
ENDBRANCH  21  24
ENDBRANCH  17  18
ENDBRANCH  16  17
ENDBRANCH  15  16
ENDBRANCH  12  15
ENDBRANCH   7  11
ENDBRANCH   1   5
BRANCH   3  27
HETATM   27  C14 UNL     1     -17.006  14.130 -21.176  1.00  0.00     0.105 A 
HETATM   28  C15 UNL     1     -17.282  14.638 -22.448  1.00  0.00     0.066 A 
HETATM   29  C16 UNL     1     -16.398  15.657 -22.726  1.00  0.00     0.053 A 
HETATM   30  C23 UNL     1     -15.602  15.755 -21.630  1.00  0.00     0.120 A 
HETATM   31  N8  UNL     1     -15.976  14.826 -20.691  1.00  0.00    -0.354 N 
HETATM   32  C24 UNL     1     -15.319  14.687 -19.406  1.00  0.00     0.156 C 
BRANCH  29  33
HETATM   33  N5  UNL     1     -16.393  16.395 -23.933  1.00  0.00    -0.320 N 
HETATM   34  C17 UNL     1     -17.120  17.576 -24.117  1.00  0.00     0.274 C 
HETATM   35  O3  UNL     1     -17.825  18.032 -23.185  1.00  0.00    -0.266 OA
ATOM     36  H5  UNL     1     -15.829  16.048 -24.708  1.00  0.00     0.169 HD
BRANCH  34  37
HETATM   37  C18 UNL     1     -17.073  18.293 -25.391  1.00  0.00     0.116 A 
HETATM   38  C19 UNL     1     -18.124  19.007 -25.863  1.00  0.00     0.123 A 
HETATM   39  N6  UNL     1     -18.017  19.656 -27.059  1.00  0.00    -0.366 N 
HETATM   40  C20 UNL     1     -16.882  19.592 -27.771  1.00  0.00     0.020 A 
ATOM     41  H6  UNL     1     -18.807  20.194 -27.414  1.00  0.00     0.165 HD
HETATM   42  C21 UNL     1     -16.763  20.297 -29.071  1.00  0.00     0.069 C 
HETATM   43  C22 UNL     1     -15.818  18.860 -27.276  1.00  0.00     0.113 A 
HETATM   44  N7  UNL     1     -15.918  18.227 -26.113  1.00  0.00    -0.358 N 
ATOM     45  H7  UNL     1     -15.127  17.689 -25.758  1.00  0.00     0.165 HD
ENDBRANCH  34  37
ENDBRANCH  29  33
ENDBRANCH   3  27
TORSDOF 11
ENDMDL
MODEL 3
REMARK VINA RESULT: -8.309273931      1.671      3.262
REMARK  11 active torsions:
REMARK  status: ('A' for Active; 'I' for Inactive)
REMARK    1  A    between atoms: C2_2  and  C3_3 
REMARK    2  A    between atoms: C3_3  and  N1_4 
REMARK    3  A    between atoms: N2_7  and  C6_8 
REMARK    4  A    between atoms: C6_8  and  C7_9 
REMARK    5  A    between atoms: C7_9  and  C8_10 
REMARK    6  A    between atoms: C8_10  and  N3_11 
REMARK       I    between atoms: N3_11  and  C9_13 
REMARK    7  A    between atoms: C9_13  and  C10_15 
REMARK    8  A    between atoms: C12_17  and  N4_18 
REMARK       I    between atoms: N4_18  and  C13_20 
REMARK    9  A    between atoms: C13_20  and  C14_22 
REMARK   10  A    between atoms: C16_24  and  N5_25 
REMARK       I    between atoms: N5_25  and  C17_27 
REMARK   11  A    between atoms: C17_27  and  C18_29 
ROOT
HETATM    1  N4  UNL     1     -15.102  12.973 -20.835  1.00  0.00    -0.320 N 
ATOM      2  H4  UNL     1     -14.529  12.835 -21.667  1.00  0.00     0.169 HD
HETATM    3  C13 UNL     1     -15.485  14.282 -20.514  1.00  0.00     0.273 C 
HETATM    4  O2  UNL     1     -16.208  14.417 -19.456  1.00  0.00    -0.266 OA
ENDROOT
BRANCH   1   5
HETATM    5  C12 UNL     1     -15.460  11.821 -20.074  1.00  0.00     0.053 A 
HETATM    6  C11 UNL     1     -14.800  11.158 -19.073  1.00  0.00     0.066 A 
HETATM    7  C10 UNL     1     -15.560  10.051 -18.648  1.00  0.00     0.104 A 
HETATM    8  N9  UNL     1     -16.663  10.060 -19.392  1.00  0.00    -0.354 N 
HETATM    9  C25 UNL     1     -16.629  11.110 -20.257  1.00  0.00     0.120 A 
HETATM   10  C26 UNL     1     -17.795   9.154 -19.361  1.00  0.00     0.156 C 
BRANCH   7  11
HETATM   11  C9  UNL     1     -15.155   9.153 -17.593  1.00  0.00     0.268 C 
HETATM   12  N3  UNL     1     -15.177   9.390 -16.212  1.00  0.00    -0.356 N 
ATOM     13  H3  UNL     1     -15.525  10.296 -15.897  1.00  0.00     0.162 HD
HETATM   14  O1  UNL     1     -14.715   7.974 -17.907  1.00  0.00    -0.266 OA
BRANCH  12  15
HETATM   15  C8  UNL     1     -14.748   8.458 -15.205  1.00  0.00     0.125 C 
BRANCH  15  16
HETATM   16  C7  UNL     1     -15.871   7.743 -14.527  1.00  0.00     0.050 C 
BRANCH  16  17
HETATM   17  C6  UNL     1     -16.120   6.398 -15.215  1.00  0.00     0.274 C 
BRANCH  17  18
HETATM   18  N2  UNL     1     -17.539   6.324 -15.522  1.00  0.00     0.091 N 
HETATM   19  C5  UNL     1     -17.727   5.936 -16.907  1.00  0.00     0.292 C 
HETATM   20  C4  UNL     1     -19.228   5.708 -17.151  1.00  0.00     0.152 C 
HETATM   21  N1  UNL     1     -19.872   6.925 -16.828  1.00  0.00    -0.390 N 
HETATM   22  C28 UNL     1     -19.065   7.996 -16.370  1.00  0.00     0.152 C 
HETATM   23  C27 UNL     1     -18.127   7.620 -15.245  1.00  0.00     0.292 C 
BRANCH  21  24
HETATM   24  C3  UNL     1     -21.102   7.225 -17.443  1.00  0.00     0.058 C 
BRANCH  24  25
HETATM   25  C2  UNL     1     -21.185   8.609 -18.039  1.00  0.00     0.040 C 
HETATM   26  C1  UNL     1     -21.466   8.516 -19.521  1.00  0.00     0.010 C 
ENDBRANCH  24  25
ENDBRANCH  21  24
ENDBRANCH  17  18
ENDBRANCH  16  17
ENDBRANCH  15  16
ENDBRANCH  12  15
ENDBRANCH   7  11
ENDBRANCH   1   5
BRANCH   3  27
HETATM   27  C14 UNL     1     -15.157  15.488 -21.237  1.00  0.00     0.105 A 
HETATM   28  C15 UNL     1     -15.666  15.733 -22.515  1.00  0.00     0.066 A 
HETATM   29  C16 UNL     1     -15.203  16.952 -22.957  1.00  0.00     0.053 A 
HETATM   30  C23 UNL     1     -14.424  17.429 -21.952  1.00  0.00     0.120 A 
HETATM   31  N8  UNL     1     -14.400  16.537 -20.909  1.00  0.00    -0.354 N 
HETATM   32  C24 UNL     1     -13.659  16.766 -19.685  1.00  0.00     0.156 C 
BRANCH  29  33
HETATM   33  N5  UNL     1     -15.523  17.514 -24.215  1.00  0.00    -0.320 N 
HETATM   34  C17 UNL     1     -16.635  18.335 -24.432  1.00  0.00     0.274 C 
HETATM   35  O3  UNL     1     -17.410  18.607 -23.484  1.00  0.00    -0.266 OA
ATOM     36  H5  UNL     1     -14.911  17.310 -25.005  1.00  0.00     0.169 HD
BRANCH  34  37
HETATM   37  C18 UNL     1     -16.911  18.885 -25.758  1.00  0.00     0.116 A 
HETATM   38  C19 UNL     1     -17.955  18.466 -26.517  1.00  0.00     0.123 A 
HETATM   39  N6  UNL     1     -18.161  19.019 -27.746  1.00  0.00    -0.366 N 
HETATM   40  C20 UNL     1     -17.340  19.973 -28.213  1.00  0.00     0.020 A 
ATOM     41  H6  UNL     1     -18.947  18.706 -28.316  1.00  0.00     0.165 HD
HETATM   42  C21 UNL     1     -17.562  20.576 -29.549  1.00  0.00     0.069 C 
HETATM   43  C22 UNL     1     -16.280  20.390 -27.428  1.00  0.00     0.113 A 
HETATM   44  N7  UNL     1     -16.076  19.853 -26.230  1.00  0.00    -0.358 N 
ATOM     45  H7  UNL     1     -15.290  20.168 -25.661  1.00  0.00     0.165 HD
ENDBRANCH  34  37
ENDBRANCH  29  33
ENDBRANCH   3  27
TORSDOF 11
ENDMDL
MODEL 4
REMARK VINA RESULT: -8.254931771      2.536      2.993
REMARK  11 active torsions:
REMARK  status: ('A' for Active; 'I' for Inactive)
REMARK    1  A    between atoms: C2_2  and  C3_3 
REMARK    2  A    between atoms: C3_3  and  N1_4 
REMARK    3  A    between atoms: N2_7  and  C6_8 
REMARK    4  A    between atoms: C6_8  and  C7_9 
REMARK    5  A    between atoms: C7_9  and  C8_10 
REMARK    6  A    between atoms: C8_10  and  N3_11 
REMARK       I    between atoms: N3_11  and  C9_13 
REMARK    7  A    between atoms: C9_13  and  C10_15 
REMARK    8  A    between atoms: C12_17  and  N4_18 
REMARK       I    between atoms: N4_18  and  C13_20 
REMARK    9  A    between atoms: C13_20  and  C14_22 
REMARK   10  A    between atoms: C16_24  and  N5_25 
REMARK       I    between atoms: N5_25  and  C17_27 
REMARK   11  A    between atoms: C17_27  and  C18_29 
ROOT
HETATM    1  N4  UNL     1     -15.515  11.893 -19.944  1.00  0.00    -0.320 N 
ATOM      2  H4  UNL     1     -15.163  11.522 -20.827  1.00  0.00     0.169 HD
HETATM    3  C13 UNL     1     -15.847  13.252 -19.891  1.00  0.00     0.273 C 
HETATM    4  O2  UNL     1     -16.289  13.684 -18.760  1.00  0.00    -0.266 OA
ENDROOT
BRANCH   1   5
HETATM    5  C12 UNL     1     -15.635  10.992 -18.845  1.00  0.00     0.053 A 
HETATM    6  C11 UNL     1     -16.647  10.143 -18.478  1.00  0.00     0.066 A 
HETATM    7  C10 UNL     1     -16.302   9.472 -17.290  1.00  0.00     0.104 A 
HETATM    8  N9  UNL     1     -15.094   9.919 -16.956  1.00  0.00    -0.354 N 
HETATM    9  C25 UNL     1     -14.670  10.833 -17.871  1.00  0.00     0.120 A 
HETATM   10  C26 UNL     1     -14.261   9.549 -15.828  1.00  0.00     0.156 C 
BRANCH   7  11
HETATM   11  C9  UNL     1     -17.144   8.492 -16.645  1.00  0.00     0.268 C 
HETATM   12  N3  UNL     1     -18.365   8.710 -15.992  1.00  0.00    -0.356 N 
ATOM     13  H3  UNL     1     -18.720   9.666 -15.968  1.00  0.00     0.162 HD
HETATM   14  O1  UNL     1     -16.773   7.250 -16.644  1.00  0.00    -0.266 OA
BRANCH  12  15
HETATM   15  C8  UNL     1     -19.155   7.692 -15.355  1.00  0.00     0.125 C 
BRANCH  15  16
HETATM   16  C7  UNL     1     -20.520   7.533 -15.942  1.00  0.00     0.050 C 
BRANCH  16  17
HETATM   17  C6  UNL     1     -20.447   6.646 -17.189  1.00  0.00     0.274 C 
BRANCH  17  18
HETATM   18  N2  UNL     1     -20.760   7.485 -18.335  1.00  0.00     0.091 N 
HETATM   19  C5  UNL     1     -19.548   7.781 -19.076  1.00  0.00     0.292 C 
HETATM   20  C4  UNL     1     -19.934   8.526 -20.365  1.00  0.00     0.152 C 
HETATM   21  N1  UNL     1     -20.629   9.689 -19.958  1.00  0.00    -0.390 N 
HETATM   22  C28 UNL     1     -20.819   9.890 -18.568  1.00  0.00     0.152 C 
HETATM   23  C27 UNL     1     -21.397   8.692 -17.849  1.00  0.00     0.292 C 
BRANCH  21  24
HETATM   24  C3  UNL     1     -20.625  10.813 -20.805  1.00  0.00     0.058 C 
BRANCH  24  25
HETATM   25  C2  UNL     1     -19.425  11.715 -20.646  1.00  0.00     0.040 C 
HETATM   26  C1  UNL     1     -18.451  11.484 -21.778  1.00  0.00     0.010 C 
ENDBRANCH  24  25
ENDBRANCH  21  24
ENDBRANCH  17  18
ENDBRANCH  16  17
ENDBRANCH  15  16
ENDBRANCH  12  15
ENDBRANCH   7  11
ENDBRANCH   1   5
BRANCH   3  27
HETATM   27  C14 UNL     1     -15.749  14.216 -20.962  1.00  0.00     0.105 A 
HETATM   28  C15 UNL     1     -14.545  14.439 -21.636  1.00  0.00     0.066 A 
HETATM   29  C16 UNL     1     -14.743  15.393 -22.608  1.00  0.00     0.053 A 
HETATM   30  C23 UNL     1     -16.054  15.738 -22.515  1.00  0.00     0.120 A 
HETATM   31  N8  UNL     1     -16.661  15.020 -21.514  1.00  0.00    -0.354 N 
HETATM   32  C24 UNL     1     -18.063  15.159 -21.176  1.00  0.00     0.156 C 
BRANCH  29  33
HETATM   33  N5  UNL     1     -13.732  15.861 -23.479  1.00  0.00    -0.320 N 
HETATM   34  C17 UNL     1     -13.523  17.215 -23.761  1.00  0.00     0.274 C 
HETATM   35  O3  UNL     1     -14.252  18.087 -23.232  1.00  0.00    -0.266 OA
ATOM     36  H5  UNL     1     -13.123  15.174 -23.924  1.00  0.00     0.169 HD
BRANCH  34  37
HETATM   37  C18 UNL     1     -12.459  17.633 -24.673  1.00  0.00     0.116 A 
HETATM   38  C19 UNL     1     -11.920  18.878 -24.639  1.00  0.00     0.123 A 
HETATM   39  N6  UNL     1     -10.928  19.207 -25.516  1.00  0.00    -0.366 N 
HETATM   40  C20 UNL     1     -10.482  18.313 -26.411  1.00  0.00     0.020 A 
ATOM     41  H6  UNL     1     -10.521  20.143 -25.490  1.00  0.00     0.165 HD
HETATM   42  C21 UNL     1      -9.403  18.669 -27.365  1.00  0.00     0.069 C 
HETATM   43  C22 UNL     1     -11.042  17.048 -26.433  1.00  0.00     0.113 A 
HETATM   44  N7  UNL     1     -12.007  16.723 -25.582  1.00  0.00    -0.358 N 
ATOM     45  H7  UNL     1     -12.413  15.788 -25.608  1.00  0.00     0.165 HD
ENDBRANCH  34  37
ENDBRANCH  29  33
ENDBRANCH   3  27
TORSDOF 11
ENDMDL
MODEL 5
REMARK VINA RESULT: -8.245706396      2.668      4.913
REMARK  11 active torsions:
REMARK  status: ('A' for Active; 'I' for Inactive)
REMARK    1  A    between atoms: C2_2  and  C3_3 
REMARK    2  A    between atoms: C3_3  and  N1_4 
REMARK    3  A    between atoms: N2_7  and  C6_8 
REMARK    4  A    between atoms: C6_8  and  C7_9 
REMARK    5  A    between atoms: C7_9  and  C8_10 
REMARK    6  A    between atoms: C8_10  and  N3_11 
REMARK       I    between atoms: N3_11  and  C9_13 
REMARK    7  A    between atoms: C9_13  and  C10_15 
REMARK    8  A    between atoms: C12_17  and  N4_18 
REMARK       I    between atoms: N4_18  and  C13_20 
REMARK    9  A    between atoms: C13_20  and  C14_22 
REMARK   10  A    between atoms: C16_24  and  N5_25 
REMARK       I    between atoms: N5_25  and  C17_27 
REMARK   11  A    between atoms: C17_27  and  C18_29 
ROOT
HETATM    1  N4  UNL     1     -18.947  14.858 -21.370  1.00  0.00    -0.320 N 
ATOM      2  H4  UNL     1     -19.545  15.611 -21.030  1.00  0.00     0.169 HD
HETATM    3  C13 UNL     1     -18.349  15.015 -22.627  1.00  0.00     0.273 C 
HETATM    4  O2  UNL     1     -17.600  14.045 -23.024  1.00  0.00    -0.266 OA
ENDROOT
BRANCH   1   5
HETATM    5  C12 UNL     1     -18.774  13.715 -20.535  1.00  0.00     0.053 A 
HETATM    6  C11 UNL     1     -19.443  12.520 -20.489  1.00  0.00     0.066 A 
HETATM    7  C10 UNL     1     -18.913  11.713 -19.464  1.00  0.00     0.104 A 
HETATM    8  N9  UNL     1     -17.937  12.425 -18.907  1.00  0.00    -0.354 N 
HETATM    9  C25 UNL     1     -17.833  13.631 -19.529  1.00  0.00     0.120 A 
HETATM   10  C26 UNL     1     -17.050  12.067 -17.818  1.00  0.00     0.156 C 
BRANCH   7  11
HETATM   11  C9  UNL     1     -19.383  10.381 -19.163  1.00  0.00     0.268 C 
HETATM   12  N3  UNL     1     -20.506  10.021 -18.407  1.00  0.00    -0.356 N 
ATOM     13  H3  UNL     1     -21.076  10.775 -18.023  1.00  0.00     0.162 HD
HETATM   14  O1  UNL     1     -18.725   9.364 -19.626  1.00  0.00    -0.266 OA
BRANCH  12  15
HETATM   15  C8  UNL     1     -20.919   8.672 -18.129  1.00  0.00     0.125 C 
BRANCH  15  16
HETATM   16  C7  UNL     1     -20.525   8.189 -16.770  1.00  0.00     0.050 C 
BRANCH  16  17
HETATM   17  C6  UNL     1     -19.816   6.837 -16.886  1.00  0.00     0.274 C 
BRANCH  17  18
HETATM   18  N2  UNL     1     -18.385   7.096 -16.876  1.00  0.00     0.091 N 
HETATM   19  C5  UNL     1     -17.659   5.856 -16.676  1.00  0.00     0.292 C 
HETATM   20  C4  UNL     1     -16.156   6.139 -16.835  1.00  0.00     0.152 C 
HETATM   21  N1  UNL     1     -15.835   7.126 -15.875  1.00  0.00    -0.390 N 
HETATM   22  C28 UNL     1     -16.883   7.613 -15.055  1.00  0.00     0.152 C 
HETATM   23  C27 UNL     1     -18.109   8.053 -15.823  1.00  0.00     0.292 C 
BRANCH  21  24
HETATM   24  C3  UNL     1     -14.515   7.198 -15.392  1.00  0.00     0.058 C 
BRANCH  24  25
HETATM   25  C2  UNL     1     -13.964   8.597 -15.273  1.00  0.00     0.040 C 
HETATM   26  C1  UNL     1     -14.073   9.310 -16.601  1.00  0.00     0.010 C 
ENDBRANCH  24  25
ENDBRANCH  21  24
ENDBRANCH  17  18
ENDBRANCH  16  17
ENDBRANCH  15  16
ENDBRANCH  12  15
ENDBRANCH   7  11
ENDBRANCH   1   5
BRANCH   3  27
HETATM   27  C14 UNL     1     -18.482  16.141 -23.521  1.00  0.00     0.105 A 
HETATM   28  C15 UNL     1     -17.393  16.962 -23.827  1.00  0.00     0.066 A 
HETATM   29  C16 UNL     1     -17.801  17.941 -24.705  1.00  0.00     0.053 A 
HETATM   30  C23 UNL     1     -19.122  17.707 -24.921  1.00  0.00     0.120 A 
HETATM   31  N8  UNL     1     -19.531  16.612 -24.200  1.00  0.00    -0.354 N 
HETATM   32  C24 UNL     1     -20.888  16.105 -24.227  1.00  0.00     0.156 C 
BRANCH  29  33
HETATM   33  N5  UNL     1     -16.952  18.946 -25.224  1.00  0.00    -0.320 N 
HETATM   34  C17 UNL     1     -16.384  18.891 -26.501  1.00  0.00     0.274 C 
HETATM   35  O3  UNL     1     -16.618  17.914 -27.252  1.00  0.00    -0.266 OA
ATOM     36  H5  UNL     1     -16.744  19.753 -24.637  1.00  0.00     0.169 HD
BRANCH  34  37
HETATM   37  C18 UNL     1     -15.512  19.963 -26.979  1.00  0.00     0.116 A 
HETATM   38  C19 UNL     1     -14.201  19.763 -27.264  1.00  0.00     0.123 A 
HETATM   39  N6  UNL     1     -13.440  20.804 -27.708  1.00  0.00    -0.366 N 
HETATM   40  C20 UNL     1     -13.976  22.024 -27.865  1.00  0.00     0.020 A 
ATOM     41  H6  UNL     1     -12.454  20.654 -27.924  1.00  0.00     0.165 HD
HETATM   42  C21 UNL     1     -13.150  23.158 -28.348  1.00  0.00     0.069 C 
HETATM   43  C22 UNL     1     -15.314  22.213 -27.570  1.00  0.00     0.113 A 
HETATM   44  N7  UNL     1     -16.059  21.202 -27.138  1.00  0.00    -0.358 N 
ATOM     45  H7  UNL     1     -17.044  21.353 -26.923  1.00  0.00     0.165 HD
ENDBRANCH  34  37
ENDBRANCH  29  33
ENDBRANCH   3  27
TORSDOF 11
ENDMDL
