MODEL 1
REMARK VINA RESULT: -9.845366343      0.000      0.000
REMARK  10 active torsions:
REMARK  status: ('A' for Active; 'I' for Inactive)
REMARK       I    between atoms: C1_2  and  N1_3 
REMARK    1  A    between atoms: C1_2  and  C8_14 
REMARK    2  A    between atoms: C8_14  and  C9_15 
REMARK    3  A    between atoms: C8_14  and  C24_41 
REMARK    4  A    between atoms: C9_15  and  C10_16 
REMARK    5  A    between atoms: C10_16  and  C11_17 
REMARK    6  A    between atoms: C11_17  and  C12_18 
REMARK    7  A    between atoms: C12_18  and  N3_19 
REMARK    8  A    between atoms: C13_22  and  C14_23 
REMARK    9  A    between atoms: C14_23  and  N5_24 
REMARK   10  A    between atoms: C24_41  and  C25_42 
ROOT
HETATM    1  C10 UNL     1     -19.708  10.358 -21.539  1.00  0.00     0.002 C 
ENDROOT
BRANCH   1   2
HETATM    2  C9  UNL     1     -20.616  10.706 -20.374  1.00  0.00     0.014 C 
BRANCH   2   3
HETATM    3  C8  UNL     1     -20.280  10.095 -19.085  1.00  0.00     0.078 C 
BRANCH   3   4
HETATM    4  C1  UNL     1     -19.020  10.672 -18.465  1.00  0.00     0.226 C 
HETATM    5  O1  UNL     1     -18.926  11.908 -18.420  1.00  0.00    -0.273 OA
HETATM    6  N1  UNL     1     -18.002   9.864 -17.968  1.00  0.00    -0.333 N 
HETATM    7  C2  UNL     1     -16.789   9.798 -18.354  1.00  0.00     0.015 C 
ATOM      8  H1  UNL     1     -18.259   9.247 -17.197  1.00  0.00     0.168 HD
HETATM    9  C3  UNL     1     -16.011   8.795 -17.554  1.00  0.00     0.054 C 
HETATM   10  C7  UNL     1     -16.262  10.619 -19.449  1.00  0.00     0.284 C 
HETATM   11  C4  UNL     1     -15.367   9.532 -16.423  1.00  0.00     0.007 C 
HETATM   12  C5  UNL     1     -14.303  10.490 -16.925  1.00  0.00     0.028 C 
HETATM   13  C6  UNL     1     -14.894  11.610 -17.735  1.00  0.00     0.232 C 
HETATM   14  N2  UNL     1     -14.977  11.219 -19.130  1.00  0.00    -0.070 N 
ATOM     15  H22 UNL     1     -14.770  12.002 -19.749  1.00  0.00     0.277 HD
ATOM     16  H21 UNL     1     -14.206  10.603 -19.388  1.00  0.00     0.277 HD
ENDBRANCH   3   4
BRANCH   3  17
HETATM   17  C24 UNL     1     -20.066   8.636 -18.995  1.00  0.00     0.019 C 
BRANCH  17  18
HETATM   18  C25 UNL     1     -20.973   7.753 -18.270  1.00  0.00    -0.007 C 
HETATM   19  C26 UNL     1     -20.746   6.299 -18.339  1.00  0.00     0.049 C 
HETATM   20  C27 UNL     1     -20.772   5.587 -17.014  1.00  0.00     0.056 C 
HETATM   21  N9  UNL     1     -21.644   6.096 -16.039  1.00  0.00    -0.402 N 
HETATM   22  C28 UNL     1     -22.087   7.440 -16.150  1.00  0.00     0.119 C 
ATOM     23  H9  UNL     1     -21.953   5.510 -15.264  1.00  0.00     0.158 HD
HETATM   24  C29 UNL     1     -20.988   8.247 -16.802  1.00  0.00     0.024 C 
ENDBRANCH  17  18
ENDBRANCH   3  17
ENDBRANCH   2   3
ENDBRANCH   1   2
BRANCH   1  25
HETATM   25  C11 UNL     1     -18.785  11.472 -21.895  1.00  0.00     0.022 C 
BRANCH  25  26
HETATM   26  C12 UNL     1     -19.304  12.866 -21.630  1.00  0.00     0.151 C 
BRANCH  26  27
HETATM   27  N3  UNL     1     -18.315  13.869 -21.449  1.00  0.00    -0.274 N 
HETATM   28  N4  UNL     1     -17.351  13.686 -20.497  1.00  0.00    -0.284 N 
HETATM   29  C13 UNL     1     -16.598  14.778 -20.491  1.00  0.00     0.116 A 
ATOM     30  H4  UNL     1     -17.234  12.864 -19.904  1.00  0.00     0.188 HD
HETATM   31  N7  UNL     1     -17.072  15.604 -21.401  1.00  0.00    -0.328 N 
HETATM   32  C18 UNL     1     -18.165  15.050 -22.028  1.00  0.00     0.135 A 
ATOM     33  H7  UNL     1     -16.684  16.523 -21.612  1.00  0.00     0.169 HD
HETATM   34  C19 UNL     1     -18.827  15.766 -23.090  1.00  0.00     0.025 A 
HETATM   35  C20 UNL     1     -19.888  15.330 -23.820  1.00  0.00     0.018 A 
HETATM   36  C23 UNL     1     -18.353  17.036 -23.448  1.00  0.00     0.102 A 
HETATM   37  C21 UNL     1     -20.479  16.076 -24.858  1.00  0.00     0.018 A 
HETATM   38  C22 UNL     1     -19.969  17.307 -25.156  1.00  0.00     0.087 A 
HETATM   39  N8  UNL     1     -18.924  17.744 -24.442  1.00  0.00    -0.374 N 
ATOM     40  H8  UNL     1     -18.540  18.663 -24.661  1.00  0.00     0.164 HD
BRANCH  29  41
HETATM   41  C14 UNL     1     -15.409  15.052 -19.609  1.00  0.00     0.205 C 
BRANCH  41  42
HETATM   42  N5  UNL     1     -14.259  15.296 -20.452  1.00  0.00    -0.326 N 
HETATM   43  C15 UNL     1     -13.607  16.559 -20.763  1.00  0.00     0.147 C 
HETATM   44  C16 UNL     1     -13.114  16.322 -22.170  1.00  0.00     0.144 C 
HETATM   45  N6  UNL     1     -12.765  14.915 -22.178  1.00  0.00    -0.341 N 
HETATM   46  C17 UNL     1     -13.544  14.287 -21.147  1.00  0.00     0.318 C 
ATOM     47  H6  UNL     1     -12.094  14.459 -22.797  1.00  0.00     0.164 HD
HETATM   48  O2  UNL     1     -13.518  13.041 -20.978  1.00  0.00    -0.247 OA
ENDBRANCH  41  42
ENDBRANCH  29  41
ENDBRANCH  26  27
ENDBRANCH  25  26
ENDBRANCH   1  25
TORSDOF 10
ENDMDL
MODEL 2
REMARK VINA RESULT: -9.793607705      2.507      5.097
REMARK  10 active torsions:
REMARK  status: ('A' for Active; 'I' for Inactive)
REMARK       I    between atoms: C1_2  and  N1_3 
REMARK    1  A    between atoms: C1_2  and  C8_14 
REMARK    2  A    between atoms: C8_14  and  C9_15 
REMARK    3  A    between atoms: C8_14  and  C24_41 
REMARK    4  A    between atoms: C9_15  and  C10_16 
REMARK    5  A    between atoms: C10_16  and  C11_17 
REMARK    6  A    between atoms: C11_17  and  C12_18 
REMARK    7  A    between atoms: C12_18  and  N3_19 
REMARK    8  A    between atoms: C13_22  and  C14_23 
REMARK    9  A    between atoms: C14_23  and  N5_24 
REMARK   10  A    between atoms: C24_41  and  C25_42 
ROOT
HETATM    1  C10 UNL     1     -18.158  14.446 -19.109  1.00  0.00     0.002 C 
ENDROOT
BRANCH   1   2
HETATM    2  C9  UNL     1     -17.161  13.309 -18.975  1.00  0.00     0.014 C 
BRANCH   2   3
HETATM    3  C8  UNL     1     -17.692  12.037 -18.477  1.00  0.00     0.078 C 
BRANCH   3   4
HETATM    4  C1  UNL     1     -16.685  11.258 -17.651  1.00  0.00     0.226 C 
HETATM    5  O1  UNL     1     -15.538  11.723 -17.569  1.00  0.00    -0.273 OA
HETATM    6  N1  UNL     1     -17.017  10.069 -17.007  1.00  0.00    -0.333 N 
HETATM    7  C2  UNL     1     -16.521   8.909 -17.192  1.00  0.00     0.015 C 
ATOM      8  H1  UNL     1     -17.748  10.134 -16.300  1.00  0.00     0.168 HD
HETATM    9  C3  UNL     1     -17.157   7.891 -16.292  1.00  0.00     0.054 C 
HETATM   10  C7  UNL     1     -15.461   8.649 -18.171  1.00  0.00     0.284 C 
HETATM   11  C4  UNL     1     -16.316   7.799 -15.059  1.00  0.00     0.007 C 
HETATM   12  C5  UNL     1     -14.954   7.204 -15.363  1.00  0.00     0.028 C 
HETATM   13  C6  UNL     1     -14.131   8.108 -16.240  1.00  0.00     0.232 C 
HETATM   14  N2  UNL     1     -14.397   7.815 -17.636  1.00  0.00    -0.070 N 
ATOM     15  H22 UNL     1     -13.550   7.889 -18.199  1.00  0.00     0.277 HD
ATOM     16  H21 UNL     1     -14.597   6.825 -17.775  1.00  0.00     0.277 HD
ENDBRANCH   3   4
BRANCH   3  17
HETATM   17  C24 UNL     1     -18.204  11.030 -19.429  1.00  0.00     0.019 C 
BRANCH  17  18
HETATM   18  C25 UNL     1     -19.629  10.829 -19.668  1.00  0.00    -0.007 C 
HETATM   19  C26 UNL     1     -20.179  11.183 -20.987  1.00  0.00     0.049 C 
HETATM   20  C27 UNL     1     -21.059  10.135 -21.613  1.00  0.00     0.056 C 
HETATM   21  N9  UNL     1     -21.830   9.353 -20.739  1.00  0.00    -0.402 N 
HETATM   22  C28 UNL     1     -21.436   9.253 -19.378  1.00  0.00     0.119 C 
ATOM     23  H9  UNL     1     -22.660   8.864 -21.076  1.00  0.00     0.158 HD
HETATM   24  C29 UNL     1     -19.930   9.351 -19.315  1.00  0.00     0.024 C 
ENDBRANCH  17  18
ENDBRANCH   3  17
ENDBRANCH   2   3
ENDBRANCH   1   2
BRANCH   1  25
HETATM   25  C11 UNL     1     -18.723  14.549 -20.484  1.00  0.00     0.022 C 
BRANCH  25  26
HETATM   26  C12 UNL     1     -17.743  14.340 -21.614  1.00  0.00     0.151 C 
BRANCH  26  27
HETATM   27  N3  UNL     1     -16.975  15.477 -21.984  1.00  0.00    -0.274 N 
HETATM   28  N4  UNL     1     -17.617  16.578 -22.476  1.00  0.00    -0.284 N 
HETATM   29  C13 UNL     1     -16.681  17.463 -22.796  1.00  0.00     0.116 A 
ATOM     30  H4  UNL     1     -18.625  16.698 -22.578  1.00  0.00     0.188 HD
HETATM   31  N7  UNL     1     -15.508  16.934 -22.513  1.00  0.00    -0.328 N 
HETATM   32  C18 UNL     1     -15.666  15.669 -21.994  1.00  0.00     0.135 A 
ATOM     33  H7  UNL     1     -14.611  17.397 -22.659  1.00  0.00     0.169 HD
HETATM   34  C19 UNL     1     -14.512  14.912 -21.578  1.00  0.00     0.025 A 
HETATM   35  C20 UNL     1     -14.516  13.674 -21.016  1.00  0.00     0.018 A 
HETATM   36  C23 UNL     1     -13.238  15.477 -21.737  1.00  0.00     0.102 A 
HETATM   37  C21 UNL     1     -13.349  12.994 -20.618  1.00  0.00     0.018 A 
HETATM   38  C22 UNL     1     -12.139  13.600 -20.801  1.00  0.00     0.087 A 
HETATM   39  N8  UNL     1     -12.126  14.820 -21.353  1.00  0.00    -0.374 N 
ATOM     40  H8  UNL     1     -11.224  15.277 -21.492  1.00  0.00     0.164 HD
BRANCH  29  41
HETATM   41  C14 UNL     1     -16.894  18.834 -23.381  1.00  0.00     0.205 C 
BRANCH  41  42
HETATM   42  N5  UNL     1     -17.193  18.690 -24.788  1.00  0.00    -0.326 N 
HETATM   43  C15 UNL     1     -16.275  18.639 -25.916  1.00  0.00     0.147 C 
HETATM   44  C16 UNL     1     -17.087  19.284 -27.013  1.00  0.00     0.144 C 
HETATM   45  N6  UNL     1     -18.444  18.862 -26.728  1.00  0.00    -0.341 N 
HETATM   46  C17 UNL     1     -18.502  18.567 -25.323  1.00  0.00     0.318 C 
ATOM     47  H6  UNL     1     -19.211  18.790 -27.397  1.00  0.00     0.164 HD
HETATM   48  O2  UNL     1     -19.586  18.260 -24.765  1.00  0.00    -0.247 OA
ENDBRANCH  41  42
ENDBRANCH  29  41
ENDBRANCH  26  27
ENDBRANCH  25  26
ENDBRANCH   1  25
TORSDOF 10
ENDMDL
MODEL 3
REMARK VINA RESULT: -9.737375041      2.280      8.726
REMARK  10 active torsions:
REMARK  status: ('A' for Active; 'I' for Inactive)
REMARK       I    between atoms: C1_2  and  N1_3 
REMARK    1  A    between atoms: C1_2  and  C8_14 
REMARK    2  A    between atoms: C8_14  and  C9_15 
REMARK    3  A    between atoms: C8_14  and  C24_41 
REMARK    4  A    between atoms: C9_15  and  C10_16 
REMARK    5  A    between atoms: C10_16  and  C11_17 
REMARK    6  A    between atoms: C11_17  and  C12_18 
REMARK    7  A    between atoms: C12_18  and  N3_19 
REMARK    8  A    between atoms: C13_22  and  C14_23 
REMARK    9  A    between atoms: C14_23  and  N5_24 
REMARK   10  A    between atoms: C24_41  and  C25_42 
ROOT
HETATM    1  C10 UNL     1     -18.566  11.232 -21.742  1.00  0.00     0.002 C 
ENDROOT
BRANCH   1   2
HETATM    2  C9  UNL     1     -18.979  12.657 -21.421  1.00  0.00     0.014 C 
BRANCH   2   3
HETATM    3  C8  UNL     1     -18.218  13.718 -22.086  1.00  0.00     0.078 C 
BRANCH   3   4
HETATM    4  C1  UNL     1     -17.028  14.194 -21.272  1.00  0.00     0.226 C 
HETATM    5  O1  UNL     1     -17.266  14.698 -20.163  1.00  0.00    -0.273 OA
HETATM    6  N1  UNL     1     -15.721  14.081 -21.735  1.00  0.00    -0.333 N 
HETATM    7  C2  UNL     1     -14.884  15.014 -21.967  1.00  0.00     0.015 C 
ATOM      8  H1  UNL     1     -15.391  13.132 -21.911  1.00  0.00     0.168 HD
HETATM    9  C3  UNL     1     -13.575  14.469 -22.458  1.00  0.00     0.054 C 
HETATM   10  C7  UNL     1     -15.203  16.431 -21.764  1.00  0.00     0.284 C 
HETATM   11  C4  UNL     1     -12.691  14.290 -21.265  1.00  0.00     0.007 C 
HETATM   12  C5  UNL     1     -12.314  15.626 -20.654  1.00  0.00     0.028 C 
HETATM   13  C6  UNL     1     -13.505  16.329 -20.062  1.00  0.00     0.232 C 
HETATM   14  N2  UNL     1     -14.145  17.149 -21.073  1.00  0.00    -0.070 N 
ATOM     15  H22 UNL     1     -14.488  18.025 -20.679  1.00  0.00     0.277 HD
ATOM     16  H21 UNL     1     -13.462  17.526 -21.731  1.00  0.00     0.277 HD
ENDBRANCH   3   4
BRANCH   3  17
HETATM   17  C24 UNL     1     -18.890  14.974 -22.474  1.00  0.00     0.019 C 
BRANCH  17  18
HETATM   18  C25 UNL     1     -19.129  15.340 -23.866  1.00  0.00    -0.007 C 
HETATM   19  C26 UNL     1     -20.459  15.848 -24.243  1.00  0.00     0.049 C 
HETATM   20  C27 UNL     1     -20.449  17.102 -25.075  1.00  0.00     0.056 C 
HETATM   21  N9  UNL     1     -19.380  17.259 -25.970  1.00  0.00    -0.402 N 
HETATM   22  C28 UNL     1     -18.184  16.527 -25.745  1.00  0.00     0.119 C 
ATOM     23  H9  UNL     1     -19.460  17.889 -26.769  1.00  0.00     0.158 HD
HETATM   24  C29 UNL     1     -18.016  16.345 -24.254  1.00  0.00     0.024 C 
ENDBRANCH  17  18
ENDBRANCH   3  17
ENDBRANCH   2   3
ENDBRANCH   1   2
BRANCH   1  25
HETATM   25  C11 UNL     1     -17.232  10.885 -21.176  1.00  0.00     0.022 C 
BRANCH  25  26
HETATM   26  C12 UNL     1     -17.062  11.132 -19.696  1.00  0.00     0.151 C 
BRANCH  26  27
HETATM   27  N3  UNL     1     -16.881   9.974 -18.893  1.00  0.00    -0.274 N 
HETATM   28  N4  UNL     1     -15.613   9.604 -18.540  1.00  0.00    -0.284 N 
HETATM   29  C13 UNL     1     -15.715   8.475 -17.851  1.00  0.00     0.116 A 
ATOM     30  H4  UNL     1     -14.752  10.102 -18.763  1.00  0.00     0.188 HD
HETATM   31  N7  UNL     1     -16.992   8.158 -17.778  1.00  0.00    -0.328 N 
HETATM   32  C18 UNL     1     -17.757   9.096 -18.432  1.00  0.00     0.135 A 
ATOM     33  H7  UNL     1     -17.361   7.333 -17.304  1.00  0.00     0.169 HD
HETATM   34  C19 UNL     1     -19.193   8.970 -18.450  1.00  0.00     0.025 A 
HETATM   35  C20 UNL     1     -20.074   9.835 -19.020  1.00  0.00     0.018 A 
HETATM   36  C23 UNL     1     -19.784   7.868 -17.815  1.00  0.00     0.102 A 
HETATM   37  C21 UNL     1     -21.471   9.659 -18.988  1.00  0.00     0.018 A 
HETATM   38  C22 UNL     1     -21.982   8.564 -18.353  1.00  0.00     0.087 A 
HETATM   39  N8  UNL     1     -21.121   7.707 -17.789  1.00  0.00    -0.374 N 
ATOM     40  H8  UNL     1     -21.499   6.887 -17.313  1.00  0.00     0.164 HD
BRANCH  29  41
HETATM   41  C14 UNL     1     -14.589   7.676 -17.251  1.00  0.00     0.205 C 
BRANCH  41  42
HETATM   42  N5  UNL     1     -15.118   6.883 -16.163  1.00  0.00    -0.326 N 
HETATM   43  C15 UNL     1     -15.398   5.456 -16.125  1.00  0.00     0.147 C 
HETATM   44  C16 UNL     1     -16.582   5.391 -15.190  1.00  0.00     0.144 C 
HETATM   45  N6  UNL     1     -16.322   6.448 -14.234  1.00  0.00    -0.341 N 
HETATM   46  C17 UNL     1     -15.466   7.400 -14.888  1.00  0.00     0.318 C 
ATOM     47  H6  UNL     1     -16.677   6.506 -13.279  1.00  0.00     0.164 HD
HETATM   48  O2  UNL     1     -15.143   8.479 -14.328  1.00  0.00    -0.247 OA
ENDBRANCH  41  42
ENDBRANCH  29  41
ENDBRANCH  26  27
ENDBRANCH  25  26
ENDBRANCH   1  25
TORSDOF 10
ENDMDL
MODEL 4
REMARK VINA RESULT: -9.732593112      2.489      9.196
REMARK  10 active torsions:
REMARK  status: ('A' for Active; 'I' for Inactive)
REMARK       I    between atoms: C1_2  and  N1_3 
REMARK    1  A    between atoms: C1_2  and  C8_14 
REMARK    2  A    between atoms: C8_14  and  C9_15 
REMARK    3  A    between atoms: C8_14  and  C24_41 
REMARK    4  A    between atoms: C9_15  and  C10_16 
REMARK    5  A    between atoms: C10_16  and  C11_17 
REMARK    6  A    between atoms: C11_17  and  C12_18 
REMARK    7  A    between atoms: C12_18  and  N3_19 
REMARK    8  A    between atoms: C13_22  and  C14_23 
REMARK    9  A    between atoms: C14_23  and  N5_24 
REMARK   10  A    between atoms: C24_41  and  C25_42 
ROOT
HETATM    1  C10 UNL     1     -18.137  13.375 -18.318  1.00  0.00     0.002 C 
ENDROOT
BRANCH   1   2
HETATM    2  C9  UNL     1     -18.313  13.383 -19.825  1.00  0.00     0.014 C 
BRANCH   2   3
HETATM    3  C8  UNL     1     -17.541  14.388 -20.563  1.00  0.00     0.078 C 
BRANCH   3   4
HETATM    4  C1  UNL     1     -18.334  15.041 -21.680  1.00  0.00     0.226 C 
HETATM    5  O1  UNL     1     -19.460  14.581 -21.921  1.00  0.00    -0.273 OA
HETATM    6  N1  UNL     1     -17.831  16.110 -22.417  1.00  0.00    -0.333 N 
HETATM    7  C2  UNL     1     -17.599  16.164 -23.669  1.00  0.00     0.015 C 
ATOM      8  H1  UNL     1     -17.624  16.957 -21.888  1.00  0.00     0.168 HD
HETATM    9  C3  UNL     1     -17.059  17.505 -24.071  1.00  0.00     0.054 C 
HETATM   10  C7  UNL     1     -17.845  15.031 -24.568  1.00  0.00     0.284 C 
HETATM   11  C4  UNL     1     -18.222  18.347 -24.487  1.00  0.00     0.007 C 
HETATM   12  C5  UNL     1     -18.855  17.821 -25.762  1.00  0.00     0.028 C 
HETATM   13  C6  UNL     1     -19.496  16.477 -25.556  1.00  0.00     0.232 C 
HETATM   14  N2  UNL     1     -18.524  15.426 -25.791  1.00  0.00    -0.070 N 
ATOM     15  H22 UNL     1     -18.949  14.624 -26.255  1.00  0.00     0.277 HD
ATOM     16  H21 UNL     1     -17.857  15.694 -26.515  1.00  0.00     0.277 HD
ENDBRANCH   3   4
BRANCH   3  17
HETATM   17  C24 UNL     1     -16.275  14.006 -21.220  1.00  0.00     0.019 C 
BRANCH  17  18
HETATM   18  C25 UNL     1     -14.969  14.303 -20.641  1.00  0.00    -0.007 C 
HETATM   19  C26 UNL     1     -13.886  13.319 -20.803  1.00  0.00     0.049 C 
HETATM   20  C27 UNL     1     -12.573  13.887 -21.269  1.00  0.00     0.056 C 
HETATM   21  N9  UNL     1     -12.257  15.185 -20.837  1.00  0.00    -0.402 N 
HETATM   22  C28 UNL     1     -13.306  16.039 -20.405  1.00  0.00     0.119 C 
ATOM     23  H9  UNL     1     -11.290  15.509 -20.834  1.00  0.00     0.158 HD
HETATM   24  C29 UNL     1     -14.550  15.691 -21.189  1.00  0.00     0.024 C 
ENDBRANCH  17  18
ENDBRANCH   3  17
ENDBRANCH   2   3
ENDBRANCH   1   2
BRANCH   1  25
HETATM   25  C11 UNL     1     -17.097  12.405 -17.872  1.00  0.00     0.022 C 
BRANCH  25  26
HETATM   26  C12 UNL     1     -16.648  11.401 -18.907  1.00  0.00     0.151 C 
BRANCH  26  27
HETATM   27  N3  UNL     1     -16.572  10.052 -18.466  1.00  0.00    -0.274 N 
HETATM   28  N4  UNL     1     -15.391   9.586 -17.960  1.00  0.00    -0.284 N 
HETATM   29  C13 UNL     1     -15.568   8.301 -17.681  1.00  0.00     0.116 A 
ATOM     30  H4  UNL     1     -14.536  10.125 -17.822  1.00  0.00     0.188 HD
HETATM   31  N7  UNL     1     -16.806   7.983 -18.000  1.00  0.00    -0.328 N 
HETATM   32  C18 UNL     1     -17.469   9.079 -18.501  1.00  0.00     0.135 A 
ATOM     33  H7  UNL     1     -17.215   7.055 -17.890  1.00  0.00     0.169 HD
HETATM   34  C19 UNL     1     -18.855   8.972 -18.883  1.00  0.00     0.025 A 
HETATM   35  C20 UNL     1     -19.643   9.973 -19.356  1.00  0.00     0.018 A 
HETATM   36  C23 UNL     1     -19.497   7.731 -18.759  1.00  0.00     0.102 A 
HETATM   37  C21 UNL     1     -20.999   9.803 -19.698  1.00  0.00     0.018 A 
HETATM   38  C22 UNL     1     -21.564   8.568 -19.552  1.00  0.00     0.087 A 
HETATM   39  N8  UNL     1     -20.794   7.576 -19.088  1.00  0.00    -0.374 N 
ATOM     40  H8  UNL     1     -21.212   6.652 -18.978  1.00  0.00     0.164 HD
BRANCH  29  41
HETATM   41  C14 UNL     1     -14.551   7.351 -17.105  1.00  0.00     0.205 C 
BRANCH  41  42
HETATM   42  N5  UNL     1     -15.189   6.567 -16.072  1.00  0.00    -0.326 N 
HETATM   43  C15 UNL     1     -15.488   5.144 -16.059  1.00  0.00     0.147 C 
HETATM   44  C16 UNL     1     -16.755   5.094 -15.240  1.00  0.00     0.144 C 
HETATM   45  N6  UNL     1     -16.574   6.149 -14.264  1.00  0.00    -0.341 N 
HETATM   46  C17 UNL     1     -15.649   7.090 -14.835  1.00  0.00     0.318 C 
ATOM     47  H6  UNL     1     -17.017   6.213 -13.347  1.00  0.00     0.164 HD
HETATM   48  O2  UNL     1     -15.368   8.166 -14.248  1.00  0.00    -0.247 OA
ENDBRANCH  41  42
ENDBRANCH  29  41
ENDBRANCH  26  27
ENDBRANCH  25  26
ENDBRANCH   1  25
TORSDOF 10
ENDMDL
MODEL 5
REMARK VINA RESULT: -9.699095135      1.861      8.510
REMARK  10 active torsions:
REMARK  status: ('A' for Active; 'I' for Inactive)
REMARK       I    between atoms: C1_2  and  N1_3 
REMARK    1  A    between atoms: C1_2  and  C8_14 
REMARK    2  A    between atoms: C8_14  and  C9_15 
REMARK    3  A    between atoms: C8_14  and  C24_41 
REMARK    4  A    between atoms: C9_15  and  C10_16 
REMARK    5  A    between atoms: C10_16  and  C11_17 
REMARK    6  A    between atoms: C11_17  and  C12_18 
REMARK    7  A    between atoms: C12_18  and  N3_19 
REMARK    8  A    between atoms: C13_22  and  C14_23 
REMARK    9  A    between atoms: C14_23  and  N5_24 
REMARK   10  A    between atoms: C24_41  and  C25_42 
ROOT
HETATM    1  C10 UNL     1     -19.915  11.454 -21.285  1.00  0.00     0.002 C 
ENDROOT
BRANCH   1   2
HETATM    2  C9  UNL     1     -18.457  11.536 -21.698  1.00  0.00     0.014 C 
BRANCH   2   3
HETATM    3  C8  UNL     1     -17.996  12.835 -22.196  1.00  0.00     0.078 C 
BRANCH   3   4
HETATM    4  C1  UNL     1     -16.919  13.456 -21.325  1.00  0.00     0.226 C 
HETATM    5  O1  UNL     1     -17.242  13.785 -20.173  1.00  0.00    -0.273 OA
HETATM    6  N1  UNL     1     -15.621  13.660 -21.785  1.00  0.00    -0.333 N 
HETATM    7  C2  UNL     1     -14.994  14.762 -21.911  1.00  0.00     0.015 C 
ATOM      8  H1  UNL     1     -15.107  12.821 -22.054  1.00  0.00     0.168 HD
HETATM    9  C3  UNL     1     -13.607  14.548 -22.442  1.00  0.00     0.054 C 
HETATM   10  C7  UNL     1     -15.592  16.056 -21.565  1.00  0.00     0.284 C 
HETATM   11  C4  UNL     1     -12.693  14.431 -21.265  1.00  0.00     0.007 C 
HETATM   12  C5  UNL     1     -12.588  15.745 -20.515  1.00  0.00     0.028 C 
HETATM   13  C6  UNL     1     -13.889  16.126 -19.866  1.00  0.00     0.232 C 
HETATM   14  N2  UNL     1     -14.694  16.899 -20.794  1.00  0.00    -0.070 N 
ATOM     15  H22 UNL     1     -15.203  17.641 -20.314  1.00  0.00     0.277 HD
ATOM     16  H21 UNL     1     -14.110  17.473 -21.402  1.00  0.00     0.277 HD
ENDBRANCH   3   4
BRANCH   3  17
HETATM   17  C24 UNL     1     -18.962  13.937 -22.382  1.00  0.00     0.019 C 
BRANCH  17  18
HETATM   18  C25 UNL     1     -18.713  15.056 -23.285  1.00  0.00    -0.007 C 
HETATM   19  C26 UNL     1     -17.813  14.849 -24.432  1.00  0.00     0.049 C 
HETATM   20  C27 UNL     1     -18.340  15.346 -25.751  1.00  0.00     0.056 C 
HETATM   21  N9  UNL     1     -19.153  16.490 -25.718  1.00  0.00    -0.402 N 
HETATM   22  C28 UNL     1     -19.795  16.840 -24.501  1.00  0.00     0.119 C 
ATOM     23  H9  UNL     1     -19.279  17.060 -26.554  1.00  0.00     0.158 HD
HETATM   24  C29 UNL     1     -20.100  15.567 -23.746  1.00  0.00     0.024 C 
ENDBRANCH  17  18
ENDBRANCH   3  17
ENDBRANCH   2   3
ENDBRANCH   1   2
BRANCH   1  25
HETATM   25  C11 UNL     1     -20.144  10.464 -20.196  1.00  0.00     0.022 C 
BRANCH  25  26
HETATM   26  C12 UNL     1     -19.453  10.758 -18.885  1.00  0.00     0.151 C 
BRANCH  26  27
HETATM   27  N3  UNL     1     -18.507   9.788 -18.455  1.00  0.00    -0.274 N 
HETATM   28  N4  UNL     1     -17.187   9.973 -18.756  1.00  0.00    -0.284 N 
HETATM   29  C13 UNL     1     -16.532   8.912 -18.299  1.00  0.00     0.116 A 
ATOM     30  H4  UNL     1     -16.781  10.774 -19.239  1.00  0.00     0.188 HD
HETATM   31  N7  UNL     1     -17.409   8.105 -17.738  1.00  0.00    -0.328 N 
HETATM   32  C18 UNL     1     -18.674   8.638 -17.822  1.00  0.00     0.135 A 
ATOM     33  H7  UNL     1     -17.181   7.211 -17.302  1.00  0.00     0.169 HD
HETATM   34  C19 UNL     1     -19.792   7.939 -17.238  1.00  0.00     0.025 A 
HETATM   35  C20 UNL     1     -21.085   8.360 -17.211  1.00  0.00     0.018 A 
HETATM   36  C23 UNL     1     -19.566   6.704 -16.613  1.00  0.00     0.102 A 
HETATM   37  C21 UNL     1     -22.129   7.632 -16.609  1.00  0.00     0.018 A 
HETATM   38  C22 UNL     1     -21.841   6.436 -16.017  1.00  0.00     0.087 A 
HETATM   39  N8  UNL     1     -20.571   6.013 -16.039  1.00  0.00    -0.374 N 
ATOM     40  H8  UNL     1     -20.351   5.120 -15.599  1.00  0.00     0.164 HD
BRANCH  29  41
HETATM   41  C14 UNL     1     -15.052   8.652 -18.395  1.00  0.00     0.205 C 
BRANCH  41  42
HETATM   42  N5  UNL     1     -14.503   8.632 -17.057  1.00  0.00    -0.326 N 
HETATM   43  C15 UNL     1     -14.163   7.487 -16.227  1.00  0.00     0.147 C 
HETATM   44  C16 UNL     1     -14.441   8.010 -14.838  1.00  0.00     0.144 C 
HETATM   45  N6  UNL     1     -14.072   9.409 -14.920  1.00  0.00    -0.341 N 
HETATM   46  C17 UNL     1     -14.188   9.790 -16.301  1.00  0.00     0.318 C 
ATOM     47  H6  UNL     1     -13.785  10.009 -14.146  1.00  0.00     0.164 HD
HETATM   48  O2  UNL     1     -14.016  10.982 -16.665  1.00  0.00    -0.247 OA
ENDBRANCH  41  42
ENDBRANCH  29  41
ENDBRANCH  26  27
ENDBRANCH  25  26
ENDBRANCH   1  25
TORSDOF 10
ENDMDL
