MODEL 1
REMARK VINA RESULT: -8.794763553      0.000      0.000
REMARK  15 active torsions:
REMARK  status: ('A' for Active; 'I' for Inactive)
REMARK    1  A    between atoms: C2_2  and  C4_4 
REMARK    2  A    between atoms: C4_4  and  C5_5 
REMARK    3  A    between atoms: C5_5  and  S1_6 
REMARK    4  A    between atoms: S1_6  and  C6_7 
REMARK    5  A    between atoms: C6_7  and  C7_8 
REMARK    6  A    between atoms: C7_8  and  C8_9 
REMARK    7  A    between atoms: C8_9  and  C9_10 
REMARK    8  A    between atoms: C9_10  and  C10_11 
REMARK    9  A    between atoms: C9_10  and  C21_33 
REMARK   10  A    between atoms: C10_11  and  O1_12 
REMARK   11  A    between atoms: C10_11  and  N1_14 
REMARK   12  A    between atoms: C14_21  and  C15_22 
REMARK       I    between atoms: C15_22  and  N3_24 
REMARK   13  A    between atoms: N3_24  and  C16_26 
REMARK   14  A    between atoms: C16_26  and  C17_27 
REMARK   15  A    between atoms: C22_36  and  C23_37 
ROOT
HETATM    1  C10 UNL     1     -17.440  14.392 -19.655  1.00  0.00     0.127 C 
ENDROOT
BRANCH   1   2
HETATM    2  C9  UNL     1     -18.279  13.896 -20.725  1.00  0.00     0.137 C 
BRANCH   2   3
HETATM    3  C8  UNL     1     -17.903  14.353 -22.119  1.00  0.00     0.022 C 
BRANCH   3   4
HETATM    4  C7  UNL     1     -18.264  15.832 -22.307  1.00  0.00     0.011 C 
BRANCH   4   5
HETATM    5  C6  UNL     1     -17.002  16.509 -22.798  1.00  0.00     0.074 C 
BRANCH   5   6
HETATM    6  S1  UNL     1     -17.358  18.099 -23.582  1.00  0.00    -0.165 SA
BRANCH   6   7
HETATM    7  C5  UNL     1     -17.118  17.939 -25.360  1.00  0.00     0.101 C 
BRANCH   7   8
HETATM    8  C4  UNL     1     -18.364  17.531 -26.054  1.00  0.00    -0.015 C 
BRANCH   8   9
HETATM    9  C2  UNL     1     -19.015  16.424 -25.786  1.00  0.00    -0.091 C 
HETATM   10  C1  UNL     1     -20.443  16.475 -25.391  1.00  0.00     0.042 C 
HETATM   11  C3  UNL     1     -18.335  15.111 -25.872  1.00  0.00     0.042 C 
ENDBRANCH   8   9
ENDBRANCH   7   8
ENDBRANCH   6   7
ENDBRANCH   5   6
ENDBRANCH   4   5
ENDBRANCH   3   4
ENDBRANCH   2   3
BRANCH   2  12
HETATM   12  C21 UNL     1     -18.619  12.465 -20.708  1.00  0.00     0.160 A 
HETATM   13  N4  UNL     1     -19.589  11.844 -19.968  1.00  0.00    -0.326 N 
HETATM   14  C22 UNL     1     -19.560  10.534 -20.256  1.00  0.00     0.111 A 
ATOM     15  H4  UNL     1     -20.223  12.298 -19.310  1.00  0.00     0.169 HD
HETATM   16  N5  UNL     1     -18.587  10.370 -21.157  1.00  0.00    -0.246 N 
HETATM   17  O6  UNL     1     -18.070  11.522 -21.388  1.00  0.00    -0.222 OA
ATOM     18  H5  UNL     1     -18.306   9.488 -21.584  1.00  0.00     0.196 HD
BRANCH  14  19
HETATM   19  C23 UNL     1     -20.415   9.440 -19.713  1.00  0.00     0.009 C 
HETATM   20  C24 UNL     1     -19.660   8.128 -19.730  1.00  0.00     0.023 C 
HETATM   21  C25 UNL     1     -21.663   9.244 -20.558  1.00  0.00     0.023 C 
HETATM   22  C26 UNL     1     -20.848   9.743 -18.311  1.00  0.00     0.023 C 
ENDBRANCH  14  19
ENDBRANCH   2  12
ENDBRANCH   1   2
BRANCH   1  23
HETATM   23  O1  UNL     1     -18.099  14.862 -18.636  1.00  0.00    -0.349 OA
ATOM     24  H1  UNL     1     -17.937  14.399 -17.822  1.00  0.00     0.219 HD
ENDBRANCH   1  23
BRANCH   1  25
HETATM   25  N1  UNL     1     -16.054  14.462 -19.504  1.00  0.00    -0.335 N 
HETATM   26  C11 UNL     1     -15.257  15.704 -19.474  1.00  0.00     0.252 C 
HETATM   27  N2  UNL     1     -14.450  15.574 -20.705  1.00  0.00    -0.345 N 
HETATM   28  C12 UNL     1     -14.430  14.359 -21.442  1.00  0.00     0.221 C 
ATOM     29  H2  UNL     1     -13.900  16.369 -21.032  1.00  0.00     0.164 HD
HETATM   30  O2  UNL     1     -14.114  14.372 -22.654  1.00  0.00    -0.273 OA
HETATM   31  C13 UNL     1     -14.774  13.020 -20.849  1.00  0.00     0.138 C 
HETATM   32  C14 UNL     1     -15.172  13.289 -19.413  1.00  0.00     0.188 C 
BRANCH  32  33
HETATM   33  C15 UNL     1     -15.527  12.199 -18.578  1.00  0.00     0.242 C 
HETATM   34  O3  UNL     1     -16.239  12.432 -17.526  1.00  0.00    -0.271 OA
HETATM   35  N3  UNL     1     -15.191  10.856 -18.774  1.00  0.00    -0.340 N 
ATOM     36  H3  UNL     1     -14.627  10.631 -19.594  1.00  0.00     0.163 HD
BRANCH  35  37
HETATM   37  C16 UNL     1     -15.574   9.755 -17.909  1.00  0.00     0.125 A 
HETATM   38  C18 UNL     1     -16.281   8.599 -18.601  1.00  0.00     0.050 A 
HETATM   39  C19 UNL     1     -17.021   9.498 -17.667  1.00  0.00     0.023 A 
HETATM   40  C20 UNL     1     -17.455   8.874 -16.368  1.00  0.00     0.013 C 
BRANCH  37  41
HETATM   41  C17 UNL     1     -14.563   9.332 -16.913  1.00  0.00     0.203 C 
HETATM   42  O4  UNL     1     -14.120  10.250 -16.137  1.00  0.00    -0.646 OA
HETATM   43  O5  UNL     1     -14.092   8.035 -16.790  1.00  0.00    -0.646 OA
ENDBRANCH  37  41
ENDBRANCH  35  37
ENDBRANCH  32  33
ENDBRANCH   1  25
TORSDOF 15
ENDMDL
MODEL 2
REMARK VINA RESULT: -8.464091883      1.035      1.391
REMARK  15 active torsions:
REMARK  status: ('A' for Active; 'I' for Inactive)
REMARK    1  A    between atoms: C2_2  and  C4_4 
REMARK    2  A    between atoms: C4_4  and  C5_5 
REMARK    3  A    between atoms: C5_5  and  S1_6 
REMARK    4  A    between atoms: S1_6  and  C6_7 
REMARK    5  A    between atoms: C6_7  and  C7_8 
REMARK    6  A    between atoms: C7_8  and  C8_9 
REMARK    7  A    between atoms: C8_9  and  C9_10 
REMARK    8  A    between atoms: C9_10  and  C10_11 
REMARK    9  A    between atoms: C9_10  and  C21_33 
REMARK   10  A    between atoms: C10_11  and  O1_12 
REMARK   11  A    between atoms: C10_11  and  N1_14 
REMARK   12  A    between atoms: C14_21  and  C15_22 
REMARK       I    between atoms: C15_22  and  N3_24 
REMARK   13  A    between atoms: N3_24  and  C16_26 
REMARK   14  A    between atoms: C16_26  and  C17_27 
REMARK   15  A    between atoms: C22_36  and  C23_37 
ROOT
HETATM    1  C10 UNL     1     -17.141  14.312 -19.752  1.00  0.00     0.127 C 
ENDROOT
BRANCH   1   2
HETATM    2  C9  UNL     1     -18.059  14.030 -20.836  1.00  0.00     0.137 C 
BRANCH   2   3
HETATM    3  C8  UNL     1     -17.642  14.544 -22.198  1.00  0.00     0.022 C 
BRANCH   3   4
HETATM    4  C7  UNL     1     -18.131  15.985 -22.393  1.00  0.00     0.011 C 
BRANCH   4   5
HETATM    5  C6  UNL     1     -16.909  16.789 -22.785  1.00  0.00     0.074 C 
BRANCH   5   6
HETATM    6  S1  UNL     1     -17.357  18.285 -23.696  1.00  0.00    -0.165 SA
BRANCH   6   7
HETATM    7  C5  UNL     1     -17.130  17.984 -25.457  1.00  0.00     0.101 C 
BRANCH   7   8
HETATM    8  C4  UNL     1     -18.389  17.554 -26.114  1.00  0.00    -0.015 C 
BRANCH   8   9
HETATM    9  C2  UNL     1     -19.030  16.452 -25.802  1.00  0.00    -0.091 C 
HETATM   10  C1  UNL     1     -20.457  16.505 -25.406  1.00  0.00     0.042 C 
HETATM   11  C3  UNL     1     -18.338  15.142 -25.840  1.00  0.00     0.042 C 
ENDBRANCH   8   9
ENDBRANCH   7   8
ENDBRANCH   6   7
ENDBRANCH   5   6
ENDBRANCH   4   5
ENDBRANCH   3   4
ENDBRANCH   2   3
BRANCH   2  12
HETATM   12  C21 UNL     1     -18.599  12.665 -20.925  1.00  0.00     0.160 A 
HETATM   13  N4  UNL     1     -19.325  11.989 -19.982  1.00  0.00    -0.326 N 
HETATM   14  C22 UNL     1     -19.616  10.774 -20.469  1.00  0.00     0.111 A 
ATOM     15  H4  UNL     1     -19.597  12.347 -19.066  1.00  0.00     0.169 HD
HETATM   16  N5  UNL     1     -19.073  10.719 -21.689  1.00  0.00    -0.246 N 
HETATM   17  O6  UNL     1     -18.492  11.843 -21.908  1.00  0.00    -0.222 OA
ATOM     18  H5  UNL     1     -19.112   9.927 -22.330  1.00  0.00     0.196 HD
BRANCH  14  19
HETATM   19  C23 UNL     1     -20.385   9.670 -19.828  1.00  0.00     0.009 C 
HETATM   20  C24 UNL     1     -19.501   8.455 -19.640  1.00  0.00     0.023 C 
HETATM   21  C25 UNL     1     -21.556   9.236 -20.695  1.00  0.00     0.023 C 
HETATM   22  C26 UNL     1     -20.928  10.096 -18.497  1.00  0.00     0.023 C 
ENDBRANCH  14  19
ENDBRANCH   2  12
ENDBRANCH   1   2
BRANCH   1  23
HETATM   23  O1  UNL     1     -17.722  14.590 -18.622  1.00  0.00    -0.349 OA
ATOM     24  H1  UNL     1     -17.137  14.588 -17.873  1.00  0.00     0.219 HD
ENDBRANCH   1  23
BRANCH   1  25
HETATM   25  N1  UNL     1     -15.747  14.343 -19.685  1.00  0.00    -0.335 N 
HETATM   26  C11 UNL     1     -14.928  15.541 -19.417  1.00  0.00     0.252 C 
HETATM   27  N2  UNL     1     -14.208  15.706 -20.697  1.00  0.00    -0.345 N 
HETATM   28  C12 UNL     1     -14.259  14.702 -21.701  1.00  0.00     0.221 C 
ATOM     29  H2  UNL     1     -13.667  16.556 -20.862  1.00  0.00     0.164 HD
HETATM   30  O2  UNL     1     -14.025  15.004 -22.894  1.00  0.00    -0.273 OA
HETATM   31  C13 UNL     1     -14.586  13.261 -21.420  1.00  0.00     0.138 C 
HETATM   32  C14 UNL     1     -14.882  13.180 -19.937  1.00  0.00     0.188 C 
BRANCH  32  33
HETATM   33  C15 UNL     1     -15.200  11.923 -19.364  1.00  0.00     0.242 C 
HETATM   34  O3  UNL     1     -15.648  10.987 -20.134  1.00  0.00    -0.271 OA
HETATM   35  N3  UNL     1     -15.074  11.566 -18.018  1.00  0.00    -0.340 N 
ATOM     36  H3  UNL     1     -14.724  12.278 -17.377  1.00  0.00     0.163 HD
BRANCH  35  37
HETATM   37  C16 UNL     1     -15.398  10.267 -17.456  1.00  0.00     0.125 A 
HETATM   38  C18 UNL     1     -14.441   9.765 -16.384  1.00  0.00     0.050 A 
HETATM   39  C19 UNL     1     -14.493   9.117 -17.728  1.00  0.00     0.023 A 
HETATM   40  C20 UNL     1     -15.056   7.722 -17.757  1.00  0.00     0.013 C 
BRANCH  37  41
HETATM   41  C17 UNL     1     -16.826  10.036 -17.142  1.00  0.00     0.203 C 
HETATM   42  O4  UNL     1     -17.657  10.866 -17.658  1.00  0.00    -0.646 OA
HETATM   43  O5  UNL     1     -17.288   9.001 -16.345  1.00  0.00    -0.646 OA
ENDBRANCH  37  41
ENDBRANCH  35  37
ENDBRANCH  32  33
ENDBRANCH   1  25
TORSDOF 15
ENDMDL
MODEL 3
REMARK VINA RESULT: -8.370942011      0.904      1.469
REMARK  15 active torsions:
REMARK  status: ('A' for Active; 'I' for Inactive)
REMARK    1  A    between atoms: C2_2  and  C4_4 
REMARK    2  A    between atoms: C4_4  and  C5_5 
REMARK    3  A    between atoms: C5_5  and  S1_6 
REMARK    4  A    between atoms: S1_6  and  C6_7 
REMARK    5  A    between atoms: C6_7  and  C7_8 
REMARK    6  A    between atoms: C7_8  and  C8_9 
REMARK    7  A    between atoms: C8_9  and  C9_10 
REMARK    8  A    between atoms: C9_10  and  C10_11 
REMARK    9  A    between atoms: C9_10  and  C21_33 
REMARK   10  A    between atoms: C10_11  and  O1_12 
REMARK   11  A    between atoms: C10_11  and  N1_14 
REMARK   12  A    between atoms: C14_21  and  C15_22 
REMARK       I    between atoms: C15_22  and  N3_24 
REMARK   13  A    between atoms: N3_24  and  C16_26 
REMARK   14  A    between atoms: C16_26  and  C17_27 
REMARK   15  A    between atoms: C22_36  and  C23_37 
ROOT
HETATM    1  C10 UNL     1     -17.451  14.465 -19.688  1.00  0.00     0.127 C 
ENDROOT
BRANCH   1   2
HETATM    2  C9  UNL     1     -18.293  14.115 -20.811  1.00  0.00     0.137 C 
BRANCH   2   3
HETATM    3  C8  UNL     1     -17.836  14.631 -22.159  1.00  0.00     0.022 C 
BRANCH   3   4
HETATM    4  C7  UNL     1     -19.045  15.070 -22.995  1.00  0.00     0.011 C 
BRANCH   4   5
HETATM    5  C6  UNL     1     -18.582  15.053 -24.437  1.00  0.00     0.074 C 
BRANCH   5   6
HETATM    6  S1  UNL     1     -19.606  16.116 -25.480  1.00  0.00    -0.165 SA
BRANCH   6   7
HETATM    7  C5  UNL     1     -19.691  17.755 -24.737  1.00  0.00     0.101 C 
BRANCH   7   8
HETATM    8  C4  UNL     1     -18.574  18.625 -25.180  1.00  0.00    -0.015 C 
BRANCH   8   9
HETATM    9  C2  UNL     1     -17.341  18.501 -24.746  1.00  0.00    -0.091 C 
HETATM   10  C1  UNL     1     -16.211  18.479 -25.705  1.00  0.00     0.042 C 
HETATM   11  C3  UNL     1     -17.063  18.380 -23.296  1.00  0.00     0.042 C 
ENDBRANCH   8   9
ENDBRANCH   7   8
ENDBRANCH   6   7
ENDBRANCH   5   6
ENDBRANCH   4   5
ENDBRANCH   3   4
ENDBRANCH   2   3
BRANCH   2  12
HETATM   12  C21 UNL     1     -18.749  12.719 -20.903  1.00  0.00     0.160 A 
HETATM   13  N4  UNL     1     -19.468  12.010 -19.978  1.00  0.00    -0.326 N 
HETATM   14  C22 UNL     1     -19.670  10.776 -20.462  1.00  0.00     0.111 A 
ATOM     15  H4  UNL     1     -19.793  12.361 -19.077  1.00  0.00     0.169 HD
HETATM   16  N5  UNL     1     -19.081  10.742 -21.661  1.00  0.00    -0.246 N 
HETATM   17  O6  UNL     1     -18.560  11.895 -21.873  1.00  0.00    -0.222 OA
ATOM     18  H5  UNL     1     -19.051   9.943 -22.293  1.00  0.00     0.196 HD
BRANCH  14  19
HETATM   19  C23 UNL     1     -20.396   9.635 -19.835  1.00  0.00     0.009 C 
HETATM   20  C24 UNL     1     -19.545   8.384 -19.880  1.00  0.00     0.023 C 
HETATM   21  C25 UNL     1     -21.683   9.323 -20.582  1.00  0.00     0.023 C 
HETATM   22  C26 UNL     1     -20.750   9.941 -18.411  1.00  0.00     0.023 C 
ENDBRANCH  14  19
ENDBRANCH   2  12
ENDBRANCH   1   2
BRANCH   1  23
HETATM   23  O1  UNL     1     -18.106  14.756 -18.601  1.00  0.00    -0.349 OA
ATOM     24  H1  UNL     1     -17.922  14.178 -17.870  1.00  0.00     0.219 HD
ENDBRANCH   1  23
BRANCH   1  25
HETATM   25  N1  UNL     1     -16.064  14.550 -19.542  1.00  0.00    -0.335 N 
HETATM   26  C11 UNL     1     -15.280  15.800 -19.522  1.00  0.00     0.252 C 
HETATM   27  N2  UNL     1     -14.478  15.673 -20.756  1.00  0.00    -0.345 N 
HETATM   28  C12 UNL     1     -14.448  14.455 -21.488  1.00  0.00     0.221 C 
ATOM     29  H2  UNL     1     -13.937  16.472 -21.088  1.00  0.00     0.164 HD
HETATM   30  O2  UNL     1     -14.137  14.467 -22.701  1.00  0.00    -0.273 OA
HETATM   31  C13 UNL     1     -14.776  13.115 -20.887  1.00  0.00     0.138 C 
HETATM   32  C14 UNL     1     -15.171  13.386 -19.451  1.00  0.00     0.188 C 
BRANCH  32  33
HETATM   33  C15 UNL     1     -15.511  12.296 -18.610  1.00  0.00     0.242 C 
HETATM   34  O3  UNL     1     -16.276  12.515 -17.592  1.00  0.00    -0.271 OA
HETATM   35  N3  UNL     1     -15.106  10.967 -18.765  1.00  0.00    -0.340 N 
ATOM     36  H3  UNL     1     -14.500  10.753 -19.557  1.00  0.00     0.163 HD
BRANCH  35  37
HETATM   37  C16 UNL     1     -15.476   9.865 -17.895  1.00  0.00     0.125 A 
HETATM   38  C18 UNL     1     -16.120   8.675 -18.591  1.00  0.00     0.050 A 
HETATM   39  C19 UNL     1     -16.919   9.560 -17.691  1.00  0.00     0.023 A 
HETATM   40  C20 UNL     1     -17.369   8.938 -16.397  1.00  0.00     0.013 C 
BRANCH  37  41
HETATM   41  C17 UNL     1     -14.480   9.493 -16.865  1.00  0.00     0.203 C 
HETATM   42  O4  UNL     1     -14.076  10.442 -16.104  1.00  0.00    -0.646 OA
HETATM   43  O5  UNL     1     -13.984   8.211 -16.694  1.00  0.00    -0.646 OA
ENDBRANCH  37  41
ENDBRANCH  35  37
ENDBRANCH  32  33
ENDBRANCH   1  25
TORSDOF 15
ENDMDL
MODEL 4
REMARK VINA RESULT: -8.322634186      2.235      6.104
REMARK  15 active torsions:
REMARK  status: ('A' for Active; 'I' for Inactive)
REMARK    1  A    between atoms: C2_2  and  C4_4 
REMARK    2  A    between atoms: C4_4  and  C5_5 
REMARK    3  A    between atoms: C5_5  and  S1_6 
REMARK    4  A    between atoms: S1_6  and  C6_7 
REMARK    5  A    between atoms: C6_7  and  C7_8 
REMARK    6  A    between atoms: C7_8  and  C8_9 
REMARK    7  A    between atoms: C8_9  and  C9_10 
REMARK    8  A    between atoms: C9_10  and  C10_11 
REMARK    9  A    between atoms: C9_10  and  C21_33 
REMARK   10  A    between atoms: C10_11  and  O1_12 
REMARK   11  A    between atoms: C10_11  and  N1_14 
REMARK   12  A    between atoms: C14_21  and  C15_22 
REMARK       I    between atoms: C15_22  and  N3_24 
REMARK   13  A    between atoms: N3_24  and  C16_26 
REMARK   14  A    between atoms: C16_26  and  C17_27 
REMARK   15  A    between atoms: C22_36  and  C23_37 
ROOT
HETATM    1  C10 UNL     1     -17.234  14.290 -19.995  1.00  0.00     0.127 C 
ENDROOT
BRANCH   1   2
HETATM    2  C9  UNL     1     -17.956  13.675 -21.089  1.00  0.00     0.137 C 
BRANCH   2   3
HETATM    3  C8  UNL     1     -19.346  13.176 -20.759  1.00  0.00     0.022 C 
BRANCH   3   4
HETATM    4  C7  UNL     1     -19.284  11.725 -20.265  1.00  0.00     0.011 C 
BRANCH   4   5
HETATM    5  C6  UNL     1     -19.976  10.895 -21.327  1.00  0.00     0.074 C 
BRANCH   5   6
HETATM    6  S1  UNL     1     -21.001   9.597 -20.597  1.00  0.00    -0.165 SA
BRANCH   6   7
HETATM    7  C5  UNL     1     -20.870   9.690 -18.803  1.00  0.00     0.101 C 
BRANCH   7   8
HETATM    8  C4  UNL     1     -21.507   8.526 -18.138  1.00  0.00    -0.015 C 
BRANCH   8   9
HETATM    9  C2  UNL     1     -20.833   7.580 -17.527  1.00  0.00    -0.091 C 
HETATM   10  C1  UNL     1     -20.868   7.474 -16.050  1.00  0.00     0.042 C 
HETATM   11  C3  UNL     1     -20.028   6.610 -18.304  1.00  0.00     0.042 C 
ENDBRANCH   8   9
ENDBRANCH   7   8
ENDBRANCH   6   7
ENDBRANCH   5   6
ENDBRANCH   4   5
ENDBRANCH   3   4
ENDBRANCH   2   3
BRANCH   2  12
HETATM   12  C21 UNL     1     -17.934  14.369 -22.386  1.00  0.00     0.160 A 
HETATM   13  N4  UNL     1     -18.776  15.357 -22.822  1.00  0.00    -0.326 N 
HETATM   14  C22 UNL     1     -18.404  15.707 -24.061  1.00  0.00     0.111 A 
ATOM     15  H4  UNL     1     -19.553  15.756 -22.295  1.00  0.00     0.169 HD
HETATM   16  N5  UNL     1     -17.352  14.942 -24.368  1.00  0.00    -0.246 N 
HETATM   17  O6  UNL     1     -17.117  14.180 -23.361  1.00  0.00    -0.222 OA
ATOM     18  H5  UNL     1     -16.830  14.959 -25.243  1.00  0.00     0.196 HD
BRANCH  14  19
HETATM   19  C23 UNL     1     -19.002  16.735 -24.960  1.00  0.00     0.009 C 
HETATM   20  C24 UNL     1     -18.178  16.870 -26.223  1.00  0.00     0.023 C 
HETATM   21  C25 UNL     1     -19.026  18.103 -24.297  1.00  0.00     0.023 C 
HETATM   22  C26 UNL     1     -20.410  16.373 -25.326  1.00  0.00     0.023 C 
ENDBRANCH  14  19
ENDBRANCH   2  12
ENDBRANCH   1   2
BRANCH   1  23
HETATM   23  O1  UNL     1     -17.997  14.847 -19.100  1.00  0.00    -0.349 OA
ATOM     24  H1  UNL     1     -17.835  14.550 -18.212  1.00  0.00     0.219 HD
ENDBRANCH   1  23
BRANCH   1  25
HETATM   25  N1  UNL     1     -15.871  14.399 -19.712  1.00  0.00    -0.335 N 
HETATM   26  C11 UNL     1     -15.121  15.663 -19.581  1.00  0.00     0.252 C 
HETATM   27  N2  UNL     1     -14.200  15.588 -20.733  1.00  0.00    -0.345 N 
HETATM   28  C12 UNL     1     -14.071  14.393 -21.491  1.00  0.00     0.221 C 
ATOM     29  H2  UNL     1     -13.648  16.408 -20.989  1.00  0.00     0.164 HD
HETATM   30  O2  UNL     1     -13.643  14.446 -22.667  1.00  0.00    -0.273 OA
HETATM   31  C13 UNL     1     -14.424  13.030 -20.962  1.00  0.00     0.138 C 
HETATM   32  C14 UNL     1     -14.963  13.251 -19.564  1.00  0.00     0.188 C 
BRANCH  32  33
HETATM   33  C15 UNL     1     -15.359  12.130 -18.791  1.00  0.00     0.242 C 
HETATM   34  O3  UNL     1     -15.566  12.294 -17.526  1.00  0.00    -0.271 OA
HETATM   35  N3  UNL     1     -15.563  10.828 -19.256  1.00  0.00    -0.340 N 
ATOM     36  H3  UNL     1     -15.408  10.657 -20.250  1.00  0.00     0.163 HD
BRANCH  35  37
HETATM   37  C16 UNL     1     -15.977   9.697 -18.444  1.00  0.00     0.125 A 
HETATM   38  C18 UNL     1     -17.185   8.931 -18.964  1.00  0.00     0.050 A 
HETATM   39  C19 UNL     1     -17.280   9.763 -17.728  1.00  0.00     0.023 A 
HETATM   40  C20 UNL     1     -17.458   9.001 -16.442  1.00  0.00     0.013 C 
BRANCH  37  41
HETATM   41  C17 UNL     1     -14.889   8.831 -17.938  1.00  0.00     0.203 C 
HETATM   42  O4  UNL     1     -14.280   9.247 -16.890  1.00  0.00    -0.646 OA
HETATM   43  O5  UNL     1     -14.512   7.635 -18.527  1.00  0.00    -0.646 OA
ENDBRANCH  37  41
ENDBRANCH  35  37
ENDBRANCH  32  33
ENDBRANCH   1  25
TORSDOF 15
ENDMDL
MODEL 5
REMARK VINA RESULT: -8.284664215      2.148      2.827
REMARK  15 active torsions:
REMARK  status: ('A' for Active; 'I' for Inactive)
REMARK    1  A    between atoms: C2_2  and  C4_4 
REMARK    2  A    between atoms: C4_4  and  C5_5 
REMARK    3  A    between atoms: C5_5  and  S1_6 
REMARK    4  A    between atoms: S1_6  and  C6_7 
REMARK    5  A    between atoms: C6_7  and  C7_8 
REMARK    6  A    between atoms: C7_8  and  C8_9 
REMARK    7  A    between atoms: C8_9  and  C9_10 
REMARK    8  A    between atoms: C9_10  and  C10_11 
REMARK    9  A    between atoms: C9_10  and  C21_33 
REMARK   10  A    between atoms: C10_11  and  O1_12 
REMARK   11  A    between atoms: C10_11  and  N1_14 
REMARK   12  A    between atoms: C14_21  and  C15_22 
REMARK       I    between atoms: C15_22  and  N3_24 
REMARK   13  A    between atoms: N3_24  and  C16_26 
REMARK   14  A    between atoms: C16_26  and  C17_27 
REMARK   15  A    between atoms: C22_36  and  C23_37 
ROOT
HETATM    1  C10 UNL     1     -17.523  12.289 -18.507  1.00  0.00     0.127 C 
ENDROOT
BRANCH   1   2
HETATM    2  C9  UNL     1     -18.892  12.240 -18.974  1.00  0.00     0.137 C 
BRANCH   2   3
HETATM    3  C8  UNL     1     -19.134  12.812 -20.355  1.00  0.00     0.022 C 
BRANCH   3   4
HETATM    4  C7  UNL     1     -18.813  14.312 -20.371  1.00  0.00     0.011 C 
BRANCH   4   5
HETATM    5  C6  UNL     1     -18.714  14.700 -21.831  1.00  0.00     0.074 C 
BRANCH   5   6
HETATM    6  S1  UNL     1     -17.279  15.753 -22.147  1.00  0.00    -0.165 SA
BRANCH   6   7
HETATM    7  C5  UNL     1     -17.713  16.970 -23.402  1.00  0.00     0.101 C 
BRANCH   7   8
HETATM    8  C4  UNL     1     -19.088  16.767 -23.921  1.00  0.00    -0.015 C 
BRANCH   8   9
HETATM    9  C2  UNL     1     -19.351  16.233 -25.090  1.00  0.00    -0.091 C 
HETATM   10  C1  UNL     1     -20.578  16.617 -25.827  1.00  0.00     0.042 C 
HETATM   11  C3  UNL     1     -18.429  15.240 -25.688  1.00  0.00     0.042 C 
ENDBRANCH   8   9
ENDBRANCH   7   8
ENDBRANCH   6   7
ENDBRANCH   5   6
ENDBRANCH   4   5
ENDBRANCH   3   4
ENDBRANCH   2   3
BRANCH   2  12
HETATM   12  C21 UNL     1     -19.625  10.978 -18.785  1.00  0.00     0.160 A 
HETATM   13  N4  UNL     1     -19.262   9.907 -18.013  1.00  0.00    -0.326 N 
HETATM   14  C22 UNL     1     -20.214   8.970 -18.125  1.00  0.00     0.111 A 
ATOM     15  H4  UNL     1     -18.414   9.835 -17.451  1.00  0.00     0.169 HD
HETATM   16  N5  UNL     1     -21.137   9.469 -18.953  1.00  0.00    -0.246 N 
HETATM   17  O6  UNL     1     -20.749  10.640 -19.309  1.00  0.00    -0.222 OA
ATOM     18  H5  UNL     1     -21.995   9.004 -19.249  1.00  0.00     0.196 HD
BRANCH  14  19
HETATM   19  C23 UNL     1     -20.283   7.627 -17.482  1.00  0.00     0.009 C 
HETATM   20  C24 UNL     1     -21.269   6.744 -18.215  1.00  0.00     0.023 C 
HETATM   21  C25 UNL     1     -20.763   7.729 -16.043  1.00  0.00     0.023 C 
HETATM   22  C26 UNL     1     -18.938   6.966 -17.474  1.00  0.00     0.023 C 
ENDBRANCH  14  19
ENDBRANCH   2  12
ENDBRANCH   1   2
BRANCH   1  23
HETATM   23  O1  UNL     1     -17.402  12.567 -17.241  1.00  0.00    -0.349 OA
ATOM     24  H1  UNL     1     -16.524  12.444 -16.898  1.00  0.00     0.219 HD
ENDBRANCH   1  23
BRANCH   1  25
HETATM   25  N1  UNL     1     -16.301  12.094 -19.154  1.00  0.00    -0.335 N 
HETATM   26  C11 UNL     1     -15.377  13.162 -19.581  1.00  0.00     0.252 C 
HETATM   27  N2  UNL     1     -15.422  13.030 -21.051  1.00  0.00    -0.345 N 
HETATM   28  C12 UNL     1     -16.064  11.922 -21.668  1.00  0.00     0.221 C 
ATOM     29  H2  UNL     1     -14.986  13.746 -21.634  1.00  0.00     0.164 HD
HETATM   30  O2  UNL     1     -16.466  12.016 -22.851  1.00  0.00    -0.273 OA
HETATM   31  C13 UNL     1     -16.301  10.608 -20.976  1.00  0.00     0.138 C 
HETATM   32  C14 UNL     1     -15.784  10.780 -19.563  1.00  0.00     0.188 C 
BRANCH  32  33
HETATM   33  C15 UNL     1     -15.847   9.683 -18.666  1.00  0.00     0.242 C 
HETATM   34  O3  UNL     1     -16.626   8.693 -18.953  1.00  0.00    -0.271 OA
HETATM   35  N3  UNL     1     -15.134   9.542 -17.472  1.00  0.00    -0.340 N 
ATOM     36  H3  UNL     1     -14.508  10.303 -17.209  1.00  0.00     0.163 HD
BRANCH  35  37
HETATM   37  C16 UNL     1     -15.209   8.403 -16.574  1.00  0.00     0.125 A 
HETATM   38  C18 UNL     1     -13.877   7.744 -16.247  1.00  0.00     0.050 A 
HETATM   39  C19 UNL     1     -14.887   7.048 -17.099  1.00  0.00     0.023 A 
HETATM   40  C20 UNL     1     -15.539   5.840 -16.482  1.00  0.00     0.013 C 
BRANCH  37  41
HETATM   41  C17 UNL     1     -16.105   8.559 -15.406  1.00  0.00     0.203 C 
HETATM   42  O4  UNL     1     -17.292   8.972 -15.659  1.00  0.00    -0.646 OA
HETATM   43  O5  UNL     1     -15.731   8.289 -14.100  1.00  0.00    -0.646 OA
ENDBRANCH  37  41
ENDBRANCH  35  37
ENDBRANCH  32  33
ENDBRANCH   1  25
TORSDOF 15
ENDMDL
