MODEL 1
REMARK VINA RESULT: -7.222285314      0.000      0.000
REMARK  14 active torsions:
REMARK  status: ('A' for Active; 'I' for Inactive)
REMARK    1  A    between atoms: O1_2  and  C2_3 
REMARK    2  A    between atoms: C5_6  and  C6_7 
REMARK    3  A    between atoms: C6_7  and  C7_8 
REMARK    4  A    between atoms: C7_8  and  N1_9 
REMARK    5  A    between atoms: N1_9  and  C8_11 
REMARK    6  A    between atoms: C8_11  and  N2_13 
REMARK    7  A    between atoms: N2_13  and  C9_15 
REMARK    8  A    between atoms: C9_15  and  C10_16 
REMARK    9  A    between atoms: C10_16  and  C11_17 
REMARK   10  A    between atoms: C13_20  and  N3_21 
REMARK   11  A    between atoms: N3_21  and  C14_23 
REMARK   12  A    between atoms: C14_23  and  C17_26 
REMARK   13  A    between atoms: C19_29  and  N5_30 
REMARK   14  A    between atoms: C23_36  and  O2_37 
ROOT
HETATM    1  C17 UNL     1     -17.464  11.802 -18.870  1.00  0.00     0.065 C 
HETATM    2  C18 UNL     1     -18.952  11.897 -18.744  1.00  0.00     0.099 C 
HETATM    3  N4  UNL     1     -20.101  11.953 -18.635  1.00  0.00    -0.192 NA
HETATM    4  C19 UNL     1     -16.913  10.813 -18.262  1.00  0.00     0.105 C 
ENDROOT
BRANCH   1   5
HETATM    5  C14 UNL     1     -16.893  12.833 -19.719  1.00  0.00     0.063 C 
HETATM    6  C15 UNL     1     -16.770  12.320 -21.178  1.00  0.00     0.044 C 
HETATM    7  C16 UNL     1     -15.581  13.392 -19.328  1.00  0.00     0.044 C 
BRANCH   5   8
HETATM    8  N3  UNL     1     -17.822  13.990 -19.829  1.00  0.00    -0.357 N 
ATOM      9  H3  UNL     1     -18.287  14.390 -19.013  1.00  0.00     0.162 HD
BRANCH   8  10
HETATM   10  C13 UNL     1     -18.008  14.464 -21.035  1.00  0.00     0.145 A 
HETATM   11  S2  UNL     1     -19.068  13.968 -22.274  1.00  0.00    -0.064 SA
HETATM   12  C12 UNL     1     -18.643  15.121 -23.456  1.00  0.00     0.078 A 
HETATM   13  C11 UNL     1     -17.680  15.845 -22.806  1.00  0.00     0.019 A 
HETATM   14  N6  UNL     1     -17.372  15.505 -21.593  1.00  0.00    -0.340 N 
ATOM     15  H6  UNL     1     -16.659  16.018 -21.074  1.00  0.00     0.168 HD
BRANCH  13  16
HETATM   16  C10 UNL     1     -17.020  17.004 -23.532  1.00  0.00     0.077 C 
BRANCH  16  17
HETATM   17  C9  UNL     1     -17.952  17.722 -24.441  1.00  0.00     0.128 C 
BRANCH  17  18
HETATM   18  N2  UNL     1     -17.579  19.053 -24.804  1.00  0.00    -0.367 N 
ATOM     19  H2  UNL     1     -18.273  19.801 -24.775  1.00  0.00     0.161 HD
BRANCH  18  20
HETATM   20  C8  UNL     1     -16.256  19.338 -25.203  1.00  0.00     0.167 C 
HETATM   21  S1  UNL     1     -15.614  18.727 -26.584  1.00  0.00    -0.041 SA
BRANCH  20  22
HETATM   22  N1  UNL     1     -15.463  20.180 -24.377  1.00  0.00    -0.367 N 
ATOM     23  H1  UNL     1     -14.903  20.928 -24.787  1.00  0.00     0.161 HD
BRANCH  22  24
HETATM   24  C7  UNL     1     -15.461  19.967 -22.962  1.00  0.00     0.126 C 
BRANCH  24  25
HETATM   25  C6  UNL     1     -14.093  19.783 -22.391  1.00  0.00     0.058 C 
BRANCH  25  26
HETATM   26  C5  UNL     1     -13.839  18.299 -22.340  1.00  0.00    -0.054 A 
HETATM   27  C4  UNL     1     -14.100  17.586 -21.188  1.00  0.00     0.010 A 
HETATM   28  C3  UNL     1     -13.854  16.230 -21.185  1.00  0.00     0.040 A 
HETATM   29  C2  UNL     1     -13.354  15.581 -22.317  1.00  0.00     0.101 A 
HETATM   30  C23 UNL     1     -13.097  16.285 -23.455  1.00  0.00     0.102 A 
HETATM   31  C22 UNL     1     -13.339  17.642 -23.467  1.00  0.00     0.046 A 
BRANCH  29  32
HETATM   32  O1  UNL     1     -13.112  14.226 -22.304  1.00  0.00    -0.353 OA
HETATM   33  C1  UNL     1     -12.411  13.660 -21.224  1.00  0.00     0.210 C 
ENDBRANCH  29  32
BRANCH  30  34
HETATM   34  O2  UNL     1     -12.598  15.689 -24.611  1.00  0.00    -0.353 OA
HETATM   35  C24 UNL     1     -12.119  16.444 -25.697  1.00  0.00     0.210 C 
ENDBRANCH  30  34
ENDBRANCH  25  26
ENDBRANCH  24  25
ENDBRANCH  22  24
ENDBRANCH  20  22
ENDBRANCH  18  20
ENDBRANCH  17  18
ENDBRANCH  16  17
ENDBRANCH  13  16
ENDBRANCH   8  10
ENDBRANCH   5   8
ENDBRANCH   1   5
BRANCH   4  36
HETATM   36  N5  UNL     1     -15.613  10.328 -18.161  1.00  0.00    -0.397 N 
HETATM   37  C20 UNL     1     -14.652  10.743 -17.119  1.00  0.00     0.148 C 
HETATM   38  C21 UNL     1     -15.086   9.308 -19.069  1.00  0.00     0.148 C 
ENDBRANCH   4  36
TORSDOF 14
ENDMDL
MODEL 2
REMARK VINA RESULT: -7.139063021      3.588      9.339
REMARK  14 active torsions:
REMARK  status: ('A' for Active; 'I' for Inactive)
REMARK    1  A    between atoms: O1_2  and  C2_3 
REMARK    2  A    between atoms: C5_6  and  C6_7 
REMARK    3  A    between atoms: C6_7  and  C7_8 
REMARK    4  A    between atoms: C7_8  and  N1_9 
REMARK    5  A    between atoms: N1_9  and  C8_11 
REMARK    6  A    between atoms: C8_11  and  N2_13 
REMARK    7  A    between atoms: N2_13  and  C9_15 
REMARK    8  A    between atoms: C9_15  and  C10_16 
REMARK    9  A    between atoms: C10_16  and  C11_17 
REMARK   10  A    between atoms: C13_20  and  N3_21 
REMARK   11  A    between atoms: N3_21  and  C14_23 
REMARK   12  A    between atoms: C14_23  and  C17_26 
REMARK   13  A    between atoms: C19_29  and  N5_30 
REMARK   14  A    between atoms: C23_36  and  O2_37 
ROOT
HETATM    1  C17 UNL     1     -14.536  19.231 -23.246  1.00  0.00     0.065 C 
HETATM    2  C18 UNL     1     -14.078  20.021 -22.061  1.00  0.00     0.099 C 
HETATM    3  N4  UNL     1     -13.728  20.648 -21.157  1.00  0.00    -0.192 NA
HETATM    4  C19 UNL     1     -14.826  19.914 -24.296  1.00  0.00     0.105 C 
ENDROOT
BRANCH   1   5
HETATM    5  C14 UNL     1     -14.522  17.796 -23.020  1.00  0.00     0.063 C 
HETATM    6  C15 UNL     1     -13.429  17.126 -23.894  1.00  0.00     0.044 C 
HETATM    7  C16 UNL     1     -15.784  17.057 -23.237  1.00  0.00     0.044 C 
BRANCH   5   8
HETATM    8  N3  UNL     1     -14.096  17.493 -21.627  1.00  0.00    -0.357 N 
ATOM      9  H3  UNL     1     -13.677  18.201 -21.024  1.00  0.00     0.162 HD
BRANCH   8  10
HETATM   10  C13 UNL     1     -14.290  16.263 -21.223  1.00  0.00     0.145 A 
HETATM   11  S2  UNL     1     -13.296  14.884 -21.341  1.00  0.00    -0.064 SA
HETATM   12  C12 UNL     1     -14.321  13.759 -20.570  1.00  0.00     0.078 A 
HETATM   13  C11 UNL     1     -15.403  14.537 -20.256  1.00  0.00     0.019 A 
HETATM   14  N6  UNL     1     -15.374  15.790 -20.589  1.00  0.00    -0.340 N 
ATOM     15  H6  UNL     1     -16.159  16.404 -20.373  1.00  0.00     0.168 HD
BRANCH  13  16
HETATM   16  C10 UNL     1     -16.579  13.901 -19.538  1.00  0.00     0.077 C 
BRANCH  16  17
HETATM   17  C9  UNL     1     -17.756  13.700 -20.425  1.00  0.00     0.128 C 
BRANCH  17  18
HETATM   18  N2  UNL     1     -17.682  12.596 -21.331  1.00  0.00    -0.367 N 
ATOM     19  H2  UNL     1     -17.714  12.762 -22.338  1.00  0.00     0.161 HD
BRANCH  18  20
HETATM   20  C8  UNL     1     -17.566  11.278 -20.839  1.00  0.00     0.167 C 
HETATM   21  S1  UNL     1     -18.862  10.442 -20.282  1.00  0.00    -0.041 SA
BRANCH  20  22
HETATM   22  N1  UNL     1     -16.283  10.667 -20.831  1.00  0.00    -0.367 N 
ATOM     23  H1  UNL     1     -15.656  10.772 -21.629  1.00  0.00     0.161 HD
BRANCH  22  24
HETATM   24  C7  UNL     1     -15.882   9.902 -19.690  1.00  0.00     0.126 C 
BRANCH  24  25
HETATM   25  C6  UNL     1     -14.924  10.623 -18.798  1.00  0.00     0.058 C 
BRANCH  25  26
HETATM   26  C5  UNL     1     -14.908   9.880 -17.488  1.00  0.00    -0.054 A 
HETATM   27  C4  UNL     1     -13.719   9.670 -16.820  1.00  0.00     0.010 A 
HETATM   28  C3  UNL     1     -13.750   8.986 -15.623  1.00  0.00     0.040 A 
HETATM   29  C2  UNL     1     -14.951   8.513 -15.089  1.00  0.00     0.101 A 
HETATM   30  C23 UNL     1     -16.125   8.721 -15.749  1.00  0.00     0.102 A 
HETATM   31  C22 UNL     1     -16.104   9.403 -16.947  1.00  0.00     0.046 A 
BRANCH  29  32
HETATM   32  O1  UNL     1     -14.971   7.832 -13.894  1.00  0.00    -0.353 OA
HETATM   33  C1  UNL     1     -14.668   6.458 -13.877  1.00  0.00     0.210 C 
ENDBRANCH  29  32
BRANCH  30  34
HETATM   34  O2  UNL     1     -17.351   8.270 -15.263  1.00  0.00    -0.353 OA
HETATM   35  C24 UNL     1     -18.448   8.025 -16.107  1.00  0.00     0.210 C 
ENDBRANCH  30  34
ENDBRANCH  25  26
ENDBRANCH  24  25
ENDBRANCH  22  24
ENDBRANCH  20  22
ENDBRANCH  18  20
ENDBRANCH  17  18
ENDBRANCH  16  17
ENDBRANCH  13  16
ENDBRANCH   8  10
ENDBRANCH   5   8
ENDBRANCH   1   5
BRANCH   4  36
HETATM   36  N5  UNL     1     -15.225  19.598 -25.590  1.00  0.00    -0.397 N 
HETATM   37  C20 UNL     1     -16.597  19.198 -25.961  1.00  0.00     0.148 C 
HETATM   38  C21 UNL     1     -14.310  19.676 -26.732  1.00  0.00     0.148 C 
ENDBRANCH   4  36
TORSDOF 14
ENDMDL
MODEL 3
REMARK VINA RESULT: -7.094258982      2.114      7.588
REMARK  14 active torsions:
REMARK  status: ('A' for Active; 'I' for Inactive)
REMARK    1  A    between atoms: O1_2  and  C2_3 
REMARK    2  A    between atoms: C5_6  and  C6_7 
REMARK    3  A    between atoms: C6_7  and  C7_8 
REMARK    4  A    between atoms: C7_8  and  N1_9 
REMARK    5  A    between atoms: N1_9  and  C8_11 
REMARK    6  A    between atoms: C8_11  and  N2_13 
REMARK    7  A    between atoms: N2_13  and  C9_15 
REMARK    8  A    between atoms: C9_15  and  C10_16 
REMARK    9  A    between atoms: C10_16  and  C11_17 
REMARK   10  A    between atoms: C13_20  and  N3_21 
REMARK   11  A    between atoms: N3_21  and  C14_23 
REMARK   12  A    between atoms: C14_23  and  C17_26 
REMARK   13  A    between atoms: C19_29  and  N5_30 
REMARK   14  A    between atoms: C23_36  and  O2_37 
ROOT
HETATM    1  C17 UNL     1     -14.616  19.717 -23.288  1.00  0.00     0.065 C 
HETATM    2  C18 UNL     1     -15.134  20.216 -21.976  1.00  0.00     0.099 C 
HETATM    3  N4  UNL     1     -15.520  20.616 -20.963  1.00  0.00    -0.192 NA
HETATM    4  C19 UNL     1     -13.580  20.324 -23.747  1.00  0.00     0.105 C 
ENDROOT
BRANCH   1   5
HETATM    5  C14 UNL     1     -15.354  18.577 -23.801  1.00  0.00     0.063 C 
HETATM    6  C15 UNL     1     -14.435  17.328 -23.866  1.00  0.00     0.044 C 
HETATM    7  C16 UNL     1     -16.007  18.721 -25.119  1.00  0.00     0.044 C 
BRANCH   5   8
HETATM    8  N3  UNL     1     -16.425  18.178 -22.847  1.00  0.00    -0.357 N 
ATOM      9  H3  UNL     1     -16.571  18.667 -21.964  1.00  0.00     0.162 HD
BRANCH   8  10
HETATM   10  C13 UNL     1     -17.167  17.161 -23.209  1.00  0.00     0.145 A 
HETATM   11  S2  UNL     1     -18.553  17.093 -24.198  1.00  0.00    -0.064 SA
HETATM   12  C12 UNL     1     -18.843  15.414 -24.122  1.00  0.00     0.078 A 
HETATM   13  C11 UNL     1     -17.821  14.991 -23.313  1.00  0.00     0.019 A 
HETATM   14  N6  UNL     1     -16.989  15.878 -22.863  1.00  0.00    -0.340 N 
ATOM     15  H6  UNL     1     -16.215  15.604 -22.258  1.00  0.00     0.168 HD
BRANCH  13  16
HETATM   16  C10 UNL     1     -17.713  13.513 -22.983  1.00  0.00     0.077 C 
BRANCH  16  17
HETATM   17  C9  UNL     1     -18.773  13.052 -22.047  1.00  0.00     0.128 C 
BRANCH  17  18
HETATM   18  N2  UNL     1     -18.783  11.655 -21.743  1.00  0.00    -0.367 N 
ATOM     19  H2  UNL     1     -18.182  11.017 -22.266  1.00  0.00     0.161 HD
BRANCH  18  20
HETATM   20  C8  UNL     1     -19.618  11.154 -20.721  1.00  0.00     0.167 C 
HETATM   21  S1  UNL     1     -20.617   9.876 -20.965  1.00  0.00    -0.041 SA
BRANCH  20  22
HETATM   22  N1  UNL     1     -19.586  11.784 -19.448  1.00  0.00    -0.367 N 
ATOM     23  H1  UNL     1     -20.356  12.383 -19.148  1.00  0.00     0.161 HD
BRANCH  22  24
HETATM   24  C7  UNL     1     -18.462  11.566 -18.590  1.00  0.00     0.126 C 
BRANCH  24  25
HETATM   25  C6  UNL     1     -17.781  12.828 -18.171  1.00  0.00     0.058 C 
BRANCH  25  26
HETATM   26  C5  UNL     1     -16.624  13.031 -19.113  1.00  0.00    -0.054 A 
HETATM   27  C4  UNL     1     -15.875  11.954 -19.540  1.00  0.00     0.010 A 
HETATM   28  C3  UNL     1     -14.825  12.184 -20.403  1.00  0.00     0.040 A 
HETATM   29  C2  UNL     1     -14.517  13.474 -20.842  1.00  0.00     0.101 A 
HETATM   30  C23 UNL     1     -15.257  14.538 -20.420  1.00  0.00     0.102 A 
HETATM   31  C22 UNL     1     -16.308  14.318 -19.557  1.00  0.00     0.046 A 
BRANCH  29  32
HETATM   32  O1  UNL     1     -13.467  13.693 -21.704  1.00  0.00    -0.353 OA
HETATM   33  C1  UNL     1     -12.156  13.747 -21.196  1.00  0.00     0.210 C 
ENDBRANCH  29  32
BRANCH  30  34
HETATM   34  O2  UNL     1     -14.993  15.845 -20.827  1.00  0.00    -0.353 OA
HETATM   35  C24 UNL     1     -14.039  16.652 -20.182  1.00  0.00     0.210 C 
ENDBRANCH  30  34
ENDBRANCH  25  26
ENDBRANCH  24  25
ENDBRANCH  22  24
ENDBRANCH  20  22
ENDBRANCH  18  20
ENDBRANCH  17  18
ENDBRANCH  16  17
ENDBRANCH  13  16
ENDBRANCH   8  10
ENDBRANCH   5   8
ENDBRANCH   1   5
BRANCH   4  36
HETATM   36  N5  UNL     1     -12.764  20.161 -24.862  1.00  0.00    -0.397 N 
HETATM   37  C20 UNL     1     -13.095  20.661 -26.212  1.00  0.00     0.148 C 
HETATM   38  C21 UNL     1     -11.458  19.503 -24.786  1.00  0.00     0.148 C 
ENDBRANCH   4  36
TORSDOF 14
ENDMDL
MODEL 4
REMARK VINA RESULT: -7.083189393      1.647      2.179
REMARK  14 active torsions:
REMARK  status: ('A' for Active; 'I' for Inactive)
REMARK    1  A    between atoms: O1_2  and  C2_3 
REMARK    2  A    between atoms: C5_6  and  C6_7 
REMARK    3  A    between atoms: C6_7  and  C7_8 
REMARK    4  A    between atoms: C7_8  and  N1_9 
REMARK    5  A    between atoms: N1_9  and  C8_11 
REMARK    6  A    between atoms: C8_11  and  N2_13 
REMARK    7  A    between atoms: N2_13  and  C9_15 
REMARK    8  A    between atoms: C9_15  and  C10_16 
REMARK    9  A    between atoms: C10_16  and  C11_17 
REMARK   10  A    between atoms: C13_20  and  N3_21 
REMARK   11  A    between atoms: N3_21  and  C14_23 
REMARK   12  A    between atoms: C14_23  and  C17_26 
REMARK   13  A    between atoms: C19_29  and  N5_30 
REMARK   14  A    between atoms: C23_36  and  O2_37 
ROOT
HETATM    1  C17 UNL     1     -17.263  11.064 -18.697  1.00  0.00     0.065 C 
HETATM    2  C18 UNL     1     -17.472  12.514 -18.391  1.00  0.00     0.099 C 
HETATM    3  N4  UNL     1     -17.651  13.628 -18.144  1.00  0.00    -0.192 NA
HETATM    4  C19 UNL     1     -18.178  10.266 -18.276  1.00  0.00     0.105 C 
ENDROOT
BRANCH   1   5
HETATM    5  C14 UNL     1     -16.066  10.810 -19.480  1.00  0.00     0.063 C 
HETATM    6  C15 UNL     1     -15.468   9.426 -19.112  1.00  0.00     0.044 C 
HETATM    7  C16 UNL     1     -14.975  11.804 -19.404  1.00  0.00     0.044 C 
BRANCH   5   8
HETATM    8  N3  UNL     1     -16.407  10.675 -20.922  1.00  0.00    -0.357 N 
ATOM      9  H3  UNL     1     -16.169   9.840 -21.458  1.00  0.00     0.162 HD
BRANCH   8  10
HETATM   10  C13 UNL     1     -17.031  11.692 -21.462  1.00  0.00     0.145 A 
HETATM   11  S2  UNL     1     -18.691  11.960 -21.735  1.00  0.00    -0.064 SA
HETATM   12  C12 UNL     1     -18.590  13.500 -22.461  1.00  0.00     0.078 A 
HETATM   13  C11 UNL     1     -17.239  13.725 -22.449  1.00  0.00     0.019 A 
HETATM   14  N6  UNL     1     -16.470  12.810 -21.946  1.00  0.00    -0.340 N 
ATOM     15  H6  UNL     1     -15.458  12.938 -21.919  1.00  0.00     0.168 HD
BRANCH  13  16
HETATM   16  C10 UNL     1     -16.707  15.026 -23.024  1.00  0.00     0.077 C 
BRANCH  16  17
HETATM   17  C9  UNL     1     -17.560  16.196 -22.686  1.00  0.00     0.128 C 
BRANCH  17  18
HETATM   18  N2  UNL     1     -18.082  16.937 -23.792  1.00  0.00    -0.367 N 
ATOM     19  H2  UNL     1     -18.789  16.517 -24.397  1.00  0.00     0.161 HD
BRANCH  18  20
HETATM   20  C8  UNL     1     -17.625  18.247 -24.052  1.00  0.00     0.167 C 
HETATM   21  S1  UNL     1     -17.829  18.964 -25.513  1.00  0.00    -0.041 SA
BRANCH  20  22
HETATM   22  N1  UNL     1     -16.971  18.957 -23.009  1.00  0.00    -0.367 N 
ATOM     23  H1  UNL     1     -17.426  19.082 -22.105  1.00  0.00     0.161 HD
BRANCH  22  24
HETATM   24  C7  UNL     1     -15.665  19.494 -23.244  1.00  0.00     0.126 C 
BRANCH  24  25
HETATM   25  C6  UNL     1     -14.748  19.362 -22.071  1.00  0.00     0.058 C 
BRANCH  25  26
HETATM   26  C5  UNL     1     -14.223  17.951 -22.088  1.00  0.00    -0.054 A 
HETATM   27  C4  UNL     1     -14.216  17.196 -20.933  1.00  0.00     0.010 A 
HETATM   28  C3  UNL     1     -13.727  15.908 -20.993  1.00  0.00     0.040 A 
HETATM   29  C2  UNL     1     -13.247  15.369 -22.190  1.00  0.00     0.101 A 
HETATM   30  C23 UNL     1     -13.255  16.115 -23.330  1.00  0.00     0.102 A 
HETATM   31  C22 UNL     1     -13.741  17.404 -23.280  1.00  0.00     0.046 A 
BRANCH  29  32
HETATM   32  O1  UNL     1     -12.762  14.083 -22.239  1.00  0.00    -0.353 OA
HETATM   33  C1  UNL     1     -12.063  13.566 -21.133  1.00  0.00     0.210 C 
ENDBRANCH  29  32
BRANCH  30  34
HETATM   34  O2  UNL     1     -12.789  15.628 -24.550  1.00  0.00    -0.353 OA
HETATM   35  C24 UNL     1     -12.176  16.459 -25.504  1.00  0.00     0.210 C 
ENDBRANCH  30  34
ENDBRANCH  25  26
ENDBRANCH  24  25
ENDBRANCH  22  24
ENDBRANCH  20  22
ENDBRANCH  18  20
ENDBRANCH  17  18
ENDBRANCH  16  17
ENDBRANCH  13  16
ENDBRANCH   8  10
ENDBRANCH   5   8
ENDBRANCH   1   5
BRANCH   4  36
HETATM   36  N5  UNL     1     -18.408   8.898 -18.383  1.00  0.00    -0.397 N 
HETATM   37  C20 UNL     1     -18.027   7.910 -17.352  1.00  0.00     0.148 C 
HETATM   38  C21 UNL     1     -19.102   8.308 -19.529  1.00  0.00     0.148 C 
ENDBRANCH   4  36
TORSDOF 14
ENDMDL
MODEL 5
REMARK VINA RESULT: -7.042741718      3.671      9.519
REMARK  14 active torsions:
REMARK  status: ('A' for Active; 'I' for Inactive)
REMARK    1  A    between atoms: O1_2  and  C2_3 
REMARK    2  A    between atoms: C5_6  and  C6_7 
REMARK    3  A    between atoms: C6_7  and  C7_8 
REMARK    4  A    between atoms: C7_8  and  N1_9 
REMARK    5  A    between atoms: N1_9  and  C8_11 
REMARK    6  A    between atoms: C8_11  and  N2_13 
REMARK    7  A    between atoms: N2_13  and  C9_15 
REMARK    8  A    between atoms: C9_15  and  C10_16 
REMARK    9  A    between atoms: C10_16  and  C11_17 
REMARK   10  A    between atoms: C13_20  and  N3_21 
REMARK   11  A    between atoms: N3_21  and  C14_23 
REMARK   12  A    between atoms: C14_23  and  C17_26 
REMARK   13  A    between atoms: C19_29  and  N5_30 
REMARK   14  A    between atoms: C23_36  and  O2_37 
ROOT
HETATM    1  C17 UNL     1     -16.791  18.938 -25.302  1.00  0.00     0.065 C 
HETATM    2  C18 UNL     1     -18.216  18.639 -24.960  1.00  0.00     0.099 C 
HETATM    3  N4  UNL     1     -19.321  18.411 -24.715  1.00  0.00    -0.192 NA
HETATM    4  C19 UNL     1     -16.567  19.273 -26.523  1.00  0.00     0.105 C 
ENDROOT
BRANCH   1   5
HETATM    5  C14 UNL     1     -15.895  18.849 -24.162  1.00  0.00     0.063 C 
HETATM    6  C15 UNL     1     -16.711  18.728 -22.847  1.00  0.00     0.044 C 
HETATM    7  C16 UNL     1     -14.910  19.936 -23.979  1.00  0.00     0.044 C 
BRANCH   5   8
HETATM    8  N3  UNL     1     -15.115  17.583 -24.211  1.00  0.00    -0.357 N 
ATOM      9  H3  UNL     1     -14.573  17.314 -25.032  1.00  0.00     0.162 HD
BRANCH   8  10
HETATM   10  C13 UNL     1     -15.165  16.836 -23.136  1.00  0.00     0.145 A 
HETATM   11  S2  UNL     1     -14.186  16.827 -21.742  1.00  0.00    -0.064 SA
HETATM   12  C12 UNL     1     -14.957  15.564 -20.892  1.00  0.00     0.078 A 
HETATM   13  C11 UNL     1     -15.956  15.213 -21.761  1.00  0.00     0.019 A 
HETATM   14  N6  UNL     1     -16.048  15.859 -22.882  1.00  0.00    -0.340 N 
ATOM     15  H6  UNL     1     -16.777  15.627 -23.557  1.00  0.00     0.168 HD
BRANCH  13  16
HETATM   16  C10 UNL     1     -16.901  14.090 -21.375  1.00  0.00     0.077 C 
BRANCH  16  17
HETATM   17  C9  UNL     1     -16.680  12.851 -22.168  1.00  0.00     0.128 C 
BRANCH  17  18
HETATM   18  N2  UNL     1     -17.641  11.807 -21.988  1.00  0.00    -0.367 N 
ATOM     19  H2  UNL     1     -18.360  11.651 -22.696  1.00  0.00     0.161 HD
BRANCH  18  20
HETATM   20  C8  UNL     1     -17.599  10.992 -20.837  1.00  0.00     0.167 C 
HETATM   21  S1  UNL     1     -18.962  10.399 -20.143  1.00  0.00    -0.041 SA
BRANCH  20  22
HETATM   22  N1  UNL     1     -16.334  10.682 -20.269  1.00  0.00    -0.367 N 
ATOM     23  H1  UNL     1     -15.619  10.212 -20.826  1.00  0.00     0.161 HD
BRANCH  22  24
HETATM   24  C7  UNL     1     -16.075  11.037 -18.907  1.00  0.00     0.126 C 
BRANCH  24  25
HETATM   25  C6  UNL     1     -14.655  10.818 -18.496  1.00  0.00     0.058 C 
BRANCH  25  26
HETATM   26  C5  UNL     1     -14.691   9.985 -17.241  1.00  0.00    -0.054 A 
HETATM   27  C4  UNL     1     -13.528   9.711 -16.553  1.00  0.00     0.010 A 
HETATM   28  C3  UNL     1     -13.606   8.945 -15.409  1.00  0.00     0.040 A 
HETATM   29  C2  UNL     1     -14.830   8.453 -14.947  1.00  0.00     0.101 A 
HETATM   30  C23 UNL     1     -15.979   8.725 -15.628  1.00  0.00     0.102 A 
HETATM   31  C22 UNL     1     -15.911   9.488 -16.773  1.00  0.00     0.046 A 
BRANCH  29  32
HETATM   32  O1  UNL     1     -14.897   7.691 -13.805  1.00  0.00    -0.353 OA
HETATM   33  C1  UNL     1     -14.570   6.324 -13.866  1.00  0.00     0.210 C 
ENDBRANCH  29  32
BRANCH  30  34
HETATM   34  O2  UNL     1     -17.225   8.259 -15.213  1.00  0.00    -0.353 OA
HETATM   35  C24 UNL     1     -17.799   7.086 -15.734  1.00  0.00     0.210 C 
ENDBRANCH  30  34
ENDBRANCH  25  26
ENDBRANCH  24  25
ENDBRANCH  22  24
ENDBRANCH  20  22
ENDBRANCH  18  20
ENDBRANCH  17  18
ENDBRANCH  16  17
ENDBRANCH  13  16
ENDBRANCH   8  10
ENDBRANCH   5   8
ENDBRANCH   1   5
BRANCH   4  36
HETATM   36  N5  UNL     1     -15.443  19.674 -27.237  1.00  0.00    -0.397 N 
HETATM   37  C20 UNL     1     -15.208  21.054 -27.709  1.00  0.00     0.148 C 
HETATM   38  C21 UNL     1     -14.349  18.754 -27.555  1.00  0.00     0.148 C 
ENDBRANCH   4  36
TORSDOF 14
ENDMDL
