MODEL 1
REMARK VINA RESULT: -8.420450700      0.000      0.000
REMARK  13 active torsions:
REMARK  status: ('A' for Active; 'I' for Inactive)
REMARK    1  A    between atoms: C2_2  and  C3_3 
REMARK    2  A    between atoms: C3_3  and  C4_4 
REMARK    3  A    between atoms: C4_4  and  N1_5 
REMARK    4  A    between atoms: N2_8  and  C6_9 
REMARK    5  A    between atoms: C6_9  and  C7_10 
REMARK    6  A    between atoms: C7_10  and  C8_11 
REMARK    7  A    between atoms: C16_20  and  N3_21 
REMARK    8  A    between atoms: N3_21  and  C17_22 
REMARK    9  A    between atoms: C17_22  and  C18_23 
REMARK   10  A    between atoms: C18_23  and  C19_24 
REMARK   11  A    between atoms: C19_24  and  N4_25 
REMARK       I    between atoms: N4_25  and  C20_27 
REMARK   12  A    between atoms: C20_27  and  C21_29 
REMARK   13  A    between atoms: C24_34  and  N6_35 
ROOT
HETATM    1  N1  UNL     1     -15.475   9.104 -16.124  1.00  0.00    -0.284 N 
HETATM    2  C5  UNL     1     -14.903  10.006 -16.989  1.00  0.00     0.333 A 
HETATM    3  O1  UNL     1     -13.802  10.534 -16.665  1.00  0.00    -0.246 OA
HETATM    4  N2  UNL     1     -15.438  10.352 -18.143  1.00  0.00    -0.265 N 
HETATM    5  C14 UNL     1     -16.628   9.830 -18.574  1.00  0.00     0.270 A 
HETATM    6  O2  UNL     1     -17.088  10.195 -19.678  1.00  0.00    -0.267 OA
HETATM    7  C15 UNL     1     -17.242   8.934 -17.759  1.00  0.00     0.136 A 
HETATM    8  C16 UNL     1     -18.477   8.399 -18.126  1.00  0.00     0.212 A 
HETATM    9  N5  UNL     1     -19.067   7.517 -17.211  1.00  0.00    -0.163 N 
ATOM     10  H5  UNL     1     -19.971   7.100 -17.433  1.00  0.00     0.187 HD
HETATM   11  C24 UNL     1     -18.478   7.215 -16.070  1.00  0.00     0.681 A 
HETATM   12  N7  UNL     1     -17.290   7.756 -15.766  1.00  0.00    -0.175 N 
ATOM     13  H7  UNL     1     -16.861   7.502 -14.876  1.00  0.00     0.186 HD
HETATM   14  C26 UNL     1     -16.639   8.601 -16.553  1.00  0.00     0.148 A 
ENDROOT
BRANCH   8  15
HETATM   15  N3  UNL     1     -19.068   8.617 -19.152  1.00  0.00    -0.402 NA
BRANCH  15  16
HETATM   16  C17 UNL     1     -19.709   8.855 -20.266  1.00  0.00     0.159 C 
BRANCH  16  17
HETATM   17  C18 UNL     1     -20.752   9.995 -20.262  1.00  0.00     0.079 C 
BRANCH  17  18
HETATM   18  C19 UNL     1     -20.166  11.304 -19.844  1.00  0.00     0.128 C 
BRANCH  18  19
HETATM   19  N4  UNL     1     -19.392  11.815 -20.981  1.00  0.00    -0.360 N 
HETATM   20  C20 UNL     1     -18.634  13.002 -20.859  1.00  0.00     0.221 C 
HETATM   21  O3  UNL     1     -18.638  13.618 -19.755  1.00  0.00    -0.273 OA
ATOM     22  H4  UNL     1     -19.399  11.309 -21.867  1.00  0.00     0.162 HD
BRANCH  20  23
HETATM   23  C21 UNL     1     -17.838  13.549 -21.981  1.00  0.00     0.070 C 
HETATM   24  C22 UNL     1     -18.759  14.127 -23.045  1.00  0.00     0.019 C 
HETATM   25  C23 UNL     1     -17.000  12.439 -22.615  1.00  0.00     0.019 C 
ENDBRANCH  20  23
ENDBRANCH  18  19
ENDBRANCH  17  18
ENDBRANCH  16  17
ENDBRANCH  15  16
ENDBRANCH   8  15
BRANCH  11  26
HETATM   26  N6  UNL     1     -19.100   6.383 -15.261  1.00  0.00    -0.230 N 
HETATM   27  C25 UNL     1     -20.536   6.251 -15.291  1.00  0.00     0.165 C 
ATOM     28  H6  UNL     1     -18.558   5.823 -14.604  1.00  0.00     0.177 HD
ENDBRANCH  11  26
BRANCH   4  29
HETATM   29  C6  UNL     1     -14.811  11.328 -19.042  1.00  0.00     0.141 C 
BRANCH  29  30
HETATM   30  C7  UNL     1     -15.434  12.696 -18.867  1.00  0.00     0.054 C 
BRANCH  30  31
HETATM   31  C8  UNL     1     -14.845  13.622 -19.872  1.00  0.00    -0.082 C 
HETATM   32  C9  UNL     1     -13.943  13.245 -20.765  1.00  0.00    -0.024 C 
HETATM   33  C10 UNL     1     -13.433  14.270 -21.716  1.00  0.00     0.027 C 
HETATM   34  C11 UNL     1     -12.950  15.451 -20.898  1.00  0.00     0.004 C 
HETATM   35  C12 UNL     1     -14.037  15.958 -20.010  1.00  0.00     0.005 C 
HETATM   36  C13 UNL     1     -15.248  15.060 -19.942  1.00  0.00     0.034 C 
ENDBRANCH  30  31
ENDBRANCH  29  30
ENDBRANCH   4  29
BRANCH   1  37
HETATM   37  C4  UNL     1     -14.812   8.833 -14.898  1.00  0.00     0.135 C 
BRANCH  37  38
HETATM   38  C3  UNL     1     -13.990   7.608 -14.814  1.00  0.00     0.020 C 
BRANCH  38  39
HETATM   39  C2  UNL     1     -14.335   6.441 -14.024  1.00  0.00    -0.003 C 
HETATM   40  C1  UNL     1     -15.072   5.321 -14.692  1.00  0.00     0.005 C 
ENDBRANCH  38  39
ENDBRANCH  37  38
ENDBRANCH   1  37
TORSDOF 13
ENDMDL
MODEL 2
REMARK VINA RESULT: -8.180148792      3.532      7.886
REMARK  13 active torsions:
REMARK  status: ('A' for Active; 'I' for Inactive)
REMARK    1  A    between atoms: C2_2  and  C3_3 
REMARK    2  A    between atoms: C3_3  and  C4_4 
REMARK    3  A    between atoms: C4_4  and  N1_5 
REMARK    4  A    between atoms: N2_8  and  C6_9 
REMARK    5  A    between atoms: C6_9  and  C7_10 
REMARK    6  A    between atoms: C7_10  and  C8_11 
REMARK    7  A    between atoms: C16_20  and  N3_21 
REMARK    8  A    between atoms: N3_21  and  C17_22 
REMARK    9  A    between atoms: C17_22  and  C18_23 
REMARK   10  A    between atoms: C18_23  and  C19_24 
REMARK   11  A    between atoms: C19_24  and  N4_25 
REMARK       I    between atoms: N4_25  and  C20_27 
REMARK   12  A    between atoms: C20_27  and  C21_29 
REMARK   13  A    between atoms: C24_34  and  N6_35 
ROOT
HETATM    1  N1  UNL     1     -18.598  12.680 -20.963  1.00  0.00    -0.284 N 
HETATM    2  C5  UNL     1     -17.668  12.444 -19.979  1.00  0.00     0.333 A 
HETATM    3  O1  UNL     1     -17.942  11.596 -19.085  1.00  0.00    -0.246 OA
HETATM    4  N2  UNL     1     -16.501  13.054 -19.916  1.00  0.00    -0.265 N 
HETATM    5  C14 UNL     1     -16.121  13.987 -20.843  1.00  0.00     0.270 A 
HETATM    6  O2  UNL     1     -15.001  14.533 -20.733  1.00  0.00    -0.267 OA
HETATM    7  C15 UNL     1     -17.001  14.264 -21.839  1.00  0.00     0.136 A 
HETATM    8  C16 UNL     1     -16.686  15.235 -22.788  1.00  0.00     0.212 A 
HETATM    9  N5  UNL     1     -17.665  15.496 -23.757  1.00  0.00    -0.163 N 
ATOM     10  H5  UNL     1     -17.483  16.199 -24.474  1.00  0.00     0.187 HD
HETATM   11  C24 UNL     1     -18.816  14.851 -23.762  1.00  0.00     0.681 A 
HETATM   12  N7  UNL     1     -19.068  13.924 -22.826  1.00  0.00    -0.175 N 
ATOM     13  H7  UNL     1     -19.967  13.444 -22.858  1.00  0.00     0.186 HD
HETATM   14  C26 UNL     1     -18.218  13.596 -21.863  1.00  0.00     0.148 A 
ENDROOT
BRANCH   8  15
HETATM   15  N3  UNL     1     -15.656  15.855 -22.857  1.00  0.00    -0.402 NA
BRANCH  15  16
HETATM   16  C17 UNL     1     -14.537  16.526 -22.933  1.00  0.00     0.159 C 
BRANCH  16  17
HETATM   17  C18 UNL     1     -14.454  17.867 -22.169  1.00  0.00     0.079 C 
BRANCH  17  18
HETATM   18  C19 UNL     1     -15.618  18.759 -22.451  1.00  0.00     0.128 C 
BRANCH  18  19
HETATM   19  N4  UNL     1     -15.697  18.921 -23.907  1.00  0.00    -0.360 N 
HETATM   20  C20 UNL     1     -16.943  18.844 -24.572  1.00  0.00     0.221 C 
HETATM   21  O3  UNL     1     -17.986  18.631 -23.891  1.00  0.00    -0.273 OA
ATOM     22  H4  UNL     1     -14.847  19.091 -24.445  1.00  0.00     0.162 HD
BRANCH  20  23
HETATM   23  C21 UNL     1     -17.066  19.005 -26.038  1.00  0.00     0.070 C 
HETATM   24  C22 UNL     1     -18.010  17.954 -26.604  1.00  0.00     0.019 C 
HETATM   25  C23 UNL     1     -15.698  18.833 -26.698  1.00  0.00     0.019 C 
ENDBRANCH  20  23
ENDBRANCH  18  19
ENDBRANCH  17  18
ENDBRANCH  16  17
ENDBRANCH  15  16
ENDBRANCH   8  15
BRANCH  11  26
HETATM   26  N6  UNL     1     -19.686  15.157 -24.702  1.00  0.00    -0.230 N 
HETATM   27  C25 UNL     1     -20.630  16.231 -24.518  1.00  0.00     0.165 C 
ATOM     28  H6  UNL     1     -19.692  14.625 -25.572  1.00  0.00     0.177 HD
ENDBRANCH  11  26
BRANCH   4  29
HETATM   29  C6  UNL     1     -15.531  12.791 -18.845  1.00  0.00     0.141 C 
BRANCH  29  30
HETATM   30  C7  UNL     1     -14.577  11.688 -19.247  1.00  0.00     0.054 C 
BRANCH  30  31
HETATM   31  C8  UNL     1     -14.793  10.520 -18.350  1.00  0.00    -0.082 C 
HETATM   32  C9  UNL     1     -14.614  10.568 -17.040  1.00  0.00    -0.024 C 
HETATM   33  C10 UNL     1     -14.865   9.327 -16.256  1.00  0.00     0.027 C 
HETATM   34  C11 UNL     1     -14.054   8.215 -16.891  1.00  0.00     0.004 C 
HETATM   35  C12 UNL     1     -14.390   8.077 -18.338  1.00  0.00     0.005 C 
HETATM   36  C13 UNL     1     -15.242   9.197 -18.884  1.00  0.00     0.034 C 
ENDBRANCH  30  31
ENDBRANCH  29  30
ENDBRANCH   4  29
BRANCH   1  37
HETATM   37  C4  UNL     1     -19.830  11.977 -20.908  1.00  0.00     0.135 C 
BRANCH  37  38
HETATM   38  C3  UNL     1     -19.877  10.619 -21.489  1.00  0.00     0.020 C 
BRANCH  38  39
HETATM   39  C2  UNL     1     -20.661   9.524 -20.950  1.00  0.00    -0.003 C 
HETATM   40  C1  UNL     1     -20.454   9.137 -19.518  1.00  0.00     0.005 C 
ENDBRANCH  38  39
ENDBRANCH  37  38
ENDBRANCH   1  37
TORSDOF 13
ENDMDL
MODEL 3
REMARK VINA RESULT: -8.179116396      3.258      7.681
REMARK  13 active torsions:
REMARK  status: ('A' for Active; 'I' for Inactive)
REMARK    1  A    between atoms: C2_2  and  C3_3 
REMARK    2  A    between atoms: C3_3  and  C4_4 
REMARK    3  A    between atoms: C4_4  and  N1_5 
REMARK    4  A    between atoms: N2_8  and  C6_9 
REMARK    5  A    between atoms: C6_9  and  C7_10 
REMARK    6  A    between atoms: C7_10  and  C8_11 
REMARK    7  A    between atoms: C16_20  and  N3_21 
REMARK    8  A    between atoms: N3_21  and  C17_22 
REMARK    9  A    between atoms: C17_22  and  C18_23 
REMARK   10  A    between atoms: C18_23  and  C19_24 
REMARK   11  A    between atoms: C19_24  and  N4_25 
REMARK       I    between atoms: N4_25  and  C20_27 
REMARK   12  A    between atoms: C20_27  and  C21_29 
REMARK   13  A    between atoms: C24_34  and  N6_35 
ROOT
HETATM    1  N1  UNL     1     -18.433  12.356 -20.619  1.00  0.00    -0.284 N 
HETATM    2  C5  UNL     1     -17.590  12.035 -19.582  1.00  0.00     0.333 A 
HETATM    3  O1  UNL     1     -18.014  11.258 -18.682  1.00  0.00    -0.246 OA
HETATM    4  N2  UNL     1     -16.358  12.492 -19.474  1.00  0.00    -0.265 N 
HETATM    5  C14 UNL     1     -15.816  13.338 -20.404  1.00  0.00     0.270 A 
HETATM    6  O2  UNL     1     -14.642  13.739 -20.250  1.00  0.00    -0.267 OA
HETATM    7  C15 UNL     1     -16.604  13.693 -21.451  1.00  0.00     0.136 A 
HETATM    8  C16 UNL     1     -16.121  14.585 -22.408  1.00  0.00     0.212 A 
HETATM    9  N5  UNL     1     -17.010  14.938 -23.432  1.00  0.00    -0.163 N 
ATOM     10  H5  UNL     1     -16.704  15.588 -24.156  1.00  0.00     0.187 HD
HETATM   11  C24 UNL     1     -18.233  14.446 -23.480  1.00  0.00     0.681 A 
HETATM   12  N7  UNL     1     -18.648  13.590 -22.535  1.00  0.00    -0.175 N 
ATOM     13  H7  UNL     1     -19.599  13.228 -22.601  1.00  0.00     0.186 HD
HETATM   14  C26 UNL     1     -17.895  13.186 -21.521  1.00  0.00     0.148 A 
ENDROOT
BRANCH   8  15
HETATM   15  N3  UNL     1     -15.016  15.065 -22.438  1.00  0.00    -0.402 NA
BRANCH  15  16
HETATM   16  C17 UNL     1     -13.818  15.585 -22.474  1.00  0.00     0.159 C 
BRANCH  16  17
HETATM   17  C18 UNL     1     -13.610  16.843 -23.348  1.00  0.00     0.079 C 
BRANCH  17  18
HETATM   18  C19 UNL     1     -14.710  17.839 -23.186  1.00  0.00     0.128 C 
BRANCH  18  19
HETATM   19  N4  UNL     1     -15.527  17.785 -24.404  1.00  0.00    -0.360 N 
HETATM   20  C20 UNL     1     -16.845  18.298 -24.409  1.00  0.00     0.221 C 
HETATM   21  O3  UNL     1     -17.308  18.801 -23.346  1.00  0.00    -0.273 OA
ATOM     22  H4  UNL     1     -15.142  17.374 -25.254  1.00  0.00     0.162 HD
BRANCH  20  23
HETATM   23  C21 UNL     1     -17.700  18.264 -25.617  1.00  0.00     0.070 C 
HETATM   24  C22 UNL     1     -17.312  19.388 -26.566  1.00  0.00     0.019 C 
HETATM   25  C23 UNL     1     -19.166  18.445 -25.224  1.00  0.00     0.019 C 
ENDBRANCH  20  23
ENDBRANCH  18  19
ENDBRANCH  17  18
ENDBRANCH  16  17
ENDBRANCH  15  16
ENDBRANCH   8  15
BRANCH  11  26
HETATM   26  N6  UNL     1     -19.010  14.830 -24.471  1.00  0.00    -0.230 N 
HETATM   27  C25 UNL     1     -20.405  15.124 -24.250  1.00  0.00     0.165 C 
ATOM     28  H6  UNL     1     -18.620  14.921 -25.408  1.00  0.00     0.177 HD
ENDBRANCH  11  26
BRANCH   4  29
HETATM   29  C6  UNL     1     -15.483  12.141 -18.349  1.00  0.00     0.141 C 
BRANCH  29  30
HETATM   30  C7  UNL     1     -14.757  10.842 -18.619  1.00  0.00     0.054 C 
BRANCH  30  31
HETATM   31  C8  UNL     1     -14.599  10.106 -17.335  1.00  0.00    -0.082 C 
HETATM   32  C9  UNL     1     -13.448  10.011 -16.690  1.00  0.00    -0.024 C 
HETATM   33  C10 UNL     1     -13.425   9.245 -15.413  1.00  0.00     0.027 C 
HETATM   34  C11 UNL     1     -14.026   7.882 -15.689  1.00  0.00     0.004 C 
HETATM   35  C12 UNL     1     -15.393   8.015 -16.273  1.00  0.00     0.005 C 
HETATM   36  C13 UNL     1     -15.756   9.423 -16.679  1.00  0.00     0.034 C 
ENDBRANCH  30  31
ENDBRANCH  29  30
ENDBRANCH   4  29
BRANCH   1  37
HETATM   37  C4  UNL     1     -19.747  11.819 -20.610  1.00  0.00     0.135 C 
BRANCH  37  38
HETATM   38  C3  UNL     1     -19.970  10.528 -21.293  1.00  0.00     0.020 C 
BRANCH  38  39
HETATM   39  C2  UNL     1     -20.810   9.463 -20.779  1.00  0.00    -0.003 C 
HETATM   40  C1  UNL     1     -20.352   8.718 -19.563  1.00  0.00     0.005 C 
ENDBRANCH  38  39
ENDBRANCH  37  38
ENDBRANCH   1  37
TORSDOF 13
ENDMDL
MODEL 4
REMARK VINA RESULT: -8.119051733      3.115      7.494
REMARK  13 active torsions:
REMARK  status: ('A' for Active; 'I' for Inactive)
REMARK    1  A    between atoms: C2_2  and  C3_3 
REMARK    2  A    between atoms: C3_3  and  C4_4 
REMARK    3  A    between atoms: C4_4  and  N1_5 
REMARK    4  A    between atoms: N2_8  and  C6_9 
REMARK    5  A    between atoms: C6_9  and  C7_10 
REMARK    6  A    between atoms: C7_10  and  C8_11 
REMARK    7  A    between atoms: C16_20  and  N3_21 
REMARK    8  A    between atoms: N3_21  and  C17_22 
REMARK    9  A    between atoms: C17_22  and  C18_23 
REMARK   10  A    between atoms: C18_23  and  C19_24 
REMARK   11  A    between atoms: C19_24  and  N4_25 
REMARK       I    between atoms: N4_25  and  C20_27 
REMARK   12  A    between atoms: C20_27  and  C21_29 
REMARK   13  A    between atoms: C24_34  and  N6_35 
ROOT
HETATM    1  N1  UNL     1     -18.033  11.512 -21.128  1.00  0.00    -0.284 N 
HETATM    2  C5  UNL     1     -16.985  11.073 -20.354  1.00  0.00     0.333 A 
HETATM    3  O1  UNL     1     -17.050   9.914 -19.857  1.00  0.00    -0.246 OA
HETATM    4  N2  UNL     1     -15.912  11.796 -20.101  1.00  0.00    -0.265 N 
HETATM    5  C14 UNL     1     -15.758  13.062 -20.599  1.00  0.00     0.270 A 
HETATM    6  O2  UNL     1     -14.717  13.700 -20.326  1.00  0.00    -0.267 OA
HETATM    7  C15 UNL     1     -16.762  13.550 -21.369  1.00  0.00     0.136 A 
HETATM    8  C16 UNL     1     -16.680  14.849 -21.870  1.00  0.00     0.212 A 
HETATM    9  N5  UNL     1     -17.777  15.295 -22.619  1.00  0.00    -0.163 N 
ATOM     10  H5  UNL     1     -17.766  16.239 -23.006  1.00  0.00     0.187 HD
HETATM   11  C24 UNL     1     -18.825  14.522 -22.832  1.00  0.00     0.681 A 
HETATM   12  N7  UNL     1     -18.853  13.280 -22.329  1.00  0.00    -0.175 N 
ATOM     13  H7  UNL     1     -19.676  12.707 -22.512  1.00  0.00     0.186 HD
HETATM   14  C26 UNL     1     -17.874  12.752 -21.608  1.00  0.00     0.148 A 
ENDROOT
BRANCH   8  15
HETATM   15  N3  UNL     1     -15.756  15.608 -21.729  1.00  0.00    -0.402 NA
BRANCH  15  16
HETATM   16  C17 UNL     1     -14.753  16.430 -21.572  1.00  0.00     0.159 C 
BRANCH  16  17
HETATM   17  C18 UNL     1     -14.073  16.981 -22.847  1.00  0.00     0.079 C 
BRANCH  17  18
HETATM   18  C19 UNL     1     -14.703  18.246 -23.329  1.00  0.00     0.128 C 
BRANCH  18  19
HETATM   19  N4  UNL     1     -15.594  17.891 -24.440  1.00  0.00    -0.360 N 
HETATM   20  C20 UNL     1     -16.994  18.052 -24.318  1.00  0.00     0.221 C 
HETATM   21  O3  UNL     1     -17.464  18.504 -23.235  1.00  0.00    -0.273 OA
ATOM     22  H4  UNL     1     -15.201  17.524 -25.307  1.00  0.00     0.162 HD
BRANCH  20  23
HETATM   23  C21 UNL     1     -17.926  17.707 -25.415  1.00  0.00     0.070 C 
HETATM   24  C22 UNL     1     -17.411  18.262 -26.735  1.00  0.00     0.019 C 
HETATM   25  C23 UNL     1     -19.302  18.312 -25.139  1.00  0.00     0.019 C 
ENDBRANCH  20  23
ENDBRANCH  18  19
ENDBRANCH  17  18
ENDBRANCH  16  17
ENDBRANCH  15  16
ENDBRANCH   8  15
BRANCH  11  26
HETATM   26  N6  UNL     1     -19.818  15.017 -23.541  1.00  0.00    -0.230 N 
HETATM   27  C25 UNL     1     -20.004  14.642 -24.921  1.00  0.00     0.165 C 
ATOM     28  H6  UNL     1     -20.465  15.675 -23.107  1.00  0.00     0.177 HD
ENDBRANCH  11  26
BRANCH   4  29
HETATM   29  C6  UNL     1     -14.813  11.306 -19.260  1.00  0.00     0.141 C 
BRANCH  29  30
HETATM   30  C7  UNL     1     -15.143  11.479 -17.793  1.00  0.00     0.054 C 
BRANCH  30  31
HETATM   31  C8  UNL     1     -14.846  10.205 -17.083  1.00  0.00    -0.082 C 
HETATM   32  C9  UNL     1     -15.787   9.374 -16.661  1.00  0.00    -0.024 C 
HETATM   33  C10 UNL     1     -15.356   8.131 -15.963  1.00  0.00     0.027 C 
HETATM   34  C11 UNL     1     -14.423   8.539 -14.840  1.00  0.00     0.004 C 
HETATM   35  C12 UNL     1     -13.283   9.344 -15.367  1.00  0.00     0.005 C 
HETATM   36  C13 UNL     1     -13.442   9.773 -16.806  1.00  0.00     0.034 C 
ENDBRANCH  30  31
ENDBRANCH  29  30
ENDBRANCH   4  29
BRANCH   1  37
HETATM   37  C4  UNL     1     -19.146  10.649 -21.307  1.00  0.00     0.135 C 
BRANCH  37  38
HETATM   38  C3  UNL     1     -20.323  10.850 -20.437  1.00  0.00     0.020 C 
BRANCH  38  39
HETATM   39  C2  UNL     1     -20.330  10.627 -19.003  1.00  0.00    -0.003 C 
HETATM   40  C1  UNL     1     -20.290   9.216 -18.502  1.00  0.00     0.005 C 
ENDBRANCH  38  39
ENDBRANCH  37  38
ENDBRANCH   1  37
TORSDOF 13
ENDMDL
MODEL 5
REMARK VINA RESULT: -8.103525338      3.000      6.672
REMARK  13 active torsions:
REMARK  status: ('A' for Active; 'I' for Inactive)
REMARK    1  A    between atoms: C2_2  and  C3_3 
REMARK    2  A    between atoms: C3_3  and  C4_4 
REMARK    3  A    between atoms: C4_4  and  N1_5 
REMARK    4  A    between atoms: N2_8  and  C6_9 
REMARK    5  A    between atoms: C6_9  and  C7_10 
REMARK    6  A    between atoms: C7_10  and  C8_11 
REMARK    7  A    between atoms: C16_20  and  N3_21 
REMARK    8  A    between atoms: N3_21  and  C17_22 
REMARK    9  A    between atoms: C17_22  and  C18_23 
REMARK   10  A    between atoms: C18_23  and  C19_24 
REMARK   11  A    between atoms: C19_24  and  N4_25 
REMARK       I    between atoms: N4_25  and  C20_27 
REMARK   12  A    between atoms: C20_27  and  C21_29 
REMARK   13  A    between atoms: C24_34  and  N6_35 
ROOT
HETATM    1  N1  UNL     1     -18.259  11.510 -19.423  1.00  0.00    -0.284 N 
HETATM    2  C5  UNL     1     -18.875  12.458 -20.206  1.00  0.00     0.333 A 
HETATM    3  O1  UNL     1     -20.137  12.470 -20.252  1.00  0.00    -0.246 OA
HETATM    4  N2  UNL     1     -18.221  13.358 -20.913  1.00  0.00    -0.265 N 
HETATM    5  C14 UNL     1     -16.853  13.418 -20.922  1.00  0.00     0.270 A 
HETATM    6  O2  UNL     1     -16.287  14.295 -21.611  1.00  0.00    -0.267 OA
HETATM    7  C15 UNL     1     -16.190  12.505 -20.168  1.00  0.00     0.136 A 
HETATM    8  C16 UNL     1     -14.795  12.490 -20.170  1.00  0.00     0.212 A 
HETATM    9  N5  UNL     1     -14.185  11.489 -19.403  1.00  0.00    -0.163 N 
ATOM     10  H5  UNL     1     -13.166  11.435 -19.372  1.00  0.00     0.187 HD
HETATM   11  C24 UNL     1     -14.898  10.614 -18.721  1.00  0.00     0.681 A 
HETATM   12  N7  UNL     1     -16.237  10.673 -18.751  1.00  0.00    -0.175 N 
ATOM     13  H7  UNL     1     -16.760   9.983 -18.213  1.00  0.00     0.186 HD
HETATM   14  C26 UNL     1     -16.922  11.575 -19.441  1.00  0.00     0.148 A 
ENDROOT
BRANCH   8  15
HETATM   15  N3  UNL     1     -14.077  13.260 -20.755  1.00  0.00    -0.402 NA
BRANCH  15  16
HETATM   16  C17 UNL     1     -13.299  14.094 -21.392  1.00  0.00     0.159 C 
BRANCH  16  17
HETATM   17  C18 UNL     1     -12.708  15.276 -20.591  1.00  0.00     0.079 C 
BRANCH  17  18
HETATM   18  C19 UNL     1     -13.760  16.213 -20.096  1.00  0.00     0.128 C 
BRANCH  18  19
HETATM   19  N4  UNL     1     -14.634  16.524 -21.233  1.00  0.00    -0.360 N 
HETATM   20  C20 UNL     1     -14.587  17.796 -21.848  1.00  0.00     0.221 C 
HETATM   21  O3  UNL     1     -13.782  18.661 -21.401  1.00  0.00    -0.273 OA
ATOM     22  H4  UNL     1     -15.281  15.817 -21.582  1.00  0.00     0.162 HD
BRANCH  20  23
HETATM   23  C21 UNL     1     -15.450  18.148 -22.998  1.00  0.00     0.070 C 
HETATM   24  C22 UNL     1     -14.609  18.311 -24.255  1.00  0.00     0.019 C 
HETATM   25  C23 UNL     1     -16.172  19.467 -22.723  1.00  0.00     0.019 C 
ENDBRANCH  20  23
ENDBRANCH  18  19
ENDBRANCH  17  18
ENDBRANCH  16  17
ENDBRANCH  15  16
ENDBRANCH   8  15
BRANCH  11  26
HETATM   26  N6  UNL     1     -14.250   9.700 -18.029  1.00  0.00    -0.230 N 
HETATM   27  C25 UNL     1     -14.238   8.321 -18.450  1.00  0.00     0.165 C 
ATOM     28  H6  UNL     1     -13.750   9.972 -17.183  1.00  0.00     0.177 HD
ENDBRANCH  11  26
BRANCH   4  29
HETATM   29  C6  UNL     1     -18.905  14.351 -21.751  1.00  0.00     0.141 C 
BRANCH  29  30
HETATM   30  C7  UNL     1     -19.021  13.860 -23.177  1.00  0.00     0.054 C 
BRANCH  30  31
HETATM   31  C8  UNL     1     -19.093  15.038 -24.084  1.00  0.00    -0.082 C 
HETATM   32  C9  UNL     1     -18.221  16.033 -24.051  1.00  0.00    -0.024 C 
HETATM   33  C10 UNL     1     -18.406  17.154 -25.013  1.00  0.00     0.027 C 
HETATM   34  C11 UNL     1     -19.829  17.653 -24.862  1.00  0.00     0.004 C 
HETATM   35  C12 UNL     1     -20.803  16.539 -25.059  1.00  0.00     0.005 C 
HETATM   36  C13 UNL     1     -20.172  15.169 -25.111  1.00  0.00     0.034 C 
ENDBRANCH  30  31
ENDBRANCH  29  30
ENDBRANCH   4  29
BRANCH   1  37
HETATM   37  C4  UNL     1     -19.073  10.577 -18.728  1.00  0.00     0.135 C 
BRANCH  37  38
HETATM   38  C3  UNL     1     -19.294   9.256 -19.350  1.00  0.00     0.020 C 
BRANCH  38  39
HETATM   39  C2  UNL     1     -20.574   8.786 -19.846  1.00  0.00    -0.003 C 
HETATM   40  C1  UNL     1     -21.212   9.524 -20.982  1.00  0.00     0.005 C 
ENDBRANCH  38  39
ENDBRANCH  37  38
ENDBRANCH   1  37
TORSDOF 13
ENDMDL
