MODEL 1
REMARK VINA RESULT: -8.794451444      0.000      0.000
REMARK  11 active torsions:
REMARK  status: ('A' for Active; 'I' for Inactive)
REMARK    1  A    between atoms: C5_7  and  C6_8 
REMARK    2  A    between atoms: C9_11  and  C10_12 
REMARK    3  A    between atoms: C9_11  and  N5_37 
REMARK       I    between atoms: C10_12  and  N2_14 
REMARK    4  A    between atoms: N2_14  and  C11_16 
REMARK    5  A    between atoms: C11_16  and  C12_17 
REMARK    6  A    between atoms: C11_16  and  C19_24 
REMARK    7  A    between atoms: C12_17  and  C13_18 
REMARK       I    between atoms: C19_24  and  N3_26 
REMARK    8  A    between atoms: N3_26  and  C20_28 
REMARK    9  A    between atoms: C20_28  and  C21_29 
REMARK   10  A    between atoms: C21_29  and  C22_30 
REMARK   11  A    between atoms: C22_30  and  N4_31 
ROOT
HETATM    1  C10 UNL     1      -5.020  -2.126 -13.461  1.00  0.00     0.248 C 
HETATM    2  O1  UNL     1      -5.375  -2.609 -12.373  1.00  0.00    -0.271 OA
HETATM    3  N2  UNL     1      -4.604  -0.780 -13.525  1.00  0.00    -0.346 N 
ATOM      4  H2  UNL     1      -4.312  -0.382 -14.417  1.00  0.00     0.163 HD
ENDROOT
BRANCH   3   5
HETATM    5  C11 UNL     1      -4.588   0.071 -12.286  1.00  0.00     0.177 C 
BRANCH   5   6
HETATM    6  C12 UNL     1      -5.338   1.297 -12.710  1.00  0.00     0.039 C 
BRANCH   6   7
HETATM    7  C13 UNL     1      -6.704   1.504 -12.198  1.00  0.00    -0.012 C 
HETATM    8  C14 UNL     1      -7.017   0.503 -11.097  1.00  0.00     0.005 C 
HETATM    9  C15 UNL     1      -8.473   0.109 -11.119  1.00  0.00     0.000 C 
HETATM   10  C16 UNL     1      -8.721  -0.722 -12.330  1.00  0.00     0.000 C 
HETATM   11  C17 UNL     1      -8.100  -0.101 -13.531  1.00  0.00     0.000 C 
HETATM   12  C18 UNL     1      -7.667   1.331 -13.360  1.00  0.00     0.005 C 
ENDBRANCH   6   7
ENDBRANCH   5   6
BRANCH   5  13
HETATM   13  C19 UNL     1      -3.152   0.269 -12.025  1.00  0.00     0.240 C 
HETATM   14  O2  UNL     1      -2.341   0.220 -12.980  1.00  0.00    -0.271 OA
HETATM   15  N3  UNL     1      -2.655   0.509 -10.733  1.00  0.00    -0.359 N 
ATOM     16  H3  UNL     1      -3.330   0.546  -9.969  1.00  0.00     0.162 HD
BRANCH  15  17
HETATM   17  C20 UNL     1      -1.252   0.709 -10.403  1.00  0.00     0.124 C 
BRANCH  17  18
HETATM   18  C21 UNL     1      -0.908   2.158 -10.486  1.00  0.00     0.050 C 
BRANCH  18  19
HETATM   19  C22 UNL     1      -1.477   2.955  -9.326  1.00  0.00     0.274 C 
BRANCH  19  20
HETATM   20  N4  UNL     1      -2.213   4.117  -9.831  1.00  0.00     0.092 N 
HETATM   21  C23 UNL     1      -2.876   3.812 -11.060  1.00  0.00     0.298 C 
HETATM   22  C24 UNL     1      -4.357   4.176 -10.922  1.00  0.00     0.198 C 
HETATM   23  O3  UNL     1      -4.939   3.566  -9.840  1.00  0.00    -0.388 OA
HETATM   24  C25 UNL     1      -4.356   3.911  -8.635  1.00  0.00     0.198 C 
HETATM   25  C26 UNL     1      -3.071   4.679  -8.832  1.00  0.00     0.298 C 
ENDBRANCH  19  20
ENDBRANCH  18  19
ENDBRANCH  17  18
ENDBRANCH  15  17
ENDBRANCH   5  13
ENDBRANCH   3   5
BRANCH   1  26
HETATM   26  C9  UNL     1      -5.014  -2.910 -14.727  1.00  0.00     0.137 C 
HETATM   27  C8  UNL     1      -5.366  -2.002 -15.861  1.00  0.00     0.044 C 
HETATM   28  C7  UNL     1      -6.632  -2.605 -16.476  1.00  0.00     0.012 C 
HETATM   29  C6  UNL     1      -6.500  -4.081 -16.146  1.00  0.00     0.023 C 
HETATM   30  C28 UNL     1      -6.013  -4.013 -14.717  1.00  0.00     0.052 C 
BRANCH  29  31
HETATM   31  C5  UNL     1      -7.785  -4.784 -16.227  1.00  0.00    -0.030 A 
HETATM   32  C2  UNL     1      -8.014  -6.044 -16.681  1.00  0.00     0.011 A 
HETATM   33  C1  UNL     1      -7.007  -6.998 -17.212  1.00  0.00     0.068 C 
HETATM   34  N1  UNL     1      -9.337  -6.344 -16.594  1.00  0.00    -0.369 N 
HETATM   35  C3  UNL     1      -9.940  -5.257 -16.080  1.00  0.00     0.088 A 
ATOM     36  H1  UNL     1      -9.784  -7.220 -16.865  1.00  0.00     0.165 HD
HETATM   37  C4  UNL     1      -9.002  -4.277 -15.843  1.00  0.00     0.026 A 
ENDBRANCH  29  31
BRANCH  26  38
HETATM   38  N5  UNL     1      -3.688  -3.479 -14.895  1.00  0.00    -0.252 N 
HETATM   39  C27 UNL     1      -2.995  -3.440 -16.035  1.00  0.00     0.221 A 
HETATM   40  N6  UNL     1      -1.818  -4.064 -15.809  1.00  0.00    -0.279 N 
HETATM   41  N7  UNL     1      -1.850  -4.450 -14.549  1.00  0.00    -0.227 N 
ATOM     42  H6  UNL     1      -1.060  -4.207 -16.477  1.00  0.00     0.189 HD
HETATM   43  N8  UNL     1      -2.970  -4.107 -13.978  1.00  0.00    -0.224 N 
ATOM     44  H7  UNL     1      -1.095  -4.953 -14.081  1.00  0.00     0.210 HD
ATOM     45  H8  UNL     1      -3.240  -4.288 -13.011  1.00  0.00     0.210 HD
ENDBRANCH  26  38
ENDBRANCH   1  26
TORSDOF 11
ENDMDL
MODEL 2
REMARK VINA RESULT: -8.769625284      2.816     10.052
REMARK  11 active torsions:
REMARK  status: ('A' for Active; 'I' for Inactive)
REMARK    1  A    between atoms: C5_7  and  C6_8 
REMARK    2  A    between atoms: C9_11  and  C10_12 
REMARK    3  A    between atoms: C9_11  and  N5_37 
REMARK       I    between atoms: C10_12  and  N2_14 
REMARK    4  A    between atoms: N2_14  and  C11_16 
REMARK    5  A    between atoms: C11_16  and  C12_17 
REMARK    6  A    between atoms: C11_16  and  C19_24 
REMARK    7  A    between atoms: C12_17  and  C13_18 
REMARK       I    between atoms: C19_24  and  N3_26 
REMARK    8  A    between atoms: N3_26  and  C20_28 
REMARK    9  A    between atoms: C20_28  and  C21_29 
REMARK   10  A    between atoms: C21_29  and  C22_30 
REMARK   11  A    between atoms: C22_30  and  N4_31 
ROOT
HETATM    1  C10 UNL     1      -5.509  -2.569 -13.406  1.00  0.00     0.248 C 
HETATM    2  O1  UNL     1      -5.168  -3.333 -12.488  1.00  0.00    -0.271 OA
HETATM    3  N2  UNL     1      -5.817  -3.099 -14.677  1.00  0.00    -0.346 N 
ATOM      4  H2  UNL     1      -6.098  -2.474 -15.431  1.00  0.00     0.163 HD
ENDROOT
BRANCH   3   5
HETATM    5  C11 UNL     1      -5.733  -4.579 -14.925  1.00  0.00     0.177 C 
BRANCH   5   6
HETATM    6  C12 UNL     1      -5.049  -4.659 -16.256  1.00  0.00     0.039 C 
BRANCH   6   7
HETATM    7  C13 UNL     1      -3.590  -4.857 -16.290  1.00  0.00    -0.012 C 
HETATM    8  C14 UNL     1      -3.054  -5.128 -14.893  1.00  0.00     0.005 C 
HETATM    9  C15 UNL     1      -1.673  -4.549 -14.718  1.00  0.00     0.000 C 
HETATM   10  C16 UNL     1      -1.781  -3.063 -14.693  1.00  0.00     0.000 C 
HETATM   11  C17 UNL     1      -2.656  -2.581 -15.795  1.00  0.00     0.000 C 
HETATM   12  C18 UNL     1      -2.962  -3.598 -16.862  1.00  0.00     0.005 C 
ENDBRANCH   6   7
ENDBRANCH   5   6
BRANCH   5  13
HETATM   13  C19 UNL     1      -7.142  -5.009 -14.913  1.00  0.00     0.240 C 
HETATM   14  O2  UNL     1      -8.026  -4.204 -14.534  1.00  0.00    -0.271 OA
HETATM   15  N3  UNL     1      -7.531  -6.298 -15.310  1.00  0.00    -0.359 N 
ATOM     16  H3  UNL     1      -6.798  -6.939 -15.615  1.00  0.00     0.162 HD
BRANCH  15  17
HETATM   17  C20 UNL     1      -8.900  -6.790 -15.319  1.00  0.00     0.124 C 
BRANCH  17  18
HETATM   18  C21 UNL     1      -9.330  -7.084 -16.717  1.00  0.00     0.050 C 
BRANCH  18  19
HETATM   19  C22 UNL     1      -8.159  -7.151 -17.680  1.00  0.00     0.274 C 
BRANCH  19  20
HETATM   20  N4  UNL     1      -8.340  -8.266 -18.613  1.00  0.00     0.092 N 
HETATM   21  C23 UNL     1      -9.500  -8.073 -19.426  1.00  0.00     0.298 C 
HETATM   22  C24 UNL     1      -9.094  -8.203 -20.896  1.00  0.00     0.198 C 
HETATM   23  O3  UNL     1      -8.069  -7.353 -21.226  1.00  0.00    -0.388 OA
HETATM   24  C25 UNL     1      -6.914  -7.578 -20.499  1.00  0.00     0.198 C 
HETATM   25  C26 UNL     1      -7.147  -8.537 -19.357  1.00  0.00     0.298 C 
ENDBRANCH  19  20
ENDBRANCH  18  19
ENDBRANCH  17  18
ENDBRANCH  15  17
ENDBRANCH   5  13
ENDBRANCH   3   5
BRANCH   1  26
HETATM   26  C9  UNL     1      -5.610  -1.094 -13.231  1.00  0.00     0.137 C 
HETATM   27  C8  UNL     1      -5.463  -0.436 -14.566  1.00  0.00     0.044 C 
HETATM   28  C7  UNL     1      -4.239   0.474 -14.428  1.00  0.00     0.012 C 
HETATM   29  C6  UNL     1      -4.224   0.801 -12.946  1.00  0.00     0.023 C 
HETATM   30  C28 UNL     1      -4.541  -0.551 -12.350  1.00  0.00     0.052 C 
BRANCH  29  31
HETATM   31  C5  UNL     1      -2.912   1.276 -12.496  1.00  0.00    -0.030 A 
HETATM   32  C2  UNL     1      -2.620   2.455 -11.886  1.00  0.00     0.011 A 
HETATM   33  C1  UNL     1      -3.572   3.541 -11.543  1.00  0.00     0.068 C 
HETATM   34  N1  UNL     1      -1.290   2.530 -11.617  1.00  0.00    -0.369 N 
HETATM   35  C3  UNL     1      -0.746   1.385 -12.065  1.00  0.00     0.088 A 
ATOM     36  H1  UNL     1      -0.801   3.302 -11.164  1.00  0.00     0.165 HD
HETATM   37  C4  UNL     1      -1.728   0.590 -12.614  1.00  0.00     0.026 A 
ENDBRANCH  29  31
BRANCH  26  38
HETATM   38  N5  UNL     1      -6.903  -0.801 -12.636  1.00  0.00    -0.252 N 
HETATM   39  C27 UNL     1      -7.075  -0.033 -11.558  1.00  0.00     0.221 A 
HETATM   40  N6  UNL     1      -8.402   0.008 -11.304  1.00  0.00    -0.279 N 
HETATM   41  N7  UNL     1      -8.971  -0.732 -12.235  1.00  0.00    -0.227 N 
ATOM     42  H6  UNL     1      -8.867   0.508 -10.547  1.00  0.00     0.189 HD
HETATM   43  N8  UNL     1      -8.084  -1.230 -13.050  1.00  0.00    -0.224 N 
ATOM     44  H7  UNL     1      -9.976  -0.894 -12.308  1.00  0.00     0.210 HD
ATOM     45  H8  UNL     1      -8.266  -1.833 -13.853  1.00  0.00     0.210 HD
ENDBRANCH  26  38
ENDBRANCH   1  26
TORSDOF 11
ENDMDL
MODEL 3
REMARK VINA RESULT: -8.741367399      2.732      8.825
REMARK  11 active torsions:
REMARK  status: ('A' for Active; 'I' for Inactive)
REMARK    1  A    between atoms: C5_7  and  C6_8 
REMARK    2  A    between atoms: C9_11  and  C10_12 
REMARK    3  A    between atoms: C9_11  and  N5_37 
REMARK       I    between atoms: C10_12  and  N2_14 
REMARK    4  A    between atoms: N2_14  and  C11_16 
REMARK    5  A    between atoms: C11_16  and  C12_17 
REMARK    6  A    between atoms: C11_16  and  C19_24 
REMARK    7  A    between atoms: C12_17  and  C13_18 
REMARK       I    between atoms: C19_24  and  N3_26 
REMARK    8  A    between atoms: N3_26  and  C20_28 
REMARK    9  A    between atoms: C20_28  and  C21_29 
REMARK   10  A    between atoms: C21_29  and  C22_30 
REMARK   11  A    between atoms: C22_30  and  N4_31 
ROOT
HETATM    1  C10 UNL     1      -6.067   0.367 -12.042  1.00  0.00     0.248 C 
HETATM    2  O1  UNL     1      -6.145  -0.862 -11.874  1.00  0.00    -0.271 OA
HETATM    3  N2  UNL     1      -5.005   0.902 -12.800  1.00  0.00    -0.346 N 
ATOM      4  H2  UNL     1      -4.940   1.910 -12.938  1.00  0.00     0.163 HD
ENDROOT
BRANCH   3   5
HETATM    5  C11 UNL     1      -3.968  -0.004 -13.403  1.00  0.00     0.177 C 
BRANCH   5   6
HETATM    6  C12 UNL     1      -2.740   0.855 -13.422  1.00  0.00     0.039 C 
BRANCH   6   7
HETATM    7  C13 UNL     1      -1.679   0.593 -12.434  1.00  0.00    -0.012 C 
HETATM    8  C14 UNL     1      -2.261   0.526 -11.031  1.00  0.00     0.005 C 
HETATM    9  C15 UNL     1      -1.288   1.068 -10.013  1.00  0.00     0.000 C 
HETATM   10  C16 UNL     1      -1.177   2.542 -10.200  1.00  0.00     0.000 C 
HETATM   11  C17 UNL     1      -1.012   2.878 -11.640  1.00  0.00     0.000 C 
HETATM   12  C18 UNL     1      -0.663   1.717 -12.533  1.00  0.00     0.005 C 
ENDBRANCH   6   7
ENDBRANCH   5   6
BRANCH   5  13
HETATM   13  C19 UNL     1      -4.529  -0.332 -14.726  1.00  0.00     0.240 C 
HETATM   14  O2  UNL     1      -4.122   0.290 -15.736  1.00  0.00    -0.271 OA
HETATM   15  N3  UNL     1      -5.510  -1.322 -14.895  1.00  0.00    -0.359 N 
ATOM     16  H3  UNL     1      -5.828  -1.817 -14.061  1.00  0.00     0.162 HD
BRANCH  15  17
HETATM   17  C20 UNL     1      -6.109  -1.694 -16.167  1.00  0.00     0.124 C 
BRANCH  17  18
HETATM   18  C21 UNL     1      -6.175  -3.179 -16.288  1.00  0.00     0.050 C 
BRANCH  18  19
HETATM   19  C22 UNL     1      -5.600  -3.884 -15.073  1.00  0.00     0.274 C 
BRANCH  19  20
HETATM   20  N4  UNL     1      -4.507  -4.771 -15.479  1.00  0.00     0.092 N 
HETATM   21  C23 UNL     1      -4.431  -4.875 -16.903  1.00  0.00     0.298 C 
HETATM   22  C24 UNL     1      -3.003  -4.542 -17.342  1.00  0.00     0.198 C 
HETATM   23  O3  UNL     1      -2.592  -3.318 -16.877  1.00  0.00    -0.388 OA
HETATM   24  C25 UNL     1      -2.588  -3.228 -15.497  1.00  0.00     0.198 C 
HETATM   25  C26 UNL     1      -3.269  -4.413 -14.855  1.00  0.00     0.298 C 
ENDBRANCH  19  20
ENDBRANCH  18  19
ENDBRANCH  17  18
ENDBRANCH  15  17
ENDBRANCH   5  13
ENDBRANCH   3   5
BRANCH   1  26
HETATM   26  C9  UNL     1      -7.056   1.321 -11.470  1.00  0.00     0.137 C 
HETATM   27  C8  UNL     1      -6.913   2.640 -12.160  1.00  0.00     0.044 C 
HETATM   28  C7  UNL     1      -6.567   3.636 -11.050  1.00  0.00     0.012 C 
HETATM   29  C6  UNL     1      -7.208   3.012  -9.823  1.00  0.00     0.023 C 
HETATM   30  C28 UNL     1      -6.844   1.558 -10.016  1.00  0.00     0.052 C 
BRANCH  29  31
HETATM   31  C5  UNL     1      -6.639   3.532  -8.575  1.00  0.00    -0.030 A 
HETATM   32  C2  UNL     1      -7.308   3.985  -7.483  1.00  0.00     0.011 A 
HETATM   33  C1  UNL     1      -8.781   4.066  -7.310  1.00  0.00     0.068 C 
HETATM   34  N1  UNL     1      -6.432   4.379  -6.522  1.00  0.00    -0.369 N 
HETATM   35  C3  UNL     1      -5.201   4.170  -7.022  1.00  0.00     0.088 A 
ATOM     36  H1  UNL     1      -6.662   4.758  -5.604  1.00  0.00     0.165 HD
HETATM   37  C4  UNL     1      -5.300   3.645  -8.291  1.00  0.00     0.026 A 
ENDBRANCH  29  31
BRANCH  26  38
HETATM   38  N5  UNL     1      -8.383   0.763 -11.666  1.00  0.00    -0.252 N 
HETATM   39  C27 UNL     1      -9.350   1.356 -12.370  1.00  0.00     0.221 A 
HETATM   40  N6  UNL     1     -10.429   0.544 -12.330  1.00  0.00    -0.279 N 
HETATM   41  N7  UNL     1     -10.070  -0.499 -11.608  1.00  0.00    -0.227 N 
ATOM     42  H6  UNL     1     -11.336   0.706 -12.768  1.00  0.00     0.189 HD
HETATM   43  N8  UNL     1      -8.838  -0.388 -11.198  1.00  0.00    -0.224 N 
ATOM     44  H7  UNL     1     -10.678  -1.292 -11.399  1.00  0.00     0.210 HD
ATOM     45  H8  UNL     1      -8.324  -1.059 -10.626  1.00  0.00     0.210 HD
ENDBRANCH  26  38
ENDBRANCH   1  26
TORSDOF 11
ENDMDL
MODEL 4
REMARK VINA RESULT: -8.735262032      0.964      1.232
REMARK  11 active torsions:
REMARK  status: ('A' for Active; 'I' for Inactive)
REMARK    1  A    between atoms: C5_7  and  C6_8 
REMARK    2  A    between atoms: C9_11  and  C10_12 
REMARK    3  A    between atoms: C9_11  and  N5_37 
REMARK       I    between atoms: C10_12  and  N2_14 
REMARK    4  A    between atoms: N2_14  and  C11_16 
REMARK    5  A    between atoms: C11_16  and  C12_17 
REMARK    6  A    between atoms: C11_16  and  C19_24 
REMARK    7  A    between atoms: C12_17  and  C13_18 
REMARK       I    between atoms: C19_24  and  N3_26 
REMARK    8  A    between atoms: N3_26  and  C20_28 
REMARK    9  A    between atoms: C20_28  and  C21_29 
REMARK   10  A    between atoms: C21_29  and  C22_30 
REMARK   11  A    between atoms: C22_30  and  N4_31 
ROOT
HETATM    1  C10 UNL     1      -4.729  -2.416 -13.383  1.00  0.00     0.248 C 
HETATM    2  O1  UNL     1      -4.842  -3.015 -12.301  1.00  0.00    -0.271 OA
HETATM    3  N2  UNL     1      -4.563  -1.016 -13.393  1.00  0.00    -0.346 N 
ATOM      4  H2  UNL     1      -4.470  -0.523 -14.281  1.00  0.00     0.163 HD
ENDROOT
BRANCH   3   5
HETATM    5  C11 UNL     1      -4.523  -0.245 -12.103  1.00  0.00     0.177 C 
BRANCH   5   6
HETATM    6  C12 UNL     1      -5.657   0.722 -12.253  1.00  0.00     0.039 C 
BRANCH   6   7
HETATM    7  C13 UNL     1      -6.831   0.578 -11.375  1.00  0.00    -0.012 C 
HETATM    8  C14 UNL     1      -7.762  -0.503 -11.902  1.00  0.00     0.005 C 
HETATM    9  C15 UNL     1      -9.204  -0.165 -11.616  1.00  0.00     0.000 C 
HETATM   10  C16 UNL     1      -9.601   0.988 -12.472  1.00  0.00     0.000 C 
HETATM   11  C17 UNL     1      -8.564   2.054 -12.431  1.00  0.00     0.000 C 
HETATM   12  C18 UNL     1      -7.547   1.917 -11.330  1.00  0.00     0.005 C 
ENDBRANCH   6   7
ENDBRANCH   5   6
BRANCH   5  13
HETATM   13  C19 UNL     1      -3.177   0.355 -12.105  1.00  0.00     0.240 C 
HETATM   14  O2  UNL     1      -2.602   0.571 -13.198  1.00  0.00    -0.271 OA
HETATM   15  N3  UNL     1      -2.511   0.693 -10.916  1.00  0.00    -0.359 N 
ATOM     16  H3  UNL     1      -2.995   0.511 -10.036  1.00  0.00     0.162 HD
BRANCH  15  17
HETATM   17  C20 UNL     1      -1.183   1.283 -10.843  1.00  0.00     0.124 C 
BRANCH  17  18
HETATM   18  C21 UNL     1      -1.287   2.748 -10.578  1.00  0.00     0.050 C 
BRANCH  18  19
HETATM   19  C22 UNL     1      -1.367   3.062  -9.095  1.00  0.00     0.274 C 
BRANCH  19  20
HETATM   20  N4  UNL     1      -2.142   4.288  -8.885  1.00  0.00     0.092 N 
HETATM   21  C23 UNL     1      -3.532   4.068  -9.136  1.00  0.00     0.298 C 
HETATM   22  C24 UNL     1      -4.329   4.532  -7.914  1.00  0.00     0.198 C 
HETATM   23  O3  UNL     1      -3.898   3.932  -6.758  1.00  0.00    -0.388 OA
HETATM   24  C25 UNL     1      -2.574   4.198  -6.462  1.00  0.00     0.198 C 
HETATM   25  C26 UNL     1      -1.868   4.879  -7.610  1.00  0.00     0.298 C 
ENDBRANCH  19  20
ENDBRANCH  18  19
ENDBRANCH  17  18
ENDBRANCH  15  17
ENDBRANCH   5  13
ENDBRANCH   3   5
BRANCH   1  26
HETATM   26  C9  UNL     1      -4.763  -3.116 -14.697  1.00  0.00     0.137 C 
HETATM   27  C8  UNL     1      -5.165  -2.140 -15.756  1.00  0.00     0.044 C 
HETATM   28  C7  UNL     1      -6.448  -2.716 -16.363  1.00  0.00     0.012 C 
HETATM   29  C6  UNL     1      -6.291  -4.209 -16.135  1.00  0.00     0.023 C 
HETATM   30  C28 UNL     1      -5.751  -4.228 -14.724  1.00  0.00     0.052 C 
BRANCH  29  31
HETATM   31  C5  UNL     1      -7.570  -4.920 -16.216  1.00  0.00    -0.030 A 
HETATM   32  C2  UNL     1      -7.801  -6.159 -16.722  1.00  0.00     0.011 A 
HETATM   33  C1  UNL     1      -6.801  -7.077 -17.323  1.00  0.00     0.068 C 
HETATM   34  N1  UNL     1      -9.118  -6.475 -16.614  1.00  0.00    -0.369 N 
HETATM   35  C3  UNL     1      -9.716  -5.420 -16.034  1.00  0.00     0.088 A 
ATOM     36  H1  UNL     1      -9.565  -7.342 -16.914  1.00  0.00     0.165 HD
HETATM   37  C4  UNL     1      -8.781  -4.443 -15.776  1.00  0.00     0.026 A 
ENDBRANCH  29  31
BRANCH  26  38
HETATM   38  N5  UNL     1      -3.439  -3.657 -14.952  1.00  0.00    -0.252 N 
HETATM   39  C27 UNL     1      -2.844  -3.653 -16.147  1.00  0.00     0.221 A 
HETATM   40  N6  UNL     1      -1.634  -4.235 -15.993  1.00  0.00    -0.279 N 
HETATM   41  N7  UNL     1      -1.550  -4.562 -14.719  1.00  0.00    -0.227 N 
ATOM     42  H6  UNL     1      -0.931  -4.390 -16.715  1.00  0.00     0.189 HD
HETATM   43  N8  UNL     1      -2.628  -4.222 -14.071  1.00  0.00    -0.224 N 
ATOM     44  H7  UNL     1      -0.744  -5.022 -14.294  1.00  0.00     0.210 HD
ATOM     45  H8  UNL     1      -2.812  -4.363 -13.078  1.00  0.00     0.210 HD
ENDBRANCH  26  38
ENDBRANCH   1  26
TORSDOF 11
ENDMDL
MODEL 5
REMARK VINA RESULT: -8.600756957      2.621     10.139
REMARK  11 active torsions:
REMARK  status: ('A' for Active; 'I' for Inactive)
REMARK    1  A    between atoms: C5_7  and  C6_8 
REMARK    2  A    between atoms: C9_11  and  C10_12 
REMARK    3  A    between atoms: C9_11  and  N5_37 
REMARK       I    between atoms: C10_12  and  N2_14 
REMARK    4  A    between atoms: N2_14  and  C11_16 
REMARK    5  A    between atoms: C11_16  and  C12_17 
REMARK    6  A    between atoms: C11_16  and  C19_24 
REMARK    7  A    between atoms: C12_17  and  C13_18 
REMARK       I    between atoms: C19_24  and  N3_26 
REMARK    8  A    between atoms: N3_26  and  C20_28 
REMARK    9  A    between atoms: C20_28  and  C21_29 
REMARK   10  A    between atoms: C21_29  and  C22_30 
REMARK   11  A    between atoms: C22_30  and  N4_31 
ROOT
HETATM    1  C10 UNL     1      -5.369  -1.640 -13.188  1.00  0.00     0.248 C 
HETATM    2  O1  UNL     1      -5.295  -2.196 -12.080  1.00  0.00    -0.271 OA
HETATM    3  N2  UNL     1      -5.838  -2.366 -14.303  1.00  0.00    -0.346 N 
ATOM      4  H2  UNL     1      -5.900  -1.911 -15.213  1.00  0.00     0.163 HD
ENDROOT
BRANCH   3   5
HETATM    5  C11 UNL     1      -6.246  -3.805 -14.158  1.00  0.00     0.177 C 
BRANCH   5   6
HETATM    6  C12 UNL     1      -5.047  -4.548 -14.663  1.00  0.00     0.039 C 
BRANCH   6   7
HETATM    7  C13 UNL     1      -4.109  -3.851 -15.560  1.00  0.00    -0.012 C 
HETATM    8  C14 UNL     1      -3.769  -4.724 -16.759  1.00  0.00     0.005 C 
HETATM    9  C15 UNL     1      -2.348  -4.498 -17.210  1.00  0.00     0.000 C 
HETATM   10  C16 UNL     1      -1.428  -5.063 -16.183  1.00  0.00     0.000 C 
HETATM   11  C17 UNL     1      -1.850  -4.653 -14.816  1.00  0.00     0.000 C 
HETATM   12  C18 UNL     1      -2.854  -3.532 -14.765  1.00  0.00     0.005 C 
ENDBRANCH   6   7
ENDBRANCH   5   6
BRANCH   5  13
HETATM   13  C19 UNL     1      -7.451  -3.906 -14.999  1.00  0.00     0.240 C 
HETATM   14  O2  UNL     1      -7.887  -2.879 -15.573  1.00  0.00    -0.271 OA
HETATM   15  N3  UNL     1      -8.136  -5.118 -15.179  1.00  0.00    -0.359 N 
ATOM     16  H3  UNL     1      -7.766  -5.942 -14.704  1.00  0.00     0.162 HD
BRANCH  15  17
HETATM   17  C20 UNL     1      -9.332  -5.289 -15.990  1.00  0.00     0.124 C 
BRANCH  17  18
HETATM   18  C21 UNL     1      -9.379  -6.672 -16.549  1.00  0.00     0.050 C 
BRANCH  18  19
HETATM   19  C22 UNL     1      -8.139  -7.011 -17.355  1.00  0.00     0.274 C 
BRANCH  19  20
HETATM   20  N4  UNL     1      -8.419  -8.133 -18.255  1.00  0.00     0.092 N 
HETATM   21  C23 UNL     1      -9.555  -7.861 -19.079  1.00  0.00     0.298 C 
HETATM   22  C24 UNL     1      -9.160  -8.072 -20.543  1.00  0.00     0.198 C 
HETATM   23  O3  UNL     1      -8.062  -7.329 -20.893  1.00  0.00    -0.388 OA
HETATM   24  C25 UNL     1      -6.934  -7.636 -20.155  1.00  0.00     0.198 C 
HETATM   25  C26 UNL     1      -7.255  -8.535 -18.985  1.00  0.00     0.298 C 
ENDBRANCH  19  20
ENDBRANCH  18  19
ENDBRANCH  17  18
ENDBRANCH  15  17
ENDBRANCH   5  13
ENDBRANCH   3   5
BRANCH   1  26
HETATM   26  C9  UNL     1      -4.978  -0.220 -13.404  1.00  0.00     0.137 C 
HETATM   27  C8  UNL     1      -3.798  -0.175 -14.322  1.00  0.00     0.044 C 
HETATM   28  C7  UNL     1      -2.695   0.519 -13.518  1.00  0.00     0.012 C 
HETATM   29  C6  UNL     1      -3.476   1.401 -12.561  1.00  0.00     0.023 C 
HETATM   30  C28 UNL     1      -4.582   0.460 -12.141  1.00  0.00     0.052 C 
BRANCH  29  31
HETATM   31  C5  UNL     1      -2.673   1.811 -11.404  1.00  0.00    -0.030 A 
HETATM   32  C2  UNL     1      -2.882   2.873 -10.583  1.00  0.00     0.011 A 
HETATM   33  C1  UNL     1      -3.977   3.872 -10.679  1.00  0.00     0.068 C 
HETATM   34  N1  UNL     1      -1.925   2.920  -9.620  1.00  0.00    -0.369 N 
HETATM   35  C3  UNL     1      -1.108   1.876  -9.843  1.00  0.00     0.088 A 
ATOM     36  H1  UNL     1      -1.842   3.612  -8.874  1.00  0.00     0.165 HD
HETATM   37  C4  UNL     1      -1.549   1.172 -10.942  1.00  0.00     0.026 A 
ENDBRANCH  29  31
BRANCH  26  38
HETATM   38  N5  UNL     1      -6.119   0.476 -13.975  1.00  0.00    -0.252 N 
HETATM   39  C27 UNL     1      -7.059   1.092 -13.254  1.00  0.00     0.221 A 
HETATM   40  N6  UNL     1      -7.948   1.620 -14.124  1.00  0.00    -0.279 N 
HETATM   41  N7  UNL     1      -7.508   1.304 -15.326  1.00  0.00    -0.227 N 
ATOM     42  H6  UNL     1      -8.787   2.154 -13.897  1.00  0.00     0.189 HD
HETATM   43  N8  UNL     1      -6.405   0.614 -15.260  1.00  0.00    -0.224 N 
ATOM     44  H7  UNL     1      -7.972   1.566 -16.196  1.00  0.00     0.210 HD
ATOM     45  H8  UNL     1      -5.867   0.250 -16.046  1.00  0.00     0.210 HD
ENDBRANCH  26  38
ENDBRANCH   1  26
TORSDOF 11
ENDMDL
