MODEL 1
REMARK VINA RESULT: -6.579467704      0.000      0.000
REMARK  13 active torsions:
REMARK  status: ('A' for Active; 'I' for Inactive)
REMARK    1  A    between atoms: O1_2  and  C2_3 
REMARK    2  A    between atoms: C4_5  and  C5_6 
REMARK    3  A    between atoms: C5_6  and  N1_7 
REMARK    4  A    between atoms: C5_6  and  C14_22 
REMARK    5  A    between atoms: N1_7  and  C6_9 
REMARK    6  A    between atoms: C6_9  and  N2_11 
REMARK    7  A    between atoms: N2_11  and  C7_13 
REMARK    8  A    between atoms: C7_13  and  C8_14 
REMARK    9  A    between atoms: C8_14  and  C9_15 
REMARK   10  A    between atoms: C9_15  and  N3_16 
REMARK   11  A    between atoms: C19_30  and  N5_31 
REMARK   12  A    between atoms: C24_36  and  O4_37 
REMARK   13  A    between atoms: C26_39  and  O5_40 
ROOT
HETATM    1  C5  UNL     1      -6.069  -7.818 -18.180  1.00  0.00     0.153 C 
ENDROOT
BRANCH   1   2
HETATM    2  C4  UNL     1      -5.728  -9.204 -17.753  1.00  0.00    -0.025 A 
HETATM    3  C3  UNL     1      -4.524  -9.801 -18.139  1.00  0.00     0.049 A 
HETATM    4  C2  UNL     1      -4.164 -11.082 -17.795  1.00  0.00     0.104 A 
HETATM    5  C26 UNL     1      -5.030 -11.845 -17.022  1.00  0.00     0.135 A 
HETATM    6  C24 UNL     1      -6.229 -11.299 -16.616  1.00  0.00     0.104 A 
HETATM    7  C23 UNL     1      -6.551  -9.994 -16.987  1.00  0.00     0.049 A 
BRANCH   4   8
HETATM    8  O1  UNL     1      -2.959 -11.643 -18.196  1.00  0.00    -0.353 OA
HETATM    9  C1  UNL     1      -1.732 -11.311 -17.566  1.00  0.00     0.210 C 
ENDBRANCH   4   8
BRANCH   5  10
HETATM   10  O5  UNL     1      -4.691 -13.130 -16.667  1.00  0.00    -0.351 OA
HETATM   11  C27 UNL     1      -4.026 -13.500 -15.488  1.00  0.00     0.210 C 
ENDBRANCH   5  10
BRANCH   6  12
HETATM   12  O4  UNL     1      -7.157 -12.004 -15.835  1.00  0.00    -0.353 OA
HETATM   13  C25 UNL     1      -8.289 -12.606 -16.407  1.00  0.00     0.210 C 
ENDBRANCH   6  12
ENDBRANCH   1   2
BRANCH   1  14
HETATM   14  N1  UNL     1      -5.892  -6.939 -17.030  1.00  0.00    -0.354 N 
ATOM     15  H1  UNL     1      -6.305  -7.203 -16.136  1.00  0.00     0.163 HD
BRANCH  14  16
HETATM   16  C6  UNL     1      -5.157  -5.723 -17.121  1.00  0.00     0.168 C 
HETATM   17  S1  UNL     1      -3.566  -5.746 -17.375  1.00  0.00    -0.041 SA
BRANCH  16  18
HETATM   18  N2  UNL     1      -5.827  -4.478 -16.981  1.00  0.00    -0.367 N 
ATOM     19  H2  UNL     1      -5.476  -3.691 -17.526  1.00  0.00     0.161 HD
BRANCH  18  20
HETATM   20  C7  UNL     1      -6.954  -4.245 -16.137  1.00  0.00     0.123 C 
BRANCH  20  21
HETATM   21  C8  UNL     1      -6.685  -4.368 -14.669  1.00  0.00     0.050 C 
BRANCH  21  22
HETATM   22  C9  UNL     1      -6.033  -3.118 -14.143  1.00  0.00     0.274 C 
BRANCH  22  23
HETATM   23  N3  UNL     1      -4.907  -3.339 -13.294  1.00  0.00     0.092 N 
HETATM   24  C10 UNL     1      -4.507  -2.220 -12.504  1.00  0.00     0.298 C 
HETATM   25  C11 UNL     1      -4.155  -1.021 -13.378  1.00  0.00     0.198 C 
HETATM   26  O2  UNL     1      -3.043  -1.391 -14.128  1.00  0.00    -0.388 OA
HETATM   27  C12 UNL     1      -3.262  -2.497 -14.912  1.00  0.00     0.198 C 
HETATM   28  C13 UNL     1      -3.778  -3.687 -14.167  1.00  0.00     0.298 C 
ENDBRANCH  22  23
ENDBRANCH  21  22
ENDBRANCH  20  21
ENDBRANCH  18  20
ENDBRANCH  16  18
ENDBRANCH  14  16
ENDBRANCH   1  14
BRANCH   1  29
HETATM   29  C14 UNL     1      -7.457  -7.658 -18.654  1.00  0.00     0.003 A 
HETATM   30  C15 UNL     1      -8.486  -7.301 -17.810  1.00  0.00     0.036 A 
HETATM   31  C16 UNL     1      -9.805  -7.144 -18.220  1.00  0.00     0.009 A 
HETATM   32  C17 UNL     1     -10.908  -6.760 -17.309  1.00  0.00     0.068 C 
HETATM   33  N4  UNL     1     -10.040  -7.362 -19.519  1.00  0.00    -0.326 N 
HETATM   34  C18 UNL     1      -9.118  -7.706 -20.404  1.00  0.00     0.273 A 
ATOM     35  H4  UNL     1     -10.999  -7.255 -19.851  1.00  0.00     0.169 HD
HETATM   36  O3  UNL     1      -9.411  -7.891 -21.591  1.00  0.00    -0.266 OA
HETATM   37  C19 UNL     1      -7.782  -7.861 -19.967  1.00  0.00     0.108 A 
BRANCH  37  38
HETATM   38  N5  UNL     1      -6.796  -8.211 -20.917  1.00  0.00    -0.376 N 
HETATM   39  C20 UNL     1      -5.875  -7.498 -21.819  1.00  0.00     0.125 C 
HETATM   40  C21 UNL     1      -6.166  -8.637 -22.809  1.00  0.00     0.040 C 
HETATM   41  C22 UNL     1      -6.253  -9.420 -21.486  1.00  0.00     0.125 C 
ENDBRANCH  37  38
ENDBRANCH   1  29
TORSDOF 13
ENDMDL
MODEL 2
REMARK VINA RESULT: -6.578874274      0.081      2.065
REMARK  13 active torsions:
REMARK  status: ('A' for Active; 'I' for Inactive)
REMARK    1  A    between atoms: O1_2  and  C2_3 
REMARK    2  A    between atoms: C4_5  and  C5_6 
REMARK    3  A    between atoms: C5_6  and  N1_7 
REMARK    4  A    between atoms: C5_6  and  C14_22 
REMARK    5  A    between atoms: N1_7  and  C6_9 
REMARK    6  A    between atoms: C6_9  and  N2_11 
REMARK    7  A    between atoms: N2_11  and  C7_13 
REMARK    8  A    between atoms: C7_13  and  C8_14 
REMARK    9  A    between atoms: C8_14  and  C9_15 
REMARK   10  A    between atoms: C9_15  and  N3_16 
REMARK   11  A    between atoms: C19_30  and  N5_31 
REMARK   12  A    between atoms: C24_36  and  O4_37 
REMARK   13  A    between atoms: C26_39  and  O5_40 
ROOT
HETATM    1  C5  UNL     1      -6.059  -7.805 -18.242  1.00  0.00     0.153 C 
ENDROOT
BRANCH   1   2
HETATM    2  C4  UNL     1      -5.687  -9.191 -17.839  1.00  0.00    -0.025 A 
HETATM    3  C3  UNL     1      -6.542  -9.965 -17.050  1.00  0.00     0.049 A 
HETATM    4  C2  UNL     1      -6.246 -11.240 -16.628  1.00  0.00     0.104 A 
HETATM    5  C26 UNL     1      -5.034 -11.809 -16.995  1.00  0.00     0.135 A 
HETATM    6  C24 UNL     1      -4.157 -11.084 -17.774  1.00  0.00     0.104 A 
HETATM    7  C23 UNL     1      -4.502  -9.795 -18.179  1.00  0.00     0.049 A 
BRANCH   4   8
HETATM    8  O1  UNL     1      -7.120 -11.980 -15.845  1.00  0.00    -0.353 OA
HETATM    9  C1  UNL     1      -8.324 -12.517 -16.370  1.00  0.00     0.210 C 
ENDBRANCH   4   8
BRANCH   5  10
HETATM   10  O5  UNL     1      -4.714 -13.082 -16.584  1.00  0.00    -0.351 OA
HETATM   11  C27 UNL     1      -3.993 -13.406 -15.425  1.00  0.00     0.210 C 
ENDBRANCH   5  10
BRANCH   6  12
HETATM   12  O4  UNL     1      -2.913 -11.588 -18.185  1.00  0.00    -0.353 OA
HETATM   13  C25 UNL     1      -1.720 -11.197 -17.556  1.00  0.00     0.210 C 
ENDBRANCH   6  12
ENDBRANCH   1   2
BRANCH   1  14
HETATM   14  N1  UNL     1      -5.899  -6.942 -17.077  1.00  0.00    -0.354 N 
ATOM     15  H1  UNL     1      -6.350  -7.204 -16.201  1.00  0.00     0.163 HD
BRANCH  14  16
HETATM   16  C6  UNL     1      -5.131  -5.745 -17.130  1.00  0.00     0.168 C 
HETATM   17  S1  UNL     1      -3.526  -5.808 -17.259  1.00  0.00    -0.041 SA
BRANCH  16  18
HETATM   18  N2  UNL     1      -5.781  -4.483 -17.060  1.00  0.00    -0.367 N 
ATOM     19  H2  UNL     1      -5.466  -3.756 -17.702  1.00  0.00     0.161 HD
BRANCH  18  20
HETATM   20  C7  UNL     1      -6.840  -4.155 -16.161  1.00  0.00     0.123 C 
BRANCH  20  21
HETATM   21  C8  UNL     1      -6.542  -4.395 -14.713  1.00  0.00     0.050 C 
BRANCH  21  22
HETATM   22  C9  UNL     1      -5.990  -3.149 -14.073  1.00  0.00     0.274 C 
BRANCH  22  23
HETATM   23  N3  UNL     1      -4.834  -3.353 -13.261  1.00  0.00     0.092 N 
HETATM   24  C10 UNL     1      -4.446  -2.239 -12.459  1.00  0.00     0.298 C 
HETATM   25  C11 UNL     1      -4.155  -1.012 -13.317  1.00  0.00     0.198 C 
HETATM   26  O2  UNL     1      -3.055  -1.332 -14.106  1.00  0.00    -0.388 OA
HETATM   27  C12 UNL     1      -3.262  -2.429 -14.906  1.00  0.00     0.198 C 
HETATM   28  C13 UNL     1      -3.721  -3.648 -14.171  1.00  0.00     0.298 C 
ENDBRANCH  22  23
ENDBRANCH  21  22
ENDBRANCH  20  21
ENDBRANCH  18  20
ENDBRANCH  16  18
ENDBRANCH  14  16
ENDBRANCH   1  14
BRANCH   1  29
HETATM   29  C14 UNL     1      -7.450  -7.667 -18.713  1.00  0.00     0.003 A 
HETATM   30  C15 UNL     1      -8.482  -7.328 -17.866  1.00  0.00     0.036 A 
HETATM   31  C16 UNL     1      -9.805  -7.191 -18.273  1.00  0.00     0.009 A 
HETATM   32  C17 UNL     1     -10.912  -6.827 -17.359  1.00  0.00     0.068 C 
HETATM   33  N4  UNL     1     -10.039  -7.410 -19.572  1.00  0.00    -0.326 N 
HETATM   34  C18 UNL     1      -9.114  -7.737 -20.459  1.00  0.00     0.273 A 
ATOM     35  H4  UNL     1     -11.000  -7.318 -19.902  1.00  0.00     0.169 HD
HETATM   36  O3  UNL     1      -9.406  -7.925 -21.646  1.00  0.00    -0.266 OA
HETATM   37  C19 UNL     1      -7.774  -7.871 -20.026  1.00  0.00     0.108 A 
BRANCH  37  38
HETATM   38  N5  UNL     1      -6.784  -8.204 -20.978  1.00  0.00    -0.376 N 
HETATM   39  C20 UNL     1      -5.863  -7.473 -21.867  1.00  0.00     0.125 C 
HETATM   40  C21 UNL     1      -6.148  -8.598 -22.875  1.00  0.00     0.040 C 
HETATM   41  C22 UNL     1      -6.236  -9.402 -21.565  1.00  0.00     0.125 C 
ENDBRANCH  37  38
ENDBRANCH   1  29
TORSDOF 13
ENDMDL
MODEL 3
REMARK VINA RESULT: -6.546388915      1.229      1.687
REMARK  13 active torsions:
REMARK  status: ('A' for Active; 'I' for Inactive)
REMARK    1  A    between atoms: O1_2  and  C2_3 
REMARK    2  A    between atoms: C4_5  and  C5_6 
REMARK    3  A    between atoms: C5_6  and  N1_7 
REMARK    4  A    between atoms: C5_6  and  C14_22 
REMARK    5  A    between atoms: N1_7  and  C6_9 
REMARK    6  A    between atoms: C6_9  and  N2_11 
REMARK    7  A    between atoms: N2_11  and  C7_13 
REMARK    8  A    between atoms: C7_13  and  C8_14 
REMARK    9  A    between atoms: C8_14  and  C9_15 
REMARK   10  A    between atoms: C9_15  and  N3_16 
REMARK   11  A    between atoms: C19_30  and  N5_31 
REMARK   12  A    between atoms: C24_36  and  O4_37 
REMARK   13  A    between atoms: C26_39  and  O5_40 
ROOT
HETATM    1  C5  UNL     1      -6.049  -7.830 -18.187  1.00  0.00     0.153 C 
ENDROOT
BRANCH   1   2
HETATM    2  C4  UNL     1      -5.710  -9.217 -17.760  1.00  0.00    -0.025 A 
HETATM    3  C3  UNL     1      -4.511  -9.819 -18.152  1.00  0.00     0.049 A 
HETATM    4  C2  UNL     1      -4.153 -11.101 -17.808  1.00  0.00     0.104 A 
HETATM    5  C26 UNL     1      -5.017 -11.859 -17.029  1.00  0.00     0.135 A 
HETATM    6  C24 UNL     1      -6.212 -11.308 -16.616  1.00  0.00     0.104 A 
HETATM    7  C23 UNL     1      -6.531 -10.003 -16.988  1.00  0.00     0.049 A 
BRANCH   4   8
HETATM    8  O1  UNL     1      -2.953 -11.667 -18.215  1.00  0.00    -0.353 OA
HETATM    9  C1  UNL     1      -1.719 -11.331 -17.600  1.00  0.00     0.210 C 
ENDBRANCH   4   8
BRANCH   5  10
HETATM   10  O5  UNL     1      -4.680 -13.145 -16.673  1.00  0.00    -0.351 OA
HETATM   11  C27 UNL     1      -4.025 -13.517 -15.490  1.00  0.00     0.210 C 
ENDBRANCH   5  10
BRANCH   6  12
HETATM   12  O4  UNL     1      -7.138 -12.009 -15.828  1.00  0.00    -0.353 OA
HETATM   13  C25 UNL     1      -8.335 -12.503 -16.369  1.00  0.00     0.210 C 
ENDBRANCH   6  12
ENDBRANCH   1   2
BRANCH   1  14
HETATM   14  N1  UNL     1      -5.870  -6.951 -17.038  1.00  0.00    -0.354 N 
ATOM     15  H1  UNL     1      -6.622  -6.872 -16.353  1.00  0.00     0.163 HD
BRANCH  14  16
HETATM   16  C6  UNL     1      -4.675  -6.202 -16.844  1.00  0.00     0.168 C 
HETATM   17  S1  UNL     1      -3.615  -6.029 -18.045  1.00  0.00    -0.041 SA
BRANCH  16  18
HETATM   18  N2  UNL     1      -4.409  -5.608 -15.582  1.00  0.00    -0.367 N 
ATOM     19  H2  UNL     1      -5.173  -5.577 -14.906  1.00  0.00     0.161 HD
BRANCH  18  20
HETATM   20  C7  UNL     1      -3.156  -5.051 -15.186  1.00  0.00     0.123 C 
BRANCH  20  21
HETATM   21  C8  UNL     1      -3.244  -3.753 -14.443  1.00  0.00     0.050 C 
BRANCH  21  22
HETATM   22  C9  UNL     1      -4.638  -3.192 -14.519  1.00  0.00     0.274 C 
BRANCH  22  23
HETATM   23  N3  UNL     1      -4.746  -1.943 -15.201  1.00  0.00     0.092 N 
HETATM   24  C10 UNL     1      -5.753  -1.061 -14.706  1.00  0.00     0.298 C 
HETATM   25  C11 UNL     1      -7.134  -1.704 -14.768  1.00  0.00     0.198 C 
HETATM   26  O2  UNL     1      -7.416  -1.906 -16.116  1.00  0.00    -0.388 OA
HETATM   27  C12 UNL     1      -6.495  -2.705 -16.748  1.00  0.00     0.198 C 
HETATM   28  C13 UNL     1      -5.079  -2.248 -16.598  1.00  0.00     0.298 C 
ENDBRANCH  22  23
ENDBRANCH  21  22
ENDBRANCH  20  21
ENDBRANCH  18  20
ENDBRANCH  16  18
ENDBRANCH  14  16
ENDBRANCH   1  14
BRANCH   1  29
HETATM   29  C14 UNL     1      -7.436  -7.669 -18.662  1.00  0.00     0.003 A 
HETATM   30  C15 UNL     1      -8.465  -7.311 -17.818  1.00  0.00     0.036 A 
HETATM   31  C16 UNL     1      -9.784  -7.151 -18.229  1.00  0.00     0.009 A 
HETATM   32  C17 UNL     1     -10.887  -6.767 -17.318  1.00  0.00     0.068 C 
HETATM   33  N4  UNL     1     -10.018  -7.368 -19.528  1.00  0.00    -0.326 N 
HETATM   34  C18 UNL     1      -9.097  -7.713 -20.412  1.00  0.00     0.273 A 
ATOM     35  H4  UNL     1     -10.977  -7.260 -19.860  1.00  0.00     0.169 HD
HETATM   36  O3  UNL     1      -9.389  -7.897 -21.599  1.00  0.00    -0.266 OA
HETATM   37  C19 UNL     1      -7.761  -7.870 -19.975  1.00  0.00     0.108 A 
BRANCH  37  38
HETATM   38  N5  UNL     1      -6.775  -8.220 -20.925  1.00  0.00    -0.376 N 
HETATM   39  C20 UNL     1      -5.846  -7.508 -21.820  1.00  0.00     0.125 C 
HETATM   40  C21 UNL     1      -6.143  -8.638 -22.818  1.00  0.00     0.040 C 
HETATM   41  C22 UNL     1      -6.239  -9.430 -21.500  1.00  0.00     0.125 C 
ENDBRANCH  37  38
ENDBRANCH   1  29
TORSDOF 13
ENDMDL
MODEL 4
REMARK VINA RESULT: -6.541270622      2.688      7.496
REMARK  13 active torsions:
REMARK  status: ('A' for Active; 'I' for Inactive)
REMARK    1  A    between atoms: O1_2  and  C2_3 
REMARK    2  A    between atoms: C4_5  and  C5_6 
REMARK    3  A    between atoms: C5_6  and  N1_7 
REMARK    4  A    between atoms: C5_6  and  C14_22 
REMARK    5  A    between atoms: N1_7  and  C6_9 
REMARK    6  A    between atoms: C6_9  and  N2_11 
REMARK    7  A    between atoms: N2_11  and  C7_13 
REMARK    8  A    between atoms: C7_13  and  C8_14 
REMARK    9  A    between atoms: C8_14  and  C9_15 
REMARK   10  A    between atoms: C9_15  and  N3_16 
REMARK   11  A    between atoms: C19_30  and  N5_31 
REMARK   12  A    between atoms: C24_36  and  O4_37 
REMARK   13  A    between atoms: C26_39  and  O5_40 
ROOT
HETATM    1  C5  UNL     1      -5.754  -7.469 -17.559  1.00  0.00     0.153 C 
ENDROOT
BRANCH   1   2
HETATM    2  C4  UNL     1      -5.210  -6.124 -17.217  1.00  0.00    -0.025 A 
HETATM    3  C3  UNL     1      -3.832  -5.899 -17.159  1.00  0.00     0.049 A 
HETATM    4  C2  UNL     1      -3.271  -4.688 -16.828  1.00  0.00     0.104 A 
HETATM    5  C26 UNL     1      -4.102  -3.616 -16.531  1.00  0.00     0.135 A 
HETATM    6  C24 UNL     1      -5.469  -3.790 -16.576  1.00  0.00     0.104 A 
HETATM    7  C23 UNL     1      -5.993  -5.035 -16.918  1.00  0.00     0.049 A 
BRANCH   4   8
HETATM    8  O1  UNL     1      -1.897  -4.499 -16.780  1.00  0.00    -0.353 OA
HETATM    9  C1  UNL     1      -1.139  -4.806 -15.620  1.00  0.00     0.210 C 
ENDBRANCH   4   8
BRANCH   5  10
HETATM   10  O5  UNL     1      -3.563  -2.395 -16.196  1.00  0.00    -0.351 OA
HETATM   11  C27 UNL     1      -3.355  -1.929 -14.889  1.00  0.00     0.210 C 
ENDBRANCH   5  10
BRANCH   6  12
HETATM   12  O4  UNL     1      -6.375  -2.757 -16.288  1.00  0.00    -0.353 OA
HETATM   13  C25 UNL     1      -7.733  -3.018 -16.051  1.00  0.00     0.210 C 
ENDBRANCH   6  12
ENDBRANCH   1   2
BRANCH   1  14
HETATM   14  N1  UNL     1      -4.628  -8.384 -17.704  1.00  0.00    -0.354 N 
ATOM     15  H1  UNL     1      -3.701  -8.003 -17.890  1.00  0.00     0.163 HD
BRANCH  14  16
HETATM   16  C6  UNL     1      -4.788  -9.794 -17.593  1.00  0.00     0.168 C 
HETATM   17  S1  UNL     1      -3.999 -10.787 -18.587  1.00  0.00    -0.041 SA
BRANCH  16  18
HETATM   18  N2  UNL     1      -5.653 -10.333 -16.604  1.00  0.00    -0.367 N 
ATOM     19  H2  UNL     1      -6.472  -9.783 -16.346  1.00  0.00     0.161 HD
BRANCH  18  20
HETATM   20  C7  UNL     1      -5.464 -11.584 -15.943  1.00  0.00     0.123 C 
BRANCH  20  21
HETATM   21  C8  UNL     1      -6.640 -12.510 -15.987  1.00  0.00     0.050 C 
BRANCH  21  22
HETATM   22  C9  UNL     1      -7.779 -11.885 -16.747  1.00  0.00     0.274 C 
BRANCH  22  23
HETATM   23  N3  UNL     1      -8.333 -12.702 -17.778  1.00  0.00     0.092 N 
HETATM   24  C10 UNL     1      -7.708 -12.581 -19.056  1.00  0.00     0.298 C 
HETATM   25  C11 UNL     1      -7.765 -11.146 -19.569  1.00  0.00     0.198 C 
HETATM   26  O2  UNL     1      -9.111 -10.847 -19.759  1.00  0.00    -0.388 OA
HETATM   27  C12 UNL     1      -9.860 -10.969 -18.614  1.00  0.00     0.198 C 
HETATM   28  C13 UNL     1      -9.735 -12.296 -17.936  1.00  0.00     0.298 C 
ENDBRANCH  22  23
ENDBRANCH  21  22
ENDBRANCH  20  21
ENDBRANCH  18  20
ENDBRANCH  16  18
ENDBRANCH  14  16
ENDBRANCH   1  14
BRANCH   1  29
HETATM   29  C14 UNL     1      -6.525  -7.506 -18.817  1.00  0.00     0.003 A 
HETATM   30  C15 UNL     1      -5.915  -7.578 -20.050  1.00  0.00     0.036 A 
HETATM   31  C16 UNL     1      -6.607  -7.613 -21.256  1.00  0.00     0.009 A 
HETATM   32  C17 UNL     1      -5.948  -7.690 -22.580  1.00  0.00     0.068 C 
HETATM   33  N4  UNL     1      -7.941  -7.570 -21.161  1.00  0.00    -0.326 N 
HETATM   34  C18 UNL     1      -8.614  -7.501 -20.024  1.00  0.00     0.273 A 
ATOM     35  H4  UNL     1      -8.478  -7.592 -22.028  1.00  0.00     0.169 HD
HETATM   36  O3  UNL     1      -9.850  -7.465 -20.015  1.00  0.00    -0.266 OA
HETATM   37  C19 UNL     1      -7.892  -7.468 -18.808  1.00  0.00     0.108 A 
BRANCH  37  38
HETATM   38  N5  UNL     1      -8.612  -7.413 -17.594  1.00  0.00    -0.376 N 
HETATM   39  C20 UNL     1      -9.514  -6.459 -16.925  1.00  0.00     0.125 C 
HETATM   40  C21 UNL     1      -8.825  -6.913 -15.628  1.00  0.00     0.040 C 
HETATM   41  C22 UNL     1      -8.776  -8.234 -16.419  1.00  0.00     0.125 C 
ENDBRANCH  37  38
ENDBRANCH   1  29
TORSDOF 13
ENDMDL
MODEL 5
REMARK VINA RESULT: -6.531731468      1.226      1.580
REMARK  13 active torsions:
REMARK  status: ('A' for Active; 'I' for Inactive)
REMARK    1  A    between atoms: O1_2  and  C2_3 
REMARK    2  A    between atoms: C4_5  and  C5_6 
REMARK    3  A    between atoms: C5_6  and  N1_7 
REMARK    4  A    between atoms: C5_6  and  C14_22 
REMARK    5  A    between atoms: N1_7  and  C6_9 
REMARK    6  A    between atoms: C6_9  and  N2_11 
REMARK    7  A    between atoms: N2_11  and  C7_13 
REMARK    8  A    between atoms: C7_13  and  C8_14 
REMARK    9  A    between atoms: C8_14  and  C9_15 
REMARK   10  A    between atoms: C9_15  and  N3_16 
REMARK   11  A    between atoms: C19_30  and  N5_31 
REMARK   12  A    between atoms: C24_36  and  O4_37 
REMARK   13  A    between atoms: C26_39  and  O5_40 
ROOT
HETATM    1  C5  UNL     1      -6.150  -7.817 -18.087  1.00  0.00     0.153 C 
ENDROOT
BRANCH   1   2
HETATM    2  C4  UNL     1      -5.807  -9.211 -17.685  1.00  0.00    -0.025 A 
HETATM    3  C3  UNL     1      -4.596  -9.793 -18.067  1.00  0.00     0.049 A 
HETATM    4  C2  UNL     1      -4.234 -11.080 -17.746  1.00  0.00     0.104 A 
HETATM    5  C26 UNL     1      -5.107 -11.863 -17.002  1.00  0.00     0.135 A 
HETATM    6  C24 UNL     1      -6.314 -11.331 -16.601  1.00  0.00     0.104 A 
HETATM    7  C23 UNL     1      -6.637 -10.020 -16.948  1.00  0.00     0.049 A 
BRANCH   4   8
HETATM    8  O1  UNL     1      -3.021 -11.627 -18.143  1.00  0.00    -0.353 OA
HETATM    9  C1  UNL     1      -1.787 -11.182 -17.603  1.00  0.00     0.210 C 
ENDBRANCH   4   8
BRANCH   5  10
HETATM   10  O5  UNL     1      -4.766 -13.154 -16.670  1.00  0.00    -0.351 OA
HETATM   11  C27 UNL     1      -4.093 -13.543 -15.503  1.00  0.00     0.210 C 
ENDBRANCH   5  10
BRANCH   6  12
HETATM   12  O4  UNL     1      -7.249 -12.058 -15.848  1.00  0.00    -0.353 OA
HETATM   13  C25 UNL     1      -8.415 -12.577 -16.431  1.00  0.00     0.210 C 
ENDBRANCH   6  12
ENDBRANCH   1   2
BRANCH   1  14
HETATM   14  N1  UNL     1      -6.026  -6.968 -16.908  1.00  0.00    -0.354 N 
ATOM     15  H1  UNL     1      -6.634  -7.140 -16.107  1.00  0.00     0.163 HD
BRANCH  14  16
HETATM   16  C6  UNL     1      -5.081  -5.905 -16.843  1.00  0.00     0.168 C 
HETATM   17  S1  UNL     1      -3.600  -6.162 -16.263  1.00  0.00    -0.041 SA
BRANCH  16  18
HETATM   18  N2  UNL     1      -5.445  -4.606 -17.287  1.00  0.00    -0.367 N 
ATOM     19  H2  UNL     1      -5.027  -4.271 -18.155  1.00  0.00     0.161 HD
BRANCH  18  20
HETATM   20  C7  UNL     1      -6.350  -3.733 -16.612  1.00  0.00     0.123 C 
BRANCH  20  21
HETATM   21  C8  UNL     1      -5.959  -2.287 -16.614  1.00  0.00     0.050 C 
BRANCH  21  22
HETATM   22  C9  UNL     1      -5.447  -1.875 -15.260  1.00  0.00     0.274 C 
BRANCH  22  23
HETATM   23  N3  UNL     1      -5.838  -0.568 -14.842  1.00  0.00     0.092 N 
HETATM   24  C10 UNL     1      -5.139  -0.053 -13.710  1.00  0.00     0.298 C 
HETATM   25  C11 UNL     1      -5.306  -0.959 -12.495  1.00  0.00     0.198 C 
HETATM   26  O2  UNL     1      -6.658  -0.936 -12.167  1.00  0.00    -0.388 OA
HETATM   27  C12 UNL     1      -7.471  -1.363 -13.188  1.00  0.00     0.198 C 
HETATM   28  C13 UNL     1      -7.260  -0.644 -14.483  1.00  0.00     0.298 C 
ENDBRANCH  22  23
ENDBRANCH  21  22
ENDBRANCH  20  21
ENDBRANCH  18  20
ENDBRANCH  16  18
ENDBRANCH  14  16
ENDBRANCH   1  14
BRANCH   1  29
HETATM   29  C14 UNL     1      -7.521  -7.660 -18.608  1.00  0.00     0.003 A 
HETATM   30  C15 UNL     1      -8.577  -7.295 -17.802  1.00  0.00     0.036 A 
HETATM   31  C16 UNL     1      -9.882  -7.139 -18.258  1.00  0.00     0.009 A 
HETATM   32  C17 UNL     1     -11.014  -6.748 -17.387  1.00  0.00     0.068 C 
HETATM   33  N4  UNL     1     -10.073  -7.368 -19.562  1.00  0.00    -0.326 N 
HETATM   34  C18 UNL     1      -9.123  -7.720 -20.412  1.00  0.00     0.273 A 
ATOM     35  H4  UNL     1     -11.020  -7.263 -19.927  1.00  0.00     0.169 HD
HETATM   36  O3  UNL     1      -9.376  -7.915 -21.607  1.00  0.00    -0.266 OA
HETATM   37  C19 UNL     1      -7.802  -7.872 -19.930  1.00  0.00     0.108 A 
BRANCH  37  38
HETATM   38  N5  UNL     1      -6.785  -8.231 -20.843  1.00  0.00    -0.376 N 
HETATM   39  C20 UNL     1      -5.819  -7.526 -21.704  1.00  0.00     0.125 C 
HETATM   40  C21 UNL     1      -6.088  -8.654 -22.713  1.00  0.00     0.040 C 
HETATM   41  C22 UNL     1      -6.238  -9.445 -21.399  1.00  0.00     0.125 C 
ENDBRANCH  37  38
ENDBRANCH   1  29
TORSDOF 13
ENDMDL
