MODEL 1
REMARK VINA RESULT: -8.750479554      0.000      0.000
REMARK  14 active torsions:
REMARK  status: ('A' for Active; 'I' for Inactive)
REMARK    1  A    between atoms: C2_2  and  N2_6 
REMARK    2  A    between atoms: C5_9  and  O1_10 
REMARK    3  A    between atoms: C7_13  and  C8_14 
REMARK       I    between atoms: C8_14  and  N4_16 
REMARK    4  A    between atoms: N4_16  and  C9_18 
REMARK    5  A    between atoms: C9_18  and  C10_19 
REMARK    6  A    between atoms: C9_18  and  C17_26 
REMARK    7  A    between atoms: C10_19  and  C11_20 
REMARK       I    between atoms: C17_26  and  N5_28 
REMARK    8  A    between atoms: C18_30  and  C19_31 
REMARK    9  A    between atoms: C18_30  and  C22_36 
REMARK   10  A    between atoms: C19_31  and  C20_32 
REMARK   11  A    between atoms: C20_32  and  C21_33 
REMARK   12  A    between atoms: C22_36  and  C23_37 
REMARK   13  A    between atoms: C23_37  and  O7_39 
REMARK   14  A    between atoms: O7_39  and  C24_40 
ROOT
HETATM    1  O1  UNL     1      -4.811   2.988  -9.913  1.00  0.00    -0.275 OA
HETATM    2  C6  UNL     1      -6.067   3.368  -9.564  1.00  0.00     0.229 C 
HETATM    3  N3  UNL     1      -7.133   3.699  -9.256  1.00  0.00    -0.164 NA
ENDROOT
BRANCH   1   4
HETATM    4  C5  UNL     1      -4.156   3.625 -10.968  1.00  0.00     0.175 C 
HETATM    5  C4  UNL     1      -3.052   4.472 -10.286  1.00  0.00     0.056 C 
HETATM    6  C3  UNL     1      -2.324   3.316  -9.571  1.00  0.00     0.128 C 
HETATM    7  N2  UNL     1      -2.198   2.385 -10.673  1.00  0.00    -0.355 N 
HETATM    8  C7  UNL     1      -3.217   2.625 -11.684  1.00  0.00     0.208 C 
BRANCH   7   9
HETATM    9  C2  UNL     1      -1.210   1.380 -10.778  1.00  0.00     0.069 C 
HETATM   10  C1  UNL     1      -0.105   1.356 -11.755  1.00  0.00     0.088 C 
HETATM   11  N1  UNL     1      -1.313   0.390  -9.924  1.00  0.00    -0.389 N 
ATOM     12  H12 UNL     1      -0.600  -0.336 -10.000  1.00  0.00     0.157 HD
ATOM     13  H11 UNL     1      -2.077   0.406  -9.249  1.00  0.00     0.157 HD
ENDBRANCH   7   9
BRANCH   8  14
HETATM   14  C8  UNL     1      -3.975   1.409 -12.051  1.00  0.00     0.243 C 
HETATM   15  O2  UNL     1      -3.954   0.399 -11.296  1.00  0.00    -0.271 OA
HETATM   16  N4  UNL     1      -4.721   1.379 -13.249  1.00  0.00    -0.346 N 
ATOM     17  H4  UNL     1      -4.736   2.196 -13.859  1.00  0.00     0.163 HD
BRANCH  16  18
HETATM   18  C9  UNL     1      -5.457   0.208 -13.608  1.00  0.00     0.177 C 
BRANCH  18  19
HETATM   19  C10 UNL     1      -6.917   0.349 -13.789  1.00  0.00     0.044 C 
BRANCH  19  20
HETATM   20  C11 UNL     1      -7.734   0.944 -12.727  1.00  0.00    -0.042 C 
HETATM   21  C12 UNL     1      -7.924   2.412 -12.709  1.00  0.00     0.015 C 
HETATM   22  C13 UNL     1      -9.133   0.316 -12.829  1.00  0.00     0.009 C 
HETATM   23  C14 UNL     1      -9.757   0.523 -11.471  1.00  0.00     0.001 C 
HETATM   24  C15 UNL     1      -8.606   0.432 -10.523  1.00  0.00     0.001 C 
HETATM   25  C16 UNL     1      -7.346   0.508 -11.330  1.00  0.00     0.009 C 
ENDBRANCH  19  20
ENDBRANCH  18  19
BRANCH  18  26
HETATM   26  C17 UNL     1      -4.932  -0.216 -14.966  1.00  0.00     0.244 C 
HETATM   27  O3  UNL     1      -3.967   0.395 -15.449  1.00  0.00    -0.271 OA
HETATM   28  N5  UNL     1      -5.526  -1.271 -15.650  1.00  0.00    -0.332 N 
HETATM   29  C18 UNL     1      -5.097  -2.490 -15.522  1.00  0.00    -0.001 C 
ATOM     30  H5  UNL     1      -6.318  -1.083 -16.266  1.00  0.00     0.168 HD
BRANCH  29  31
HETATM   31  C19 UNL     1      -3.969  -2.757 -14.642  1.00  0.00     0.063 C 
BRANCH  31  32
HETATM   32  C20 UNL     1      -2.709  -3.007 -15.399  1.00  0.00     0.119 C 
BRANCH  32  33
HETATM   33  C21 UNL     1      -1.945  -4.166 -14.814  1.00  0.00     0.172 C 
HETATM   34  O4  UNL     1      -2.460  -4.796 -13.884  1.00  0.00    -0.648 OA
HETATM   35  O5  UNL     1      -0.719  -4.496 -15.309  1.00  0.00    -0.648 OA
ENDBRANCH  32  33
ENDBRANCH  31  32
ENDBRANCH  29  31
BRANCH  29  36
HETATM   36  C22 UNL     1      -5.809  -3.509 -16.294  1.00  0.00     0.163 C 
BRANCH  36  37
HETATM   37  C23 UNL     1      -7.254  -3.600 -16.146  1.00  0.00     0.264 C 
HETATM   38  O6  UNL     1      -8.015  -2.754 -16.714  1.00  0.00    -0.265 OA
BRANCH  37  39
HETATM   39  O7  UNL     1      -7.911  -4.566 -15.407  1.00  0.00    -0.311 OA
BRANCH  39  40
HETATM   40  C24 UNL     1      -8.507  -5.721 -15.875  1.00  0.00     0.060 C 
HETATM   41  C25 UNL     1      -8.703  -6.637 -14.655  1.00  0.00     0.045 C 
HETATM   42  C26 UNL     1      -9.879  -5.528 -16.469  1.00  0.00     0.045 C 
HETATM   43  C27 UNL     1      -7.669  -6.457 -16.888  1.00  0.00     0.045 C 
ENDBRANCH  39  40
ENDBRANCH  37  39
ENDBRANCH  36  37
ENDBRANCH  29  36
ENDBRANCH  18  26
ENDBRANCH  16  18
ENDBRANCH   8  14
ENDBRANCH   1   4
TORSDOF 14
ENDMDL
MODEL 2
REMARK VINA RESULT: -8.726083983      2.738      5.126
REMARK  14 active torsions:
REMARK  status: ('A' for Active; 'I' for Inactive)
REMARK    1  A    between atoms: C2_2  and  N2_6 
REMARK    2  A    between atoms: C5_9  and  O1_10 
REMARK    3  A    between atoms: C7_13  and  C8_14 
REMARK       I    between atoms: C8_14  and  N4_16 
REMARK    4  A    between atoms: N4_16  and  C9_18 
REMARK    5  A    between atoms: C9_18  and  C10_19 
REMARK    6  A    between atoms: C9_18  and  C17_26 
REMARK    7  A    between atoms: C10_19  and  C11_20 
REMARK       I    between atoms: C17_26  and  N5_28 
REMARK    8  A    between atoms: C18_30  and  C19_31 
REMARK    9  A    between atoms: C18_30  and  C22_36 
REMARK   10  A    between atoms: C19_31  and  C20_32 
REMARK   11  A    between atoms: C20_32  and  C21_33 
REMARK   12  A    between atoms: C22_36  and  C23_37 
REMARK   13  A    between atoms: C23_37  and  O7_39 
REMARK   14  A    between atoms: O7_39  and  C24_40 
ROOT
HETATM    1  O1  UNL     1      -6.712   1.789  -6.551  1.00  0.00    -0.275 OA
HETATM    2  C6  UNL     1      -7.154   0.812  -5.719  1.00  0.00     0.229 C 
HETATM    3  N3  UNL     1      -7.520  -0.022  -5.004  1.00  0.00    -0.164 NA
ENDROOT
BRANCH   1   4
HETATM    4  C5  UNL     1      -7.068   3.119  -6.319  1.00  0.00     0.175 C 
HETATM    5  C4  UNL     1      -6.283   3.515  -5.043  1.00  0.00     0.056 C 
HETATM    6  C3  UNL     1      -4.867   3.226  -5.580  1.00  0.00     0.128 C 
HETATM    7  N2  UNL     1      -4.938   3.918  -6.850  1.00  0.00    -0.355 N 
HETATM    8  C7  UNL     1      -6.314   4.044  -7.304  1.00  0.00     0.208 C 
BRANCH   7   9
HETATM    9  C2  UNL     1      -3.828   4.428  -7.561  1.00  0.00     0.069 C 
HETATM   10  C1  UNL     1      -3.542   5.855  -7.804  1.00  0.00     0.088 C 
HETATM   11  N1  UNL     1      -2.998   3.532  -8.040  1.00  0.00    -0.389 N 
ATOM     12  H12 UNL     1      -2.197   3.900  -8.552  1.00  0.00     0.157 HD
ATOM     13  H11 UNL     1      -3.196   2.546  -7.871  1.00  0.00     0.157 HD
ENDBRANCH   7   9
BRANCH   8  14
HETATM   14  C8  UNL     1      -6.520   3.566  -8.688  1.00  0.00     0.243 C 
HETATM   15  O2  UNL     1      -7.365   4.134  -9.434  1.00  0.00    -0.271 OA
HETATM   16  N4  UNL     1      -5.774   2.472  -9.176  1.00  0.00    -0.346 N 
ATOM     17  H4  UNL     1      -5.093   2.012  -8.572  1.00  0.00     0.163 HD
BRANCH  16  18
HETATM   18  C9  UNL     1      -5.968   2.007 -10.513  1.00  0.00     0.177 C 
BRANCH  18  19
HETATM   19  C10 UNL     1      -7.205   2.423 -11.206  1.00  0.00     0.044 C 
BRANCH  19  20
HETATM   20  C11 UNL     1      -7.915   1.477 -12.071  1.00  0.00    -0.042 C 
HETATM   21  C12 UNL     1      -7.958   1.733 -13.529  1.00  0.00     0.015 C 
HETATM   22  C13 UNL     1      -7.250   0.105 -11.881  1.00  0.00     0.009 C 
HETATM   23  C14 UNL     1      -8.281  -0.899 -12.333  1.00  0.00     0.001 C 
HETATM   24  C15 UNL     1      -9.585  -0.277 -11.956  1.00  0.00     0.001 C 
HETATM   25  C16 UNL     1      -9.323   1.157 -11.613  1.00  0.00     0.009 C 
ENDBRANCH  19  20
ENDBRANCH  18  19
BRANCH  18  26
HETATM   26  C17 UNL     1      -4.838   2.602 -11.331  1.00  0.00     0.244 C 
HETATM   27  O3  UNL     1      -4.271   3.622 -10.911  1.00  0.00    -0.271 OA
HETATM   28  N5  UNL     1      -4.453   2.011 -12.530  1.00  0.00    -0.332 N 
HETATM   29  C18 UNL     1      -3.511   1.118 -12.573  1.00  0.00    -0.001 C 
ATOM     30  H5  UNL     1      -4.922   2.284 -13.394  1.00  0.00     0.168 HD
BRANCH  29  31
HETATM   31  C19 UNL     1      -2.844   0.728 -11.339  1.00  0.00     0.063 C 
BRANCH  31  32
HETATM   32  C20 UNL     1      -1.375   0.971 -11.390  1.00  0.00     0.119 C 
BRANCH  32  33
HETATM   33  C21 UNL     1      -1.048   2.405 -11.061  1.00  0.00     0.172 C 
HETATM   34  O4  UNL     1      -0.878   2.707  -9.875  1.00  0.00    -0.648 OA
HETATM   35  O5  UNL     1      -0.948   3.329 -12.057  1.00  0.00    -0.648 OA
ENDBRANCH  32  33
ENDBRANCH  31  32
ENDBRANCH  29  31
BRANCH  29  36
HETATM   36  C22 UNL     1      -3.201   0.572 -13.894  1.00  0.00     0.163 C 
BRANCH  36  37
HETATM   37  C23 UNL     1      -4.264  -0.096 -14.630  1.00  0.00     0.264 C 
HETATM   38  O6  UNL     1      -4.494   0.203 -15.845  1.00  0.00    -0.265 OA
BRANCH  37  39
HETATM   39  O7  UNL     1      -5.092  -1.071 -14.107  1.00  0.00    -0.311 OA
BRANCH  39  40
HETATM   40  C24 UNL     1      -4.756  -2.368 -13.771  1.00  0.00     0.060 C 
HETATM   41  C25 UNL     1      -5.974  -3.240 -14.118  1.00  0.00     0.045 C 
HETATM   42  C26 UNL     1      -3.602  -2.944 -14.552  1.00  0.00     0.045 C 
HETATM   43  C27 UNL     1      -4.450  -2.545 -12.307  1.00  0.00     0.045 C 
ENDBRANCH  39  40
ENDBRANCH  37  39
ENDBRANCH  36  37
ENDBRANCH  29  36
ENDBRANCH  18  26
ENDBRANCH  16  18
ENDBRANCH   8  14
ENDBRANCH   1   4
TORSDOF 14
ENDMDL
MODEL 3
REMARK VINA RESULT: -8.705366322      1.680      4.443
REMARK  14 active torsions:
REMARK  status: ('A' for Active; 'I' for Inactive)
REMARK    1  A    between atoms: C2_2  and  N2_6 
REMARK    2  A    between atoms: C5_9  and  O1_10 
REMARK    3  A    between atoms: C7_13  and  C8_14 
REMARK       I    between atoms: C8_14  and  N4_16 
REMARK    4  A    between atoms: N4_16  and  C9_18 
REMARK    5  A    between atoms: C9_18  and  C10_19 
REMARK    6  A    between atoms: C9_18  and  C17_26 
REMARK    7  A    between atoms: C10_19  and  C11_20 
REMARK       I    between atoms: C17_26  and  N5_28 
REMARK    8  A    between atoms: C18_30  and  C19_31 
REMARK    9  A    between atoms: C18_30  and  C22_36 
REMARK   10  A    between atoms: C19_31  and  C20_32 
REMARK   11  A    between atoms: C20_32  and  C21_33 
REMARK   12  A    between atoms: C22_36  and  C23_37 
REMARK   13  A    between atoms: C23_37  and  O7_39 
REMARK   14  A    between atoms: O7_39  and  C24_40 
ROOT
HETATM    1  O1  UNL     1      -6.003   3.300  -9.415  1.00  0.00    -0.275 OA
HETATM    2  C6  UNL     1      -4.997   4.008  -8.842  1.00  0.00     0.229 C 
HETATM    3  N3  UNL     1      -4.147   4.617  -8.345  1.00  0.00    -0.164 NA
ENDROOT
BRANCH   1   4
HETATM    4  C5  UNL     1      -6.142   1.937  -9.144  1.00  0.00     0.175 C 
HETATM    5  C4  UNL     1      -7.500   1.824  -8.405  1.00  0.00     0.056 C 
HETATM    6  C3  UNL     1      -8.382   2.438  -9.511  1.00  0.00     0.128 C 
HETATM    7  N2  UNL     1      -7.908   1.685 -10.652  1.00  0.00    -0.355 N 
HETATM    8  C7  UNL     1      -6.560   1.186 -10.431  1.00  0.00     0.208 C 
BRANCH   7   9
HETATM    9  C2  UNL     1      -8.651   1.439 -11.830  1.00  0.00     0.069 C 
HETATM   10  C1  UNL     1      -9.405   0.208 -12.132  1.00  0.00     0.088 C 
HETATM   11  N1  UNL     1      -8.648   2.406 -12.716  1.00  0.00    -0.389 N 
ATOM     12  H12 UNL     1      -9.184   2.229 -13.566  1.00  0.00     0.157 HD
ATOM     13  H11 UNL     1      -8.126   3.257 -12.507  1.00  0.00     0.157 HD
ENDBRANCH   7   9
BRANCH   8  14
HETATM   14  C8  UNL     1      -5.623   1.521 -11.526  1.00  0.00     0.243 C 
HETATM   15  O2  UNL     1      -5.667   2.659 -12.068  1.00  0.00    -0.271 OA
HETATM   16  N4  UNL     1      -4.682   0.566 -11.966  1.00  0.00    -0.346 N 
ATOM     17  H4  UNL     1      -4.650  -0.355 -11.528  1.00  0.00     0.163 HD
BRANCH  16  18
HETATM   18  C9  UNL     1      -3.775   0.884 -13.023  1.00  0.00     0.177 C 
BRANCH  18  19
HETATM   19  C10 UNL     1      -2.348   0.557 -12.817  1.00  0.00     0.044 C 
BRANCH  19  20
HETATM   20  C11 UNL     1      -1.499   1.443 -12.016  1.00  0.00    -0.042 C 
HETATM   21  C12 UNL     1      -0.116   1.712 -12.470  1.00  0.00     0.015 C 
HETATM   22  C13 UNL     1      -2.214   2.802 -11.938  1.00  0.00     0.009 C 
HETATM   23  C14 UNL     1      -1.627   3.486 -10.728  1.00  0.00     0.001 C 
HETATM   24  C15 UNL     1      -1.340   2.368  -9.780  1.00  0.00     0.001 C 
HETATM   25  C16 UNL     1      -1.445   1.084 -10.546  1.00  0.00     0.009 C 
ENDBRANCH  19  20
ENDBRANCH  18  19
BRANCH  18  26
HETATM   26  C17 UNL     1      -4.204   0.046 -14.211  1.00  0.00     0.244 C 
HETATM   27  O3  UNL     1      -3.530   0.097 -15.251  1.00  0.00    -0.271 OA
HETATM   28  N5  UNL     1      -5.333  -0.762 -14.128  1.00  0.00    -0.332 N 
HETATM   29  C18 UNL     1      -5.251  -2.005 -13.758  1.00  0.00    -0.001 C 
ATOM     30  H5  UNL     1      -6.245  -0.370 -14.362  1.00  0.00     0.168 HD
BRANCH  29  31
HETATM   31  C19 UNL     1      -3.950  -2.563 -13.423  1.00  0.00     0.063 C 
BRANCH  31  32
HETATM   32  C20 UNL     1      -3.632  -3.777 -14.227  1.00  0.00     0.119 C 
BRANCH  32  33
HETATM   33  C21 UNL     1      -2.429  -3.547 -15.105  1.00  0.00     0.172 C 
HETATM   34  O4  UNL     1      -1.339  -3.995 -14.731  1.00  0.00    -0.648 OA
HETATM   35  O5  UNL     1      -2.557  -2.863 -16.276  1.00  0.00    -0.648 OA
ENDBRANCH  32  33
ENDBRANCH  31  32
ENDBRANCH  29  31
BRANCH  29  36
HETATM   36  C22 UNL     1      -6.512  -2.746 -13.710  1.00  0.00     0.163 C 
BRANCH  36  37
HETATM   37  C23 UNL     1      -7.317  -2.815 -14.921  1.00  0.00     0.264 C 
HETATM   38  O6  UNL     1      -7.108  -2.007 -15.881  1.00  0.00    -0.265 OA
BRANCH  37  39
HETATM   39  O7  UNL     1      -8.339  -3.720 -15.137  1.00  0.00    -0.311 OA
BRANCH  39  40
HETATM   40  C24 UNL     1      -8.228  -5.022 -15.585  1.00  0.00     0.060 C 
HETATM   41  C25 UNL     1      -9.467  -5.292 -16.456  1.00  0.00     0.045 C 
HETATM   42  C26 UNL     1      -7.037  -5.287 -16.470  1.00  0.00     0.045 C 
HETATM   43  C27 UNL     1      -8.205  -6.037 -14.472  1.00  0.00     0.045 C 
ENDBRANCH  39  40
ENDBRANCH  37  39
ENDBRANCH  36  37
ENDBRANCH  29  36
ENDBRANCH  18  26
ENDBRANCH  16  18
ENDBRANCH   8  14
ENDBRANCH   1   4
TORSDOF 14
ENDMDL
MODEL 4
REMARK VINA RESULT: -8.669299468      0.989      1.336
REMARK  14 active torsions:
REMARK  status: ('A' for Active; 'I' for Inactive)
REMARK    1  A    between atoms: C2_2  and  N2_6 
REMARK    2  A    between atoms: C5_9  and  O1_10 
REMARK    3  A    between atoms: C7_13  and  C8_14 
REMARK       I    between atoms: C8_14  and  N4_16 
REMARK    4  A    between atoms: N4_16  and  C9_18 
REMARK    5  A    between atoms: C9_18  and  C10_19 
REMARK    6  A    between atoms: C9_18  and  C17_26 
REMARK    7  A    between atoms: C10_19  and  C11_20 
REMARK       I    between atoms: C17_26  and  N5_28 
REMARK    8  A    between atoms: C18_30  and  C19_31 
REMARK    9  A    between atoms: C18_30  and  C22_36 
REMARK   10  A    between atoms: C19_31  and  C20_32 
REMARK   11  A    between atoms: C20_32  and  C21_33 
REMARK   12  A    between atoms: C22_36  and  C23_37 
REMARK   13  A    between atoms: C23_37  and  O7_39 
REMARK   14  A    between atoms: O7_39  and  C24_40 
ROOT
HETATM    1  O1  UNL     1      -5.326   2.545 -10.697  1.00  0.00    -0.275 OA
HETATM    2  C6  UNL     1      -6.350   3.166 -10.058  1.00  0.00     0.229 C 
HETATM    3  N3  UNL     1      -7.216   3.699  -9.503  1.00  0.00    -0.164 NA
ENDROOT
BRANCH   1   4
HETATM    4  C5  UNL     1      -4.672   3.182 -11.754  1.00  0.00     0.175 C 
HETATM    5  C4  UNL     1      -3.734   4.208 -11.068  1.00  0.00     0.056 C 
HETATM    6  C3  UNL     1      -2.930   3.206 -10.215  1.00  0.00     0.128 C 
HETATM    7  N2  UNL     1      -2.609   2.222 -11.227  1.00  0.00    -0.355 N 
HETATM    8  C7  UNL     1      -3.568   2.259 -12.320  1.00  0.00     0.208 C 
BRANCH   7   9
HETATM    9  C2  UNL     1      -1.502   1.343 -11.184  1.00  0.00     0.069 C 
HETATM   10  C1  UNL     1      -0.395   1.303 -12.158  1.00  0.00     0.088 C 
HETATM   11  N1  UNL     1      -1.487   0.497 -10.182  1.00  0.00    -0.389 N 
ATOM     12  H12 UNL     1      -0.688  -0.137 -10.151  1.00  0.00     0.157 HD
ATOM     13  H11 UNL     1      -2.252   0.525  -9.509  1.00  0.00     0.157 HD
ENDBRANCH   7   9
BRANCH   8  14
HETATM   14  C8  UNL     1      -4.144   0.935 -12.639  1.00  0.00     0.243 C 
HETATM   15  O2  UNL     1      -3.801  -0.081 -11.974  1.00  0.00    -0.271 OA
HETATM   16  N4  UNL     1      -5.078   0.806 -13.690  1.00  0.00    -0.346 N 
ATOM     17  H4  UNL     1      -5.353   1.628 -14.229  1.00  0.00     0.163 HD
BRANCH  16  18
HETATM   18  C9  UNL     1      -5.639  -0.470 -14.002  1.00  0.00     0.177 C 
BRANCH  18  19
HETATM   19  C10 UNL     1      -7.098  -0.633 -13.831  1.00  0.00     0.044 C 
BRANCH  19  20
HETATM   20  C11 UNL     1      -7.832   0.244 -12.915  1.00  0.00    -0.042 C 
HETATM   21  C12 UNL     1      -7.938   1.685 -13.235  1.00  0.00     0.015 C 
HETATM   22  C13 UNL     1      -9.268  -0.299 -12.825  1.00  0.00     0.009 C 
HETATM   23  C14 UNL     1      -9.818   0.257 -11.535  1.00  0.00     0.001 C 
HETATM   24  C15 UNL     1      -8.633   0.314 -10.627  1.00  0.00     0.001 C 
HETATM   25  C16 UNL     1      -7.407   0.118 -11.466  1.00  0.00     0.009 C 
ENDBRANCH  19  20
ENDBRANCH  18  19
BRANCH  18  26
HETATM   26  C17 UNL     1      -5.389  -0.687 -15.482  1.00  0.00     0.244 C 
HETATM   27  O3  UNL     1      -4.868   0.227 -16.139  1.00  0.00    -0.271 OA
HETATM   28  N5  UNL     1      -5.741  -1.890 -16.084  1.00  0.00    -0.332 N 
HETATM   29  C18 UNL     1      -4.896  -2.872 -16.181  1.00  0.00    -0.001 C 
ATOM     30  H5  UNL     1      -6.684  -2.005 -16.456  1.00  0.00     0.168 HD
BRANCH  29  31
HETATM   31  C19 UNL     1      -3.552  -2.708 -15.648  1.00  0.00     0.063 C 
BRANCH  31  32
HETATM   32  C20 UNL     1      -2.591  -3.689 -16.227  1.00  0.00     0.119 C 
BRANCH  32  33
HETATM   33  C21 UNL     1      -1.850  -4.429 -15.143  1.00  0.00     0.172 C 
HETATM   34  O4  UNL     1      -0.688  -4.785 -15.368  1.00  0.00    -0.648 OA
HETATM   35  O5  UNL     1      -2.461  -4.690 -13.953  1.00  0.00    -0.648 OA
ENDBRANCH  32  33
ENDBRANCH  31  32
ENDBRANCH  29  31
BRANCH  29  36
HETATM   36  C22 UNL     1      -5.389  -4.085 -16.834  1.00  0.00     0.163 C 
BRANCH  36  37
HETATM   37  C23 UNL     1      -6.091  -5.068 -16.021  1.00  0.00     0.264 C 
HETATM   38  O6  UNL     1      -5.722  -5.297 -14.825  1.00  0.00    -0.265 OA
BRANCH  37  39
HETATM   39  O7  UNL     1      -7.172  -5.816 -16.447  1.00  0.00    -0.311 OA
BRANCH  39  40
HETATM   40  C24 UNL     1      -8.472  -5.752 -15.986  1.00  0.00     0.060 C 
HETATM   41  C25 UNL     1      -9.342  -6.483 -17.023  1.00  0.00     0.045 C 
HETATM   42  C26 UNL     1      -8.714  -6.459 -14.676  1.00  0.00     0.045 C 
HETATM   43  C27 UNL     1      -8.988  -4.343 -15.846  1.00  0.00     0.045 C 
ENDBRANCH  39  40
ENDBRANCH  37  39
ENDBRANCH  36  37
ENDBRANCH  29  36
ENDBRANCH  18  26
ENDBRANCH  16  18
ENDBRANCH   8  14
ENDBRANCH   1   4
TORSDOF 14
ENDMDL
MODEL 5
REMARK VINA RESULT: -8.606815770      1.733      4.518
REMARK  14 active torsions:
REMARK  status: ('A' for Active; 'I' for Inactive)
REMARK    1  A    between atoms: C2_2  and  N2_6 
REMARK    2  A    between atoms: C5_9  and  O1_10 
REMARK    3  A    between atoms: C7_13  and  C8_14 
REMARK       I    between atoms: C8_14  and  N4_16 
REMARK    4  A    between atoms: N4_16  and  C9_18 
REMARK    5  A    between atoms: C9_18  and  C10_19 
REMARK    6  A    between atoms: C9_18  and  C17_26 
REMARK    7  A    between atoms: C10_19  and  C11_20 
REMARK       I    between atoms: C17_26  and  N5_28 
REMARK    8  A    between atoms: C18_30  and  C19_31 
REMARK    9  A    between atoms: C18_30  and  C22_36 
REMARK   10  A    between atoms: C19_31  and  C20_32 
REMARK   11  A    between atoms: C20_32  and  C21_33 
REMARK   12  A    between atoms: C22_36  and  C23_37 
REMARK   13  A    between atoms: C23_37  and  O7_39 
REMARK   14  A    between atoms: O7_39  and  C24_40 
ROOT
HETATM    1  O1  UNL     1      -6.011   3.113  -9.622  1.00  0.00    -0.275 OA
HETATM    2  C6  UNL     1      -4.992   3.792  -9.034  1.00  0.00     0.229 C 
HETATM    3  N3  UNL     1      -4.132   4.375  -8.525  1.00  0.00    -0.164 NA
ENDROOT
BRANCH   1   4
HETATM    4  C5  UNL     1      -6.187   1.753  -9.362  1.00  0.00     0.175 C 
HETATM    5  C4  UNL     1      -7.510   1.678  -8.559  1.00  0.00     0.056 C 
HETATM    6  C3  UNL     1      -8.422   2.341  -9.611  1.00  0.00     0.128 C 
HETATM    7  N2  UNL     1      -8.033   1.588 -10.784  1.00  0.00    -0.355 N 
HETATM    8  C7  UNL     1      -6.694   1.037 -10.637  1.00  0.00     0.208 C 
BRANCH   7   9
HETATM    9  C2  UNL     1      -8.841   1.387 -11.926  1.00  0.00     0.069 C 
HETATM   10  C1  UNL     1      -9.760   0.253 -12.145  1.00  0.00     0.088 C 
HETATM   11  N1  UNL     1      -8.743   2.302 -12.861  1.00  0.00    -0.389 N 
ATOM     12  H12 UNL     1      -9.326   2.158 -13.685  1.00  0.00     0.157 HD
ATOM     13  H11 UNL     1      -8.108   3.086 -12.710  1.00  0.00     0.157 HD
ENDBRANCH   7   9
BRANCH   8  14
HETATM   14  C8  UNL     1      -5.802   1.354 -11.772  1.00  0.00     0.243 C 
HETATM   15  O2  UNL     1      -5.801   2.513 -12.271  1.00  0.00    -0.271 OA
HETATM   16  N4  UNL     1      -4.952   0.359 -12.301  1.00  0.00    -0.346 N 
ATOM     17  H4  UNL     1      -4.955  -0.578 -11.898  1.00  0.00     0.163 HD
BRANCH  16  18
HETATM   18  C9  UNL     1      -4.086   0.660 -13.397  1.00  0.00     0.177 C 
BRANCH  18  19
HETATM   19  C10 UNL     1      -2.633   0.497 -13.182  1.00  0.00     0.044 C 
BRANCH  19  20
HETATM   20  C11 UNL     1      -1.990   1.108 -12.015  1.00  0.00    -0.042 C 
HETATM   21  C12 UNL     1      -2.014   0.383 -10.724  1.00  0.00     0.015 C 
HETATM   22  C13 UNL     1      -0.512   1.324 -12.377  1.00  0.00     0.009 C 
HETATM   23  C14 UNL     1      -0.026   2.389 -11.425  1.00  0.00     0.001 C 
HETATM   24  C15 UNL     1      -1.218   3.263 -11.215  1.00  0.00     0.001 C 
HETATM   25  C16 UNL     1      -2.414   2.538 -11.754  1.00  0.00     0.009 C 
ENDBRANCH  19  20
ENDBRANCH  18  19
BRANCH  18  26
HETATM   26  C17 UNL     1      -4.436  -0.330 -14.491  1.00  0.00     0.244 C 
HETATM   27  O3  UNL     1      -3.882  -0.218 -15.595  1.00  0.00    -0.271 OA
HETATM   28  N5  UNL     1      -5.361  -1.340 -14.253  1.00  0.00    -0.332 N 
HETATM   29  C18 UNL     1      -4.992  -2.512 -13.830  1.00  0.00    -0.001 C 
ATOM     30  H5  UNL     1      -6.352  -1.157 -14.414  1.00  0.00     0.168 HD
BRANCH  29  31
HETATM   31  C19 UNL     1      -3.579  -2.771 -13.600  1.00  0.00     0.063 C 
BRANCH  31  32
HETATM   32  C20 UNL     1      -3.122  -4.030 -14.254  1.00  0.00     0.119 C 
BRANCH  32  33
HETATM   33  C21 UNL     1      -2.071  -3.751 -15.297  1.00  0.00     0.172 C 
HETATM   34  O4  UNL     1      -2.394  -3.087 -16.288  1.00  0.00    -0.648 OA
HETATM   35  O5  UNL     1      -0.804  -4.225 -15.136  1.00  0.00    -0.648 OA
ENDBRANCH  32  33
ENDBRANCH  31  32
ENDBRANCH  29  31
BRANCH  29  36
HETATM   36  C22 UNL     1      -6.062  -3.487 -13.617  1.00  0.00     0.163 C 
BRANCH  36  37
HETATM   37  C23 UNL     1      -7.238  -3.415 -14.471  1.00  0.00     0.264 C 
HETATM   38  O6  UNL     1      -8.195  -2.625 -14.186  1.00  0.00    -0.265 OA
BRANCH  37  39
HETATM   39  O7  UNL     1      -7.426  -4.162 -15.618  1.00  0.00    -0.311 OA
BRANCH  39  40
HETATM   40  C24 UNL     1      -8.173  -5.316 -15.757  1.00  0.00     0.060 C 
HETATM   41  C25 UNL     1      -7.434  -6.196 -16.778  1.00  0.00     0.045 C 
HETATM   42  C26 UNL     1      -8.289  -6.148 -14.504  1.00  0.00     0.045 C 
HETATM   43  C27 UNL     1      -9.568  -5.067 -16.270  1.00  0.00     0.045 C 
ENDBRANCH  39  40
ENDBRANCH  37  39
ENDBRANCH  36  37
ENDBRANCH  29  36
ENDBRANCH  18  26
ENDBRANCH  16  18
ENDBRANCH   8  14
ENDBRANCH   1   4
TORSDOF 14
ENDMDL
