MODEL 1
REMARK VINA RESULT: -6.559520475      0.000      0.000
REMARK  13 active torsions:
REMARK  status: ('A' for Active; 'I' for Inactive)
REMARK    1  A    between atoms: C2_2  and  C4_4 
REMARK    2  A    between atoms: C4_4  and  C5_5 
REMARK    3  A    between atoms: C7_10  and  C8_11 
REMARK    4  A    between atoms: C8_11  and  C9_12 
REMARK    5  A    between atoms: C11_19  and  C12_20 
REMARK    6  A    between atoms: C12_20  and  C13_21 
REMARK    7  A    between atoms: C17_28  and  C18_29 
REMARK    8  A    between atoms: C18_29  and  C19_30 
REMARK    9  A    between atoms: C23_37  and  C24_38 
REMARK   10  A    between atoms: C24_38  and  C25_39 
REMARK   11  A    between atoms: C29_46  and  C30_47 
REMARK   12  A    between atoms: C30_47  and  C31_48 
REMARK   13  A    between atoms: C34_53  and  O7_54 
ROOT
HETATM    1  C5  UNL     1      -6.345 -16.547  48.770  1.00  0.00     0.159 C 
HETATM    2  N1  UNL     1      -7.180 -15.604  48.063  1.00  0.00    -0.347 N 
ATOM      3  H1  UNL     1      -8.167 -15.849  47.979  1.00  0.00     0.163 HD
HETATM    4  C6  UNL     1      -6.791 -14.393  47.479  1.00  0.00     0.241 C 
HETATM    5  O1  UNL     1      -7.315 -14.062  46.379  1.00  0.00    -0.271 OA
HETATM    6  C7  UNL     1      -5.805 -13.423  48.021  1.00  0.00     0.185 C 
HETATM    7  N3  UNL     1      -4.909 -13.116  46.904  1.00  0.00    -0.346 N 
ATOM      8  H3  UNL     1      -5.336 -12.950  45.993  1.00  0.00     0.163 HD
HETATM    9  C10 UNL     1      -3.514 -13.032  46.987  1.00  0.00     0.241 C 
HETATM   10  O3  UNL     1      -2.869 -12.117  46.370  1.00  0.00    -0.271 OA
HETATM   11  C11 UNL     1      -2.688 -13.977  47.779  1.00  0.00     0.177 C 
HETATM   12  N4  UNL     1      -1.634 -13.301  48.531  1.00  0.00    -0.346 N 
ATOM     13  H4  UNL     1      -1.303 -12.399  48.189  1.00  0.00     0.163 HD
HETATM   14  C16 UNL     1      -1.046 -13.824  49.704  1.00  0.00     0.244 C 
HETATM   15  O4  UNL     1       0.224 -13.745  49.770  1.00  0.00    -0.271 OA
HETATM   16  C17 UNL     1      -1.811 -14.451  50.844  1.00  0.00     0.200 C 
HETATM   17  N5  UNL     1      -1.479 -15.845  50.964  1.00  0.00    -0.343 N 
ATOM     18  H5  UNL     1      -0.559 -16.082  50.593  1.00  0.00     0.163 HD
HETATM   19  C22 UNL     1      -2.169 -16.936  51.488  1.00  0.00     0.241 C 
HETATM   20  O5  UNL     1      -2.348 -17.968  50.729  1.00  0.00    -0.271 OA
HETATM   21  C23 UNL     1      -2.758 -17.116  52.837  1.00  0.00     0.177 C 
HETATM   22  N6  UNL     1      -4.121 -16.711  52.987  1.00  0.00    -0.346 N 
ATOM     23  H6  UNL     1      -4.278 -16.107  53.793  1.00  0.00     0.163 HD
HETATM   24  C28 UNL     1      -5.267 -16.972  52.265  1.00  0.00     0.241 C 
HETATM   25  O6  UNL     1      -5.964 -15.945  51.895  1.00  0.00    -0.271 OA
HETATM   26  C29 UNL     1      -5.854 -18.255  51.832  1.00  0.00     0.175 C 
HETATM   27  N7  UNL     1      -6.842 -18.123  50.786  1.00  0.00    -0.359 N 
ATOM     28  H7  UNL     1      -7.440 -18.944  50.693  1.00  0.00     0.162 HD
HETATM   29  C34 UNL     1      -7.147 -17.130  49.892  1.00  0.00     0.135 C 
ENDROOT
BRANCH   1  30
HETATM   30  C4  UNL     1      -5.856 -17.599  47.825  1.00  0.00     0.037 C 
BRANCH  30  31
HETATM   31  C2  UNL     1      -4.724 -17.281  46.936  1.00  0.00    -0.020 C 
HETATM   32  C1  UNL     1      -5.223 -17.262  45.466  1.00  0.00     0.009 C 
HETATM   33  C3  UNL     1      -3.568 -18.242  46.919  1.00  0.00     0.009 C 
ENDBRANCH  30  31
ENDBRANCH   1  30
BRANCH  29  34
HETATM   34  O7  UNL     1      -8.332 -16.615  50.047  1.00  0.00    -0.348 OA
ATOM     35  H7  UNL     1      -8.588 -16.460  50.949  1.00  0.00     0.219 HD
ENDBRANCH  29  34
BRANCH   6  36
HETATM   36  C8  UNL     1      -6.526 -12.093  48.283  1.00  0.00     0.134 C 
BRANCH  36  37
HETATM   37  C9  UNL     1      -7.342 -12.091  49.487  1.00  0.00     0.233 C 
HETATM   38  N2  UNL     1      -7.006 -12.925  50.582  1.00  0.00    -0.062 NA
HETATM   39  O2  UNL     1      -8.353 -11.368  49.607  1.00  0.00    -0.277 OA
ENDBRANCH  36  37
ENDBRANCH   6  36
BRANCH  26  40
HETATM   40  C30 UNL     1      -6.327 -19.138  52.943  1.00  0.00     0.038 C 
BRANCH  40  41
HETATM   41  C31 UNL     1      -6.655 -18.593  54.248  1.00  0.00    -0.020 C 
HETATM   42  C32 UNL     1      -8.046 -18.186  54.557  1.00  0.00     0.009 C 
HETATM   43  C33 UNL     1      -6.162 -19.447  55.427  1.00  0.00     0.009 C 
ENDBRANCH  40  41
ENDBRANCH  26  40
BRANCH  11  44
HETATM   44  C12 UNL     1      -2.178 -15.118  46.961  1.00  0.00     0.038 C 
BRANCH  44  45
HETATM   45  C13 UNL     1      -0.771 -15.029  46.500  1.00  0.00    -0.020 C 
HETATM   46  C14 UNL     1      -0.816 -15.208  44.971  1.00  0.00     0.009 C 
HETATM   47  C15 UNL     1       0.131 -16.142  46.987  1.00  0.00     0.009 C 
ENDBRANCH  44  45
ENDBRANCH  11  44
BRANCH  21  48
HETATM   48  C24 UNL     1      -2.546 -18.569  53.309  1.00  0.00     0.038 C 
BRANCH  48  49
HETATM   49  C25 UNL     1      -1.193 -18.712  53.953  1.00  0.00    -0.020 C 
HETATM   50  C26 UNL     1      -0.906 -17.681  55.006  1.00  0.00     0.009 C 
HETATM   51  C27 UNL     1      -1.229 -20.074  54.666  1.00  0.00     0.009 C 
ENDBRANCH  48  49
ENDBRANCH  21  48
BRANCH  16  52
HETATM   52  C18 UNL     1      -1.873 -13.647  52.065  1.00  0.00     0.010 C 
BRANCH  52  53
HETATM   53  C19 UNL     1      -0.708 -13.250  52.851  1.00  0.00    -0.089 C 
HETATM   54  C20 UNL     1      -0.889 -12.159  53.866  1.00  0.00     0.042 C 
HETATM   55  C21 UNL     1       0.195 -14.368  53.328  1.00  0.00     0.042 C 
ENDBRANCH  52  53
ENDBRANCH  16  52
TORSDOF 13
ENDMDL
MODEL 2
REMARK VINA RESULT: -6.243471775      1.935      3.560
REMARK  13 active torsions:
REMARK  status: ('A' for Active; 'I' for Inactive)
REMARK    1  A    between atoms: C2_2  and  C4_4 
REMARK    2  A    between atoms: C4_4  and  C5_5 
REMARK    3  A    between atoms: C7_10  and  C8_11 
REMARK    4  A    between atoms: C8_11  and  C9_12 
REMARK    5  A    between atoms: C11_19  and  C12_20 
REMARK    6  A    between atoms: C12_20  and  C13_21 
REMARK    7  A    between atoms: C17_28  and  C18_29 
REMARK    8  A    between atoms: C18_29  and  C19_30 
REMARK    9  A    between atoms: C23_37  and  C24_38 
REMARK   10  A    between atoms: C24_38  and  C25_39 
REMARK   11  A    between atoms: C29_46  and  C30_47 
REMARK   12  A    between atoms: C30_47  and  C31_48 
REMARK   13  A    between atoms: C34_53  and  O7_54 
ROOT
HETATM    1  C5  UNL     1      -4.985 -15.504  48.350  1.00  0.00     0.159 C 
HETATM    2  N1  UNL     1      -4.740 -14.438  47.405  1.00  0.00    -0.347 N 
ATOM      3  H1  UNL     1      -5.564 -13.967  47.032  1.00  0.00     0.163 HD
HETATM    4  C6  UNL     1      -3.502 -13.979  46.943  1.00  0.00     0.241 C 
HETATM    5  O1  UNL     1      -3.401 -13.643  45.730  1.00  0.00    -0.271 OA
HETATM    6  C7  UNL     1      -2.255 -13.835  47.739  1.00  0.00     0.185 C 
HETATM    7  N3  UNL     1      -1.209 -14.474  46.939  1.00  0.00    -0.346 N 
ATOM      8  H3  UNL     1      -1.197 -14.277  45.939  1.00  0.00     0.163 HD
HETATM    9  C10 UNL     1      -0.223 -15.333  47.438  1.00  0.00     0.241 C 
HETATM   10  O3  UNL     1       0.986 -15.262  47.026  1.00  0.00    -0.271 OA
HETATM   11  C11 UNL     1      -0.492 -16.375  48.460  1.00  0.00     0.177 C 
HETATM   12  N4  UNL     1       0.549 -16.436  49.482  1.00  0.00    -0.346 N 
ATOM     13  H4  UNL     1       1.481 -16.100  49.239  1.00  0.00     0.163 HD
HETATM   14  C16 UNL     1       0.342 -16.934  50.787  1.00  0.00     0.244 C 
HETATM   15  O4  UNL     1       1.244 -17.717  51.232  1.00  0.00    -0.271 OA
HETATM   16  C17 UNL     1      -0.849 -16.603  51.655  1.00  0.00     0.200 C 
HETATM   17  N5  UNL     1      -1.637 -17.782  51.896  1.00  0.00    -0.343 N 
ATOM     18  H5  UNL     1      -1.108 -18.651  51.825  1.00  0.00     0.163 HD
HETATM   19  C22 UNL     1      -2.981 -17.967  52.208  1.00  0.00     0.241 C 
HETATM   20  O5  UNL     1      -3.682 -18.747  51.450  1.00  0.00    -0.271 OA
HETATM   21  C23 UNL     1      -3.777 -17.393  53.320  1.00  0.00     0.177 C 
HETATM   22  N6  UNL     1      -4.442 -16.158  53.044  1.00  0.00    -0.346 N 
ATOM     23  H6  UNL     1      -4.280 -15.444  53.753  1.00  0.00     0.163 HD
HETATM   24  C28 UNL     1      -5.257 -15.735  52.014  1.00  0.00     0.241 C 
HETATM   25  O6  UNL     1      -4.926 -14.627  51.432  1.00  0.00    -0.271 OA
HETATM   26  C29 UNL     1      -6.477 -16.344  51.448  1.00  0.00     0.175 C 
HETATM   27  N7  UNL     1      -6.842 -15.824  50.151  1.00  0.00    -0.359 N 
ATOM     28  H7  UNL     1      -7.810 -16.021  49.898  1.00  0.00     0.162 HD
HETATM   29  C34 UNL     1      -6.166 -15.122  49.188  1.00  0.00     0.135 C 
ENDROOT
BRANCH   1  30
HETATM   30  C4  UNL     1      -5.212 -16.788  47.616  1.00  0.00     0.037 C 
BRANCH  30  31
HETATM   31  C2  UNL     1      -5.727 -16.733  46.235  1.00  0.00    -0.020 C 
HETATM   32  C1  UNL     1      -7.279 -16.735  46.273  1.00  0.00     0.009 C 
HETATM   33  C3  UNL     1      -5.380 -17.877  45.323  1.00  0.00     0.009 C 
ENDBRANCH  30  31
ENDBRANCH   1  30
BRANCH  29  34
HETATM   34  O7  UNL     1      -6.633 -13.927  48.968  1.00  0.00    -0.348 OA
ATOM     35  H7  UNL     1      -6.592 -13.337  49.712  1.00  0.00     0.219 HD
ENDBRANCH  29  34
BRANCH   6  36
HETATM   36  C8  UNL     1      -1.852 -12.353  47.746  1.00  0.00     0.134 C 
BRANCH  36  37
HETATM   37  C9  UNL     1      -0.452 -12.121  47.429  1.00  0.00     0.233 C 
HETATM   38  N2  UNL     1      -0.051 -11.875  46.092  1.00  0.00    -0.062 NA
HETATM   39  O2  UNL     1       0.441 -12.126  48.302  1.00  0.00    -0.277 OA
ENDBRANCH  36  37
ENDBRANCH   6  36
BRANCH  26  40
HETATM   40  C30 UNL     1      -7.645 -16.396  52.381  1.00  0.00     0.038 C 
BRANCH  40  41
HETATM   41  C31 UNL     1      -8.255 -17.662  52.752  1.00  0.00    -0.020 C 
HETATM   42  C32 UNL     1      -7.739 -18.930  52.186  1.00  0.00     0.009 C 
HETATM   43  C33 UNL     1      -8.397 -17.869  54.268  1.00  0.00     0.009 C 
ENDBRANCH  40  41
ENDBRANCH  26  40
BRANCH  11  44
HETATM   44  C12 UNL     1      -0.793 -17.707  47.856  1.00  0.00     0.038 C 
BRANCH  44  45
HETATM   45  C13 UNL     1      -1.961 -17.775  46.943  1.00  0.00    -0.020 C 
HETATM   46  C14 UNL     1      -2.567 -19.177  47.137  1.00  0.00     0.009 C 
HETATM   47  C15 UNL     1      -1.623 -17.706  45.469  1.00  0.00     0.009 C 
ENDBRANCH  44  45
ENDBRANCH  11  44
BRANCH  21  48
HETATM   48  C24 UNL     1      -4.758 -18.452  53.861  1.00  0.00     0.038 C 
BRANCH  48  49
HETATM   49  C25 UNL     1      -4.968 -18.257  55.339  1.00  0.00    -0.020 C 
HETATM   50  C26 UNL     1      -5.617 -19.426  56.022  1.00  0.00     0.009 C 
HETATM   51  C27 UNL     1      -3.555 -18.126  55.932  1.00  0.00     0.009 C 
ENDBRANCH  48  49
ENDBRANCH  21  48
BRANCH  16  52
HETATM   52  C18 UNL     1      -0.564 -15.718  52.785  1.00  0.00     0.010 C 
BRANCH  52  53
HETATM   53  C19 UNL     1      -0.088 -14.343  52.657  1.00  0.00    -0.089 C 
HETATM   54  C20 UNL     1      -0.539 -13.557  51.460  1.00  0.00     0.042 C 
HETATM   55  C21 UNL     1      -0.043 -13.525  53.929  1.00  0.00     0.042 C 
ENDBRANCH  52  53
ENDBRANCH  16  52
TORSDOF 13
ENDMDL
MODEL 3
REMARK VINA RESULT: -5.864368595      2.526      5.920
REMARK  13 active torsions:
REMARK  status: ('A' for Active; 'I' for Inactive)
REMARK    1  A    between atoms: C2_2  and  C4_4 
REMARK    2  A    between atoms: C4_4  and  C5_5 
REMARK    3  A    between atoms: C7_10  and  C8_11 
REMARK    4  A    between atoms: C8_11  and  C9_12 
REMARK    5  A    between atoms: C11_19  and  C12_20 
REMARK    6  A    between atoms: C12_20  and  C13_21 
REMARK    7  A    between atoms: C17_28  and  C18_29 
REMARK    8  A    between atoms: C18_29  and  C19_30 
REMARK    9  A    between atoms: C23_37  and  C24_38 
REMARK   10  A    between atoms: C24_38  and  C25_39 
REMARK   11  A    between atoms: C29_46  and  C30_47 
REMARK   12  A    between atoms: C30_47  and  C31_48 
REMARK   13  A    between atoms: C34_53  and  O7_54 
ROOT
HETATM    1  C5  UNL     1      -0.811 -18.362  50.508  1.00  0.00     0.159 C 
HETATM    2  N1  UNL     1      -0.557 -18.641  49.112  1.00  0.00    -0.347 N 
ATOM      3  H1  UNL     1       0.141 -19.358  48.915  1.00  0.00     0.163 HD
HETATM    4  C6  UNL     1      -1.159 -18.039  48.001  1.00  0.00     0.241 C 
HETATM    5  O1  UNL     1      -0.444 -17.801  46.988  1.00  0.00    -0.271 OA
HETATM    6  C7  UNL     1      -2.584 -17.639  47.872  1.00  0.00     0.185 C 
HETATM    7  N3  UNL     1      -2.556 -16.266  47.365  1.00  0.00    -0.346 N 
ATOM      8  H3  UNL     1      -1.901 -16.057  46.613  1.00  0.00     0.163 HD
HETATM    9  C10 UNL     1      -3.358 -15.217  47.831  1.00  0.00     0.241 C 
HETATM   10  O3  UNL     1      -3.883 -14.378  47.022  1.00  0.00    -0.271 OA
HETATM   11  C11 UNL     1      -3.657 -14.997  49.267  1.00  0.00     0.177 C 
HETATM   12  N4  UNL     1      -5.057 -14.656  49.500  1.00  0.00    -0.346 N 
ATOM     13  H4  UNL     1      -5.582 -14.233  48.735  1.00  0.00     0.163 HD
HETATM   14  C16 UNL     1      -5.729 -14.878  50.723  1.00  0.00     0.244 C 
HETATM   15  O4  UNL     1      -6.455 -13.917  51.140  1.00  0.00    -0.271 OA
HETATM   16  C17 UNL     1      -5.636 -16.147  51.536  1.00  0.00     0.200 C 
HETATM   17  N5  UNL     1      -5.004 -15.885  52.802  1.00  0.00    -0.343 N 
ATOM     18  H5  UNL     1      -5.096 -14.919  53.115  1.00  0.00     0.163 HD
HETATM   19  C22 UNL     1      -4.291 -16.694  53.683  1.00  0.00     0.241 C 
HETATM   20  O5  UNL     1      -3.102 -16.320  54.030  1.00  0.00    -0.271 OA
HETATM   21  C23 UNL     1      -4.691 -17.973  54.319  1.00  0.00     0.177 C 
HETATM   22  N6  UNL     1      -4.349 -19.163  53.606  1.00  0.00    -0.346 N 
ATOM     23  H6  UNL     1      -5.130 -19.810  53.499  1.00  0.00     0.163 HD
HETATM   24  C28 UNL     1      -3.179 -19.617  53.032  1.00  0.00     0.241 C 
HETATM   25  O6  UNL     1      -3.249 -19.996  51.797  1.00  0.00    -0.271 OA
HETATM   26  C29 UNL     1      -1.824 -19.751  53.602  1.00  0.00     0.175 C 
HETATM   27  N7  UNL     1      -0.785 -19.902  52.610  1.00  0.00    -0.359 N 
ATOM     28  H7  UNL     1       0.083 -20.277  52.993  1.00  0.00     0.162 HD
HETATM   29  C34 UNL     1      -0.716 -19.650  51.265  1.00  0.00     0.135 C 
ENDROOT
BRANCH   1  30
HETATM   30  C4  UNL     1       0.167 -17.345  51.007  1.00  0.00     0.037 C 
BRANCH  30  31
HETATM   31  C2  UNL     1       0.390 -17.232  52.460  1.00  0.00    -0.020 C 
HETATM   32  C1  UNL     1       0.250 -15.744  52.879  1.00  0.00     0.009 C 
HETATM   33  C3  UNL     1       1.740 -17.637  52.985  1.00  0.00     0.009 C 
ENDBRANCH  30  31
ENDBRANCH   1  30
BRANCH  29  34
HETATM   34  O7  UNL     1      -0.536 -20.709  50.530  1.00  0.00    -0.348 OA
ATOM     35  H7  UNL     1       0.151 -21.294  50.830  1.00  0.00     0.219 HD
ENDBRANCH  29  34
BRANCH   6  36
HETATM   36  C8  UNL     1      -3.209 -18.438  46.719  1.00  0.00     0.134 C 
BRANCH  36  37
HETATM   37  C9  UNL     1      -4.319 -17.761  46.066  1.00  0.00     0.233 C 
HETATM   38  N2  UNL     1      -5.592 -17.708  46.687  1.00  0.00    -0.062 NA
HETATM   39  O2  UNL     1      -4.201 -17.207  44.953  1.00  0.00    -0.277 OA
ENDBRANCH  36  37
ENDBRANCH   6  36
BRANCH  26  40
HETATM   40  C30 UNL     1      -1.700 -20.757  54.703  1.00  0.00     0.038 C 
BRANCH  40  41
HETATM   41  C31 UNL     1      -0.964 -20.454  55.918  1.00  0.00    -0.020 C 
HETATM   42  C32 UNL     1      -0.986 -19.083  56.479  1.00  0.00     0.009 C 
HETATM   43  C33 UNL     1      -1.247 -21.420  57.079  1.00  0.00     0.009 C 
ENDBRANCH  40  41
ENDBRANCH  26  40
BRANCH  11  44
HETATM   44  C12 UNL     1      -2.711 -14.037  49.910  1.00  0.00     0.038 C 
BRANCH  44  45
HETATM   45  C13 UNL     1      -1.436 -13.780  49.194  1.00  0.00    -0.020 C 
HETATM   46  C14 UNL     1      -0.353 -13.681  50.284  1.00  0.00     0.009 C 
HETATM   47  C15 UNL     1      -1.368 -12.453  48.469  1.00  0.00     0.009 C 
ENDBRANCH  44  45
ENDBRANCH  11  44
BRANCH  21  48
HETATM   48  C24 UNL     1      -4.172 -18.017  55.771  1.00  0.00     0.038 C 
BRANCH  48  49
HETATM   49  C25 UNL     1      -4.757 -19.202  56.494  1.00  0.00    -0.020 C 
HETATM   50  C26 UNL     1      -4.359 -19.291  57.939  1.00  0.00     0.009 C 
HETATM   51  C27 UNL     1      -6.278 -18.979  56.466  1.00  0.00     0.009 C 
ENDBRANCH  48  49
ENDBRANCH  21  48
BRANCH  16  52
HETATM   52  C18 UNL     1      -6.838 -16.980  51.523  1.00  0.00     0.010 C 
BRANCH  52  53
HETATM   53  C19 UNL     1      -7.375 -17.673  52.691  1.00  0.00    -0.089 C 
HETATM   54  C20 UNL     1      -8.401 -16.954  53.518  1.00  0.00     0.042 C 
HETATM   55  C21 UNL     1      -7.667 -19.149  52.524  1.00  0.00     0.042 C 
ENDBRANCH  52  53
ENDBRANCH  16  52
TORSDOF 13
ENDMDL
MODEL 4
REMARK VINA RESULT: -5.848821339      1.953      3.327
REMARK  13 active torsions:
REMARK  status: ('A' for Active; 'I' for Inactive)
REMARK    1  A    between atoms: C2_2  and  C4_4 
REMARK    2  A    between atoms: C4_4  and  C5_5 
REMARK    3  A    between atoms: C7_10  and  C8_11 
REMARK    4  A    between atoms: C8_11  and  C9_12 
REMARK    5  A    between atoms: C11_19  and  C12_20 
REMARK    6  A    between atoms: C12_20  and  C13_21 
REMARK    7  A    between atoms: C17_28  and  C18_29 
REMARK    8  A    between atoms: C18_29  and  C19_30 
REMARK    9  A    between atoms: C23_37  and  C24_38 
REMARK   10  A    between atoms: C24_38  and  C25_39 
REMARK   11  A    between atoms: C29_46  and  C30_47 
REMARK   12  A    between atoms: C30_47  and  C31_48 
REMARK   13  A    between atoms: C34_53  and  O7_54 
ROOT
HETATM    1  C5  UNL     1      -5.420 -15.460  47.795  1.00  0.00     0.159 C 
HETATM    2  N1  UNL     1      -5.319 -14.442  46.775  1.00  0.00    -0.347 N 
ATOM      3  H1  UNL     1      -6.198 -14.044  46.445  1.00  0.00     0.163 HD
HETATM    4  C6  UNL     1      -4.152 -13.938  46.188  1.00  0.00     0.241 C 
HETATM    5  O1  UNL     1      -4.169 -13.672  44.954  1.00  0.00    -0.271 OA
HETATM    6  C7  UNL     1      -2.860 -13.672  46.870  1.00  0.00     0.185 C 
HETATM    7  N3  UNL     1      -1.840 -14.294  46.024  1.00  0.00    -0.346 N 
ATOM      8  H3  UNL     1      -1.919 -14.159  45.017  1.00  0.00     0.163 HD
HETATM    9  C10 UNL     1      -0.764 -15.062  46.487  1.00  0.00     0.241 C 
HETATM   10  O3  UNL     1       0.401 -14.943  45.975  1.00  0.00    -0.271 OA
HETATM   11  C11 UNL     1      -0.885 -16.053  47.585  1.00  0.00     0.177 C 
HETATM   12  N4  UNL     1       0.235 -15.989  48.520  1.00  0.00    -0.346 N 
ATOM     13  H4  UNL     1       1.121 -15.613  48.183  1.00  0.00     0.163 HD
HETATM   14  C16 UNL     1       0.163 -16.418  49.864  1.00  0.00     0.244 C 
HETATM   15  O4  UNL     1       1.145 -17.117  50.276  1.00  0.00    -0.271 OA
HETATM   16  C17 UNL     1      -0.975 -16.106  50.806  1.00  0.00     0.200 C 
HETATM   17  N5  UNL     1      -1.664 -17.313  51.177  1.00  0.00    -0.343 N 
ATOM     18  H5  UNL     1      -1.087 -18.152  51.112  1.00  0.00     0.163 HD
HETATM   19  C22 UNL     1      -2.965 -17.559  51.608  1.00  0.00     0.241 C 
HETATM   20  O5  UNL     1      -3.671 -18.424  50.955  1.00  0.00    -0.271 OA
HETATM   21  C23 UNL     1      -3.706 -16.966  52.747  1.00  0.00     0.177 C 
HETATM   22  N6  UNL     1      -4.469 -15.793  52.458  1.00  0.00    -0.346 N 
ATOM     23  H6  UNL     1      -4.299 -15.028  53.110  1.00  0.00     0.163 HD
HETATM   24  C28 UNL     1      -5.388 -15.483  51.476  1.00  0.00     0.241 C 
HETATM   25  O6  UNL     1      -5.176 -14.395  50.808  1.00  0.00    -0.271 OA
HETATM   26  C29 UNL     1      -6.607 -16.197  51.048  1.00  0.00     0.175 C 
HETATM   27  N7  UNL     1      -7.105 -15.780  49.757  1.00  0.00    -0.359 N 
ATOM     28  H7  UNL     1      -8.075 -16.050  49.596  1.00  0.00     0.162 HD
HETATM   29  C34 UNL     1      -6.554 -15.099  48.704  1.00  0.00     0.135 C 
ENDROOT
BRANCH   1  30
HETATM   30  C4  UNL     1      -5.620 -16.798  47.155  1.00  0.00     0.037 C 
BRANCH  30  31
HETATM   31  C2  UNL     1      -6.189 -16.855  45.796  1.00  0.00    -0.020 C 
HETATM   32  C1  UNL     1      -7.726 -16.652  45.881  1.00  0.00     0.009 C 
HETATM   33  C3  UNL     1      -6.029 -18.141  45.034  1.00  0.00     0.009 C 
ENDBRANCH  30  31
ENDBRANCH   1  30
BRANCH  29  34
HETATM   34  O7  UNL     1      -7.113 -13.950  48.457  1.00  0.00    -0.348 OA
ATOM     35  H7  UNL     1      -7.318 -13.791  47.543  1.00  0.00     0.219 HD
ENDBRANCH  29  34
BRANCH   6  36
HETATM   36  C8  UNL     1      -2.553 -12.171  46.760  1.00  0.00     0.134 C 
BRANCH  36  37
HETATM   37  C9  UNL     1      -1.315 -11.772  47.410  1.00  0.00     0.233 C 
HETATM   38  N2  UNL     1      -0.174 -11.439  46.637  1.00  0.00    -0.062 NA
HETATM   39  O2  UNL     1      -1.203 -11.706  48.652  1.00  0.00    -0.277 OA
ENDBRANCH  36  37
ENDBRANCH   6  36
BRANCH  26  40
HETATM   40  C30 UNL     1      -7.693 -16.262  52.074  1.00  0.00     0.038 C 
BRANCH  40  41
HETATM   41  C31 UNL     1      -8.197 -17.537  52.555  1.00  0.00    -0.020 C 
HETATM   42  C32 UNL     1      -7.689 -18.803  51.978  1.00  0.00     0.009 C 
HETATM   43  C33 UNL     1      -8.159 -17.690  54.083  1.00  0.00     0.009 C 
ENDBRANCH  40  41
ENDBRANCH  26  40
BRANCH  11  44
HETATM   44  C12 UNL     1      -1.146 -17.435  47.083  1.00  0.00     0.038 C 
BRANCH  44  45
HETATM   45  C13 UNL     1      -2.482 -17.685  46.488  1.00  0.00    -0.020 C 
HETATM   46  C14 UNL     1      -2.853 -19.128  46.875  1.00  0.00     0.009 C 
HETATM   47  C15 UNL     1      -2.517 -17.677  44.975  1.00  0.00     0.009 C 
ENDBRANCH  44  45
ENDBRANCH  11  44
BRANCH  21  48
HETATM   48  C24 UNL     1      -4.572 -18.048  53.425  1.00  0.00     0.038 C 
BRANCH  48  49
HETATM   49  C25 UNL     1      -4.581 -17.844  54.917  1.00  0.00    -0.020 C 
HETATM   50  C26 UNL     1      -4.910 -19.082  55.700  1.00  0.00     0.009 C 
HETATM   51  C27 UNL     1      -3.136 -17.463  55.280  1.00  0.00     0.009 C 
ENDBRANCH  48  49
ENDBRANCH  21  48
BRANCH  16  52
HETATM   52  C18 UNL     1      -0.660 -15.138  51.857  1.00  0.00     0.010 C 
BRANCH  52  53
HETATM   53  C19 UNL     1      -0.398 -15.488  53.251  1.00  0.00    -0.089 C 
HETATM   54  C20 UNL     1       0.180 -16.845  53.532  1.00  0.00     0.042 C 
HETATM   55  C21 UNL     1       0.185 -14.397  54.121  1.00  0.00     0.042 C 
ENDBRANCH  52  53
ENDBRANCH  16  52
TORSDOF 13
ENDMDL
MODEL 5
REMARK VINA RESULT: -5.712737804     14.624     19.268
REMARK  13 active torsions:
REMARK  status: ('A' for Active; 'I' for Inactive)
REMARK    1  A    between atoms: C2_2  and  C4_4 
REMARK    2  A    between atoms: C4_4  and  C5_5 
REMARK    3  A    between atoms: C7_10  and  C8_11 
REMARK    4  A    between atoms: C8_11  and  C9_12 
REMARK    5  A    between atoms: C11_19  and  C12_20 
REMARK    6  A    between atoms: C12_20  and  C13_21 
REMARK    7  A    between atoms: C17_28  and  C18_29 
REMARK    8  A    between atoms: C18_29  and  C19_30 
REMARK    9  A    between atoms: C23_37  and  C24_38 
REMARK   10  A    between atoms: C24_38  and  C25_39 
REMARK   11  A    between atoms: C29_46  and  C30_47 
REMARK   12  A    between atoms: C30_47  and  C31_48 
REMARK   13  A    between atoms: C34_53  and  O7_54 
ROOT
HETATM    1  C5  UNL     1      -2.697 -30.705  64.351  1.00  0.00     0.159 C 
HETATM    2  N1  UNL     1      -3.650 -31.303  65.258  1.00  0.00    -0.347 N 
ATOM      3  H1  UNL     1      -3.271 -31.947  65.952  1.00  0.00     0.163 HD
HETATM    4  C6  UNL     1      -5.034 -31.099  65.294  1.00  0.00     0.241 C 
HETATM    5  O1  UNL     1      -5.779 -32.086  65.546  1.00  0.00    -0.271 OA
HETATM    6  C7  UNL     1      -5.749 -29.816  65.066  1.00  0.00     0.185 C 
HETATM    7  N3  UNL     1      -6.811 -30.130  64.109  1.00  0.00    -0.346 N 
ATOM      8  H3  UNL     1      -7.343 -30.986  64.262  1.00  0.00     0.163 HD
HETATM    9  C10 UNL     1      -7.156 -29.348  62.999  1.00  0.00     0.241 C 
HETATM   10  O3  UNL     1      -8.379 -29.160  62.678  1.00  0.00    -0.271 OA
HETATM   11  C11 UNL     1      -6.154 -28.690  62.125  1.00  0.00     0.177 C 
HETATM   12  N4  UNL     1      -6.532 -27.325  61.772  1.00  0.00    -0.346 N 
ATOM     13  H4  UNL     1      -7.522 -27.080  61.794  1.00  0.00     0.163 HD
HETATM   14  C16 UNL     1      -5.607 -26.322  61.403  1.00  0.00     0.244 C 
HETATM   15  O4  UNL     1      -5.928 -25.617  60.392  1.00  0.00    -0.271 OA
HETATM   16  C17 UNL     1      -4.304 -26.051  62.115  1.00  0.00     0.200 C 
HETATM   17  N5  UNL     1      -3.191 -26.333  61.249  1.00  0.00    -0.343 N 
ATOM     18  H5  UNL     1      -3.415 -26.263  60.256  1.00  0.00     0.163 HD
HETATM   19  C22 UNL     1      -1.867 -26.685  61.501  1.00  0.00     0.241 C 
HETATM   20  O5  UNL     1      -1.408 -27.765  60.957  1.00  0.00    -0.271 OA
HETATM   21  C23 UNL     1      -0.851 -25.990  62.328  1.00  0.00     0.177 C 
HETATM   22  N6  UNL     1      -0.781 -26.385  63.700  1.00  0.00    -0.346 N 
ATOM     23  H6  UNL     1      -0.793 -25.599  64.349  1.00  0.00     0.163 HD
HETATM   24  C28 UNL     1      -0.700 -27.613  64.325  1.00  0.00     0.241 C 
HETATM   25  O6  UNL     1      -1.568 -27.846  65.257  1.00  0.00    -0.271 OA
HETATM   26  C29 UNL     1       0.234 -28.736  64.111  1.00  0.00     0.175 C 
HETATM   27  N7  UNL     1      -0.214 -29.986  64.680  1.00  0.00    -0.359 N 
ATOM     28  H7  UNL     1       0.535 -30.669  64.787  1.00  0.00     0.162 HD
HETATM   29  C34 UNL     1      -1.431 -30.449  65.107  1.00  0.00     0.135 C 
ENDROOT
BRANCH   1  30
HETATM   30  C4  UNL     1      -2.477 -31.611  63.180  1.00  0.00     0.037 C 
BRANCH  30  31
HETATM   31  C2  UNL     1      -1.927 -32.958  63.420  1.00  0.00    -0.020 C 
HETATM   32  C1  UNL     1      -0.634 -33.135  62.579  1.00  0.00     0.009 C 
HETATM   33  C3  UNL     1      -2.782 -34.132  63.033  1.00  0.00     0.009 C 
ENDBRANCH  30  31
ENDBRANCH   1  30
BRANCH  29  34
HETATM   34  O7  UNL     1      -1.487 -30.710  66.381  1.00  0.00    -0.348 OA
ATOM     35  H7  UNL     1      -0.645 -30.811  66.808  1.00  0.00     0.219 HD
ENDBRANCH  29  34
BRANCH   6  36
HETATM   36  C8  UNL     1      -6.512 -29.451  66.347  1.00  0.00     0.134 C 
BRANCH  36  37
HETATM   37  C9  UNL     1      -6.853 -28.040  66.449  1.00  0.00     0.233 C 
HETATM   38  N2  UNL     1      -7.572 -27.555  67.570  1.00  0.00    -0.062 NA
HETATM   39  O2  UNL     1      -6.533 -27.211  65.571  1.00  0.00    -0.277 OA
ENDBRANCH  36  37
ENDBRANCH   6  36
BRANCH  26  40
HETATM   40  C30 UNL     1       1.661 -28.442  64.454  1.00  0.00     0.038 C 
BRANCH  40  41
HETATM   41  C31 UNL     1       2.065 -28.175  65.823  1.00  0.00    -0.020 C 
HETATM   42  C32 UNL     1       2.404 -29.296  66.731  1.00  0.00     0.009 C 
HETATM   43  C33 UNL     1       3.187 -27.133  65.954  1.00  0.00     0.009 C 
ENDBRANCH  40  41
ENDBRANCH  26  40
BRANCH  11  44
HETATM   44  C12 UNL     1      -5.797 -29.520  60.936  1.00  0.00     0.038 C 
BRANCH  44  45
HETATM   45  C13 UNL     1      -6.588 -29.288  59.702  1.00  0.00    -0.020 C 
HETATM   46  C14 UNL     1      -7.008 -30.683  59.202  1.00  0.00     0.009 C 
HETATM   47  C15 UNL     1      -5.811 -28.690  58.549  1.00  0.00     0.009 C 
ENDBRANCH  44  45
ENDBRANCH  11  44
BRANCH  21  48
HETATM   48  C24 UNL     1       0.528 -26.080  61.644  1.00  0.00     0.038 C 
BRANCH  48  49
HETATM   49  C25 UNL     1       0.938 -24.728  61.125  1.00  0.00    -0.020 C 
HETATM   50  C26 UNL     1       0.941 -24.624  59.627  1.00  0.00     0.009 C 
HETATM   51  C27 UNL     1      -0.140 -23.757  61.634  1.00  0.00     0.009 C 
ENDBRANCH  48  49
ENDBRANCH  21  48
BRANCH  16  52
HETATM   52  C18 UNL     1      -4.273 -24.817  62.901  1.00  0.00     0.010 C 
BRANCH  52  53
HETATM   53  C19 UNL     1      -4.569 -23.490  62.366  1.00  0.00    -0.089 C 
HETATM   54  C20 UNL     1      -5.813 -22.804  62.850  1.00  0.00     0.042 C 
HETATM   55  C21 UNL     1      -3.393 -22.552  62.201  1.00  0.00     0.042 C 
ENDBRANCH  52  53
ENDBRANCH  16  52
TORSDOF 13
ENDMDL
