MODEL 1
REMARK VINA RESULT: -5.852690326      0.000      0.000
REMARK  8 active torsions:
REMARK  status: ('A' for Active; 'I' for Inactive)
REMARK    1  A    between atoms: N1_2  and  C3_4 
REMARK    2  A    between atoms: C5_6  and  C6_7 
REMARK    3  A    between atoms: C6_7  and  O1_8 
REMARK    4  A    between atoms: O1_8  and  C7_9 
REMARK    5  A    between atoms: N4_19  and  C13_20 
REMARK    6  A    between atoms: C13_20  and  C14_21 
REMARK    7  A    between atoms: C18_27  and  C19_28 
REMARK    8  A    between atoms: C19_28  and  N5_29 
ROOT
HETATM    1  O1  UNL     1      21.741  22.851  22.567  1.00  0.00    -0.321 OA
ENDROOT
BRANCH   1   2
HETATM    2  C6  UNL     1      23.020  22.383  22.242  1.00  0.00     0.183 C 
BRANCH   2   3
HETATM    3  C5  UNL     1      23.829  21.899  23.400  1.00  0.00     0.018 C 
HETATM    4  C4  UNL     1      23.485  22.637  24.678  1.00  0.00     0.043 C 
HETATM    5  C3  UNL     1      23.342  21.614  25.750  1.00  0.00     0.223 C 
HETATM    6  C25 UNL     1      23.771  20.287  25.171  1.00  0.00     0.042 C 
HETATM    7  C18 UNL     1      23.618  20.425  23.666  1.00  0.00     0.022 C 
BRANCH   5   8
HETATM    8  N1  UNL     1      24.077  21.888  26.942  1.00  0.00     0.084 N 
HETATM    9  C1  UNL     1      24.016  20.880  27.953  1.00  0.00     0.309 C 
HETATM   10  C2  UNL     1      25.454  22.266  26.660  1.00  0.00     0.309 C 
ENDBRANCH   5   8
BRANCH   7  11
HETATM   11  C19 UNL     1      24.700  19.675  22.937  1.00  0.00     0.277 C 
BRANCH  11  12
HETATM   12  N5  UNL     1      24.247  18.511  22.243  1.00  0.00     0.089 N 
HETATM   13  C20 UNL     1      23.921  17.395  23.062  1.00  0.00     0.278 C 
HETATM   14  C21 UNL     1      23.629  16.221  22.116  1.00  0.00     0.109 C 
HETATM   15  C22 UNL     1      22.315  16.569  21.446  1.00  0.00     0.246 C 
HETATM   16  F3  UNL     1      21.412  16.798  22.475  1.00  0.00    -0.206 F 
HETATM   17  F4  UNL     1      21.911  15.527  20.640  1.00  0.00    -0.206 F 
HETATM   18  C23 UNL     1      22.540  17.787  20.611  1.00  0.00     0.109 C 
HETATM   19  C24 UNL     1      23.292  18.891  21.259  1.00  0.00     0.278 C 
ENDBRANCH  11  12
ENDBRANCH   7  11
ENDBRANCH   2   3
ENDBRANCH   1   2
BRANCH   1  20
HETATM   20  C7  UNL     1      20.665  22.133  22.009  1.00  0.00     0.228 A 
HETATM   21  N2  UNL     1      20.684  20.879  21.514  1.00  0.00    -0.319 N 
HETATM   22  C8  UNL     1      19.474  20.511  21.059  1.00  0.00     0.080 A 
ATOM     23  H2  UNL     1      21.513  20.285  21.487  1.00  0.00     0.169 HD
HETATM   24  C9  UNL     1      18.957  19.378  20.471  1.00  0.00     0.042 A 
HETATM   25  C12 UNL     1      18.650  21.598  21.285  1.00  0.00     0.138 A 
HETATM   26  C10 UNL     1      17.614  19.284  20.089  1.00  0.00    -0.033 A 
HETATM   27  C11 UNL     1      16.836  20.390  20.335  1.00  0.00     0.017 A 
HETATM   28  C17 UNL     1      16.830  18.203  19.447  1.00  0.00     0.041 A 
HETATM   29  N3  UNL     1      17.363  21.501  20.916  1.00  0.00    -0.343 N 
HETATM   30  C15 UNL     1      15.436  20.149  19.884  1.00  0.00     0.058 A 
ATOM     31  H3  UNL     1      16.750  22.300  21.080  1.00  0.00     0.167 HD
HETATM   32  C16 UNL     1      15.444  18.746  19.345  1.00  0.00     0.011 A 
HETATM   33  N4  UNL     1      19.405  22.566  21.863  1.00  0.00    -0.292 N 
BRANCH  33  34
HETATM   34  C13 UNL     1      18.941  23.875  22.273  1.00  0.00     0.205 C 
BRANCH  34  35
HETATM   35  C14 UNL     1      18.296  23.726  23.633  1.00  0.00     0.371 C 
HETATM   36  F1  UNL     1      17.364  24.721  23.866  1.00  0.00    -0.213 F 
HETATM   37  F2  UNL     1      19.247  23.752  24.632  1.00  0.00    -0.213 F 
ENDBRANCH  34  35
ENDBRANCH  33  34
ENDBRANCH   1  20
TORSDOF 8
ENDMDL
MODEL 2
REMARK VINA RESULT: -5.815373970      1.329      1.636
REMARK  8 active torsions:
REMARK  status: ('A' for Active; 'I' for Inactive)
REMARK    1  A    between atoms: N1_2  and  C3_4 
REMARK    2  A    between atoms: C5_6  and  C6_7 
REMARK    3  A    between atoms: C6_7  and  O1_8 
REMARK    4  A    between atoms: O1_8  and  C7_9 
REMARK    5  A    between atoms: N4_19  and  C13_20 
REMARK    6  A    between atoms: C13_20  and  C14_21 
REMARK    7  A    between atoms: C18_27  and  C19_28 
REMARK    8  A    between atoms: C19_28  and  N5_29 
ROOT
HETATM    1  O1  UNL     1      20.544  23.528  22.232  1.00  0.00    -0.321 OA
ENDROOT
BRANCH   1   2
HETATM    2  C6  UNL     1      21.694  23.104  21.554  1.00  0.00     0.183 C 
BRANCH   2   3
HETATM    3  C5  UNL     1      22.823  22.677  22.432  1.00  0.00     0.018 C 
HETATM    4  C4  UNL     1      22.837  23.433  23.745  1.00  0.00     0.043 C 
HETATM    5  C3  UNL     1      23.052  22.433  24.825  1.00  0.00     0.223 C 
HETATM    6  C25 UNL     1      23.347  21.107  24.165  1.00  0.00     0.042 C 
HETATM    7  C18 UNL     1      22.758  21.204  22.768  1.00  0.00     0.022 C 
BRANCH   5   8
HETATM    8  N1  UNL     1      24.091  22.761  25.748  1.00  0.00     0.084 N 
HETATM    9  C1  UNL     1      24.186  21.919  26.899  1.00  0.00     0.309 C 
HETATM   10  C2  UNL     1      25.381  22.899  25.090  1.00  0.00     0.309 C 
ENDBRANCH   5   8
BRANCH   7  11
HETATM   11  C19 UNL     1      23.610  20.474  21.766  1.00  0.00     0.277 C 
BRANCH  11  12
HETATM   12  N5  UNL     1      23.011  19.291  21.231  1.00  0.00     0.089 N 
HETATM   13  C20 UNL     1      23.573  18.063  21.674  1.00  0.00     0.278 C 
HETATM   14  C21 UNL     1      22.905  16.948  20.856  1.00  0.00     0.109 C 
HETATM   15  C22 UNL     1      21.476  16.890  21.359  1.00  0.00     0.246 C 
HETATM   16  F3  UNL     1      21.564  16.708  22.733  1.00  0.00    -0.206 F 
HETATM   17  F4  UNL     1      20.808  15.849  20.752  1.00  0.00    -0.206 F 
HETATM   18  C23 UNL     1      20.816  18.181  21.002  1.00  0.00     0.109 C 
HETATM   19  C24 UNL     1      21.594  19.412  21.291  1.00  0.00     0.278 C 
ENDBRANCH  11  12
ENDBRANCH   7  11
ENDBRANCH   2   3
ENDBRANCH   1   2
BRANCH   1  20
HETATM   20  C7  UNL     1      19.346  22.879  21.874  1.00  0.00     0.228 A 
HETATM   21  N2  UNL     1      19.207  21.781  21.104  1.00  0.00    -0.319 N 
HETATM   22  C8  UNL     1      17.915  21.437  20.968  1.00  0.00     0.080 A 
ATOM     23  H2  UNL     1      19.983  21.275  20.679  1.00  0.00     0.169 HD
HETATM   24  C9  UNL     1      17.236  20.436  20.309  1.00  0.00     0.042 A 
HETATM   25  C12 UNL     1      17.205  22.375  21.696  1.00  0.00     0.138 A 
HETATM   26  C10 UNL     1      15.842  20.330  20.347  1.00  0.00    -0.033 A 
HETATM   27  C11 UNL     1      15.183  21.286  21.084  1.00  0.00     0.017 A 
HETATM   28  C17 UNL     1      14.894  19.372  19.733  1.00  0.00     0.041 A 
HETATM   29  N3  UNL     1      15.867  22.267  21.729  1.00  0.00    -0.343 N 
HETATM   30  C15 UNL     1      13.712  21.049  21.040  1.00  0.00     0.058 A 
ATOM     31  H3  UNL     1      15.339  22.956  22.264  1.00  0.00     0.167 HD
HETATM   32  C16 UNL     1      13.547  19.815  20.198  1.00  0.00     0.011 A 
HETATM   33  N4  UNL     1      18.105  23.236  22.233  1.00  0.00    -0.292 N 
BRANCH  33  34
HETATM   34  C13 UNL     1      17.796  24.374  23.073  1.00  0.00     0.205 C 
BRANCH  34  35
HETATM   35  C14 UNL     1      17.787  23.893  24.508  1.00  0.00     0.371 C 
HETATM   36  F1  UNL     1      16.928  24.643  25.291  1.00  0.00    -0.213 F 
HETATM   37  F2  UNL     1      19.054  23.942  25.050  1.00  0.00    -0.213 F 
ENDBRANCH  34  35
ENDBRANCH  33  34
ENDBRANCH   1  20
TORSDOF 8
ENDMDL
MODEL 3
REMARK VINA RESULT: -5.733804761      4.427      6.999
REMARK  8 active torsions:
REMARK  status: ('A' for Active; 'I' for Inactive)
REMARK    1  A    between atoms: N1_2  and  C3_4 
REMARK    2  A    between atoms: C5_6  and  C6_7 
REMARK    3  A    between atoms: C6_7  and  O1_8 
REMARK    4  A    between atoms: O1_8  and  C7_9 
REMARK    5  A    between atoms: N4_19  and  C13_20 
REMARK    6  A    between atoms: C13_20  and  C14_21 
REMARK    7  A    between atoms: C18_27  and  C19_28 
REMARK    8  A    between atoms: C19_28  and  N5_29 
ROOT
HETATM    1  O1  UNL     1      16.979  17.394  18.865  1.00  0.00    -0.321 OA
ENDROOT
BRANCH   1   2
HETATM    2  C6  UNL     1      17.789  17.885  19.896  1.00  0.00     0.183 C 
BRANCH   2   3
HETATM    3  C5  UNL     1      18.200  19.314  19.749  1.00  0.00     0.018 C 
HETATM    4  C4  UNL     1      17.079  20.265  20.116  1.00  0.00     0.043 C 
HETATM    5  C3  UNL     1      17.667  21.320  20.987  1.00  0.00     0.223 C 
HETATM    6  C25 UNL     1      19.163  21.115  21.001  1.00  0.00     0.042 C 
HETATM    7  C18 UNL     1      19.383  19.659  20.626  1.00  0.00     0.022 C 
BRANCH   5   8
HETATM    8  N1  UNL     1      17.360  22.658  20.597  1.00  0.00     0.084 N 
HETATM    9  C1  UNL     1      16.890  23.515  21.640  1.00  0.00     0.309 C 
HETATM   10  C2  UNL     1      18.454  23.276  19.862  1.00  0.00     0.309 C 
ENDBRANCH   5   8
BRANCH   7  11
HETATM   11  C19 UNL     1      20.625  19.493  19.793  1.00  0.00     0.277 C 
BRANCH  11  12
HETATM   12  N5  UNL     1      21.641  18.692  20.402  1.00  0.00     0.089 N 
HETATM   13  C20 UNL     1      21.971  19.032  21.742  1.00  0.00     0.278 C 
HETATM   14  C21 UNL     1      23.183  18.172  22.132  1.00  0.00     0.109 C 
HETATM   15  C22 UNL     1      22.647  16.759  22.243  1.00  0.00     0.246 C 
HETATM   16  F3  UNL     1      21.592  16.822  23.144  1.00  0.00    -0.206 F 
HETATM   17  F4  UNL     1      23.642  15.915  22.685  1.00  0.00    -0.206 F 
HETATM   18  C23 UNL     1      22.201  16.334  20.882  1.00  0.00     0.109 C 
HETATM   19  C24 UNL     1      21.386  17.319  20.128  1.00  0.00     0.278 C 
ENDBRANCH  11  12
ENDBRANCH   7  11
ENDBRANCH   2   3
ENDBRANCH   1   2
BRANCH   1  20
HETATM   20  C7  UNL     1      15.999  16.458  19.249  1.00  0.00     0.228 A 
HETATM   21  N2  UNL     1      16.193  15.187  19.657  1.00  0.00    -0.319 N 
HETATM   22  C8  UNL     1      15.029  14.580  19.943  1.00  0.00     0.080 A 
ATOM     23  H2  UNL     1      17.107  14.743  19.738  1.00  0.00     0.169 HD
HETATM   24  C9  UNL     1      14.665  13.326  20.382  1.00  0.00     0.042 A 
HETATM   25  C12 UNL     1      14.049  15.526  19.700  1.00  0.00     0.138 A 
HETATM   26  C10 UNL     1      13.329  12.968  20.594  1.00  0.00    -0.033 A 
HETATM   27  C11 UNL     1      12.394  13.944  20.339  1.00  0.00     0.017 A 
HETATM   28  C17 UNL     1      12.690  11.711  21.047  1.00  0.00     0.041 A 
HETATM   29  N3  UNL     1      12.770  15.177  19.906  1.00  0.00    -0.343 N 
HETATM   30  C15 UNL     1      11.023  13.429  20.610  1.00  0.00     0.058 A 
ATOM     31  H3  UNL     1      12.043  15.870  19.729  1.00  0.00     0.167 HD
HETATM   32  C16 UNL     1      11.230  12.017  21.083  1.00  0.00     0.011 A 
HETATM   33  N4  UNL     1      14.673  16.655  19.280  1.00  0.00    -0.292 N 
BRANCH  33  34
HETATM   34  C13 UNL     1      14.027  17.899  18.918  1.00  0.00     0.205 C 
BRANCH  34  35
HETATM   35  C14 UNL     1      13.683  18.625  20.200  1.00  0.00     0.371 C 
HETATM   36  F1  UNL     1      14.569  18.312  21.216  1.00  0.00    -0.213 F 
HETATM   37  F2  UNL     1      12.401  18.321  20.607  1.00  0.00    -0.213 F 
ENDBRANCH  34  35
ENDBRANCH  33  34
ENDBRANCH   1  20
TORSDOF 8
ENDMDL
MODEL 4
REMARK VINA RESULT: -5.717310414      4.530      7.250
REMARK  8 active torsions:
REMARK  status: ('A' for Active; 'I' for Inactive)
REMARK    1  A    between atoms: N1_2  and  C3_4 
REMARK    2  A    between atoms: C5_6  and  C6_7 
REMARK    3  A    between atoms: C6_7  and  O1_8 
REMARK    4  A    between atoms: O1_8  and  C7_9 
REMARK    5  A    between atoms: N4_19  and  C13_20 
REMARK    6  A    between atoms: C13_20  and  C14_21 
REMARK    7  A    between atoms: C18_27  and  C19_28 
REMARK    8  A    between atoms: C19_28  and  N5_29 
ROOT
HETATM    1  O1  UNL     1      16.955  17.883  19.633  1.00  0.00    -0.321 OA
ENDROOT
BRANCH   1   2
HETATM    2  C6  UNL     1      16.544  19.199  19.879  1.00  0.00     0.183 C 
BRANCH   2   3
HETATM    3  C5  UNL     1      17.635  20.218  19.849  1.00  0.00     0.018 C 
HETATM    4  C4  UNL     1      17.185  21.547  20.420  1.00  0.00     0.043 C 
HETATM    5  C3  UNL     1      18.258  22.015  21.339  1.00  0.00     0.223 C 
HETATM    6  C25 UNL     1      19.428  21.071  21.190  1.00  0.00     0.042 C 
HETATM    7  C18 UNL     1      18.846  19.779  20.641  1.00  0.00     0.022 C 
BRANCH   5   8
HETATM    8  N1  UNL     1      18.686  23.360  21.126  1.00  0.00     0.084 N 
HETATM    9  C1  UNL     1      18.276  24.304  22.118  1.00  0.00     0.309 C 
HETATM   10  C2  UNL     1      20.117  23.445  20.879  1.00  0.00     0.309 C 
ENDBRANCH   5   8
BRANCH   7  11
HETATM   11  C19 UNL     1      19.799  19.117  19.682  1.00  0.00     0.277 C 
BRANCH  11  12
HETATM   12  N5  UNL     1      20.813  18.328  20.308  1.00  0.00     0.089 N 
HETATM   13  C20 UNL     1      20.363  17.134  20.936  1.00  0.00     0.278 C 
HETATM   14  C21 UNL     1      21.569  16.542  21.679  1.00  0.00     0.109 C 
HETATM   15  C22 UNL     1      22.501  16.047  20.592  1.00  0.00     0.246 C 
HETATM   16  F3  UNL     1      21.747  15.182  19.810  1.00  0.00    -0.206 F 
HETATM   17  F4  UNL     1      23.582  15.406  21.158  1.00  0.00    -0.206 F 
HETATM   18  C23 UNL     1      22.974  17.235  19.822  1.00  0.00     0.109 C 
HETATM   19  C24 UNL     1      21.931  18.218  19.434  1.00  0.00     0.278 C 
ENDBRANCH  11  12
ENDBRANCH   7  11
ENDBRANCH   2   3
ENDBRANCH   1   2
BRANCH   1  20
HETATM   20  C7  UNL     1      15.979  16.888  19.835  1.00  0.00     0.228 A 
HETATM   21  N2  UNL     1      14.640  17.041  19.840  1.00  0.00    -0.319 N 
HETATM   22  C8  UNL     1      14.012  15.874  20.067  1.00  0.00     0.080 A 
ATOM     23  H2  UNL     1      14.163  17.930  19.691  1.00  0.00     0.169 HD
HETATM   24  C9  UNL     1      12.697  15.479  20.174  1.00  0.00     0.042 A 
HETATM   25  C12 UNL     1      15.019  14.936  20.210  1.00  0.00     0.138 A 
HETATM   26  C10 UNL     1      12.336  14.151  20.426  1.00  0.00    -0.033 A 
HETATM   27  C11 UNL     1      13.372  13.258  20.560  1.00  0.00     0.017 A 
HETATM   28  C17 UNL     1      11.023  13.485  20.588  1.00  0.00     0.041 A 
HETATM   29  N3  UNL     1      14.665  13.664  20.451  1.00  0.00    -0.343 N 
HETATM   30  C15 UNL     1      12.844  11.889  20.820  1.00  0.00     0.058 A 
ATOM     31  H3  UNL     1      15.403  12.968  20.558  1.00  0.00     0.167 HD
HETATM   32  C16 UNL     1      11.349  12.046  20.810  1.00  0.00     0.011 A 
HETATM   33  N4  UNL     1      16.201  15.586  20.064  1.00  0.00    -0.292 N 
BRANCH  33  34
HETATM   34  C13 UNL     1      17.515  14.984  20.136  1.00  0.00     0.205 C 
BRANCH  34  35
HETATM   35  C14 UNL     1      17.816  14.380  18.781  1.00  0.00     0.371 C 
HETATM   36  F1  UNL     1      17.698  13.002  18.801  1.00  0.00    -0.213 F 
HETATM   37  F2  UNL     1      19.087  14.719  18.365  1.00  0.00    -0.213 F 
ENDBRANCH  34  35
ENDBRANCH  33  34
ENDBRANCH   1  20
TORSDOF 8
ENDMDL
MODEL 5
REMARK VINA RESULT: -5.654289720      3.505      6.277
REMARK  8 active torsions:
REMARK  status: ('A' for Active; 'I' for Inactive)
REMARK    1  A    between atoms: N1_2  and  C3_4 
REMARK    2  A    between atoms: C5_6  and  C6_7 
REMARK    3  A    between atoms: C6_7  and  O1_8 
REMARK    4  A    between atoms: O1_8  and  C7_9 
REMARK    5  A    between atoms: N4_19  and  C13_20 
REMARK    6  A    between atoms: C13_20  and  C14_21 
REMARK    7  A    between atoms: C18_27  and  C19_28 
REMARK    8  A    between atoms: C19_28  and  N5_29 
ROOT
HETATM    1  O1  UNL     1      17.686  19.083  19.433  1.00  0.00    -0.321 OA
ENDROOT
BRANCH   1   2
HETATM    2  C6  UNL     1      18.463  19.395  20.556  1.00  0.00     0.183 C 
BRANCH   2   3
HETATM    3  C5  UNL     1      19.099  20.746  20.528  1.00  0.00     0.018 C 
HETATM    4  C4  UNL     1      18.145  21.830  20.987  1.00  0.00     0.043 C 
HETATM    5  C3  UNL     1      18.893  22.697  21.938  1.00  0.00     0.223 C 
HETATM    6  C25 UNL     1      20.336  22.254  21.919  1.00  0.00     0.042 C 
HETATM    7  C18 UNL     1      20.319  20.820  21.418  1.00  0.00     0.022 C 
BRANCH   5   8
HETATM    8  N1  UNL     1      18.807  24.096  21.667  1.00  0.00     0.084 N 
HETATM    9  C1  UNL     1      19.710  24.592  20.676  1.00  0.00     0.309 C 
HETATM   10  C2  UNL     1      17.441  24.515  21.391  1.00  0.00     0.309 C 
ENDBRANCH   5   8
BRANCH   7  11
HETATM   11  C19 UNL     1      21.522  20.529  20.561  1.00  0.00     0.277 C 
BRANCH  11  12
HETATM   12  N5  UNL     1      22.329  19.445  21.026  1.00  0.00     0.089 N 
HETATM   13  C20 UNL     1      22.267  19.187  22.423  1.00  0.00     0.278 C 
HETATM   14  C21 UNL     1      23.324  18.115  22.724  1.00  0.00     0.109 C 
HETATM   15  C22 UNL     1      22.789  16.843  22.100  1.00  0.00     0.246 C 
HETATM   16  F3  UNL     1      21.522  16.658  22.640  1.00  0.00    -0.206 F 
HETATM   17  F4  UNL     1      23.624  15.788  22.397  1.00  0.00    -0.206 F 
HETATM   18  C23 UNL     1      22.747  17.044  20.621  1.00  0.00     0.109 C 
HETATM   19  C24 UNL     1      22.171  18.331  20.155  1.00  0.00     0.278 C 
ENDBRANCH  11  12
ENDBRANCH   7  11
ENDBRANCH   2   3
ENDBRANCH   1   2
BRANCH   1  20
HETATM   20  C7  UNL     1      16.902  17.917  19.535  1.00  0.00     0.228 A 
HETATM   21  N2  UNL     1      15.664  17.803  20.056  1.00  0.00    -0.319 N 
HETATM   22  C8  UNL     1      15.218  16.538  19.990  1.00  0.00     0.080 A 
ATOM     23  H2  UNL     1      15.133  18.580  20.451  1.00  0.00     0.169 HD
HETATM   24  C9  UNL     1      14.062  15.890  20.369  1.00  0.00     0.042 A 
HETATM   25  C12 UNL     1      16.236  15.818  19.392  1.00  0.00     0.138 A 
HETATM   26  C10 UNL     1      13.877  14.518  20.170  1.00  0.00    -0.033 A 
HETATM   27  C11 UNL     1      14.918  13.848  19.570  1.00  0.00     0.017 A 
HETATM   28  C17 UNL     1      12.755  13.603  20.485  1.00  0.00     0.041 A 
HETATM   29  N3  UNL     1      16.051  14.502  19.203  1.00  0.00    -0.343 N 
HETATM   30  C15 UNL     1      14.583  12.404  19.418  1.00  0.00     0.058 A 
ATOM     31  H3  UNL     1      16.799  13.966  18.762  1.00  0.00     0.167 HD
HETATM   32  C16 UNL     1      13.196  12.270  19.981  1.00  0.00     0.011 A 
HETATM   33  N4  UNL     1      17.244  16.687  19.128  1.00  0.00    -0.292 N 
BRANCH  33  34
HETATM   34  C13 UNL     1      18.506  16.358  18.499  1.00  0.00     0.205 C 
BRANCH  34  35
HETATM   35  C14 UNL     1      19.322  15.566  19.498  1.00  0.00     0.371 C 
HETATM   36  F1  UNL     1      19.467  16.248  20.693  1.00  0.00    -0.213 F 
HETATM   37  F2  UNL     1      20.570  15.273  18.989  1.00  0.00    -0.213 F 
ENDBRANCH  34  35
ENDBRANCH  33  34
ENDBRANCH   1  20
TORSDOF 8
ENDMDL
