MODEL 1
REMARK VINA RESULT: -5.981635752      0.000      0.000
REMARK  10 active torsions:
REMARK  status: ('A' for Active; 'I' for Inactive)
REMARK    1  A    between atoms: C2_2  and  N1_3 
REMARK    2  A    between atoms: C5_8  and  S1_9 
REMARK    3  A    between atoms: S1_9  and  C6_11 
REMARK    4  A    between atoms: C6_11  and  N3_15 
REMARK    5  A    between atoms: N3_15  and  C7_17 
REMARK    6  A    between atoms: C7_17  and  C8_18 
REMARK    7  A    between atoms: C8_18  and  N4_19 
REMARK       I    between atoms: N4_19  and  C9_21 
REMARK    8  A    between atoms: C13_31  and  S3_32 
REMARK    9  A    between atoms: S3_32  and  C14_33 
REMARK   10  A    between atoms: C16_43  and  C17_44 
ROOT
HETATM    1  N1  UNL     1      37.947  88.028  -5.239  1.00  0.00    -0.388 N 
ATOM      2  H1  UNL     1      37.630  87.302  -4.596  1.00  0.00     0.159 HD
HETATM    3  C3  UNL     1      37.729  89.235  -4.879  1.00  0.00     0.098 C 
HETATM    4  C4  UNL     1      38.065  90.463  -5.586  1.00  0.00     0.220 C 
HETATM    5  O1  UNL     1      38.436  90.528  -6.787  1.00  0.00    -0.288 OA
HETATM    6  C5  UNL     1      37.887  91.606  -4.629  1.00  0.00     0.401 C 
HETATM    7  N7  UNL     1      36.860  91.087  -3.781  1.00  0.00     0.152 N 
HETATM    8  C10 UNL     1      37.080  89.660  -3.644  1.00  0.00     0.341 C 
HETATM    9  S2  UNL     1      35.386  88.967  -3.469  1.00  0.00    -0.123 SA
HETATM   10  C11 UNL     1      34.503  90.293  -2.548  1.00  0.00     0.114 C 
HETATM   11  C12 UNL     1      35.493  91.159  -1.843  1.00  0.00    -0.021 C 
HETATM   12  C13 UNL     1      35.306  91.478  -0.565  1.00  0.00     0.058 C 
HETATM   13  C16 UNL     1      36.721  91.701  -2.508  1.00  0.00     0.357 C 
ENDROOT
BRANCH   6  14
HETATM   14  S1  UNL     1      37.376  93.088  -5.369  1.00  0.00     0.125 S 
HETATM   15  O2  UNL     1      38.536  94.031  -6.037  1.00  0.00    -0.247 OA
BRANCH  14  16
HETATM   16  C6  UNL     1      35.829  93.111  -6.092  1.00  0.00     0.167 C 
HETATM   17  N2  UNL     1      35.694  92.398  -7.190  1.00  0.00    -0.378 N 
ATOM     18  H22 UNL     1      36.521  91.895  -7.512  1.00  0.00     0.158 HD
ATOM     19  H21 UNL     1      34.770  92.411  -7.621  1.00  0.00     0.158 HD
BRANCH  16  20
HETATM   20  N3  UNL     1      34.689  93.804  -5.648  1.00  0.00    -0.368 N 
ATOM     21  H3  UNL     1      34.428  94.663  -6.134  1.00  0.00     0.161 HD
BRANCH  20  22
HETATM   22  C7  UNL     1      33.873  93.375  -4.553  1.00  0.00     0.141 C 
BRANCH  22  23
HETATM   23  C8  UNL     1      33.492  94.526  -3.645  1.00  0.00     0.142 C 
BRANCH  23  24
HETATM   24  N4  UNL     1      33.741  94.154  -2.267  1.00  0.00    -0.363 N 
HETATM   25  C9  UNL     1      34.337  95.060  -1.347  1.00  0.00     0.181 C 
HETATM   26  N5  UNL     1      35.601  94.949  -1.131  1.00  0.00    -0.374 N 
HETATM   27  N6  UNL     1      33.555  96.063  -0.681  1.00  0.00    -0.064 NA
ATOM     28  H52 UNL     1      36.156  94.236  -1.603  1.00  0.00     0.158 HD
ATOM     29  H51 UNL     1      36.029  95.599  -0.471  1.00  0.00     0.158 HD
ATOM     30  H4  UNL     1      33.482  93.220  -1.950  1.00  0.00     0.162 HD
ENDBRANCH  23  24
ENDBRANCH  22  23
ENDBRANCH  20  22
ENDBRANCH  16  20
ENDBRANCH  14  16
ENDBRANCH   6  14
BRANCH  13  31
HETATM   31  C17 UNL     1      37.853  91.421  -1.581  1.00  0.00     0.212 C 
HETATM   32  O3  UNL     1      38.604  92.331  -1.136  1.00  0.00    -0.646 OA
HETATM   33  O4  UNL     1      38.165  90.129  -1.138  1.00  0.00    -0.646 OA
ENDBRANCH  13  31
BRANCH   1  34
HETATM   34  C2  UNL     1      38.581  87.576  -6.435  1.00  0.00     0.115 C 
HETATM   35  C1  UNL     1      40.068  87.345  -6.253  1.00  0.00     0.026 C 
ENDBRANCH   1  34
BRANCH  12  36
HETATM   36  S3  UNL     1      33.856  90.850   0.287  1.00  0.00    -0.075 SA
BRANCH  36  37
HETATM   37  C14 UNL     1      32.761  92.255   0.610  1.00  0.00     0.134 A 
HETATM   38  N8  UNL     1      32.995  93.317   1.368  1.00  0.00    -0.286 N 
HETATM   39  N9  UNL     1      32.110  94.219   1.491  1.00  0.00    -0.279 N 
ATOM     40  H8  UNL     1      33.887  93.409   1.854  1.00  0.00     0.188 HD
HETATM   41  C15 UNL     1      30.949  94.070   0.842  1.00  0.00     0.159 A 
ATOM     42  H9  UNL     1      32.281  95.040   2.072  1.00  0.00     0.189 HD
HETATM   43  N10 UNL     1      29.918  94.883   0.843  1.00  0.00    -0.379 N 
HETATM   44  S4  UNL     1      31.181  92.578   0.047  1.00  0.00    -0.026 SA
ATOM     45 2H10 UNL     1      29.780  95.774   1.319  1.00  0.00     0.158 HD
ATOM     46 1H10 UNL     1      29.034  94.769   0.349  1.00  0.00     0.158 HD
ENDBRANCH  36  37
ENDBRANCH  12  36
TORSDOF 10
ENDMDL
MODEL 2
REMARK VINA RESULT: -5.941995924      4.001      8.918
REMARK  10 active torsions:
REMARK  status: ('A' for Active; 'I' for Inactive)
REMARK    1  A    between atoms: C2_2  and  N1_3 
REMARK    2  A    between atoms: C5_8  and  S1_9 
REMARK    3  A    between atoms: S1_9  and  C6_11 
REMARK    4  A    between atoms: C6_11  and  N3_15 
REMARK    5  A    between atoms: N3_15  and  C7_17 
REMARK    6  A    between atoms: C7_17  and  C8_18 
REMARK    7  A    between atoms: C8_18  and  N4_19 
REMARK       I    between atoms: N4_19  and  C9_21 
REMARK    8  A    between atoms: C13_31  and  S3_32 
REMARK    9  A    between atoms: S3_32  and  C14_33 
REMARK   10  A    between atoms: C16_43  and  C17_44 
ROOT
HETATM    1  N1  UNL     1      34.545  94.920  -1.754  1.00  0.00    -0.388 N 
ATOM      2  H1  UNL     1      35.141  95.336  -2.470  1.00  0.00     0.159 HD
HETATM    3  C3  UNL     1      34.761  93.689  -1.485  1.00  0.00     0.098 C 
HETATM    4  C4  UNL     1      34.074  92.841  -0.520  1.00  0.00     0.220 C 
HETATM    5  O1  UNL     1      32.995  93.132   0.059  1.00  0.00    -0.288 OA
HETATM    6  C5  UNL     1      34.883  91.587  -0.356  1.00  0.00     0.401 C 
HETATM    7  N7  UNL     1      35.494  91.492  -1.645  1.00  0.00     0.152 N 
HETATM    8  C10 UNL     1      35.775  92.840  -2.100  1.00  0.00     0.341 C 
HETATM    9  S2  UNL     1      35.586  92.737  -3.926  1.00  0.00    -0.123 SA
HETATM   10  C11 UNL     1      36.179  91.034  -4.295  1.00  0.00     0.114 C 
HETATM   11  C12 UNL     1      37.040  90.549  -3.177  1.00  0.00    -0.021 C 
HETATM   12  C13 UNL     1      38.212  89.978  -3.441  1.00  0.00     0.058 C 
HETATM   13  C16 UNL     1      36.653  90.677  -1.736  1.00  0.00     0.357 C 
ENDROOT
BRANCH   6  14
HETATM   14  S1  UNL     1      33.945  90.168  -0.019  1.00  0.00     0.125 S 
HETATM   15  O2  UNL     1      32.664  89.867  -0.992  1.00  0.00    -0.247 OA
BRANCH  14  16
HETATM   16  C6  UNL     1      34.769  88.823   0.639  1.00  0.00     0.167 C 
HETATM   17  N2  UNL     1      35.893  89.087   1.270  1.00  0.00    -0.378 N 
ATOM     18  H22 UNL     1      36.174  90.066   1.314  1.00  0.00     0.158 HD
ATOM     19  H21 UNL     1      36.384  88.284   1.663  1.00  0.00     0.158 HD
BRANCH  16  20
HETATM   20  N3  UNL     1      34.382  87.472   0.579  1.00  0.00    -0.368 N 
ATOM     21  H3  UNL     1      34.647  86.932  -0.245  1.00  0.00     0.161 HD
BRANCH  20  22
HETATM   22  C7  UNL     1      33.638  86.812   1.608  1.00  0.00     0.141 C 
BRANCH  22  23
HETATM   23  C8  UNL     1      33.906  85.322   1.632  1.00  0.00     0.142 C 
BRANCH  23  24
HETATM   24  N4  UNL     1      35.125  85.041   0.902  1.00  0.00    -0.363 N 
HETATM   25  C9  UNL     1      35.176  84.042  -0.108  1.00  0.00     0.181 C 
HETATM   26  N5  UNL     1      35.639  82.885   0.215  1.00  0.00    -0.374 N 
HETATM   27  N6  UNL     1      34.727  84.314  -1.444  1.00  0.00    -0.064 NA
ATOM     28  H52 UNL     1      35.958  82.692   1.164  1.00  0.00     0.158 HD
ATOM     29  H51 UNL     1      35.674  82.168  -0.510  1.00  0.00     0.158 HD
ATOM     30  H4  UNL     1      35.968  85.572   1.119  1.00  0.00     0.162 HD
ENDBRANCH  23  24
ENDBRANCH  22  23
ENDBRANCH  20  22
ENDBRANCH  16  20
ENDBRANCH  14  16
ENDBRANCH   6  14
BRANCH  13  31
HETATM   31  C17 UNL     1      37.840  91.242  -1.036  1.00  0.00     0.212 C 
HETATM   32  O3  UNL     1      38.214  90.835   0.098  1.00  0.00    -0.646 OA
HETATM   33  O4  UNL     1      38.625  92.264  -1.584  1.00  0.00    -0.646 OA
ENDBRANCH  13  31
BRANCH   1  34
HETATM   34  C2  UNL     1      33.568  95.782  -1.170  1.00  0.00     0.115 C 
HETATM   35  C1  UNL     1      32.559  96.288  -2.182  1.00  0.00     0.026 C 
ENDBRANCH   1  34
BRANCH  12  36
HETATM   36  S3  UNL     1      38.733  89.806  -5.151  1.00  0.00    -0.075 SA
BRANCH  36  37
HETATM   37  C14 UNL     1      40.152  88.682  -5.179  1.00  0.00     0.134 A 
HETATM   38  N8  UNL     1      41.231  88.706  -4.410  1.00  0.00    -0.286 N 
HETATM   39  N9  UNL     1      42.143  87.837  -4.564  1.00  0.00    -0.279 N 
ATOM     40  H8  UNL     1      41.328  89.425  -3.693  1.00  0.00     0.188 HD
HETATM   41  C15 UNL     1      41.986  86.906  -5.513  1.00  0.00     0.159 A 
ATOM     42  H9  UNL     1      42.976  87.847  -3.976  1.00  0.00     0.189 HD
HETATM   43  N10 UNL     1      42.809  85.932  -5.827  1.00  0.00    -0.379 N 
HETATM   44  S4  UNL     1      40.473  87.332  -6.177  1.00  0.00    -0.026 SA
ATOM     45 2H10 UNL     1      43.714  85.678  -5.430  1.00  0.00     0.158 HD
ATOM     46 1H10 UNL     1      42.690  85.224  -6.550  1.00  0.00     0.158 HD
ENDBRANCH  36  37
ENDBRANCH  12  36
TORSDOF 10
ENDMDL
MODEL 3
REMARK VINA RESULT: -5.851893212      2.866      6.570
REMARK  10 active torsions:
REMARK  status: ('A' for Active; 'I' for Inactive)
REMARK    1  A    between atoms: C2_2  and  N1_3 
REMARK    2  A    between atoms: C5_8  and  S1_9 
REMARK    3  A    between atoms: S1_9  and  C6_11 
REMARK    4  A    between atoms: C6_11  and  N3_15 
REMARK    5  A    between atoms: N3_15  and  C7_17 
REMARK    6  A    between atoms: C7_17  and  C8_18 
REMARK    7  A    between atoms: C8_18  and  N4_19 
REMARK       I    between atoms: N4_19  and  C9_21 
REMARK    8  A    between atoms: C13_31  and  S3_32 
REMARK    9  A    between atoms: S3_32  and  C14_33 
REMARK   10  A    between atoms: C16_43  and  C17_44 
ROOT
HETATM    1  N1  UNL     1      34.900  86.662  -4.972  1.00  0.00    -0.388 N 
ATOM      2  H1  UNL     1      34.010  87.069  -4.684  1.00  0.00     0.159 HD
HETATM    3  C3  UNL     1      35.924  87.422  -4.882  1.00  0.00     0.098 C 
HETATM    4  C4  UNL     1      37.308  87.117  -5.218  1.00  0.00     0.220 C 
HETATM    5  O1  UNL     1      37.689  86.109  -5.868  1.00  0.00    -0.288 OA
HETATM    6  C5  UNL     1      38.167  88.211  -4.655  1.00  0.00     0.401 C 
HETATM    7  N7  UNL     1      37.257  89.313  -4.692  1.00  0.00     0.152 N 
HETATM    8  C10 UNL     1      35.931  88.800  -4.404  1.00  0.00     0.341 C 
HETATM    9  S2  UNL     1      34.816  89.886  -5.384  1.00  0.00    -0.123 SA
HETATM   10  C11 UNL     1      35.681  91.509  -5.321  1.00  0.00     0.114 C 
HETATM   11  C12 UNL     1      36.618  91.534  -4.160  1.00  0.00    -0.021 C 
HETATM   12  C13 UNL     1      36.632  92.582  -3.341  1.00  0.00     0.058 C 
HETATM   13  C16 UNL     1      37.565  90.416  -3.852  1.00  0.00     0.357 C 
ENDROOT
BRANCH   6  14
HETATM   14  S1  UNL     1      39.587  88.560  -5.586  1.00  0.00     0.125 S 
HETATM   15  O2  UNL     1      39.469  89.734  -6.721  1.00  0.00    -0.247 OA
BRANCH  14  16
HETATM   16  C6  UNL     1      41.099  88.357  -4.817  1.00  0.00     0.167 C 
HETATM   17  N2  UNL     1      41.302  89.088  -3.741  1.00  0.00    -0.378 N 
ATOM     18  H22 UNL     1      40.543  89.708  -3.461  1.00  0.00     0.158 HD
ATOM     19  H21 UNL     1      42.204  88.966  -3.282  1.00  0.00     0.158 HD
BRANCH  16  20
HETATM   20  N3  UNL     1      42.146  87.501  -5.204  1.00  0.00    -0.368 N 
ATOM     21  H3  UNL     1      43.086  87.891  -5.271  1.00  0.00     0.161 HD
BRANCH  20  22
HETATM   22  C7  UNL     1      41.967  86.114  -5.509  1.00  0.00     0.141 C 
BRANCH  22  23
HETATM   23  C8  UNL     1      41.766  85.882  -6.992  1.00  0.00     0.142 C 
BRANCH  23  24
HETATM   24  N4  UNL     1      40.453  85.311  -7.215  1.00  0.00    -0.363 N 
HETATM   25  C9  UNL     1      39.827  85.358  -8.491  1.00  0.00     0.181 C 
HETATM   26  N5  UNL     1      38.961  86.286  -8.700  1.00  0.00    -0.374 N 
HETATM   27  N6  UNL     1      40.150  84.402  -9.512  1.00  0.00    -0.064 NA
ATOM     28  H52 UNL     1      38.731  86.965  -7.974  1.00  0.00     0.158 HD
ATOM     29  H51 UNL     1      38.512  86.321  -9.615  1.00  0.00     0.158 HD
ATOM     30  H4  UNL     1      39.967  84.864  -6.438  1.00  0.00     0.162 HD
ENDBRANCH  23  24
ENDBRANCH  22  23
ENDBRANCH  20  22
ENDBRANCH  16  20
ENDBRANCH  14  16
ENDBRANCH   6  14
BRANCH  13  31
HETATM   31  C17 UNL     1      37.407  90.125  -2.400  1.00  0.00     0.212 C 
HETATM   32  O3  UNL     1      38.393  90.013  -1.621  1.00  0.00    -0.646 OA
HETATM   33  O4  UNL     1      36.155  89.956  -1.795  1.00  0.00    -0.646 OA
ENDBRANCH  13  31
BRANCH   1  34
HETATM   34  C2  UNL     1      34.856  85.310  -5.429  1.00  0.00     0.115 C 
HETATM   35  C1  UNL     1      35.028  84.309  -4.303  1.00  0.00     0.026 C 
ENDBRANCH   1  34
BRANCH  12  36
HETATM   36  S3  UNL     1      35.512  93.950  -3.654  1.00  0.00    -0.075 SA
BRANCH  36  37
HETATM   37  C14 UNL     1      34.580  94.254  -2.132  1.00  0.00     0.134 A 
HETATM   38  N8  UNL     1      34.155  95.413  -1.650  1.00  0.00    -0.286 N 
HETATM   39  N9  UNL     1      33.511  95.451  -0.557  1.00  0.00    -0.279 N 
ATOM     40  H8  UNL     1      34.346  96.276  -2.158  1.00  0.00     0.188 HD
HETATM   41  C15 UNL     1      33.276  94.301   0.088  1.00  0.00     0.159 A 
ATOM     42  H9  UNL     1      33.179  96.338  -0.178  1.00  0.00     0.189 HD
HETATM   43  N10 UNL     1      32.636  94.132   1.222  1.00  0.00    -0.379 N 
HETATM   44  S4  UNL     1      34.019  93.163  -0.942  1.00  0.00    -0.026 SA
ATOM     45 2H10 UNL     1      32.192  94.814   1.838  1.00  0.00     0.158 HD
ATOM     46 1H10 UNL     1      32.457  93.257   1.713  1.00  0.00     0.158 HD
ENDBRANCH  36  37
ENDBRANCH  12  36
TORSDOF 10
ENDMDL
MODEL 4
REMARK VINA RESULT: -5.814888877      2.548      5.453
REMARK  10 active torsions:
REMARK  status: ('A' for Active; 'I' for Inactive)
REMARK    1  A    between atoms: C2_2  and  N1_3 
REMARK    2  A    between atoms: C5_8  and  S1_9 
REMARK    3  A    between atoms: S1_9  and  C6_11 
REMARK    4  A    between atoms: C6_11  and  N3_15 
REMARK    5  A    between atoms: N3_15  and  C7_17 
REMARK    6  A    between atoms: C7_17  and  C8_18 
REMARK    7  A    between atoms: C8_18  and  N4_19 
REMARK       I    between atoms: N4_19  and  C9_21 
REMARK    8  A    between atoms: C13_31  and  S3_32 
REMARK    9  A    between atoms: S3_32  and  C14_33 
REMARK   10  A    between atoms: C16_43  and  C17_44 
ROOT
HETATM    1  N1  UNL     1      34.247  87.834  -3.469  1.00  0.00    -0.388 N 
ATOM      2  H1  UNL     1      33.410  88.161  -2.984  1.00  0.00     0.159 HD
HETATM    3  C3  UNL     1      35.230  88.651  -3.512  1.00  0.00     0.098 C 
HETATM    4  C4  UNL     1      36.535  88.461  -4.129  1.00  0.00     0.220 C 
HETATM    5  O1  UNL     1      36.832  87.528  -4.921  1.00  0.00    -0.288 OA
HETATM    6  C5  UNL     1      37.432  89.564  -3.650  1.00  0.00     0.401 C 
HETATM    7  N7  UNL     1      36.479  90.605  -3.422  1.00  0.00     0.152 N 
HETATM    8  C10 UNL     1      35.261  89.988  -2.931  1.00  0.00     0.341 C 
HETATM    9  S2  UNL     1      33.925  91.067  -3.587  1.00  0.00    -0.123 SA
HETATM   10  C11 UNL     1      34.704  92.734  -3.556  1.00  0.00     0.114 C 
HETATM   11  C12 UNL     1      35.846  92.737  -2.595  1.00  0.00    -0.021 C 
HETATM   12  C13 UNL     1      35.967  93.722  -1.710  1.00  0.00     0.058 C 
HETATM   13  C16 UNL     1      36.889  91.662  -2.567  1.00  0.00     0.357 C 
ENDROOT
BRANCH   6  14
HETATM   14  S1  UNL     1      38.625  90.071  -4.802  1.00  0.00     0.125 S 
HETATM   15  O2  UNL     1      40.175  89.624  -4.522  1.00  0.00    -0.247 OA
BRANCH  14  16
HETATM   16  C6  UNL     1      38.129  90.218  -6.430  1.00  0.00     0.167 C 
HETATM   17  N2  UNL     1      37.725  91.413  -6.805  1.00  0.00    -0.378 N 
ATOM     18  H22 UNL     1      37.744  92.145  -6.095  1.00  0.00     0.158 HD
ATOM     19  H21 UNL     1      37.429  91.500  -7.777  1.00  0.00     0.158 HD
BRANCH  16  20
HETATM   20  N3  UNL     1      38.102  89.208  -7.408  1.00  0.00    -0.368 N 
ATOM     21  H3  UNL     1      37.203  88.969  -7.829  1.00  0.00     0.161 HD
BRANCH  20  22
HETATM   22  C7  UNL     1      39.263  88.496  -7.849  1.00  0.00     0.141 C 
BRANCH  22  23
HETATM   23  C8  UNL     1      39.520  87.260  -7.012  1.00  0.00     0.142 C 
BRANCH  23  24
HETATM   24  N4  UNL     1      40.925  87.198  -6.665  1.00  0.00    -0.363 N 
HETATM   25  C9  UNL     1      41.383  86.458  -5.541  1.00  0.00     0.181 C 
HETATM   26  N5  UNL     1      41.607  87.104  -4.449  1.00  0.00    -0.374 N 
HETATM   27  N6  UNL     1      41.589  85.040  -5.618  1.00  0.00    -0.064 NA
ATOM     28  H52 UNL     1      41.461  88.112  -4.394  1.00  0.00     0.158 HD
ATOM     29  H51 UNL     1      41.935  86.574  -3.642  1.00  0.00     0.158 HD
ATOM     30  H4  UNL     1      41.602  87.697  -7.242  1.00  0.00     0.162 HD
ENDBRANCH  23  24
ENDBRANCH  22  23
ENDBRANCH  20  22
ENDBRANCH  16  20
ENDBRANCH  14  16
ENDBRANCH   6  14
BRANCH  13  31
HETATM   31  C17 UNL     1      37.031  91.259  -1.141  1.00  0.00     0.212 C 
HETATM   32  O3  UNL     1      38.151  91.194  -0.564  1.00  0.00    -0.646 OA
HETATM   33  O4  UNL     1      35.934  90.921  -0.338  1.00  0.00    -0.646 OA
ENDBRANCH  13  31
BRANCH   1  34
HETATM   34  C2  UNL     1      34.181  86.518  -4.019  1.00  0.00     0.115 C 
HETATM   35  C1  UNL     1      34.369  85.439  -2.972  1.00  0.00     0.026 C 
ENDBRANCH   1  34
BRANCH  12  36
HETATM   36  S3  UNL     1      34.741  95.033  -1.690  1.00  0.00    -0.075 SA
BRANCH  36  37
HETATM   37  C14 UNL     1      33.517  94.619  -0.422  1.00  0.00     0.134 A 
HETATM   38  N8  UNL     1      33.583  93.667   0.499  1.00  0.00    -0.286 N 
HETATM   39  N9  UNL     1      32.627  93.508   1.319  1.00  0.00    -0.279 N 
ATOM     40  H8  UNL     1      34.402  93.062   0.547  1.00  0.00     0.188 HD
HETATM   41  C15 UNL     1      31.565  94.317   1.231  1.00  0.00     0.159 A 
ATOM     42  H9  UNL     1      32.669  92.778   2.031  1.00  0.00     0.189 HD
HETATM   43  N10 UNL     1      30.485  94.311   1.977  1.00  0.00    -0.379 N 
HETATM   44  S4  UNL     1      31.996  95.318  -0.082  1.00  0.00    -0.026 SA
ATOM     45 2H10 UNL     1      30.229  93.712   2.762  1.00  0.00     0.158 HD
ATOM     46 1H10 UNL     1      29.676  94.927   1.910  1.00  0.00     0.158 HD
ENDBRANCH  36  37
ENDBRANCH  12  36
TORSDOF 10
ENDMDL
MODEL 5
REMARK VINA RESULT: -5.715829559      3.776      8.087
REMARK  10 active torsions:
REMARK  status: ('A' for Active; 'I' for Inactive)
REMARK    1  A    between atoms: C2_2  and  N1_3 
REMARK    2  A    between atoms: C5_8  and  S1_9 
REMARK    3  A    between atoms: S1_9  and  C6_11 
REMARK    4  A    between atoms: C6_11  and  N3_15 
REMARK    5  A    between atoms: N3_15  and  C7_17 
REMARK    6  A    between atoms: C7_17  and  C8_18 
REMARK    7  A    between atoms: C8_18  and  N4_19 
REMARK       I    between atoms: N4_19  and  C9_21 
REMARK    8  A    between atoms: C13_31  and  S3_32 
REMARK    9  A    between atoms: S3_32  and  C14_33 
REMARK   10  A    between atoms: C16_43  and  C17_44 
ROOT
HETATM    1  N1  UNL     1      33.279  93.870  -0.522  1.00  0.00    -0.388 N 
ATOM      2  H1  UNL     1      32.385  93.500  -0.197  1.00  0.00     0.159 HD
HETATM    3  C3  UNL     1      34.077  93.028  -1.060  1.00  0.00     0.098 C 
HETATM    4  C4  UNL     1      35.405  93.264  -1.609  1.00  0.00     0.220 C 
HETATM    5  O1  UNL     1      36.080  94.314  -1.442  1.00  0.00    -0.288 OA
HETATM    6  C5  UNL     1      35.801  92.045  -2.390  1.00  0.00     0.401 C 
HETATM    7  N7  UNL     1      35.081  91.030  -1.686  1.00  0.00     0.152 N 
HETATM    8  C10 UNL     1      33.822  91.604  -1.250  1.00  0.00     0.341 C 
HETATM    9  S2  UNL     1      33.467  90.739   0.333  1.00  0.00    -0.123 SA
HETATM   10  C11 UNL     1      34.156  89.058   0.034  1.00  0.00     0.114 C 
HETATM   11  C12 UNL     1      34.269  88.816  -1.434  1.00  0.00    -0.021 C 
HETATM   12  C13 UNL     1      33.823  87.676  -1.955  1.00  0.00     0.058 C 
HETATM   13  C16 UNL     1      34.866  89.811  -2.381  1.00  0.00     0.357 C 
ENDROOT
BRANCH   6  14
HETATM   14  S1  UNL     1      37.501  91.707  -2.379  1.00  0.00     0.125 S 
HETATM   15  O2  UNL     1      38.258  91.717  -0.927  1.00  0.00    -0.247 OA
BRANCH  14  16
HETATM   16  C6  UNL     1      38.094  90.635  -3.570  1.00  0.00     0.167 C 
HETATM   17  N2  UNL     1      37.471  90.658  -4.728  1.00  0.00    -0.378 N 
ATOM     18  H22 UNL     1      36.693  91.311  -4.816  1.00  0.00     0.158 HD
ATOM     19  H21 UNL     1      37.826  90.019  -5.439  1.00  0.00     0.158 HD
BRANCH  16  20
HETATM   20  N3  UNL     1      39.168  89.734  -3.449  1.00  0.00    -0.368 N 
ATOM     21  H3  UNL     1      39.949  89.995  -2.847  1.00  0.00     0.161 HD
BRANCH  20  22
HETATM   22  C7  UNL     1      39.227  88.473  -4.122  1.00  0.00     0.141 C 
BRANCH  22  23
HETATM   23  C8  UNL     1      40.611  87.862  -4.059  1.00  0.00     0.142 C 
BRANCH  23  24
HETATM   24  N4  UNL     1      41.053  87.533  -5.399  1.00  0.00    -0.363 N 
HETATM   25  C9  UNL     1      41.673  86.288  -5.695  1.00  0.00     0.181 C 
HETATM   26  N5  UNL     1      42.958  86.256  -5.751  1.00  0.00    -0.374 N 
HETATM   27  N6  UNL     1      40.892  85.106  -5.924  1.00  0.00    -0.064 NA
ATOM     28  H52 UNL     1      43.513  87.097  -5.589  1.00  0.00     0.158 HD
ATOM     29  H51 UNL     1      43.403  85.363  -5.962  1.00  0.00     0.158 HD
ATOM     30  H4  UNL     1      40.916  88.211  -6.149  1.00  0.00     0.162 HD
ENDBRANCH  23  24
ENDBRANCH  22  23
ENDBRANCH  20  22
ENDBRANCH  16  20
ENDBRANCH  14  16
ENDBRANCH   6  14
BRANCH  13  31
HETATM   31  C17 UNL     1      33.910  89.928  -3.517  1.00  0.00     0.212 C 
HETATM   32  O3  UNL     1      34.262  89.768  -4.717  1.00  0.00    -0.646 OA
HETATM   33  O4  UNL     1      32.553  90.226  -3.335  1.00  0.00    -0.646 OA
ENDBRANCH  13  31
BRANCH   1  34
HETATM   34  C2  UNL     1      33.491  95.268  -0.324  1.00  0.00     0.115 C 
HETATM   35  C1  UNL     1      32.531  96.122  -1.129  1.00  0.00     0.026 C 
ENDBRANCH   1  34
BRANCH  12  36
HETATM   36  S3  UNL     1      33.089  86.449  -0.869  1.00  0.00    -0.075 SA
BRANCH  36  37
HETATM   37  C14 UNL     1      34.234  85.049  -0.773  1.00  0.00     0.134 A 
HETATM   38  N8  UNL     1      34.950  84.648   0.268  1.00  0.00    -0.286 N 
HETATM   39  N9  UNL     1      35.713  83.638   0.165  1.00  0.00    -0.279 N 
ATOM     40  H8  UNL     1      34.888  85.151   1.153  1.00  0.00     0.188 HD
HETATM   41  C15 UNL     1      35.773  82.999  -1.009  1.00  0.00     0.159 A 
ATOM     42  H9  UNL     1      36.268  83.322   0.960  1.00  0.00     0.189 HD
HETATM   43  N10 UNL     1      36.497  81.946  -1.315  1.00  0.00    -0.379 N 
HETATM   44  S4  UNL     1      34.688  83.908  -1.961  1.00  0.00    -0.026 SA
ATOM     45 2H10 UNL     1      37.146  81.403  -0.746  1.00  0.00     0.158 HD
ATOM     46 1H10 UNL     1      36.543  81.459  -2.209  1.00  0.00     0.158 HD
ENDBRANCH  36  37
ENDBRANCH  12  36
TORSDOF 10
ENDMDL
