MODEL 1
REMARK VINA RESULT: -11.422155615      0.000      0.000
REMARK  8 active torsions:
REMARK  status: ('A' for Active; 'I' for Inactive)
REMARK    1  A    between atoms: C2_2  and  N1_3 
REMARK    2  A    between atoms: N1_3  and  C3_5 
REMARK    3  A    between atoms: C4_8  and  C5_9 
REMARK    4  A    between atoms: C9_15  and  O1_16 
REMARK    5  A    between atoms: O1_16  and  C10_17 
REMARK    6  A    between atoms: C15_27  and  O2_28 
REMARK    7  A    between atoms: O2_28  and  C16_29 
REMARK    8  A    between atoms: C26_42  and  N6_43 
ROOT
HETATM    1  C3  UNL     1      44.231   3.831  72.150  1.00  0.00     0.680 A 
HETATM    2  N2  UNL     1      44.460   2.738  72.892  1.00  0.00    -0.189 N 
ATOM      3  H2  UNL     1      44.061   2.700  73.831  1.00  0.00     0.184 HD
HETATM    4  C4  UNL     1      45.191   1.682  72.465  1.00  0.00     0.090 A 
HETATM    5  C24 UNL     1      45.719   1.736  71.215  1.00  0.00     0.117 A 
HETATM    6  C25 UNL     1      46.428   0.675  70.543  1.00  0.00     0.105 C 
HETATM    7  N5  UNL     1      46.971  -0.192  69.981  1.00  0.00    -0.191 NA
HETATM    8  C26 UNL     1      45.476   2.885  70.444  1.00  0.00     0.138 A 
HETATM    9  N7  UNL     1      44.746   3.895  70.925  1.00  0.00    -0.176 N 
ATOM     10  H7  UNL     1      44.583   4.721  70.349  1.00  0.00     0.186 HD
ENDROOT
BRANCH   4  11
HETATM   11  C5  UNL     1      45.297   0.469  73.264  1.00  0.00     0.073 A 
HETATM   12  C6  UNL     1      44.291  -0.440  73.409  1.00  0.00     0.135 A 
HETATM   13  F1  UNL     1      43.171  -0.401  72.608  1.00  0.00    -0.205 F 
HETATM   14  C7  UNL     1      44.434  -1.477  74.302  1.00  0.00     0.088 A 
HETATM   15  C8  UNL     1      45.600  -1.645  75.088  1.00  0.00     0.156 A 
HETATM   16  F2  UNL     1      45.578  -2.695  75.936  1.00  0.00    -0.203 F 
HETATM   17  C9  UNL     1      46.587  -0.767  74.951  1.00  0.00     0.156 A 
HETATM   18  C23 UNL     1      46.446   0.314  74.027  1.00  0.00     0.169 A 
HETATM   19  F3  UNL     1      47.415   1.238  73.866  1.00  0.00    -0.202 F 
BRANCH  17  20
HETATM   20  O1  UNL     1      47.819  -0.703  75.588  1.00  0.00    -0.287 OA
BRANCH  20  21
HETATM   21  C10 UNL     1      48.143  -0.151  76.793  1.00  0.00     0.162 A 
HETATM   22  N3  UNL     1      47.253  -0.374  77.845  1.00  0.00    -0.332 N 
HETATM   23  C11 UNL     1      47.483   0.118  79.050  1.00  0.00     0.182 A 
ATOM     24  H3  UNL     1      46.410  -0.925  77.682  1.00  0.00     0.168 HD
HETATM   25  N4  UNL     1      48.573   0.848  79.327  1.00  0.00    -0.351 N 
HETATM   26  C12 UNL     1      49.462   1.083  78.341  1.00  0.00     0.049 A 
ATOM     27  H4  UNL     1      48.726   1.220  80.264  1.00  0.00     0.166 HD
HETATM   28  C13 UNL     1      50.625   1.771  78.597  1.00  0.00     0.057 A 
HETATM   29  C22 UNL     1      49.260   0.583  77.054  1.00  0.00     0.045 A 
HETATM   30  C14 UNL     1      51.574   1.967  77.636  1.00  0.00     0.069 A 
HETATM   31 CL1  UNL     1      53.067   2.842  77.950  1.00  0.00    -0.081 Cl
HETATM   32  C15 UNL     1      51.406   1.470  76.334  1.00  0.00     0.092 A 
HETATM   33  C21 UNL     1      50.247   0.793  76.091  1.00  0.00     0.056 A 
BRANCH  32  34
HETATM   34  O2  UNL     1      52.383   1.678  75.385  1.00  0.00    -0.344 OA
BRANCH  34  35
HETATM   35  C16 UNL     1      52.420   2.587  74.351  1.00  0.00     0.133 C 
HETATM   36  C17 UNL     1      53.828   3.007  73.973  1.00  0.00     0.058 C 
HETATM   37  C18 UNL     1      54.222   4.257  74.715  1.00  0.00     0.170 C 
HETATM   38  O3  UNL     1      53.521   5.325  74.157  1.00  0.00    -0.391 OA
HETATM   39  C19 UNL     1      52.171   5.054  73.988  1.00  0.00     0.170 C 
HETATM   40  C20 UNL     1      51.712   3.868  74.784  1.00  0.00     0.058 C 
ENDBRANCH  34  35
ENDBRANCH  32  34
ENDBRANCH  20  21
ENDBRANCH  17  20
ENDBRANCH   4  11
BRANCH   8  41
HETATM   41  N6  UNL     1      45.963   2.971  69.263  1.00  0.00    -0.384 N 
ATOM     42  H62 UNL     1      45.990   2.139  68.673  1.00  0.00     0.157 HD
ATOM     43  H61 UNL     1      46.314   3.866  68.926  1.00  0.00     0.157 HD
ENDBRANCH   8  41
BRANCH   1  44
HETATM   44  N1  UNL     1      43.549   4.850  72.539  1.00  0.00    -0.226 N 
ATOM     45  H1  UNL     1      42.580   4.701  72.822  1.00  0.00     0.177 HD
BRANCH  44  46
HETATM   46  C2  UNL     1      44.070   6.172  72.597  1.00  0.00     0.133 C 
HETATM   47  C1  UNL     1      44.138   6.572  74.068  1.00  0.00     0.027 C 
ENDBRANCH  44  46
ENDBRANCH   1  44
TORSDOF 8
ENDMDL
MODEL 2
REMARK VINA RESULT: -11.140446196      1.378      1.752
REMARK  8 active torsions:
REMARK  status: ('A' for Active; 'I' for Inactive)
REMARK    1  A    between atoms: C2_2  and  N1_3 
REMARK    2  A    between atoms: N1_3  and  C3_5 
REMARK    3  A    between atoms: C4_8  and  C5_9 
REMARK    4  A    between atoms: C9_15  and  O1_16 
REMARK    5  A    between atoms: O1_16  and  C10_17 
REMARK    6  A    between atoms: C15_27  and  O2_28 
REMARK    7  A    between atoms: O2_28  and  C16_29 
REMARK    8  A    between atoms: C26_42  and  N6_43 
ROOT
HETATM    1  C3  UNL     1      44.158   4.063  72.219  1.00  0.00     0.680 A 
HETATM    2  N2  UNL     1      43.941   2.970  72.966  1.00  0.00    -0.189 N 
ATOM      3  H2  UNL     1      43.310   3.049  73.763  1.00  0.00     0.184 HD
HETATM    4  C4  UNL     1      44.513   1.768  72.719  1.00  0.00     0.090 A 
HETATM    5  C24 UNL     1      45.351   1.666  71.655  1.00  0.00     0.117 A 
HETATM    6  C25 UNL     1      45.965   0.457  71.168  1.00  0.00     0.105 C 
HETATM    7  N5  UNL     1      46.436  -0.524  70.746  1.00  0.00    -0.191 NA
HETATM    8  C26 UNL     1      45.575   2.815  70.879  1.00  0.00     0.138 A 
HETATM    9  N7  UNL     1      44.980   3.974  71.176  1.00  0.00    -0.176 N 
ATOM     10  H7  UNL     1      45.157   4.797  70.599  1.00  0.00     0.186 HD
ENDROOT
BRANCH   4  11
HETATM   11  C5  UNL     1      44.138   0.587  73.485  1.00  0.00     0.073 A 
HETATM   12  C6  UNL     1      42.891   0.037  73.479  1.00  0.00     0.135 A 
HETATM   13  F1  UNL     1      41.944   0.419  72.553  1.00  0.00    -0.205 F 
HETATM   14  C7  UNL     1      42.594  -0.987  74.349  1.00  0.00     0.088 A 
HETATM   15  C8  UNL     1      43.545  -1.505  75.262  1.00  0.00     0.156 A 
HETATM   16  F2  UNL     1      43.095  -2.491  76.066  1.00  0.00    -0.203 F 
HETATM   17  C9  UNL     1      44.765  -0.979  75.272  1.00  0.00     0.156 A 
HETATM   18  C23 UNL     1      45.080   0.087  74.373  1.00  0.00     0.169 A 
HETATM   19  F3  UNL     1      46.299   0.662  74.359  1.00  0.00    -0.202 F 
BRANCH  17  20
HETATM   20  O1  UNL     1      45.868  -1.298  76.053  1.00  0.00    -0.287 OA
BRANCH  20  21
HETATM   21  C10 UNL     1      46.190  -0.876  77.309  1.00  0.00     0.162 A 
HETATM   22  N3  UNL     1      45.245  -1.106  78.311  1.00  0.00    -0.332 N 
HETATM   23  C11 UNL     1      45.470  -0.735  79.559  1.00  0.00     0.182 A 
ATOM     24  H3  UNL     1      44.366  -1.568  78.075  1.00  0.00     0.168 HD
HETATM   25  N4  UNL     1      46.605  -0.126  79.930  1.00  0.00    -0.351 N 
HETATM   26  C12 UNL     1      47.547   0.111  78.996  1.00  0.00     0.049 A 
ATOM     27  H4  UNL     1      46.753   0.153  80.900  1.00  0.00     0.166 HD
HETATM   28  C13 UNL     1      48.753   0.674  79.345  1.00  0.00     0.057 A 
HETATM   29  C22 UNL     1      47.354  -0.264  77.666  1.00  0.00     0.045 A 
HETATM   30  C14 UNL     1      49.750   0.865  78.433  1.00  0.00     0.069 A 
HETATM   31 CL1  UNL     1      51.298   1.581  78.866  1.00  0.00    -0.081 Cl
HETATM   32  C15 UNL     1      49.591   0.492  77.089  1.00  0.00     0.092 A 
HETATM   33  C21 UNL     1      48.390  -0.062  76.754  1.00  0.00     0.056 A 
BRANCH  32  34
HETATM   34  O2  UNL     1      50.618   0.692  76.192  1.00  0.00    -0.344 OA
BRANCH  34  35
HETATM   35  C16 UNL     1      50.633   1.432  75.030  1.00  0.00     0.133 C 
HETATM   36  C17 UNL     1      51.888   1.221  74.203  1.00  0.00     0.058 C 
HETATM   37  C18 UNL     1      52.926   2.256  74.547  1.00  0.00     0.170 C 
HETATM   38  O3  UNL     1      52.513   3.473  74.006  1.00  0.00    -0.391 OA
HETATM   39  C19 UNL     1      51.182   3.757  74.274  1.00  0.00     0.170 C 
HETATM   40  C20 UNL     1      50.619   2.918  75.382  1.00  0.00     0.058 C 
ENDBRANCH  34  35
ENDBRANCH  32  34
ENDBRANCH  20  21
ENDBRANCH  17  20
ENDBRANCH   4  11
BRANCH   8  41
HETATM   41  N6  UNL     1      46.362   2.756  69.872  1.00  0.00    -0.384 N 
ATOM     42  H62 UNL     1      46.101   2.187  69.067  1.00  0.00     0.157 HD
ATOM     43  H61 UNL     1      47.238   3.278  69.885  1.00  0.00     0.157 HD
ENDBRANCH   8  41
BRANCH   1  44
HETATM   44  N1  UNL     1      43.635   5.216  72.440  1.00  0.00    -0.226 N 
ATOM     45  H1  UNL     1      42.621   5.308  72.363  1.00  0.00     0.177 HD
BRANCH  44  46
HETATM   46  C2  UNL     1      44.390   6.371  72.787  1.00  0.00     0.133 C 
HETATM   47  C1  UNL     1      43.980   6.777  74.199  1.00  0.00     0.027 C 
ENDBRANCH  44  46
ENDBRANCH   1  44
TORSDOF 8
ENDMDL
MODEL 3
REMARK VINA RESULT: -10.967231509      4.028      9.037
REMARK  8 active torsions:
REMARK  status: ('A' for Active; 'I' for Inactive)
REMARK    1  A    between atoms: C2_2  and  N1_3 
REMARK    2  A    between atoms: N1_3  and  C3_5 
REMARK    3  A    between atoms: C4_8  and  C5_9 
REMARK    4  A    between atoms: C9_15  and  O1_16 
REMARK    5  A    between atoms: O1_16  and  C10_17 
REMARK    6  A    between atoms: C15_27  and  O2_28 
REMARK    7  A    between atoms: O2_28  and  C16_29 
REMARK    8  A    between atoms: C26_42  and  N6_43 
ROOT
HETATM    1  C3  UNL     1      53.557   3.240  74.882  1.00  0.00     0.680 A 
HETATM    2  N2  UNL     1      52.319   2.878  75.250  1.00  0.00    -0.189 N 
ATOM      3  H2  UNL     1      51.544   3.110  74.628  1.00  0.00     0.184 HD
HETATM    4  C4  UNL     1      52.041   2.221  76.400  1.00  0.00     0.090 A 
HETATM    5  C24 UNL     1      53.076   1.912  77.224  1.00  0.00     0.117 A 
HETATM    6  C25 UNL     1      52.998   1.126  78.430  1.00  0.00     0.105 C 
HETATM    7  N5  UNL     1      52.949   0.460  79.387  1.00  0.00    -0.191 NA
HETATM    8  C26 UNL     1      54.369   2.296  76.832  1.00  0.00     0.138 A 
HETATM    9  N7  UNL     1      54.577   2.944  75.683  1.00  0.00    -0.176 N 
ATOM     10  H7  UNL     1      55.524   3.214  75.418  1.00  0.00     0.186 HD
ENDROOT
BRANCH   4  11
HETATM   11  C5  UNL     1      50.696   1.740  76.684  1.00  0.00     0.073 A 
HETATM   12  C6  UNL     1      50.033   1.973  77.852  1.00  0.00     0.135 A 
HETATM   13  F1  UNL     1      50.496   2.892  78.768  1.00  0.00    -0.205 F 
HETATM   14  C7  UNL     1      48.826   1.353  78.085  1.00  0.00     0.088 A 
HETATM   15  C8  UNL     1      48.233   0.473  77.148  1.00  0.00     0.156 A 
HETATM   16  F2  UNL     1      47.062  -0.076  77.532  1.00  0.00    -0.203 F 
HETATM   17  C9  UNL     1      48.870   0.244  76.004  1.00  0.00     0.156 A 
HETATM   18  C23 UNL     1      50.124   0.882  75.756  1.00  0.00     0.169 A 
HETATM   19  F3  UNL     1      50.813   0.667  74.617  1.00  0.00    -0.202 F 
BRANCH  17  20
HETATM   20  O1  UNL     1      48.513  -0.561  74.930  1.00  0.00    -0.287 OA
BRANCH  20  21
HETATM   21  C10 UNL     1      47.540  -0.373  73.993  1.00  0.00     0.162 A 
HETATM   22  N3  UNL     1      47.673   0.743  73.165  1.00  0.00    -0.332 N 
HETATM   23  C11 UNL     1      46.781   1.006  72.226  1.00  0.00     0.182 A 
ATOM     24  H3  UNL     1      48.472   1.367  73.287  1.00  0.00     0.168 HD
HETATM   25  N4  UNL     1      45.712   0.224  72.017  1.00  0.00    -0.351 N 
HETATM   26  C12 UNL     1      45.549  -0.868  72.790  1.00  0.00     0.049 A 
ATOM     27  H4  UNL     1      45.037   0.450  71.287  1.00  0.00     0.166 HD
HETATM   28  C13 UNL     1      44.503  -1.733  72.566  1.00  0.00     0.057 A 
HETATM   29  C22 UNL     1      46.465  -1.185  73.793  1.00  0.00     0.045 A 
HETATM   30  C14 UNL     1      44.348  -2.880  73.289  1.00  0.00     0.069 A 
HETATM   31 CL1  UNL     1      43.017  -3.997  73.012  1.00  0.00    -0.081 Cl
HETATM   32  C15 UNL     1      45.257  -3.232  74.300  1.00  0.00     0.092 A 
HETATM   33  C21 UNL     1      46.287  -2.365  74.515  1.00  0.00     0.056 A 
BRANCH  32  34
HETATM   34  O2  UNL     1      45.079  -4.400  75.010  1.00  0.00    -0.344 OA
BRANCH  34  35
HETATM   35  C16 UNL     1      44.309  -4.636  76.128  1.00  0.00     0.133 C 
HETATM   36  C17 UNL     1      43.876  -3.365  76.836  1.00  0.00     0.058 C 
HETATM   37  C18 UNL     1      44.853  -3.011  77.925  1.00  0.00     0.170 C 
HETATM   38  O3  UNL     1      44.672  -3.913  78.973  1.00  0.00    -0.391 OA
HETATM   39  C19 UNL     1      44.610  -5.231  78.543  1.00  0.00     0.170 C 
HETATM   40  C20 UNL     1      45.133  -5.414  77.150  1.00  0.00     0.058 C 
ENDBRANCH  34  35
ENDBRANCH  32  34
ENDBRANCH  20  21
ENDBRANCH  17  20
ENDBRANCH   4  11
BRANCH   8  41
HETATM   41  N6  UNL     1      55.366   2.024  77.587  1.00  0.00    -0.384 N 
ATOM     42  H62 UNL     1      55.843   2.782  78.076  1.00  0.00     0.157 HD
ATOM     43  H61 UNL     1      55.671   1.057  77.692  1.00  0.00     0.157 HD
ENDBRANCH   8  41
BRANCH   1  44
HETATM   44  N1  UNL     1      53.843   3.873  73.799  1.00  0.00    -0.226 N 
ATOM     45  H1  UNL     1      53.938   3.335  72.937  1.00  0.00     0.177 HD
BRANCH  44  46
HETATM   46  C2  UNL     1      54.033   5.281  73.737  1.00  0.00     0.133 C 
HETATM   47  C1  UNL     1      55.455   5.570  74.209  1.00  0.00     0.027 C 
ENDBRANCH  44  46
ENDBRANCH   1  44
TORSDOF 8
ENDMDL
MODEL 4
REMARK VINA RESULT: -10.530276131      2.258      3.193
REMARK  8 active torsions:
REMARK  status: ('A' for Active; 'I' for Inactive)
REMARK    1  A    between atoms: C2_2  and  N1_3 
REMARK    2  A    between atoms: N1_3  and  C3_5 
REMARK    3  A    between atoms: C4_8  and  C5_9 
REMARK    4  A    between atoms: C9_15  and  O1_16 
REMARK    5  A    between atoms: O1_16  and  C10_17 
REMARK    6  A    between atoms: C15_27  and  O2_28 
REMARK    7  A    between atoms: O2_28  and  C16_29 
REMARK    8  A    between atoms: C26_42  and  N6_43 
ROOT
HETATM    1  C3  UNL     1      43.976   2.196  71.848  1.00  0.00     0.680 A 
HETATM    2  N2  UNL     1      43.592   1.583  72.978  1.00  0.00    -0.189 N 
ATOM      3  H2  UNL     1      42.792   1.964  73.484  1.00  0.00     0.184 HD
HETATM    4  C4  UNL     1      44.207   0.489  73.482  1.00  0.00     0.090 A 
HETATM    5  C24 UNL     1      45.270  -0.015  72.803  1.00  0.00     0.117 A 
HETATM    6  C25 UNL     1      45.983  -1.229  73.117  1.00  0.00     0.105 C 
HETATM    7  N5  UNL     1      46.540  -2.229  73.344  1.00  0.00    -0.191 NA
HETATM    8  C26 UNL     1      45.667   0.633  71.622  1.00  0.00     0.138 A 
HETATM    9  N7  UNL     1      45.018   1.712  71.177  1.00  0.00    -0.176 N 
ATOM     10  H7  UNL     1      45.323   2.168  70.317  1.00  0.00     0.186 HD
ENDROOT
BRANCH   4  11
HETATM   11  C5  UNL     1      43.666  -0.210  74.640  1.00  0.00     0.073 A 
HETATM   12  C6  UNL     1      42.609  -1.069  74.589  1.00  0.00     0.135 A 
HETATM   13  F1  UNL     1      42.120  -1.531  73.387  1.00  0.00    -0.205 F 
HETATM   14  C7  UNL     1      42.076  -1.564  75.757  1.00  0.00     0.088 A 
HETATM   15  C8  UNL     1      42.590  -1.218  77.031  1.00  0.00     0.156 A 
HETATM   16  F2  UNL     1      41.945  -1.765  78.082  1.00  0.00    -0.203 F 
HETATM   17  C9  UNL     1      43.624  -0.385  77.091  1.00  0.00     0.156 A 
HETATM   18  C23 UNL     1      44.180   0.136  75.882  1.00  0.00     0.169 A 
HETATM   19  F3  UNL     1      45.219   0.997  75.895  1.00  0.00    -0.202 F 
BRANCH  17  20
HETATM   20  O1  UNL     1      44.309   0.108  78.193  1.00  0.00    -0.287 OA
BRANCH  20  21
HETATM   21  C10 UNL     1      45.296  -0.477  78.931  1.00  0.00     0.162 A 
HETATM   22  N3  UNL     1      44.928  -1.569  79.718  1.00  0.00    -0.332 N 
HETATM   23  C11 UNL     1      45.816  -2.202  80.465  1.00  0.00     0.182 A 
ATOM     24  H3  UNL     1      43.958  -1.885  79.716  1.00  0.00     0.168 HD
HETATM   25  N4  UNL     1      47.105  -1.836  80.507  1.00  0.00    -0.351 N 
HETATM   26  C12 UNL     1      47.504  -0.789  79.758  1.00  0.00     0.049 A 
ATOM     27  H4  UNL     1      47.770  -2.339  81.094  1.00  0.00     0.166 HD
HETATM   28  C13 UNL     1      48.829  -0.420  79.721  1.00  0.00     0.057 A 
HETATM   29  C22 UNL     1      46.603  -0.091  78.954  1.00  0.00     0.045 A 
HETATM   30  C14 UNL     1      49.274   0.593  78.923  1.00  0.00     0.069 A 
HETATM   31 CL1  UNL     1      50.966   1.073  78.863  1.00  0.00    -0.081 Cl
HETATM   32  C15 UNL     1      48.394   1.309  78.096  1.00  0.00     0.092 A 
HETATM   33  C21 UNL     1      47.083   0.938  78.144  1.00  0.00     0.056 A 
BRANCH  32  34
HETATM   34  O2  UNL     1      48.873   2.324  77.295  1.00  0.00    -0.344 OA
BRANCH  34  35
HETATM   35  C16 UNL     1      49.086   2.339  75.934  1.00  0.00     0.133 C 
HETATM   36  C17 UNL     1      49.299   0.957  75.347  1.00  0.00     0.058 C 
HETATM   37  C18 UNL     1      50.768   0.628  75.292  1.00  0.00     0.170 C 
HETATM   38  O3  UNL     1      51.338   1.387  74.270  1.00  0.00    -0.391 OA
HETATM   39  C19 UNL     1      50.960   2.721  74.315  1.00  0.00     0.170 C 
HETATM   40  C20 UNL     1      50.367   3.114  75.636  1.00  0.00     0.058 C 
ENDBRANCH  34  35
ENDBRANCH  32  34
ENDBRANCH  20  21
ENDBRANCH  17  20
ENDBRANCH   4  11
BRANCH   8  41
HETATM   41  N6  UNL     1      46.668   0.187  70.960  1.00  0.00    -0.384 N 
ATOM     42  H62 UNL     1      46.858  -0.815  70.958  1.00  0.00     0.157 HD
ATOM     43  H61 UNL     1      47.260   0.836  70.443  1.00  0.00     0.157 HD
ENDBRANCH   8  41
BRANCH   1  44
HETATM   44  N1  UNL     1      43.413   3.243  71.356  1.00  0.00    -0.226 N 
ATOM     45  H1  UNL     1      42.481   3.144  70.952  1.00  0.00     0.177 HD
BRANCH  44  46
HETATM   46  C2  UNL     1      44.018   4.530  71.343  1.00  0.00     0.133 C 
HETATM   47  C1  UNL     1      43.996   5.058  72.775  1.00  0.00     0.027 C 
ENDBRANCH  44  46
ENDBRANCH   1  44
TORSDOF 8
ENDMDL
MODEL 5
REMARK VINA RESULT: -10.488871016      2.490      4.549
REMARK  8 active torsions:
REMARK  status: ('A' for Active; 'I' for Inactive)
REMARK    1  A    between atoms: C2_2  and  N1_3 
REMARK    2  A    between atoms: N1_3  and  C3_5 
REMARK    3  A    between atoms: C4_8  and  C5_9 
REMARK    4  A    between atoms: C9_15  and  O1_16 
REMARK    5  A    between atoms: O1_16  and  C10_17 
REMARK    6  A    between atoms: C15_27  and  O2_28 
REMARK    7  A    between atoms: O2_28  and  C16_29 
REMARK    8  A    between atoms: C26_42  and  N6_43 
ROOT
HETATM    1  C3  UNL     1      43.995  -3.139  74.759  1.00  0.00     0.680 A 
HETATM    2  N2  UNL     1      44.976  -2.228  74.673  1.00  0.00    -0.189 N 
ATOM      3  H2  UNL     1      45.907  -2.490  74.998  1.00  0.00     0.184 HD
HETATM    4  C4  UNL     1      44.799  -0.981  74.177  1.00  0.00     0.090 A 
HETATM    5  C24 UNL     1      43.559  -0.637  73.744  1.00  0.00     0.117 A 
HETATM    6  C25 UNL     1      43.198   0.595  73.088  1.00  0.00     0.105 C 
HETATM    7  N5  UNL     1      42.906   1.574  72.523  1.00  0.00    -0.191 NA
HETATM    8  C26 UNL     1      42.537  -1.595  73.839  1.00  0.00     0.138 A 
HETATM    9  N7  UNL     1      42.776  -2.811  74.340  1.00  0.00    -0.176 N 
ATOM     10  H7  UNL     1      42.019  -3.492  74.401  1.00  0.00     0.186 HD
ENDROOT
BRANCH   4  11
HETATM   11  C5  UNL     1      45.929  -0.082  73.987  1.00  0.00     0.073 A 
HETATM   12  C6  UNL     1      46.612   0.050  72.815  1.00  0.00     0.135 A 
HETATM   13  F1  UNL     1      46.130  -0.487  71.642  1.00  0.00    -0.205 F 
HETATM   14  C7  UNL     1      47.757   0.813  72.775  1.00  0.00     0.088 A 
HETATM   15  C8  UNL     1      48.261   1.482  73.917  1.00  0.00     0.156 A 
HETATM   16  F2  UNL     1      49.405   2.171  73.725  1.00  0.00    -0.203 F 
HETATM   17  C9  UNL     1      47.599   1.364  75.064  1.00  0.00     0.156 A 
HETATM   18  C23 UNL     1      46.411   0.571  75.113  1.00  0.00     0.169 A 
HETATM   19  F3  UNL     1      45.716   0.410  76.257  1.00  0.00    -0.202 F 
BRANCH  17  20
HETATM   20  O1  UNL     1      47.871   1.910  76.311  1.00  0.00    -0.287 OA
BRANCH  20  21
HETATM   21  C10 UNL     1      48.486   1.342  77.388  1.00  0.00     0.162 A 
HETATM   22  N3  UNL     1      47.675   0.620  78.266  1.00  0.00    -0.332 N 
HETATM   23  C11 UNL     1      48.182   0.032  79.336  1.00  0.00     0.182 A 
ATOM     24  H3  UNL     1      46.675   0.544  78.078  1.00  0.00     0.168 HD
HETATM   25  N4  UNL     1      49.487   0.095  79.634  1.00  0.00    -0.351 N 
HETATM   26  C12 UNL     1      50.307   0.777  78.811  1.00  0.00     0.049 A 
ATOM     27  H4  UNL     1      49.853  -0.365  80.468  1.00  0.00     0.166 HD
HETATM   28  C13 UNL     1      51.662   0.812  79.044  1.00  0.00     0.057 A 
HETATM   29  C22 UNL     1      49.817   1.413  77.669  1.00  0.00     0.045 A 
HETATM   30  C14 UNL     1      52.525   1.439  78.192  1.00  0.00     0.069 A 
HETATM   31 CL1  UNL     1      54.261   1.488  78.476  1.00  0.00    -0.081 Cl
HETATM   32  C15 UNL     1      52.065   2.080  77.031  1.00  0.00     0.092 A 
HETATM   33  C21 UNL     1      50.720   2.043  76.813  1.00  0.00     0.056 A 
BRANCH  32  34
HETATM   34  O2  UNL     1      52.961   2.701  76.186  1.00  0.00    -0.344 OA
BRANCH  34  35
HETATM   35  C16 UNL     1      52.766   3.197  74.916  1.00  0.00     0.133 C 
HETATM   36  C17 UNL     1      54.059   3.418  74.155  1.00  0.00     0.058 C 
HETATM   37  C18 UNL     1      54.541   4.833  74.333  1.00  0.00     0.170 C 
HETATM   38  O3  UNL     1      53.708   5.666  73.587  1.00  0.00    -0.391 OA
HETATM   39  C19 UNL     1      52.361   5.396  73.784  1.00  0.00     0.170 C 
HETATM   40  C20 UNL     1      52.106   4.571  75.010  1.00  0.00     0.058 C 
ENDBRANCH  34  35
ENDBRANCH  32  34
ENDBRANCH  20  21
ENDBRANCH  17  20
ENDBRANCH   4  11
BRANCH   8  41
HETATM   41  N6  UNL     1      41.355  -1.303  73.444  1.00  0.00    -0.384 N 
ATOM     42  H62 UNL     1      41.173  -0.376  73.058  1.00  0.00     0.157 HD
ATOM     43  H61 UNL     1      40.612  -1.998  73.517  1.00  0.00     0.157 HD
ENDBRANCH   8  41
BRANCH   1  44
HETATM   44  N1  UNL     1      44.138  -4.325  75.236  1.00  0.00    -0.226 N 
ATOM     45  H1  UNL     1      44.323  -5.087  74.583  1.00  0.00     0.177 HD
BRANCH  44  46
HETATM   46  C2  UNL     1      44.051  -4.633  76.622  1.00  0.00     0.133 C 
HETATM   47  C1  UNL     1      45.430  -5.109  77.070  1.00  0.00     0.027 C 
ENDBRANCH  44  46
ENDBRANCH   1  44
TORSDOF 8
ENDMDL
