MODEL 1
REMARK VINA RESULT: -7.058863671      0.000      0.000
REMARK  2 active torsions:
REMARK  status: ('A' for Active; 'I' for Inactive)
REMARK    1  A    between atoms: C5_6  and  C6_7 
REMARK    2  A    between atoms: C6_7  and  N1_8 
ROOT
HETATM    1  C1  UNL     1     123.689  12.208  26.736  1.00  0.00     0.002 A 
HETATM    2  C2  UNL     1     122.807  12.739  25.821  1.00  0.00     0.002 A 
HETATM    3  C3  UNL     1     121.885  11.855  25.291  1.00  0.00     0.021 A 
HETATM    4  C4  UNL     1     121.880  10.508  25.688  1.00  0.00     0.033 A 
HETATM    5  S1  UNL     1     120.949   9.096  25.314  1.00  0.00    -0.072 SA
HETATM    6  C5  UNL     1     121.741   7.993  26.326  1.00  0.00     0.091 A 
HETATM    7  N2  UNL     1     122.655   8.735  26.889  1.00  0.00    -0.351 N 
ATOM      8  H2  UNL     1     123.295   8.321  27.565  1.00  0.00     0.166 HD
HETATM    9  C15 UNL     1     122.758  10.000  26.596  1.00  0.00     0.050 A 
HETATM   10  C16 UNL     1     123.703  10.904  27.139  1.00  0.00     0.031 A 
ENDROOT
BRANCH   6  11
HETATM   11  C6  UNL     1     121.483   6.528  26.553  1.00  0.00     0.208 C 
HETATM   12  C11 UNL     1     121.706   5.893  25.172  1.00  0.00     0.049 C 
HETATM   13  C12 UNL     1     123.222   5.991  25.075  1.00  0.00     0.003 C 
HETATM   14  C13 UNL     1     123.747   5.827  26.477  1.00  0.00     0.003 C 
HETATM   15  C14 UNL     1     122.576   6.040  27.426  1.00  0.00     0.049 C 
BRANCH  11  16
HETATM   16  N1  UNL     1     120.177   6.385  26.979  1.00  0.00     0.104 N 
HETATM   17  C7  UNL     1     119.203   5.820  26.094  1.00  0.00     0.274 C 
HETATM   18  C8  UNL     1     117.997   5.452  26.967  1.00  0.00     0.032 C 
HETATM   19  C9  UNL     1     118.432   5.910  28.332  1.00  0.00     0.032 C 
HETATM   20  C10 UNL     1     119.949   5.743  28.248  1.00  0.00     0.274 C 
ENDBRANCH  11  16
ENDBRANCH   6  11
TORSDOF 2
ENDMDL
MODEL 2
REMARK VINA RESULT: -7.023174591      1.451      2.157
REMARK  2 active torsions:
REMARK  status: ('A' for Active; 'I' for Inactive)
REMARK    1  A    between atoms: C5_6  and  C6_7 
REMARK    2  A    between atoms: C6_7  and  N1_8 
ROOT
HETATM    1  C1  UNL     1     121.494  12.044  25.391  1.00  0.00     0.002 A 
HETATM    2  C2  UNL     1     122.802  12.022  25.821  1.00  0.00     0.002 A 
HETATM    3  C3  UNL     1     123.314  10.773  26.120  1.00  0.00     0.021 A 
HETATM    4  C4  UNL     1     122.519   9.624  25.981  1.00  0.00     0.033 A 
HETATM    5  S1  UNL     1     122.726   7.921  26.224  1.00  0.00    -0.072 SA
HETATM    6  C5  UNL     1     121.177   7.409  25.771  1.00  0.00     0.091 A 
HETATM    7  N2  UNL     1     120.590   8.533  25.461  1.00  0.00    -0.351 N 
ATOM      8  H2  UNL     1     119.621   8.525  25.143  1.00  0.00     0.166 HD
HETATM    9  C15 UNL     1     121.227   9.664  25.554  1.00  0.00     0.050 A 
HETATM   10  C16 UNL     1     120.701  10.942  25.247  1.00  0.00     0.031 A 
ENDROOT
BRANCH   6  11
HETATM   11  C6  UNL     1     120.592   6.024  25.715  1.00  0.00     0.208 C 
HETATM   12  C11 UNL     1     119.510   6.122  24.627  1.00  0.00     0.049 C 
HETATM   13  C12 UNL     1     120.387   6.203  23.385  1.00  0.00     0.003 C 
HETATM   14  C13 UNL     1     121.608   5.370  23.674  1.00  0.00     0.003 C 
HETATM   15  C14 UNL     1     121.653   5.141  25.178  1.00  0.00     0.049 C 
BRANCH  11  16
HETATM   16  N1  UNL     1     120.050   5.738  26.952  1.00  0.00     0.104 N 
HETATM   17  C7  UNL     1     118.647   5.472  27.065  1.00  0.00     0.274 C 
HETATM   18  C8  UNL     1     118.446   4.832  28.445  1.00  0.00     0.032 C 
HETATM   19  C9  UNL     1     119.838   4.839  29.013  1.00  0.00     0.032 C 
HETATM   20  C10 UNL     1     120.691   4.724  27.750  1.00  0.00     0.274 C 
ENDBRANCH  11  16
ENDBRANCH   6  11
TORSDOF 2
ENDMDL
MODEL 3
REMARK VINA RESULT: -6.961404295      0.954      1.016
REMARK  2 active torsions:
REMARK  status: ('A' for Active; 'I' for Inactive)
REMARK    1  A    between atoms: C5_6  and  C6_7 
REMARK    2  A    between atoms: C6_7  and  N1_8 
ROOT
HETATM    1  C1  UNL     1     123.010  11.876  26.221  1.00  0.00     0.002 A 
HETATM    2  C2  UNL     1     121.918  12.181  25.440  1.00  0.00     0.002 A 
HETATM    3  C3  UNL     1     121.102  11.116  25.105  1.00  0.00     0.021 A 
HETATM    4  C4  UNL     1     121.403   9.819  25.553  1.00  0.00     0.033 A 
HETATM    5  S1  UNL     1     120.698   8.245  25.394  1.00  0.00    -0.072 SA
HETATM    6  C5  UNL     1     121.823   7.369  26.307  1.00  0.00     0.091 A 
HETATM    7  N2  UNL     1     122.662   8.296  26.683  1.00  0.00    -0.351 N 
ATOM      8  H2  UNL     1     123.463   8.047  27.263  1.00  0.00     0.166 HD
HETATM    9  C15 UNL     1     122.487   9.536  26.325  1.00  0.00     0.050 A 
HETATM   10  C16 UNL     1     123.323  10.626  26.670  1.00  0.00     0.031 A 
ENDROOT
BRANCH   6  11
HETATM   11  C6  UNL     1     121.874   5.901  26.634  1.00  0.00     0.208 C 
HETATM   12  C11 UNL     1     121.788   5.212  25.263  1.00  0.00     0.049 C 
HETATM   13  C12 UNL     1     123.178   5.520  24.723  1.00  0.00     0.003 C 
HETATM   14  C13 UNL     1     124.102   5.528  25.912  1.00  0.00     0.003 C 
HETATM   15  C14 UNL     1     123.234   5.635  27.158  1.00  0.00     0.049 C 
BRANCH  11  16
HETATM   16  N1  UNL     1     120.784   5.601  27.427  1.00  0.00     0.104 N 
HETATM   17  C7  UNL     1     119.655   4.933  26.854  1.00  0.00     0.274 C 
HETATM   18  C8  UNL     1     118.822   4.418  28.034  1.00  0.00     0.032 C 
HETATM   19  C9  UNL     1     119.599   4.913  29.222  1.00  0.00     0.032 C 
HETATM   20  C10 UNL     1     121.026   4.927  28.677  1.00  0.00     0.274 C 
ENDBRANCH  11  16
ENDBRANCH   6  11
TORSDOF 2
ENDMDL
MODEL 4
REMARK VINA RESULT: -6.852181452      1.694      3.289
REMARK  2 active torsions:
REMARK  status: ('A' for Active; 'I' for Inactive)
REMARK    1  A    between atoms: C5_6  and  C6_7 
REMARK    2  A    between atoms: C6_7  and  N1_8 
ROOT
HETATM    1  C1  UNL     1     121.525  12.359  25.452  1.00  0.00     0.002 A 
HETATM    2  C2  UNL     1     122.818  12.317  25.923  1.00  0.00     0.002 A 
HETATM    3  C3  UNL     1     123.303  11.061  26.236  1.00  0.00     0.021 A 
HETATM    4  C4  UNL     1     122.497   9.923  26.070  1.00  0.00     0.033 A 
HETATM    5  S1  UNL     1     122.672   8.218  26.315  1.00  0.00    -0.072 SA
HETATM    6  C5  UNL     1     121.131   7.728  25.812  1.00  0.00     0.091 A 
HETATM    7  N2  UNL     1     120.570   8.861  25.486  1.00  0.00    -0.351 N 
ATOM      8  H2  UNL     1     119.611   8.867  25.138  1.00  0.00     0.166 HD
HETATM    9  C15 UNL     1     121.220   9.983  25.602  1.00  0.00     0.050 A 
HETATM   10  C16 UNL     1     120.721  11.269  25.281  1.00  0.00     0.031 A 
ENDROOT
BRANCH   6  11
HETATM   11  C6  UNL     1     120.528   6.352  25.735  1.00  0.00     0.208 C 
HETATM   12  C11 UNL     1     121.232   5.575  26.859  1.00  0.00     0.049 C 
HETATM   13  C12 UNL     1     120.566   6.203  28.076  1.00  0.00     0.003 C 
HETATM   14  C13 UNL     1     119.157   6.536  27.661  1.00  0.00     0.003 C 
HETATM   15  C14 UNL     1     119.110   6.491  26.141  1.00  0.00     0.049 C 
BRANCH  11  16
HETATM   16  N1  UNL     1     120.817   5.827  24.491  1.00  0.00     0.104 N 
HETATM   17  C7  UNL     1     121.708   4.712  24.383  1.00  0.00     0.274 C 
HETATM   18  C8  UNL     1     121.515   4.148  22.970  1.00  0.00     0.032 C 
HETATM   19  C9  UNL     1     120.498   5.086  22.381  1.00  0.00     0.032 C 
HETATM   20  C10 UNL     1     119.712   5.511  23.621  1.00  0.00     0.274 C 
ENDBRANCH  11  16
ENDBRANCH   6  11
TORSDOF 2
ENDMDL
MODEL 5
REMARK VINA RESULT: -6.670318659      1.081      3.196
REMARK  2 active torsions:
REMARK  status: ('A' for Active; 'I' for Inactive)
REMARK    1  A    between atoms: C5_6  and  C6_7 
REMARK    2  A    between atoms: C6_7  and  N1_8 
ROOT
HETATM    1  C1  UNL     1     123.666  12.199  26.822  1.00  0.00     0.002 A 
HETATM    2  C2  UNL     1     122.775  12.774  25.944  1.00  0.00     0.002 A 
HETATM    3  C3  UNL     1     121.863  11.912  25.362  1.00  0.00     0.021 A 
HETATM    4  C4  UNL     1     121.877  10.542  25.674  1.00  0.00     0.033 A 
HETATM    5  S1  UNL     1     120.965   9.144  25.214  1.00  0.00    -0.072 SA
HETATM    6  C5  UNL     1     121.775   7.991  26.152  1.00  0.00     0.091 A 
HETATM    7  N2  UNL     1     122.681   8.709  26.759  1.00  0.00    -0.351 N 
ATOM      8  H2  UNL     1     123.328   8.261  27.407  1.00  0.00     0.166 HD
HETATM    9  C15 UNL     1     122.766   9.990  26.546  1.00  0.00     0.050 A 
HETATM   10  C16 UNL     1     123.700  10.872  27.142  1.00  0.00     0.031 A 
ENDROOT
BRANCH   6  11
HETATM   11  C6  UNL     1     121.538   6.511  26.288  1.00  0.00     0.208 C 
HETATM   12  C11 UNL     1     121.029   6.348  27.729  1.00  0.00     0.049 C 
HETATM   13  C12 UNL     1     119.632   6.935  27.588  1.00  0.00     0.003 C 
HETATM   14  C13 UNL     1     119.169   6.595  26.196  1.00  0.00     0.003 C 
HETATM   15  C14 UNL     1     120.399   6.185  25.398  1.00  0.00     0.049 C 
BRANCH  11  16
HETATM   16  N1  UNL     1     122.742   5.865  26.093  1.00  0.00     0.104 N 
HETATM   17  C7  UNL     1     123.368   5.190  27.189  1.00  0.00     0.274 C 
HETATM   18  C8  UNL     1     124.441   4.283  26.573  1.00  0.00     0.032 C 
HETATM   19  C9  UNL     1     124.323   4.589  25.106  1.00  0.00     0.032 C 
HETATM   20  C10 UNL     1     122.844   4.953  24.982  1.00  0.00     0.274 C 
ENDBRANCH  11  16
ENDBRANCH   6  11
TORSDOF 2
ENDMDL
