MODEL 1
REMARK VINA RESULT: -6.120598489      0.000      0.000
REMARK  2 active torsions:
REMARK  status: ('A' for Active; 'I' for Inactive)
REMARK    1  A    between atoms: C3_4  and  C4_5 
REMARK    2  A    between atoms: C4_5  and  C5_6 
ROOT
HETATM    1  C5  UNL     1      16.026 -17.441 -19.960  1.00  0.00     0.051 C 
HETATM    2  C6  UNL     1      17.210 -17.821 -20.799  1.00  0.00     0.239 C 
HETATM    3  N1  UNL     1      18.333 -17.225 -20.044  1.00  0.00    -0.072 N 
ATOM      4  H11 UNL     1      19.259 -17.335 -20.458  1.00  0.00     0.277 HD
ATOM      5  H12 UNL     1      18.583 -17.689 -19.171  1.00  0.00     0.277 HD
HETATM    6  C7  UNL     1      17.841 -15.851 -19.925  1.00  0.00     0.271 C 
HETATM    7  C8  UNL     1      16.426 -16.128 -19.392  1.00  0.00     0.154 C 
HETATM    8  C9  UNL     1      16.579 -16.147 -17.883  1.00  0.00     0.043 C 
HETATM    9  C10 UNL     1      16.071 -14.808 -17.419  1.00  0.00     0.030 C 
HETATM   10  C11 UNL     1      15.054 -14.474 -18.497  1.00  0.00     0.233 C 
HETATM   11  N2  UNL     1      15.629 -15.001 -19.716  1.00  0.00    -0.064 N 
ATOM     12  H21 UNL     1      14.923 -15.211 -20.421  1.00  0.00     0.278 HD
ATOM     13  H22 UNL     1      16.146 -14.295 -20.240  1.00  0.00     0.278 HD
ENDROOT
BRANCH   1  14
HETATM   14  C4  UNL     1      14.696 -17.586 -20.536  1.00  0.00     0.040 C 
BRANCH  14  15
HETATM   15  C3  UNL     1      13.626 -18.321 -19.847  1.00  0.00     0.121 C 
HETATM   16  O1  UNL     1      14.028 -19.687 -19.951  1.00  0.00    -0.386 OA
HETATM   17  C2  UNL     1      12.939 -20.381 -19.452  1.00  0.00     0.168 C 
HETATM   18  C1  UNL     1      11.766 -19.750 -20.171  1.00  0.00     0.029 C 
HETATM   19  C12 UNL     1      12.285 -18.362 -20.485  1.00  0.00     0.034 C 
ENDBRANCH  14  15
ENDBRANCH   1  14
TORSDOF 2
ENDMDL
MODEL 2
REMARK VINA RESULT: -6.089710411      0.894      1.046
REMARK  2 active torsions:
REMARK  status: ('A' for Active; 'I' for Inactive)
REMARK    1  A    between atoms: C3_4  and  C4_5 
REMARK    2  A    between atoms: C4_5  and  C5_6 
ROOT
HETATM    1  C5  UNL     1      16.049 -17.527 -20.104  1.00  0.00     0.051 C 
HETATM    2  C6  UNL     1      17.444 -17.697 -20.628  1.00  0.00     0.239 C 
HETATM    3  N1  UNL     1      18.124 -16.490 -20.111  1.00  0.00    -0.072 N 
ATOM      4  H11 UNL     1      19.102 -16.378 -20.377  1.00  0.00     0.277 HD
ATOM      5  H12 UNL     1      18.314 -16.478 -19.108  1.00  0.00     0.277 HD
HETATM    6  C7  UNL     1      17.201 -15.465 -20.602  1.00  0.00     0.271 C 
HETATM    7  C8  UNL     1      15.871 -16.052 -20.101  1.00  0.00     0.154 C 
HETATM    8  C9  UNL     1      15.692 -15.470 -18.712  1.00  0.00     0.043 C 
HETATM    9  C10 UNL     1      14.691 -14.358 -18.876  1.00  0.00     0.030 C 
HETATM   10  C11 UNL     1      13.880 -14.848 -20.064  1.00  0.00     0.233 C 
HETATM   11  N2  UNL     1      14.843 -15.512 -20.915  1.00  0.00    -0.064 N 
ATOM     12  H21 UNL     1      14.412 -16.214 -21.518  1.00  0.00     0.278 HD
ATOM     13  H22 UNL     1      15.205 -14.901 -21.646  1.00  0.00     0.278 HD
ENDROOT
BRANCH   1  14
HETATM   14  C4  UNL     1      14.995 -18.365 -20.659  1.00  0.00     0.040 C 
BRANCH  14  15
HETATM   15  C3  UNL     1      13.790 -18.709 -19.892  1.00  0.00     0.121 C 
HETATM   16  O1  UNL     1      13.809 -20.136 -19.847  1.00  0.00    -0.386 OA
HETATM   17  C2  UNL     1      12.591 -20.456 -19.274  1.00  0.00     0.168 C 
HETATM   18  C1  UNL     1      11.607 -19.611 -20.053  1.00  0.00     0.029 C 
HETATM   19  C12 UNL     1      12.467 -18.454 -20.518  1.00  0.00     0.034 C 
ENDBRANCH  14  15
ENDBRANCH   1  14
TORSDOF 2
ENDMDL
MODEL 3
REMARK VINA RESULT: -6.087038227      0.864      1.117
REMARK  2 active torsions:
REMARK  status: ('A' for Active; 'I' for Inactive)
REMARK    1  A    between atoms: C3_4  and  C4_5 
REMARK    2  A    between atoms: C4_5  and  C5_6 
ROOT
HETATM    1  C5  UNL     1      15.554 -17.455 -19.826  1.00  0.00     0.051 C 
HETATM    2  C6  UNL     1      16.533 -18.017 -20.813  1.00  0.00     0.239 C 
HETATM    3  N1  UNL     1      17.832 -17.689 -20.189  1.00  0.00    -0.072 N 
ATOM      4  H11 UNL     1      18.664 -17.958 -20.716  1.00  0.00     0.277 HD
ATOM      5  H12 UNL     1      18.084 -18.235 -19.364  1.00  0.00     0.277 HD
HETATM    6  C7  UNL     1      17.642 -16.253 -19.977  1.00  0.00     0.271 C 
HETATM    7  C8  UNL     1      16.271 -16.274 -19.280  1.00  0.00     0.154 C 
HETATM    8  C9  UNL     1      16.592 -16.395 -17.802  1.00  0.00     0.043 C 
HETATM    9  C10 UNL     1      16.419 -15.006 -17.247  1.00  0.00     0.030 C 
HETATM   10  C11 UNL     1      15.371 -14.429 -18.183  1.00  0.00     0.233 C 
HETATM   11  N2  UNL     1      15.683 -14.998 -19.476  1.00  0.00    -0.064 N 
ATOM     12  H21 UNL     1      14.872 -15.033 -20.093  1.00  0.00     0.278 HD
ATOM     13  H22 UNL     1      16.266 -14.383 -20.043  1.00  0.00     0.278 HD
ENDROOT
BRANCH   1  14
HETATM   14  C4  UNL     1      14.165 -17.309 -20.236  1.00  0.00     0.040 C 
BRANCH  14  15
HETATM   15  C3  UNL     1      13.293 -18.471 -20.457  1.00  0.00     0.121 C 
HETATM   16  O1  UNL     1      12.078 -18.118 -19.795  1.00  0.00    -0.386 OA
HETATM   17  C2  UNL     1      11.327 -19.279 -19.861  1.00  0.00     0.168 C 
HETATM   18  C1  UNL     1      12.298 -20.348 -19.410  1.00  0.00     0.029 C 
HETATM   19  C12 UNL     1      13.639 -19.743 -19.771  1.00  0.00     0.034 C 
ENDBRANCH  14  15
ENDBRANCH   1  14
TORSDOF 2
ENDMDL
MODEL 4
REMARK VINA RESULT: -5.961048008      1.049      2.604
REMARK  2 active torsions:
REMARK  status: ('A' for Active; 'I' for Inactive)
REMARK    1  A    between atoms: C3_4  and  C4_5 
REMARK    2  A    between atoms: C4_5  and  C5_6 
ROOT
HETATM    1  C5  UNL     1      14.759 -16.433 -20.494  1.00  0.00     0.051 C 
HETATM    2  C6  UNL     1      13.905 -15.454 -19.744  1.00  0.00     0.239 C 
HETATM    3  N1  UNL     1      14.880 -14.407 -19.372  1.00  0.00    -0.072 N 
ATOM      4  H11 UNL     1      14.517 -13.633 -18.814  1.00  0.00     0.277 HD
ATOM      5  H12 UNL     1      15.207 -13.808 -20.132  1.00  0.00     0.277 HD
HETATM    6  C7  UNL     1      15.896 -15.242 -18.730  1.00  0.00     0.271 C 
HETATM    7  C8  UNL     1      16.076 -16.315 -19.816  1.00  0.00     0.154 C 
HETATM    8  C9  UNL     1      17.169 -15.772 -20.717  1.00  0.00     0.043 C 
HETATM    9  C10 UNL     1      18.414 -16.521 -20.321  1.00  0.00     0.030 C 
HETATM   10  C11 UNL     1      17.836 -17.837 -19.827  1.00  0.00     0.233 C 
HETATM   11  N2  UNL     1      16.595 -17.471 -19.181  1.00  0.00    -0.064 N 
ATOM     12  H21 UNL     1      15.924 -18.240 -19.160  1.00  0.00     0.278 HD
ATOM     13  H22 UNL     1      16.700 -17.349 -18.174  1.00  0.00     0.278 HD
ENDROOT
BRANCH   1  14
HETATM   14  C4  UNL     1      14.218 -17.759 -20.760  1.00  0.00     0.040 C 
BRANCH  14  15
HETATM   15  C3  UNL     1      13.285 -18.418 -19.837  1.00  0.00     0.121 C 
HETATM   16  O1  UNL     1      13.626 -19.801 -19.935  1.00  0.00    -0.386 OA
HETATM   17  C2  UNL     1      12.639 -20.429 -19.197  1.00  0.00     0.168 C 
HETATM   18  C1  UNL     1      11.364 -19.797 -19.712  1.00  0.00     0.029 C 
HETATM   19  C12 UNL     1      11.845 -18.447 -20.202  1.00  0.00     0.034 C 
ENDBRANCH  14  15
ENDBRANCH   1  14
TORSDOF 2
ENDMDL
MODEL 5
REMARK VINA RESULT: -5.940812801      1.684      3.112
REMARK  2 active torsions:
REMARK  status: ('A' for Active; 'I' for Inactive)
REMARK    1  A    between atoms: C3_4  and  C4_5 
REMARK    2  A    between atoms: C4_5  and  C5_6 
ROOT
HETATM    1  C5  UNL     1      15.007 -14.551 -20.341  1.00  0.00     0.051 C 
HETATM    2  C6  UNL     1      14.480 -14.159 -18.992  1.00  0.00     0.239 C 
HETATM    3  N1  UNL     1      15.580 -13.331 -18.453  1.00  0.00    -0.072 N 
ATOM      4  H11 UNL     1      15.450 -12.972 -17.507  1.00  0.00     0.277 HD
ATOM      5  H12 UNL     1      15.693 -12.407 -18.872  1.00  0.00     0.277 HD
HETATM    6  C7  UNL     1      16.695 -14.262 -18.640  1.00  0.00     0.271 C 
HETATM    7  C8  UNL     1      16.472 -14.641 -20.113  1.00  0.00     0.154 C 
HETATM    8  C9  UNL     1      17.268 -13.616 -20.899  1.00  0.00     0.043 C 
HETATM    9  C10 UNL     1      18.529 -14.327 -21.311  1.00  0.00     0.030 C 
HETATM   10  C11 UNL     1      18.056 -15.769 -21.392  1.00  0.00     0.233 C 
HETATM   11  N2  UNL     1      17.094 -15.899 -20.320  1.00  0.00    -0.064 N 
ATOM     12  H21 UNL     1      16.419 -16.645 -20.489  1.00  0.00     0.278 HD
ATOM     13  H22 UNL     1      17.509 -16.274 -19.467  1.00  0.00     0.278 HD
ENDROOT
BRANCH   1  14
HETATM   14  C4  UNL     1      14.336 -15.625 -21.059  1.00  0.00     0.040 C 
BRANCH  14  15
HETATM   15  C3  UNL     1      13.819 -16.817 -20.371  1.00  0.00     0.121 C 
HETATM   16  O1  UNL     1      14.736 -17.848 -20.737  1.00  0.00    -0.386 OA
HETATM   17  C2  UNL     1      14.151 -18.994 -20.227  1.00  0.00     0.168 C 
HETATM   18  C1  UNL     1      12.714 -18.886 -20.690  1.00  0.00     0.029 C 
HETATM   19  C12 UNL     1      12.532 -17.390 -20.841  1.00  0.00     0.034 C 
ENDBRANCH  14  15
ENDBRANCH   1  14
TORSDOF 2
ENDMDL
