MODEL 1
REMARK VINA RESULT: -6.940352757      0.000      0.000
REMARK  3 active torsions:
REMARK  status: ('A' for Active; 'I' for Inactive)
REMARK    1  A    between atoms: C4_4  and  C5_5 
REMARK    2  A    between atoms: C5_5  and  C6_6 
REMARK    3  A    between atoms: C6_6  and  C7_7 
ROOT
HETATM    1  C7  UNL     1      -4.015  -2.130   1.664  1.00  0.00     0.124 C 
HETATM    2  C8  UNL     1      -4.983  -1.111   1.228  1.00  0.00     0.059 C 
HETATM    3  N1  UNL     1      -5.734  -0.298   0.880  1.00  0.00    -0.197 NA
ENDROOT
BRANCH   1   4
HETATM    4  C6  UNL     1      -3.188  -1.508   2.756  1.00  0.00     0.019 C 
BRANCH   4   5
HETATM    5  C5  UNL     1      -1.780  -2.018   2.791  1.00  0.00     0.043 C 
BRANCH   5   6
HETATM    6  C4  UNL     1      -0.989  -1.114   3.678  1.00  0.00    -0.017 A 
HETATM    7  C3  UNL     1      -0.146  -0.167   3.124  1.00  0.00     0.020 A 
HETATM    8  C2  UNL     1       0.591   0.669   3.931  1.00  0.00    -0.026 A 
HETATM    9  C1  UNL     1       1.514   1.708   3.404  1.00  0.00     0.051 C 
HETATM   10  C11 UNL     1       0.451   0.518   5.305  1.00  0.00     0.104 A 
HETATM   11  C10 UNL     1      -0.390  -0.427   5.853  1.00  0.00     0.102 A 
HETATM   12  O1  UNL     1       1.167   1.331   6.194  1.00  0.00    -0.346 OA
HETATM   13  C9  UNL     1      -1.124  -1.261   5.036  1.00  0.00     0.151 A 
HETATM   14  N2  UNL     1      -0.504  -0.548   7.259  1.00  0.00    -0.374 N 
HETATM   15  F1  UNL     1      -1.939  -2.178   5.608  1.00  0.00    -0.203 F 
HETATM   16  C13 UNL     1       0.194   0.327   8.176  1.00  0.00     0.045 C 
ATOM     17  H2  UNL     1      -1.103  -1.281   7.640  1.00  0.00     0.160 HD
HETATM   18  C12 UNL     1       0.685   1.583   7.503  1.00  0.00     0.206 C 
HETATM   19  C14 UNL     1       1.369  -0.415   8.769  1.00  0.00     0.040 C 
HETATM   20  C15 UNL     1      -0.770   0.681   9.286  1.00  0.00     0.040 C 
ENDBRANCH   5   6
ENDBRANCH   4   5
ENDBRANCH   1   4
TORSDOF 3
ENDMDL
MODEL 2
REMARK VINA RESULT: -6.922610704      2.991      5.234
REMARK  3 active torsions:
REMARK  status: ('A' for Active; 'I' for Inactive)
REMARK    1  A    between atoms: C4_4  and  C5_5 
REMARK    2  A    between atoms: C5_5  and  C6_6 
REMARK    3  A    between atoms: C6_6  and  C7_7 
ROOT
HETATM    1  C7  UNL     1       4.017   2.147   1.644  1.00  0.00     0.124 C 
HETATM    2  C8  UNL     1       4.987   1.132   1.202  1.00  0.00     0.059 C 
HETATM    3  N1  UNL     1       5.739   0.322   0.850  1.00  0.00    -0.197 NA
ENDROOT
BRANCH   1   4
HETATM    4  C6  UNL     1       3.199   1.523   2.741  1.00  0.00     0.019 C 
BRANCH   4   5
HETATM    5  C5  UNL     1       1.812   2.079   2.831  1.00  0.00     0.043 C 
BRANCH   5   6
HETATM    6  C4  UNL     1       1.009   1.166   3.698  1.00  0.00    -0.017 A 
HETATM    7  C3  UNL     1       0.163   0.233   3.122  1.00  0.00     0.020 A 
HETATM    8  C2  UNL     1      -0.584  -0.611   3.911  1.00  0.00    -0.026 A 
HETATM    9  C1  UNL     1      -1.511  -1.634   3.360  1.00  0.00     0.051 C 
HETATM   10  C11 UNL     1      -0.452  -0.483   5.288  1.00  0.00     0.104 A 
HETATM   11  C10 UNL     1       0.391   0.447   5.857  1.00  0.00     0.102 A 
HETATM   12  O1  UNL     1      -1.179  -1.306   6.159  1.00  0.00    -0.346 OA
HETATM   13  C9  UNL     1       1.136   1.289   5.059  1.00  0.00     0.151 A 
HETATM   14  N2  UNL     1       0.497   0.543   7.265  1.00  0.00    -0.374 N 
HETATM   15  F1  UNL     1       1.953   2.191   5.651  1.00  0.00    -0.203 F 
HETATM   16  C13 UNL     1      -0.213  -0.342   8.164  1.00  0.00     0.045 C 
ATOM     17  H2  UNL     1       1.098   1.266   7.662  1.00  0.00     0.160 HD
HETATM   18  C12 UNL     1      -0.709  -1.583   7.467  1.00  0.00     0.206 C 
HETATM   19  C14 UNL     1      -1.387   0.398   8.760  1.00  0.00     0.040 C 
HETATM   20  C15 UNL     1       0.741  -0.720   9.274  1.00  0.00     0.040 C 
ENDBRANCH   5   6
ENDBRANCH   4   5
ENDBRANCH   1   4
TORSDOF 3
ENDMDL
MODEL 3
REMARK VINA RESULT: -6.731623623      3.054      5.906
REMARK  3 active torsions:
REMARK  status: ('A' for Active; 'I' for Inactive)
REMARK    1  A    between atoms: C4_4  and  C5_5 
REMARK    2  A    between atoms: C5_5  and  C6_6 
REMARK    3  A    between atoms: C6_6  and  C7_7 
ROOT
HETATM    1  C7  UNL     1       0.234  -2.610   9.189  1.00  0.00     0.124 C 
HETATM    2  C8  UNL     1      -0.781  -2.647  10.253  1.00  0.00     0.059 C 
HETATM    3  N1  UNL     1      -1.591  -2.669  11.084  1.00  0.00    -0.197 NA
ENDROOT
BRANCH   1   4
HETATM    4  C6  UNL     1       0.516  -1.160   8.903  1.00  0.00     0.019 C 
BRANCH   4   5
HETATM    5  C5  UNL     1      -0.638  -0.451   8.265  1.00  0.00     0.043 C 
BRANCH   5   6
HETATM    6  C4  UNL     1      -0.358  -0.346   6.802  1.00  0.00    -0.017 A 
HETATM    7  C3  UNL     1      -0.911  -1.264   5.926  1.00  0.00     0.020 A 
HETATM    8  C2  UNL     1      -0.657  -1.180   4.576  1.00  0.00    -0.026 A 
HETATM    9  C1  UNL     1      -1.217  -2.130   3.580  1.00  0.00     0.051 C 
HETATM   10  C11 UNL     1       0.167  -0.148   4.144  1.00  0.00     0.104 A 
HETATM   11  C10 UNL     1       0.716   0.763   5.020  1.00  0.00     0.102 A 
HETATM   12  O1  UNL     1       0.473   0.005   2.784  1.00  0.00    -0.346 OA
HETATM   13  C9  UNL     1       0.456   0.671   6.371  1.00  0.00     0.151 A 
HETATM   14  N2  UNL     1       1.550   1.800   4.537  1.00  0.00    -0.374 N 
HETATM   15  F1  UNL     1       1.011   1.583   7.203  1.00  0.00    -0.203 F 
HETATM   16  C13 UNL     1       1.823   1.991   3.129  1.00  0.00     0.045 C 
ATOM     17  H2  UNL     1       1.975   2.439   5.210  1.00  0.00     0.160 HD
HETATM   18  C12 UNL     1       0.829   1.270   2.254  1.00  0.00     0.206 C 
HETATM   19  C14 UNL     1       3.214   1.490   2.824  1.00  0.00     0.040 C 
HETATM   20  C15 UNL     1       1.768   3.477   2.854  1.00  0.00     0.040 C 
ENDBRANCH   5   6
ENDBRANCH   4   5
ENDBRANCH   1   4
TORSDOF 3
ENDMDL
MODEL 4
REMARK VINA RESULT: -6.727076088      2.073      6.222
REMARK  3 active torsions:
REMARK  status: ('A' for Active; 'I' for Inactive)
REMARK    1  A    between atoms: C4_4  and  C5_5 
REMARK    2  A    between atoms: C5_5  and  C6_6 
REMARK    3  A    between atoms: C6_6  and  C7_7 
ROOT
HETATM    1  C7  UNL     1      -0.151   2.638   9.135  1.00  0.00     0.124 C 
HETATM    2  C8  UNL     1       0.818   2.661  10.241  1.00  0.00     0.059 C 
HETATM    3  N1  UNL     1       1.593   2.670  11.105  1.00  0.00    -0.197 NA
ENDROOT
BRANCH   1   4
HETATM    4  C6  UNL     1      -0.489   1.195   8.878  1.00  0.00     0.019 C 
BRANCH   4   5
HETATM    5  C5  UNL     1       0.634   0.429   8.250  1.00  0.00     0.043 C 
BRANCH   5   6
HETATM    6  C4  UNL     1       0.353   0.324   6.787  1.00  0.00    -0.017 A 
HETATM    7  C3  UNL     1       0.905   1.242   5.910  1.00  0.00     0.020 A 
HETATM    8  C2  UNL     1       0.650   1.158   4.561  1.00  0.00    -0.026 A 
HETATM    9  C1  UNL     1       1.209   2.108   3.564  1.00  0.00     0.051 C 
HETATM   10  C11 UNL     1      -0.174   0.125   4.129  1.00  0.00     0.104 A 
HETATM   11  C10 UNL     1      -0.721  -0.786   5.005  1.00  0.00     0.102 A 
HETATM   12  O1  UNL     1      -0.480  -0.028   2.770  1.00  0.00    -0.346 OA
HETATM   13  C9  UNL     1      -0.461  -0.694   6.357  1.00  0.00     0.151 A 
HETATM   14  N2  UNL     1      -1.555  -1.824   4.524  1.00  0.00    -0.374 N 
HETATM   15  F1  UNL     1      -1.015  -1.606   7.189  1.00  0.00    -0.203 F 
HETATM   16  C13 UNL     1      -1.829  -2.014   3.115  1.00  0.00     0.045 C 
ATOM     17  H2  UNL     1      -1.979  -2.462   5.196  1.00  0.00     0.160 HD
HETATM   18  C12 UNL     1      -0.836  -1.293   2.239  1.00  0.00     0.206 C 
HETATM   19  C14 UNL     1      -3.221  -1.514   2.811  1.00  0.00     0.040 C 
HETATM   20  C15 UNL     1      -1.773  -3.500   2.841  1.00  0.00     0.040 C 
ENDBRANCH   5   6
ENDBRANCH   4   5
ENDBRANCH   1   4
TORSDOF 3
ENDMDL
MODEL 5
REMARK VINA RESULT: -6.679935903      1.087      1.171
REMARK  3 active torsions:
REMARK  status: ('A' for Active; 'I' for Inactive)
REMARK    1  A    between atoms: C4_4  and  C5_5 
REMARK    2  A    between atoms: C5_5  and  C6_6 
REMARK    3  A    between atoms: C6_6  and  C7_7 
ROOT
HETATM    1  C7  UNL     1      -3.967  -2.166   1.561  1.00  0.00     0.124 C 
HETATM    2  C8  UNL     1      -2.936  -2.301   0.520  1.00  0.00     0.059 C 
HETATM    3  N1  UNL     1      -2.116  -2.418  -0.292  1.00  0.00    -0.197 NA
ENDROOT
BRANCH   1   4
HETATM    4  C6  UNL     1      -3.284  -1.615   2.783  1.00  0.00     0.019 C 
BRANCH   4   5
HETATM    5  C5  UNL     1      -1.980  -2.288   3.083  1.00  0.00     0.043 C 
BRANCH   5   6
HETATM    6  C4  UNL     1      -1.138  -1.328   3.856  1.00  0.00    -0.017 A 
HETATM    7  C3  UNL     1      -0.310  -0.442   3.188  1.00  0.00     0.020 A 
HETATM    8  C2  UNL     1       0.473   0.445   3.890  1.00  0.00    -0.026 A 
HETATM    9  C1  UNL     1       1.383   1.423   3.238  1.00  0.00     0.051 C 
HETATM   10  C11 UNL     1       0.395   0.409   5.277  1.00  0.00     0.104 A 
HETATM   11  C10 UNL     1      -0.430  -0.475   5.938  1.00  0.00     0.102 A 
HETATM   12  O1  UNL     1       1.161   1.280   6.063  1.00  0.00    -0.346 OA
HETATM   13  C9  UNL     1      -1.212  -1.361   5.226  1.00  0.00     0.151 A 
HETATM   14  N2  UNL     1      -0.481  -0.479   7.353  1.00  0.00    -0.374 N 
HETATM   15  F1  UNL     1      -2.011  -2.215   5.908  1.00  0.00    -0.203 F 
HETATM   16  C13 UNL     1       0.269   0.456   8.163  1.00  0.00     0.045 C 
ATOM     17  H2  UNL     1      -1.070  -1.168   7.819  1.00  0.00     0.160 HD
HETATM   18  C12 UNL     1       0.744   1.646   7.367  1.00  0.00     0.206 C 
HETATM   19  C14 UNL     1       1.461  -0.253   8.760  1.00  0.00     0.040 C 
HETATM   20  C15 UNL     1      -0.638   0.915   9.282  1.00  0.00     0.040 C 
ENDBRANCH   5   6
ENDBRANCH   4   5
ENDBRANCH   1   4
TORSDOF 3
ENDMDL
