MODEL 1
REMARK VINA RESULT: -6.711383516      0.000      0.000
REMARK  3 active torsions:
REMARK  status: ('A' for Active; 'I' for Inactive)
REMARK    1  A    between atoms: C2_2  and  C3_3 
REMARK    2  A    between atoms: C3_3  and  N1_4 
REMARK    3  A    between atoms: N1_4  and  C4_6 
ROOT
HETATM    1  C4  UNL     1       0.037  -0.953   5.780  1.00  0.00     0.123 A 
HETATM    2  N2  UNL     1       0.114  -1.845   6.776  1.00  0.00    -0.332 N 
ATOM      3  H2  UNL     1       0.318  -2.819   6.551  1.00  0.00     0.168 HD
HETATM    4  C5  UNL     1      -0.073  -1.492   8.084  1.00  0.00     0.109 A 
HETATM    5  S1  UNL     1       0.032  -2.629   9.266  1.00  0.00    -0.060 SA
HETATM    6  C6  UNL     1      -0.350  -0.192   8.436  1.00  0.00    -0.009 A 
HETATM    7  C7  UNL     1      -0.439   0.760   7.443  1.00  0.00    -0.024 A 
HETATM    8  C8  UNL     1      -0.243   0.351   6.146  1.00  0.00     0.095 A 
HETATM    9  C9  UNL     1      -0.333   1.341   5.094  1.00  0.00     0.104 C 
HETATM   10  N3  UNL     1      -0.419   2.129   4.266  1.00  0.00    -0.191 NA
HETATM   11  C10 UNL     1      -0.736   2.176   7.773  1.00  0.00     0.043 C 
HETATM   12  C11 UNL     1      -0.163   2.618   9.069  1.00  0.00     0.042 C 
HETATM   13  C12 UNL     1       0.175   1.541  10.027  1.00  0.00     0.174 C 
HETATM   14  F1  UNL     1      -0.093   1.965  11.337  1.00  0.00    -0.249 F 
HETATM   15  C13 UNL     1      -0.564   0.257   9.828  1.00  0.00     0.079 C 
ENDROOT
BRANCH   1  16
HETATM   16  N1  UNL     1       0.244  -1.302   4.425  1.00  0.00    -0.375 N 
ATOM     17  H1  UNL     1       1.120  -0.987   4.007  1.00  0.00     0.161 HD
BRANCH  16  18
HETATM   18  C3  UNL     1      -0.628  -2.041   3.581  1.00  0.00     0.121 C 
BRANCH  18  19
HETATM   19  C2  UNL     1      -1.972  -1.434   3.330  1.00  0.00     0.015 C 
HETATM   20  C1  UNL     1      -3.099  -2.421   3.547  1.00  0.00     0.006 C 
ENDBRANCH  18  19
ENDBRANCH  16  18
ENDBRANCH   1  16
TORSDOF 3
ENDMDL
MODEL 2
REMARK VINA RESULT: -6.708018505      2.260      3.882
REMARK  3 active torsions:
REMARK  status: ('A' for Active; 'I' for Inactive)
REMARK    1  A    between atoms: C2_2  and  C3_3 
REMARK    2  A    between atoms: C3_3  and  N1_4 
REMARK    3  A    between atoms: N1_4  and  C4_6 
ROOT
HETATM    1  C4  UNL     1      -0.026   0.936   5.767  1.00  0.00     0.123 A 
HETATM    2  N2  UNL     1      -0.109   1.835   6.756  1.00  0.00    -0.332 N 
ATOM      3  H2  UNL     1      -0.314   2.807   6.524  1.00  0.00     0.168 HD
HETATM    4  C5  UNL     1       0.073   1.492   8.068  1.00  0.00     0.109 A 
HETATM    5  S1  UNL     1      -0.039   2.637   9.241  1.00  0.00    -0.060 SA
HETATM    6  C6  UNL     1       0.352   0.194   8.430  1.00  0.00    -0.009 A 
HETATM    7  C7  UNL     1       0.446  -0.764   7.444  1.00  0.00    -0.024 A 
HETATM    8  C8  UNL     1       0.254  -0.365   6.143  1.00  0.00     0.095 A 
HETATM    9  C9  UNL     1       0.350  -1.362   5.098  1.00  0.00     0.104 C 
HETATM   10  N3  UNL     1       0.442  -2.155   4.276  1.00  0.00    -0.191 NA
HETATM   11  C10 UNL     1       0.744  -2.177   7.786  1.00  0.00     0.043 C 
HETATM   12  C11 UNL     1       0.167  -2.612   9.082  1.00  0.00     0.042 C 
HETATM   13  C12 UNL     1      -0.178  -1.528  10.031  1.00  0.00     0.174 C 
HETATM   14  F1  UNL     1       0.086  -1.942  11.345  1.00  0.00    -0.249 F 
HETATM   15  C13 UNL     1       0.560  -0.245   9.826  1.00  0.00     0.079 C 
ENDROOT
BRANCH   1  16
HETATM   16  N1  UNL     1      -0.228   1.275   4.409  1.00  0.00    -0.375 N 
ATOM     17  H1  UNL     1      -1.085   0.925   3.979  1.00  0.00     0.161 HD
BRANCH  16  18
HETATM   18  C3  UNL     1       0.625   2.048   3.576  1.00  0.00     0.121 C 
BRANCH  18  19
HETATM   19  C2  UNL     1       1.975   1.468   3.297  1.00  0.00     0.015 C 
HETATM   20  C1  UNL     1       3.095   2.429   3.633  1.00  0.00     0.006 C 
ENDBRANCH  18  19
ENDBRANCH  16  18
ENDBRANCH   1  16
TORSDOF 3
ENDMDL
MODEL 3
REMARK VINA RESULT: -6.475587506      2.053      3.235
REMARK  3 active torsions:
REMARK  status: ('A' for Active; 'I' for Inactive)
REMARK    1  A    between atoms: C2_2  and  C3_3 
REMARK    2  A    between atoms: C3_3  and  N1_4 
REMARK    3  A    between atoms: N1_4  and  C4_6 
ROOT
HETATM    1  C4  UNL     1       0.288  -0.252   5.422  1.00  0.00     0.123 A 
HETATM    2  N2  UNL     1      -0.278   0.802   6.024  1.00  0.00    -0.332 N 
ATOM      3  H2  UNL     1      -0.546   1.607   5.460  1.00  0.00     0.168 HD
HETATM    4  C5  UNL     1      -0.508   0.831   7.372  1.00  0.00     0.109 A 
HETATM    5  S1  UNL     1      -1.206   2.151   8.059  1.00  0.00    -0.060 SA
HETATM    6  C6  UNL     1      -0.164  -0.232   8.174  1.00  0.00    -0.009 A 
HETATM    7  C7  UNL     1       0.422  -1.337   7.596  1.00  0.00    -0.024 A 
HETATM    8  C8  UNL     1       0.630  -1.314   6.238  1.00  0.00     0.095 A 
HETATM    9  C9  UNL     1       1.244  -2.469   5.619  1.00  0.00     0.104 C 
HETATM   10  N3  UNL     1       1.744  -3.382   5.139  1.00  0.00    -0.191 NA
HETATM   11  C10 UNL     1       0.810  -2.508   8.421  1.00  0.00     0.043 C 
HETATM   12  C11 UNL     1      -0.101  -2.761   9.564  1.00  0.00     0.042 C 
HETATM   13  C12 UNL     1      -0.926  -1.610   9.999  1.00  0.00     0.174 C 
HETATM   14  F1  UNL     1      -1.070  -1.626  11.395  1.00  0.00    -0.249 F 
HETATM   15  C13 UNL     1      -0.383  -0.266   9.636  1.00  0.00     0.079 C 
ENDROOT
BRANCH   1  16
HETATM   16  N1  UNL     1       0.517  -0.301   4.027  1.00  0.00    -0.375 N 
ATOM     17  H1  UNL     1       1.483  -0.176   3.723  1.00  0.00     0.161 HD
BRANCH  16  18
HETATM   18  C3  UNL     1      -0.445  -0.506   3.001  1.00  0.00     0.121 C 
BRANCH  18  19
HETATM   19  C2  UNL     1      -1.654  -1.301   3.381  1.00  0.00     0.015 C 
HETATM   20  C1  UNL     1      -1.604  -2.716   2.845  1.00  0.00     0.006 C 
ENDBRANCH  18  19
ENDBRANCH  16  18
ENDBRANCH   1  16
TORSDOF 3
ENDMDL
MODEL 4
REMARK VINA RESULT: -6.432367630      2.269      3.509
REMARK  3 active torsions:
REMARK  status: ('A' for Active; 'I' for Inactive)
REMARK    1  A    between atoms: C2_2  and  C3_3 
REMARK    2  A    between atoms: C3_3  and  N1_4 
REMARK    3  A    between atoms: N1_4  and  C4_6 
ROOT
HETATM    1  C4  UNL     1       0.667   0.614   6.769  1.00  0.00     0.123 A 
HETATM    2  N2  UNL     1       0.418   1.472   7.768  1.00  0.00    -0.332 N 
ATOM      3  H2  UNL     1       0.439   2.473   7.575  1.00  0.00     0.168 HD
HETATM    4  C5  UNL     1       0.138   1.047   9.038  1.00  0.00     0.109 A 
HETATM    5  S1  UNL     1      -0.158   2.143  10.225  1.00  0.00    -0.060 SA
HETATM    6  C6  UNL     1       0.099  -0.293   9.345  1.00  0.00    -0.009 A 
HETATM    7  C7  UNL     1       0.349  -1.211   8.348  1.00  0.00    -0.024 A 
HETATM    8  C8  UNL     1       0.625  -0.730   7.090  1.00  0.00     0.095 A 
HETATM    9  C9  UNL     1       0.889  -1.684   6.034  1.00  0.00     0.104 C 
HETATM   10  N3  UNL     1       1.110  -2.445   5.206  1.00  0.00    -0.191 NA
HETATM   11  C10 UNL     1       0.318  -2.667   8.631  1.00  0.00     0.043 C 
HETATM   12  C11 UNL     1      -0.686  -3.054   9.654  1.00  0.00     0.042 C 
HETATM   13  C12 UNL     1      -1.141  -1.970  10.554  1.00  0.00     0.174 C 
HETATM   14  F1  UNL     1      -1.356  -2.479  11.844  1.00  0.00    -0.249 F 
HETATM   15  C13 UNL     1      -0.196  -0.821  10.694  1.00  0.00     0.079 C 
ENDROOT
BRANCH   1  16
HETATM   16  N1  UNL     1       0.942   1.040   5.449  1.00  0.00    -0.375 N 
ATOM     17  H1  UNL     1       1.927   1.113   5.194  1.00  0.00     0.161 HD
BRANCH  16  18
HETATM   18  C3  UNL     1       0.003   1.377   4.437  1.00  0.00     0.121 C 
BRANCH  18  19
HETATM   19  C2  UNL     1      -0.105   0.420   3.293  1.00  0.00     0.015 C 
HETATM   20  C1  UNL     1      -1.277  -0.526   3.441  1.00  0.00     0.006 C 
ENDBRANCH  18  19
ENDBRANCH  16  18
ENDBRANCH   1  16
TORSDOF 3
ENDMDL
MODEL 5
REMARK VINA RESULT: -6.422212774      1.411      1.771
REMARK  3 active torsions:
REMARK  status: ('A' for Active; 'I' for Inactive)
REMARK    1  A    between atoms: C2_2  and  C3_3 
REMARK    2  A    between atoms: C3_3  and  N1_4 
REMARK    3  A    between atoms: N1_4  and  C4_6 
ROOT
HETATM    1  C4  UNL     1      -0.669  -0.598   6.725  1.00  0.00     0.123 A 
HETATM    2  N2  UNL     1      -0.420  -1.462   7.717  1.00  0.00    -0.332 N 
ATOM      3  H2  UNL     1      -0.436  -2.461   7.517  1.00  0.00     0.168 HD
HETATM    4  C5  UNL     1      -0.144  -1.045   8.991  1.00  0.00     0.109 A 
HETATM    5  S1  UNL     1       0.154  -2.149  10.171  1.00  0.00    -0.060 SA
HETATM    6  C6  UNL     1      -0.110   0.293   9.308  1.00  0.00    -0.009 A 
HETATM    7  C7  UNL     1      -0.360   1.217   8.317  1.00  0.00    -0.024 A 
HETATM    8  C8  UNL     1      -0.632   0.744   7.056  1.00  0.00     0.095 A 
HETATM    9  C9  UNL     1      -0.897   1.705   6.006  1.00  0.00     0.104 C 
HETATM   10  N3  UNL     1      -1.119   2.472   5.183  1.00  0.00    -0.191 NA
HETATM   11  C10 UNL     1      -0.335   2.671   8.611  1.00  0.00     0.043 C 
HETATM   12  C11 UNL     1       0.666   3.054   9.639  1.00  0.00     0.042 C 
HETATM   13  C12 UNL     1       1.122   1.964  10.532  1.00  0.00     0.174 C 
HETATM   14  F1  UNL     1       1.333   2.464  11.826  1.00  0.00    -0.249 F 
HETATM   15  C13 UNL     1       0.181   0.811  10.662  1.00  0.00     0.079 C 
ENDROOT
BRANCH   1  16
HETATM   16  N1  UNL     1      -0.940  -1.015   5.400  1.00  0.00    -0.375 N 
ATOM     17  H1  UNL     1      -1.924  -1.095   5.145  1.00  0.00     0.161 HD
BRANCH  16  18
HETATM   18  C3  UNL     1       0.002  -1.334   4.386  1.00  0.00     0.121 C 
BRANCH  18  19
HETATM   19  C2  UNL     1       0.121  -0.352   3.264  1.00  0.00     0.015 C 
HETATM   20  C1  UNL     1       1.307   0.573   3.431  1.00  0.00     0.006 C 
ENDBRANCH  18  19
ENDBRANCH  16  18
ENDBRANCH   1  16
TORSDOF 3
ENDMDL
