MODEL 1
REMARK VINA RESULT: -5.863016064      0.000      0.000
REMARK  4 active torsions:
REMARK  status: ('A' for Active; 'I' for Inactive)
REMARK    1  A    between atoms: C1_4  and  S1_5 
REMARK    2  A    between atoms: S1_5  and  C2_6 
REMARK    3  A    between atoms: C5_10  and  S3_11 
REMARK    4  A    between atoms: S3_11  and  C6_13 
ROOT
HETATM    1  C2  UNL     1     -20.702  -1.115 -25.182  1.00  0.00     0.032 A 
HETATM    2  C3  UNL     1     -20.178  -1.732 -26.286  1.00  0.00     0.070 A 
HETATM    3  S2  UNL     1     -20.934  -0.934 -27.580  1.00  0.00    -0.111 SA
HETATM    4  C4  UNL     1     -21.900   0.165 -26.704  1.00  0.00     0.072 A 
HETATM    5  C5  UNL     1     -21.599  -0.127 -25.404  1.00  0.00     0.064 A 
ENDROOT
BRANCH   5   6
HETATM    6  S3  UNL     1     -22.363   0.762 -24.068  1.00  0.00     0.159 S 
HETATM    7  O1  UNL     1     -23.351  -0.201 -23.160  1.00  0.00    -0.244 OA
BRANCH   6   8
HETATM    8  C6  UNL     1     -21.187   1.672 -23.150  1.00  0.00     0.477 C 
HETATM    9  F1  UNL     1     -21.645   2.967 -22.982  1.00  0.00    -0.158 F 
HETATM   10  F2  UNL     1     -20.964   1.162 -21.879  1.00  0.00    -0.158 F 
HETATM   11  F3  UNL     1     -20.012   1.760 -23.878  1.00  0.00    -0.158 F 
ENDBRANCH   6   8
ENDBRANCH   5   6
BRANCH   1  12
HETATM   12  S1  UNL     1     -20.145  -1.682 -23.529  1.00  0.00    -0.084 SA
BRANCH  12  13
HETATM   13  C1  UNL     1     -21.386  -2.740 -22.815  1.00  0.00     0.131 C 
HETATM   14  N1  UNL     1     -21.872  -2.525 -21.673  1.00  0.00    -0.403 N 
ATOM     15  H12 UNL     1     -21.533  -1.715 -21.154  1.00  0.00     0.155 HD
ATOM     16  H11 UNL     1     -22.582  -3.132 -21.264  1.00  0.00     0.155 HD
ENDBRANCH  12  13
ENDBRANCH   1  12
TORSDOF 4
ENDMDL
MODEL 2
REMARK VINA RESULT: -5.857904463      2.652      3.760
REMARK  4 active torsions:
REMARK  status: ('A' for Active; 'I' for Inactive)
REMARK    1  A    between atoms: C1_4  and  S1_5 
REMARK    2  A    between atoms: S1_5  and  C2_6 
REMARK    3  A    between atoms: C5_10  and  S3_11 
REMARK    4  A    between atoms: S3_11  and  C6_13 
ROOT
HETATM    1  C2  UNL     1     -21.828   1.106 -25.219  1.00  0.00     0.032 A 
HETATM    2  C3  UNL     1     -22.343   1.714 -26.331  1.00  0.00     0.070 A 
HETATM    3  S2  UNL     1     -21.575   0.907 -27.613  1.00  0.00    -0.111 SA
HETATM    4  C4  UNL     1     -20.617  -0.184 -26.721  1.00  0.00     0.072 A 
HETATM    5  C5  UNL     1     -20.928   0.117 -25.426  1.00  0.00     0.064 A 
ENDROOT
BRANCH   5   6
HETATM    6  S3  UNL     1     -20.174  -0.762 -24.077  1.00  0.00     0.159 S 
HETATM    7  O1  UNL     1     -19.193   0.209 -23.169  1.00  0.00    -0.244 OA
BRANCH   6   8
HETATM    8  C6  UNL     1     -21.357  -1.665 -23.162  1.00  0.00     0.477 C 
HETATM    9  F1  UNL     1     -20.905  -2.962 -22.991  1.00  0.00    -0.158 F 
HETATM   10  F2  UNL     1     -21.581  -1.153 -21.892  1.00  0.00    -0.158 F 
HETATM   11  F3  UNL     1     -22.530  -1.748 -23.893  1.00  0.00    -0.158 F 
ENDBRANCH   6   8
ENDBRANCH   5   6
BRANCH   1  12
HETATM   12  S1  UNL     1     -22.398   1.684 -23.574  1.00  0.00    -0.084 SA
BRANCH  12  13
HETATM   13  C1  UNL     1     -21.153   2.730 -22.848  1.00  0.00     0.131 C 
HETATM   14  N1  UNL     1     -20.703   2.526 -21.689  1.00  0.00    -0.403 N 
ATOM     15  H12 UNL     1     -21.073   1.734 -21.164  1.00  0.00     0.155 HD
ATOM     16  H11 UNL     1     -19.990   3.125 -21.272  1.00  0.00     0.155 HD
ENDBRANCH  12  13
ENDBRANCH   1  12
TORSDOF 4
ENDMDL
MODEL 3
REMARK VINA RESULT: -5.476556028      1.760      2.010
REMARK  4 active torsions:
REMARK  status: ('A' for Active; 'I' for Inactive)
REMARK    1  A    between atoms: C1_4  and  S1_5 
REMARK    2  A    between atoms: S1_5  and  C2_6 
REMARK    3  A    between atoms: C5_10  and  S3_11 
REMARK    4  A    between atoms: S3_11  and  C6_13 
ROOT
HETATM    1  C2  UNL     1     -20.499  -1.137 -25.686  1.00  0.00     0.032 A 
HETATM    2  C3  UNL     1     -20.546  -1.706 -26.930  1.00  0.00     0.070 A 
HETATM    3  S2  UNL     1     -20.881  -0.393 -27.952  1.00  0.00    -0.111 SA
HETATM    4  C4  UNL     1     -20.955   0.853 -26.790  1.00  0.00     0.072 A 
HETATM    5  C5  UNL     1     -20.712   0.197 -25.618  1.00  0.00     0.064 A 
ENDROOT
BRANCH   5   6
HETATM    6  S3  UNL     1     -20.681   1.073 -24.071  1.00  0.00     0.159 S 
HETATM    7  O1  UNL     1     -19.366   2.064 -23.940  1.00  0.00    -0.244 OA
BRANCH   6   8
HETATM    8  C6  UNL     1     -22.213   1.847 -23.744  1.00  0.00     0.477 C 
HETATM    9  F1  UNL     1     -22.117   2.563 -22.563  1.00  0.00    -0.158 F 
HETATM   10  F2  UNL     1     -22.595   2.752 -24.725  1.00  0.00    -0.158 F 
HETATM   11  F3  UNL     1     -23.179   0.876 -23.540  1.00  0.00    -0.158 F 
ENDBRANCH   6   8
ENDBRANCH   5   6
BRANCH   1  12
HETATM   12  S1  UNL     1     -20.155  -2.225 -24.250  1.00  0.00    -0.084 SA
BRANCH  12  13
HETATM   13  C1  UNL     1     -21.600  -2.313 -23.213  1.00  0.00     0.131 C 
HETATM   14  N1  UNL     1     -21.760  -3.232 -22.366  1.00  0.00    -0.403 N 
ATOM     15  H12 UNL     1     -21.030  -3.940 -22.284  1.00  0.00     0.155 HD
ATOM     16  H11 UNL     1     -22.587  -3.283 -21.772  1.00  0.00     0.155 HD
ENDBRANCH  12  13
ENDBRANCH   1  12
TORSDOF 4
ENDMDL
MODEL 4
REMARK VINA RESULT: -5.470789254      2.656      3.716
REMARK  4 active torsions:
REMARK  status: ('A' for Active; 'I' for Inactive)
REMARK    1  A    between atoms: C1_4  and  S1_5 
REMARK    2  A    between atoms: S1_5  and  C2_6 
REMARK    3  A    between atoms: C5_10  and  S3_11 
REMARK    4  A    between atoms: S3_11  and  C6_13 
ROOT
HETATM    1  C2  UNL     1     -22.047   1.133 -25.684  1.00  0.00     0.032 A 
HETATM    2  C3  UNL     1     -22.008   1.696 -26.931  1.00  0.00     0.070 A 
HETATM    3  S2  UNL     1     -21.679   0.378 -27.949  1.00  0.00    -0.111 SA
HETATM    4  C4  UNL     1     -21.597  -0.862 -26.781  1.00  0.00     0.072 A 
HETATM    5  C5  UNL     1     -21.832  -0.200 -25.610  1.00  0.00     0.064 A 
ENDROOT
BRANCH   5   6
HETATM    6  S3  UNL     1     -21.852  -1.069 -24.059  1.00  0.00     0.159 S 
HETATM    7  O1  UNL     1     -23.168  -2.057 -23.913  1.00  0.00    -0.244 OA
BRANCH   6   8
HETATM    8  C6  UNL     1     -20.319  -1.845 -23.741  1.00  0.00     0.477 C 
HETATM    9  F1  UNL     1     -20.413  -2.569 -22.566  1.00  0.00    -0.158 F 
HETATM   10  F2  UNL     1     -19.938  -2.741 -24.729  1.00  0.00    -0.158 F 
HETATM   11  F3  UNL     1     -19.353  -0.875 -23.531  1.00  0.00    -0.158 F 
ENDBRANCH   6   8
ENDBRANCH   5   6
BRANCH   1  12
HETATM   12  S1  UNL     1     -22.382   2.228 -24.251  1.00  0.00    -0.084 SA
BRANCH  12  13
HETATM   13  C1  UNL     1     -20.921   2.346 -23.240  1.00  0.00     0.131 C 
HETATM   14  N1  UNL     1     -20.799   3.218 -22.339  1.00  0.00    -0.403 N 
ATOM     15  H12 UNL     1     -21.571   3.869 -22.197  1.00  0.00     0.155 HD
ATOM     16  H11 UNL     1     -19.963   3.286 -21.760  1.00  0.00     0.155 HD
ENDBRANCH  12  13
ENDBRANCH   1  12
TORSDOF 4
ENDMDL
MODEL 5
REMARK VINA RESULT: -5.407461527      3.338      4.741
REMARK  4 active torsions:
REMARK  status: ('A' for Active; 'I' for Inactive)
REMARK    1  A    between atoms: C1_4  and  S1_5 
REMARK    2  A    between atoms: S1_5  and  C2_6 
REMARK    3  A    between atoms: C5_10  and  S3_11 
REMARK    4  A    between atoms: S3_11  and  C6_13 
ROOT
HETATM    1  C2  UNL     1     -20.763  -0.363 -23.201  1.00  0.00     0.032 A 
HETATM    2  C3  UNL     1     -21.329  -0.364 -21.955  1.00  0.00     0.070 A 
HETATM    3  S2  UNL     1     -21.706  -1.999 -21.695  1.00  0.00    -0.111 SA
HETATM    4  C4  UNL     1     -21.141  -2.653 -23.165  1.00  0.00     0.072 A 
HETATM    5  C5  UNL     1     -20.667  -1.557 -23.828  1.00  0.00     0.064 A 
ENDROOT
BRANCH   5   6
HETATM    6  S3  UNL     1     -19.954  -1.710 -25.450  1.00  0.00     0.159 S 
HETATM    7  O1  UNL     1     -19.383  -3.233 -25.741  1.00  0.00    -0.244 OA
BRANCH   6   8
HETATM    8  C6  UNL     1     -21.026  -1.087 -26.681  1.00  0.00     0.477 C 
HETATM    9  F1  UNL     1     -20.546   0.132 -27.126  1.00  0.00    -0.158 F 
HETATM   10  F2  UNL     1     -21.121  -1.906 -27.798  1.00  0.00    -0.158 F 
HETATM   11  F3  UNL     1     -22.269  -0.842 -26.121  1.00  0.00    -0.158 F 
ENDBRANCH   6   8
ENDBRANCH   5   6
BRANCH   1  12
HETATM   12  S1  UNL     1     -20.197   1.239 -23.893  1.00  0.00    -0.084 SA
BRANCH  12  13
HETATM   13  C1  UNL     1     -21.151   2.563 -23.181  1.00  0.00     0.131 C 
HETATM   14  N1  UNL     1     -20.715   3.265 -22.230  1.00  0.00    -0.403 N 
ATOM     15  H12 UNL     1     -19.785   3.055 -21.868  1.00  0.00     0.155 HD
ATOM     16  H11 UNL     1     -21.262   4.023 -21.822  1.00  0.00     0.155 HD
ENDBRANCH  12  13
ENDBRANCH   1  12
TORSDOF 4
ENDMDL
