MODEL 1
REMARK VINA RESULT: -6.397199922      0.000      0.000
REMARK  5 active torsions:
REMARK  status: ('A' for Active; 'I' for Inactive)
REMARK       I    between atoms: C1_2  and  N1_3 
REMARK       I    between atoms: C1_2  and  N3_14 
REMARK    1  A    between atoms: N1_3  and  C2_5 
REMARK    2  A    between atoms: C2_5  and  C3_6 
REMARK    3  A    between atoms: C3_6  and  C4_7 
REMARK    4  A    between atoms: C4_7  and  N2_8 
REMARK    5  A    between atoms: C15_20  and  C16_21 
ROOT
HETATM    1  O1  UNL     1      10.362  16.761  18.497  1.00  0.00    -0.247 OA
HETATM    2  C1  UNL     1       9.179  16.489  18.097  1.00  0.00     0.318 C 
HETATM    3  N1  UNL     1       8.427  15.664  18.957  1.00  0.00    -0.343 N 
ATOM      4  H1  UNL     1       7.475  15.420  18.684  1.00  0.00     0.164 HD
HETATM    5  N3  UNL     1       8.755  17.024  16.876  1.00  0.00    -0.323 N 
HETATM    6  C10 UNL     1       9.734  17.861  16.204  1.00  0.00     0.128 C 
HETATM    7  C11 UNL     1       9.261  19.296  16.122  1.00  0.00     0.020 C 
HETATM    8  C12 UNL     1       8.121  19.523  17.100  1.00  0.00     0.002 C 
HETATM    9  C13 UNL     1       6.833  19.093  16.434  1.00  0.00     0.002 C 
HETATM   10  C14 UNL     1       6.404  17.711  16.813  1.00  0.00     0.032 C 
HETATM   11  C15 UNL     1       7.442  16.704  16.438  1.00  0.00     0.146 C 
ENDROOT
BRANCH  11  12
HETATM   12  C16 UNL     1       7.388  16.546  14.932  1.00  0.00     0.073 A 
HETATM   13  N4  UNL     1       6.854  17.378  14.050  1.00  0.00    -0.361 N 
HETATM   14  C17 UNL     1       6.884  17.091  12.792  1.00  0.00     0.096 A 
ATOM     15  H4  UNL     1       6.420  18.246  14.365  1.00  0.00     0.165 HD
HETATM   16  C18 UNL     1       7.481  15.912  12.419  1.00  0.00     0.068 A 
HETATM   17  S1  UNL     1       7.966  15.287  13.935  1.00  0.00    -0.085 SA
ENDBRANCH  11  12
BRANCH   3  18
HETATM   18  C2  UNL     1       8.937  15.149  20.203  1.00  0.00     0.126 C 
BRANCH  18  19
HETATM   19  C3  UNL     1       8.525  15.966  21.404  1.00  0.00     0.050 C 
BRANCH  19  20
HETATM   20  C4  UNL     1       8.076  17.307  20.953  1.00  0.00     0.274 C 
BRANCH  20  21
HETATM   21  N2  UNL     1       8.711  18.408  21.630  1.00  0.00     0.088 N 
HETATM   22  C5  UNL     1       7.765  19.533  21.554  1.00  0.00     0.272 C 
HETATM   23  C6  UNL     1       8.292  20.601  22.452  1.00  0.00     0.030 C 
HETATM   24  C7  UNL     1       9.670  21.071  22.074  1.00  0.00     0.003 C 
HETATM   25  C8  UNL     1      10.571  19.983  21.595  1.00  0.00     0.030 C 
HETATM   26  C9  UNL     1       9.900  18.844  20.928  1.00  0.00     0.272 C 
ENDBRANCH  20  21
ENDBRANCH  19  20
ENDBRANCH  18  19
ENDBRANCH   3  18
TORSDOF 5
ENDMDL
MODEL 2
REMARK VINA RESULT: -6.308486878      2.438      6.750
REMARK  5 active torsions:
REMARK  status: ('A' for Active; 'I' for Inactive)
REMARK       I    between atoms: C1_2  and  N1_3 
REMARK       I    between atoms: C1_2  and  N3_14 
REMARK    1  A    between atoms: N1_3  and  C2_5 
REMARK    2  A    between atoms: C2_5  and  C3_6 
REMARK    3  A    between atoms: C3_6  and  C4_7 
REMARK    4  A    between atoms: C4_7  and  N2_8 
REMARK    5  A    between atoms: C15_20  and  C16_21 
ROOT
HETATM    1  O1  UNL     1      10.331  18.330  15.321  1.00  0.00    -0.247 OA
HETATM    2  C1  UNL     1       9.345  18.669  16.062  1.00  0.00     0.318 C 
HETATM    3  N1  UNL     1       8.295  19.334  15.399  1.00  0.00    -0.343 N 
ATOM      4  H1  UNL     1       7.483  19.624  15.945  1.00  0.00     0.164 HD
HETATM    5  N3  UNL     1       9.404  18.355  17.424  1.00  0.00    -0.323 N 
HETATM    6  C10 UNL     1      10.603  17.646  17.836  1.00  0.00     0.128 C 
HETATM    7  C11 UNL     1      10.273  16.248  18.312  1.00  0.00     0.020 C 
HETATM    8  C12 UNL     1       8.881  15.857  17.849  1.00  0.00     0.002 C 
HETATM    9  C13 UNL     1       7.880  16.398  18.845  1.00  0.00     0.002 C 
HETATM   10  C14 UNL     1       7.265  17.694  18.421  1.00  0.00     0.032 C 
HETATM   11  C15 UNL     1       8.307  18.749  18.237  1.00  0.00     0.146 C 
ENDROOT
BRANCH  11  12
HETATM   12  C16 UNL     1       8.769  19.167  19.618  1.00  0.00     0.073 A 
HETATM   13  N4  UNL     1       9.908  19.760  19.946  1.00  0.00    -0.361 N 
HETATM   14  C17 UNL     1      10.155  20.044  21.180  1.00  0.00     0.096 A 
ATOM     15  H4  UNL     1      10.588  19.994  19.222  1.00  0.00     0.165 HD
HETATM   16  C18 UNL     1       9.208  19.711  22.116  1.00  0.00     0.068 A 
HETATM   17  S1  UNL     1       8.002  18.998  21.134  1.00  0.00    -0.085 SA
ENDBRANCH  11  12
BRANCH   3  18
HETATM   18  C2  UNL     1       8.309  19.623  13.987  1.00  0.00     0.126 C 
BRANCH  18  19
HETATM   19  C3  UNL     1       8.017  18.420  13.124  1.00  0.00     0.050 C 
BRANCH  19  20
HETATM   20  C4  UNL     1       6.690  17.865  13.491  1.00  0.00     0.274 C 
BRANCH  20  21
HETATM   21  N2  UNL     1       6.715  16.488  13.910  1.00  0.00     0.088 N 
HETATM   22  C5  UNL     1       6.391  16.493  15.346  1.00  0.00     0.272 C 
HETATM   23  C6  UNL     1       6.172  15.073  15.744  1.00  0.00     0.030 C 
HETATM   24  C7  UNL     1       7.368  14.194  15.497  1.00  0.00     0.003 C 
HETATM   25  C8  UNL     1       8.106  14.514  14.242  1.00  0.00     0.030 C 
HETATM   26  C9  UNL     1       8.047  15.928  13.808  1.00  0.00     0.272 C 
ENDBRANCH  20  21
ENDBRANCH  19  20
ENDBRANCH  18  19
ENDBRANCH   3  18
TORSDOF 5
ENDMDL
MODEL 3
REMARK VINA RESULT: -6.129800951      2.421      6.916
REMARK  5 active torsions:
REMARK  status: ('A' for Active; 'I' for Inactive)
REMARK       I    between atoms: C1_2  and  N1_3 
REMARK       I    between atoms: C1_2  and  N3_14 
REMARK    1  A    between atoms: N1_3  and  C2_5 
REMARK    2  A    between atoms: C2_5  and  C3_6 
REMARK    3  A    between atoms: C3_6  and  C4_7 
REMARK    4  A    between atoms: C4_7  and  N2_8 
REMARK    5  A    between atoms: C15_20  and  C16_21 
ROOT
HETATM    1  O1  UNL     1      10.456  17.945  15.673  1.00  0.00    -0.247 OA
HETATM    2  C1  UNL     1       9.516  18.526  16.316  1.00  0.00     0.318 C 
HETATM    3  N1  UNL     1       8.657  19.324  15.535  1.00  0.00    -0.343 N 
ATOM      4  H1  UNL     1       7.888  19.808  16.000  1.00  0.00     0.164 HD
HETATM    5  N3  UNL     1       9.432  18.316  17.696  1.00  0.00    -0.323 N 
HETATM    6  C10 UNL     1      10.441  17.425  18.241  1.00  0.00     0.128 C 
HETATM    7  C11 UNL     1       9.816  16.159  18.784  1.00  0.00     0.020 C 
HETATM    8  C12 UNL     1       8.403  16.007  18.248  1.00  0.00     0.002 C 
HETATM    9  C13 UNL     1       7.472  16.808  19.131  1.00  0.00     0.002 C 
HETATM   10  C14 UNL     1       7.150  18.160  18.577  1.00  0.00     0.032 C 
HETATM   11  C15 UNL     1       8.388  18.977  18.399  1.00  0.00     0.146 C 
ENDROOT
BRANCH  11  12
HETATM   12  C16 UNL     1       8.842  19.407  19.779  1.00  0.00     0.073 A 
HETATM   13  N4  UNL     1       9.964  20.033  20.104  1.00  0.00    -0.361 N 
HETATM   14  C17 UNL     1      10.207  20.323  21.338  1.00  0.00     0.096 A 
ATOM     15  H4  UNL     1      10.636  20.285  19.378  1.00  0.00     0.165 HD
HETATM   16  C18 UNL     1       9.272  19.963  22.276  1.00  0.00     0.068 A 
HETATM   17  S1  UNL     1       8.084  19.216  21.297  1.00  0.00    -0.085 SA
ENDBRANCH  11  12
BRANCH   3  18
HETATM   18  C2  UNL     1       8.810  19.492  14.111  1.00  0.00     0.126 C 
BRANCH  18  19
HETATM   19  C3  UNL     1       7.537  19.252  13.338  1.00  0.00     0.050 C 
BRANCH  19  20
HETATM   20  C4  UNL     1       7.518  17.851  12.847  1.00  0.00     0.274 C 
BRANCH  20  21
HETATM   21  N2  UNL     1       7.675  16.856  13.875  1.00  0.00     0.088 N 
HETATM   22  C5  UNL     1       7.830  15.569  13.176  1.00  0.00     0.272 C 
HETATM   23  C6  UNL     1       8.236  14.567  14.202  1.00  0.00     0.030 C 
HETATM   24  C7  UNL     1       7.238  14.421  15.319  1.00  0.00     0.003 C 
HETATM   25  C8  UNL     1       6.603  15.704  15.736  1.00  0.00     0.030 C 
HETATM   26  C9  UNL     1       6.475  16.729  14.675  1.00  0.00     0.272 C 
ENDBRANCH  20  21
ENDBRANCH  19  20
ENDBRANCH  18  19
ENDBRANCH   3  18
TORSDOF 5
ENDMDL
MODEL 4
REMARK VINA RESULT: -6.107813128      2.453      6.653
REMARK  5 active torsions:
REMARK  status: ('A' for Active; 'I' for Inactive)
REMARK       I    between atoms: C1_2  and  N1_3 
REMARK       I    between atoms: C1_2  and  N3_14 
REMARK    1  A    between atoms: N1_3  and  C2_5 
REMARK    2  A    between atoms: C2_5  and  C3_6 
REMARK    3  A    between atoms: C3_6  and  C4_7 
REMARK    4  A    between atoms: C4_7  and  N2_8 
REMARK    5  A    between atoms: C15_20  and  C16_21 
ROOT
HETATM    1  O1  UNL     1       6.064  16.527  16.839  1.00  0.00    -0.247 OA
HETATM    2  C1  UNL     1       7.256  16.559  17.302  1.00  0.00     0.318 C 
HETATM    3  N1  UNL     1       8.078  15.480  16.923  1.00  0.00    -0.343 N 
ATOM      4  H1  UNL     1       9.039  15.460  17.263  1.00  0.00     0.164 HD
HETATM    5  N3  UNL     1       7.619  17.636  18.117  1.00  0.00    -0.323 N 
HETATM    6  C10 UNL     1       6.572  18.621  18.329  1.00  0.00     0.128 C 
HETATM    7  C11 UNL     1       6.945  19.953  17.715  1.00  0.00     0.020 C 
HETATM    8  C12 UNL     1       8.084  19.768  16.728  1.00  0.00     0.002 C 
HETATM    9  C13 UNL     1       9.387  19.795  17.497  1.00  0.00     0.002 C 
HETATM   10  C14 UNL     1       9.916  18.432  17.810  1.00  0.00     0.032 C 
HETATM   11  C15 UNL     1       8.943  17.652  18.634  1.00  0.00     0.146 C 
ENDROOT
BRANCH  11  12
HETATM   12  C16 UNL     1       8.979  18.230  20.034  1.00  0.00     0.073 A 
HETATM   13  N4  UNL     1       9.460  19.405  20.412  1.00  0.00    -0.361 N 
HETATM   14  C17 UNL     1       9.423  19.746  21.656  1.00  0.00     0.096 A 
ATOM     15  H4  UNL     1       9.860  20.039  19.720  1.00  0.00     0.165 HD
HETATM   16  C18 UNL     1       8.875  18.858  22.548  1.00  0.00     0.068 A 
HETATM   17  S1  UNL     1       8.442  17.567  21.513  1.00  0.00    -0.085 SA
ENDBRANCH  11  12
BRANCH   3  18
HETATM   18  C2  UNL     1       7.628  14.402  16.076  1.00  0.00     0.126 C 
BRANCH  18  19
HETATM   19  C3  UNL     1       8.151  14.490  14.664  1.00  0.00     0.050 C 
BRANCH  19  20
HETATM   20  C4  UNL     1       7.241  15.341  13.856  1.00  0.00     0.274 C 
BRANCH  20  21
HETATM   21  N2  UNL     1       7.776  16.634  13.517  1.00  0.00     0.088 N 
HETATM   22  C5  UNL     1       6.758  17.615  13.928  1.00  0.00     0.272 C 
HETATM   23  C6  UNL     1       7.387  18.962  13.813  1.00  0.00     0.030 C 
HETATM   24  C7  UNL     1       7.865  19.280  12.423  1.00  0.00     0.003 C 
HETATM   25  C8  UNL     1       8.456  18.114  11.704  1.00  0.00     0.030 C 
HETATM   26  C9  UNL     1       7.917  16.788  12.084  1.00  0.00     0.272 C 
ENDBRANCH  20  21
ENDBRANCH  19  20
ENDBRANCH  18  19
ENDBRANCH   3  18
TORSDOF 5
ENDMDL
MODEL 5
REMARK VINA RESULT: -6.077479961      2.132      3.058
REMARK  5 active torsions:
REMARK  status: ('A' for Active; 'I' for Inactive)
REMARK       I    between atoms: C1_2  and  N1_3 
REMARK       I    between atoms: C1_2  and  N3_14 
REMARK    1  A    between atoms: N1_3  and  C2_5 
REMARK    2  A    between atoms: C2_5  and  C3_6 
REMARK    3  A    between atoms: C3_6  and  C4_7 
REMARK    4  A    between atoms: C4_7  and  N2_8 
REMARK    5  A    between atoms: C15_20  and  C16_21 
ROOT
HETATM    1  O1  UNL     1       5.222  17.493  17.721  1.00  0.00    -0.247 OA
HETATM    2  C1  UNL     1       6.279  18.043  17.257  1.00  0.00     0.318 C 
HETATM    3  N1  UNL     1       6.703  19.201  17.939  1.00  0.00    -0.343 N 
ATOM      4  H1  UNL     1       7.544  19.676  17.610  1.00  0.00     0.164 HD
HETATM    5  N3  UNL     1       6.897  17.455  16.149  1.00  0.00    -0.323 N 
HETATM    6  C10 UNL     1       6.253  16.249  15.658  1.00  0.00     0.128 C 
HETATM    7  C11 UNL     1       7.149  15.042  15.833  1.00  0.00     0.020 C 
HETATM    8  C12 UNL     1       8.262  15.361  16.816  1.00  0.00     0.002 C 
HETATM    9  C13 UNL     1       9.381  16.043  16.062  1.00  0.00     0.002 C 
HETATM   10  C14 UNL     1       9.346  17.534  16.173  1.00  0.00     0.032 C 
HETATM   11  C15 UNL     1       8.065  18.085  15.637  1.00  0.00     0.146 C 
ENDROOT
BRANCH  11  12
HETATM   12  C16 UNL     1       8.129  17.978  14.127  1.00  0.00     0.073 A 
HETATM   13  N4  UNL     1       7.972  16.892  13.385  1.00  0.00    -0.361 N 
HETATM   14  C17 UNL     1       8.067  16.969  12.100  1.00  0.00     0.096 A 
ATOM     15  H4  UNL     1       7.776  15.994  13.830  1.00  0.00     0.165 HD
HETATM   16  C18 UNL     1       8.330  18.199  11.551  1.00  0.00     0.068 A 
HETATM   17  S1  UNL     1       8.426  19.178  12.950  1.00  0.00    -0.085 SA
ENDBRANCH  11  12
BRANCH   3  18
HETATM   18  C2  UNL     1       6.008  19.747  19.078  1.00  0.00     0.126 C 
BRANCH  18  19
HETATM   19  C3  UNL     1       6.240  18.971  20.351  1.00  0.00     0.050 C 
BRANCH  19  20
HETATM   20  C4  UNL     1       7.534  18.250  20.258  1.00  0.00     0.274 C 
BRANCH  20  21
HETATM   21  N2  UNL     1       8.604  18.844  21.016  1.00  0.00     0.088 N 
HETATM   22  C5  UNL     1       8.001  19.957  21.769  1.00  0.00     0.272 C 
HETATM   23  C6  UNL     1       9.030  20.428  22.740  1.00  0.00     0.030 C 
HETATM   24  C7  UNL     1      10.301  20.892  22.082  1.00  0.00     0.003 C 
HETATM   25  C8  UNL     1      10.705  20.077  20.901  1.00  0.00     0.030 C 
HETATM   26  C9  UNL     1       9.595  19.448  20.149  1.00  0.00     0.272 C 
ENDBRANCH  20  21
ENDBRANCH  19  20
ENDBRANCH  18  19
ENDBRANCH   3  18
TORSDOF 5
ENDMDL
