MODEL 1
REMARK VINA RESULT: -7.253657927      0.000      0.000
REMARK  6 active torsions:
REMARK  status: ('A' for Active; 'I' for Inactive)
REMARK    1  A    between atoms: C2_2  and  C4_4 
REMARK    2  A    between atoms: C4_4  and  C5_5 
REMARK    3  A    between atoms: C7_7  and  O1_8 
REMARK    4  A    between atoms: O1_8  and  C8_9 
REMARK    5  A    between atoms: C18_21  and  N2_22 
REMARK    6  A    between atoms: N2_22  and  C19_24 
ROOT
HETATM    1  C19 UNL     1       7.990  19.396  12.702  1.00  0.00     0.262 C 
HETATM    2  C20 UNL     1       7.996  18.077  12.096  1.00  0.00     0.079 C 
HETATM    3  N3  UNL     1       7.999  17.025  11.616  1.00  0.00    -0.196 NA
ENDROOT
BRANCH   1   4
HETATM    4  N2  UNL     1       8.464  19.350  14.055  1.00  0.00    -0.214 N 
ATOM      5  H2  UNL     1       9.359  19.788  14.270  1.00  0.00     0.178 HD
BRANCH   4   6
HETATM    6  C18 UNL     1       7.811  18.781  15.013  1.00  0.00     0.681 A 
HETATM    7  N1  UNL     1       7.613  19.413  16.183  1.00  0.00    -0.171 N 
HETATM    8  C7  UNL     1       6.933  18.846  17.211  1.00  0.00     0.159 A 
ATOM      9  H1  UNL     1       7.988  20.354  16.302  1.00  0.00     0.186 HD
HETATM   10  C6  UNL     1       6.452  17.573  16.991  1.00  0.00     0.082 A 
HETATM   11  C5  UNL     1       6.634  16.892  15.810  1.00  0.00     0.031 A 
HETATM   12  N4  UNL     1       7.325  17.539  14.840  1.00  0.00    -0.195 N 
ATOM     13  H4  UNL     1       7.482  17.068  13.949  1.00  0.00     0.184 HD
BRANCH   8  14
HETATM   14  O1  UNL     1       6.747  19.532  18.410  1.00  0.00    -0.329 OA
BRANCH  14  15
HETATM   15  C8  UNL     1       7.792  19.642  19.315  1.00  0.00     0.138 C 
HETATM   16  C9  UNL     1       7.312  19.167  20.690  1.00  0.00     0.016 C 
HETATM   17  C10 UNL     1       8.348  19.638  21.680  1.00  0.00     0.012 C 
HETATM   18  C14 UNL     1       7.157  17.679  20.667  1.00  0.00     0.012 C 
HETATM   19  C11 UNL     1       9.662  18.992  21.312  1.00  0.00    -0.013 C 
HETATM   20  C12 UNL     1       9.495  17.504  21.458  1.00  0.00     0.009 C 
HETATM   21  C17 UNL     1      10.124  19.358  19.934  1.00  0.00     0.012 C 
HETATM   22  C13 UNL     1       8.515  17.013  20.443  1.00  0.00    -0.013 C 
HETATM   23  C15 UNL     1       8.944  17.429  19.035  1.00  0.00     0.012 C 
HETATM   24  C16 UNL     1       9.041  18.927  18.937  1.00  0.00     0.016 C 
ENDBRANCH  14  15
ENDBRANCH   8  14
BRANCH  11  25
HETATM   25  C4  UNL     1       6.117  15.519  15.568  1.00  0.00     0.061 C 
BRANCH  25  26
HETATM   26  C2  UNL     1       7.227  14.487  15.614  1.00  0.00    -0.017 C 
HETATM   27  C1  UNL     1       7.980  14.605  14.293  1.00  0.00     0.010 C 
HETATM   28  C3  UNL     1       8.176  14.854  16.722  1.00  0.00     0.010 C 
ENDBRANCH  25  26
ENDBRANCH  11  25
ENDBRANCH   4   6
ENDBRANCH   1   4
TORSDOF 6
ENDMDL
MODEL 2
REMARK VINA RESULT: -7.154361755      2.497      6.414
REMARK  6 active torsions:
REMARK  status: ('A' for Active; 'I' for Inactive)
REMARK    1  A    between atoms: C2_2  and  C4_4 
REMARK    2  A    between atoms: C4_4  and  C5_5 
REMARK    3  A    between atoms: C7_7  and  O1_8 
REMARK    4  A    between atoms: O1_8  and  C8_9 
REMARK    5  A    between atoms: C18_21  and  N2_22 
REMARK    6  A    between atoms: N2_22  and  C19_24 
ROOT
HETATM    1  C19 UNL     1       7.276  20.129  21.924  1.00  0.00     0.262 C 
HETATM    2  C20 UNL     1       8.652  20.570  22.048  1.00  0.00     0.079 C 
HETATM    3  N3  UNL     1       9.750  20.925  22.145  1.00  0.00    -0.196 NA
ENDROOT
BRANCH   1   4
HETATM    4  N2  UNL     1       6.831  20.185  20.561  1.00  0.00    -0.214 N 
ATOM      5  H2  UNL     1       6.298  21.000  20.259  1.00  0.00     0.178 HD
BRANCH   4   6
HETATM    6  C18 UNL     1       7.073  19.254  19.700  1.00  0.00     0.681 A 
HETATM    7  N1  UNL     1       6.657  19.368  18.427  1.00  0.00    -0.171 N 
HETATM    8  C7  UNL     1       6.894  18.409  17.496  1.00  0.00     0.159 A 
ATOM      9  H1  UNL     1       6.145  20.205  18.150  1.00  0.00     0.186 HD
HETATM   10  C6  UNL     1       7.589  17.301  17.929  1.00  0.00     0.082 A 
HETATM   11  C5  UNL     1       8.031  17.146  19.222  1.00  0.00     0.031 A 
HETATM   12  N4  UNL     1       7.749  18.155  20.082  1.00  0.00    -0.195 N 
ATOM     13  H4  UNL     1       8.059  18.079  21.050  1.00  0.00     0.184 HD
BRANCH   8  14
HETATM   14  O1  UNL     1       6.448  18.561  16.184  1.00  0.00    -0.329 OA
BRANCH  14  15
HETATM   15  C8  UNL     1       6.840  17.655  15.209  1.00  0.00     0.138 C 
HETATM   16  C9  UNL     1       6.263  18.095  13.860  1.00  0.00     0.016 C 
HETATM   17  C10 UNL     1       6.413  16.912  12.936  1.00  0.00     0.012 C 
HETATM   18  C14 UNL     1       6.999  19.307  13.385  1.00  0.00     0.012 C 
HETATM   19  C11 UNL     1       7.886  16.604  12.821  1.00  0.00    -0.013 C 
HETATM   20  C12 UNL     1       8.554  17.796  12.192  1.00  0.00     0.009 C 
HETATM   21  C17 UNL     1       8.513  16.257  14.138  1.00  0.00     0.012 C 
HETATM   22  C13 UNL     1       8.465  18.962  13.122  1.00  0.00    -0.013 C 
HETATM   23  C15 UNL     1       9.049  18.605  14.490  1.00  0.00     0.012 C 
HETATM   24  C16 UNL     1       8.308  17.442  15.090  1.00  0.00     0.016 C 
ENDBRANCH  14  15
ENDBRANCH   8  14
BRANCH  11  25
HETATM   25  C4  UNL     1       8.781  15.952  19.695  1.00  0.00     0.061 C 
BRANCH  25  26
HETATM   26  C2  UNL     1       9.539  15.284  18.565  1.00  0.00    -0.017 C 
HETATM   27  C1  UNL     1       8.488  14.756  17.594  1.00  0.00     0.010 C 
HETATM   28  C3  UNL     1      10.349  16.329  17.848  1.00  0.00     0.010 C 
ENDBRANCH  25  26
ENDBRANCH  11  25
ENDBRANCH   4   6
ENDBRANCH   1   4
TORSDOF 6
ENDMDL
MODEL 3
REMARK VINA RESULT: -6.862489176      2.216      6.514
REMARK  6 active torsions:
REMARK  status: ('A' for Active; 'I' for Inactive)
REMARK    1  A    between atoms: C2_2  and  C4_4 
REMARK    2  A    between atoms: C4_4  and  C5_5 
REMARK    3  A    between atoms: C7_7  and  O1_8 
REMARK    4  A    between atoms: O1_8  and  C8_9 
REMARK    5  A    between atoms: C18_21  and  N2_22 
REMARK    6  A    between atoms: N2_22  and  C19_24 
ROOT
HETATM    1  C19 UNL     1       9.865  15.076  18.216  1.00  0.00     0.262 C 
HETATM    2  C20 UNL     1      10.548  16.199  17.600  1.00  0.00     0.079 C 
HETATM    3  N3  UNL     1      11.092  17.096  17.112  1.00  0.00    -0.196 NA
ENDROOT
BRANCH   1   4
HETATM    4  N2  UNL     1       8.737  15.512  18.987  1.00  0.00    -0.214 N 
ATOM      5  H2  UNL     1       8.412  14.917  19.750  1.00  0.00     0.178 HD
BRANCH   4   6
HETATM    6  C18 UNL     1       8.113  16.620  18.763  1.00  0.00     0.681 A 
HETATM    7  N1  UNL     1       7.591  16.884  17.553  1.00  0.00    -0.171 N 
HETATM    8  C7  UNL     1       6.929  18.038  17.283  1.00  0.00     0.159 A 
ATOM      9  H1  UNL     1       7.696  16.193  16.811  1.00  0.00     0.186 HD
HETATM   10  C6  UNL     1       6.821  18.934  18.324  1.00  0.00     0.082 A 
HETATM   11  C5  UNL     1       7.341  18.701  19.576  1.00  0.00     0.031 A 
HETATM   12  N4  UNL     1       7.985  17.521  19.753  1.00  0.00    -0.195 N 
ATOM     13  H4  UNL     1       8.385  17.311  20.667  1.00  0.00     0.184 HD
BRANCH   8  14
HETATM   14  O1  UNL     1       6.401  18.279  16.015  1.00  0.00    -0.329 OA
BRANCH  14  15
HETATM   15  C8  UNL     1       6.777  17.481  14.944  1.00  0.00     0.138 C 
HETATM   16  C9  UNL     1       6.240  18.099  13.651  1.00  0.00     0.016 C 
HETATM   17  C10 UNL     1       6.364  17.030  12.594  1.00  0.00     0.012 C 
HETATM   18  C14 UNL     1       7.026  19.331  13.333  1.00  0.00     0.012 C 
HETATM   19  C11 UNL     1       7.827  16.683  12.462  1.00  0.00    -0.013 C 
HETATM   20  C12 UNL     1       8.548  17.916  11.989  1.00  0.00     0.009 C 
HETATM   21  C17 UNL     1       8.418  16.159  13.735  1.00  0.00     0.012 C 
HETATM   22  C13 UNL     1       8.484  18.966  13.050  1.00  0.00    -0.013 C 
HETATM   23  C15 UNL     1       9.031  18.427  14.373  1.00  0.00     0.012 C 
HETATM   24  C16 UNL     1       8.239  17.229  14.820  1.00  0.00     0.016 C 
ENDBRANCH  14  15
ENDBRANCH   8  14
BRANCH  11  25
HETATM   25  C4  UNL     1       7.227  19.665  20.703  1.00  0.00     0.061 C 
BRANCH  25  26
HETATM   26  C2  UNL     1       8.382  19.529  21.675  1.00  0.00    -0.017 C 
HETATM   27  C1  UNL     1       9.655  19.766  20.869  1.00  0.00     0.010 C 
HETATM   28  C3  UNL     1       8.274  20.622  22.703  1.00  0.00     0.010 C 
ENDBRANCH  25  26
ENDBRANCH  11  25
ENDBRANCH   4   6
ENDBRANCH   1   4
TORSDOF 6
ENDMDL
MODEL 4
REMARK VINA RESULT: -6.841995262      2.418      7.068
REMARK  6 active torsions:
REMARK  status: ('A' for Active; 'I' for Inactive)
REMARK    1  A    between atoms: C2_2  and  C4_4 
REMARK    2  A    between atoms: C4_4  and  C5_5 
REMARK    3  A    between atoms: C7_7  and  O1_8 
REMARK    4  A    between atoms: O1_8  and  C8_9 
REMARK    5  A    between atoms: C18_21  and  N2_22 
REMARK    6  A    between atoms: N2_22  and  C19_24 
ROOT
HETATM    1  C19 UNL     1       8.593  15.228  19.630  1.00  0.00     0.262 C 
HETATM    2  C20 UNL     1       8.600  15.882  20.925  1.00  0.00     0.079 C 
HETATM    3  N3  UNL     1       8.605  16.406  21.956  1.00  0.00    -0.196 NA
ENDROOT
BRANCH   1   4
HETATM    4  N2  UNL     1       9.558  15.814  18.745  1.00  0.00    -0.214 N 
ATOM      5  H2  UNL     1      10.265  15.208  18.329  1.00  0.00     0.178 HD
BRANCH   4   6
HETATM    6  C18 UNL     1       9.574  17.071  18.449  1.00  0.00     0.681 A 
HETATM    7  N1  UNL     1       9.190  17.497  17.233  1.00  0.00    -0.171 N 
HETATM    8  C7  UNL     1       9.194  18.810  16.887  1.00  0.00     0.159 A 
ATOM      9  H1  UNL     1       8.886  16.809  16.544  1.00  0.00     0.186 HD
HETATM   10  C6  UNL     1       9.618  19.691  17.858  1.00  0.00     0.082 A 
HETATM   11  C5  UNL     1      10.018  19.295  19.114  1.00  0.00     0.031 A 
HETATM   12  N4  UNL     1       9.980  17.964  19.368  1.00  0.00    -0.195 N 
ATOM     13  H4  UNL     1      10.269  17.630  20.287  1.00  0.00     0.184 HD
BRANCH   8  14
HETATM   14  O1  UNL     1       8.790  19.216  15.617  1.00  0.00    -0.329 OA
BRANCH  14  15
HETATM   15  C8  UNL     1       8.820  18.317  14.560  1.00  0.00     0.138 C 
HETATM   16  C9  UNL     1       7.870  17.156  14.867  1.00  0.00     0.016 C 
HETATM   17  C10 UNL     1       8.210  16.067  13.881  1.00  0.00     0.012 C 
HETATM   18  C14 UNL     1       6.457  17.635  14.748  1.00  0.00     0.012 C 
HETATM   19  C11 UNL     1       7.969  16.611  12.494  1.00  0.00    -0.013 C 
HETATM   20  C12 UNL     1       6.503  16.929  12.377  1.00  0.00     0.009 C 
HETATM   21  C17 UNL     1       8.815  17.809  12.184  1.00  0.00     0.012 C 
HETATM   22  C13 UNL     1       6.162  18.048  13.307  1.00  0.00    -0.013 C 
HETATM   23  C15 UNL     1       7.058  19.260  13.040  1.00  0.00     0.012 C 
HETATM   24  C16 UNL     1       8.505  18.893  13.224  1.00  0.00     0.016 C 
ENDBRANCH  14  15
ENDBRANCH   8  14
BRANCH  11  25
HETATM   25  C4  UNL     1      10.476  20.243  20.164  1.00  0.00     0.061 C 
BRANCH  25  26
HETATM   26  C2  UNL     1       9.906  19.889  21.524  1.00  0.00    -0.017 C 
HETATM   27  C1  UNL     1      10.329  21.007  22.472  1.00  0.00     0.010 C 
HETATM   28  C3  UNL     1       8.405  19.903  21.432  1.00  0.00     0.010 C 
ENDBRANCH  25  26
ENDBRANCH  11  25
ENDBRANCH   4   6
ENDBRANCH   1   4
TORSDOF 6
ENDMDL
MODEL 5
REMARK VINA RESULT: -6.549386273      1.428      2.317
REMARK  6 active torsions:
REMARK  status: ('A' for Active; 'I' for Inactive)
REMARK    1  A    between atoms: C2_2  and  C4_4 
REMARK    2  A    between atoms: C4_4  and  C5_5 
REMARK    3  A    between atoms: C7_7  and  O1_8 
REMARK    4  A    between atoms: O1_8  and  C8_9 
REMARK    5  A    between atoms: C18_21  and  N2_22 
REMARK    6  A    between atoms: N2_22  and  C19_24 
ROOT
HETATM    1  C19 UNL     1       7.530  19.532  13.038  1.00  0.00     0.262 C 
HETATM    2  C20 UNL     1       8.015  18.632  12.009  1.00  0.00     0.079 C 
HETATM    3  N3  UNL     1       8.402  17.911  11.190  1.00  0.00    -0.196 NA
ENDROOT
BRANCH   1   4
HETATM    4  N2  UNL     1       8.435  19.588  14.150  1.00  0.00    -0.214 N 
ATOM      5  H2  UNL     1       8.838  20.491  14.402  1.00  0.00     0.178 HD
BRANCH   4   6
HETATM    6  C18 UNL     1       8.765  18.552  14.846  1.00  0.00     0.681 A 
HETATM    7  N1  UNL     1       9.540  18.673  15.938  1.00  0.00    -0.171 N 
HETATM    8  C7  UNL     1       9.905  17.606  16.693  1.00  0.00     0.159 A 
ATOM      9  H1  UNL     1       9.865  19.601  16.209  1.00  0.00     0.186 HD
HETATM   10  C6  UNL     1       9.436  16.379  16.276  1.00  0.00     0.082 A 
HETATM   11  C5  UNL     1       8.642  16.213  15.165  1.00  0.00     0.031 A 
HETATM   12  N4  UNL     1       8.328  17.335  14.474  1.00  0.00    -0.195 N 
ATOM     13  H4  UNL     1       7.742  17.255  13.644  1.00  0.00     0.184 HD
BRANCH   8  14
HETATM   14  O1  UNL     1      10.710  17.769  17.820  1.00  0.00    -0.329 OA
BRANCH  14  15
HETATM   15  C8  UNL     1      10.160  17.647  19.087  1.00  0.00     0.138 C 
HETATM   16  C9  UNL     1       9.933  19.046  19.668  1.00  0.00     0.016 C 
HETATM   17  C10 UNL     1       9.682  18.850  21.143  1.00  0.00     0.012 C 
HETATM   18  C14 UNL     1       8.784  19.690  18.959  1.00  0.00     0.012 C 
HETATM   19  C11 UNL     1       8.447  17.996  21.290  1.00  0.00    -0.013 C 
HETATM   20  C12 UNL     1       7.292  18.758  20.700  1.00  0.00     0.009 C 
HETATM   21  C17 UNL     1       8.594  16.647  20.653  1.00  0.00     0.012 C 
HETATM   22  C13 UNL     1       7.497  18.909  19.228  1.00  0.00    -0.013 C 
HETATM   23  C15 UNL     1       7.706  17.543  18.571  1.00  0.00     0.012 C 
HETATM   24  C16 UNL     1       8.903  16.854  19.164  1.00  0.00     0.016 C 
ENDBRANCH  14  15
ENDBRANCH   8  14
BRANCH  11  25
HETATM   25  C4  UNL     1       8.134  14.891  14.711  1.00  0.00     0.061 C 
BRANCH  25  26
HETATM   26  C2  UNL     1       6.846  14.513  15.416  1.00  0.00    -0.017 C 
HETATM   27  C1  UNL     1       7.252  13.844  16.725  1.00  0.00     0.010 C 
HETATM   28  C3  UNL     1       6.098  15.774  15.753  1.00  0.00     0.010 C 
ENDBRANCH  25  26
ENDBRANCH  11  25
ENDBRANCH   4   6
ENDBRANCH   1   4
TORSDOF 6
ENDMDL
