MODEL 1
REMARK VINA RESULT: -6.016758369      0.000      0.000
REMARK  9 active torsions:
REMARK  status: ('A' for Active; 'I' for Inactive)
REMARK    1  A    between atoms: C2_2  and  N1_4 
REMARK       I    between atoms: N1_4  and  C4_6 
REMARK    2  A    between atoms: C4_6  and  C5_8 
REMARK    3  A    between atoms: N2_11  and  C8_12 
REMARK    4  A    between atoms: C8_12  and  C9_13 
REMARK    5  A    between atoms: C11_17  and  S1_18 
REMARK    6  A    between atoms: S1_18  and  C12_19 
REMARK    7  A    between atoms: C12_19  and  C13_20 
REMARK    8  A    between atoms: N4_24  and  C15_25 
REMARK    9  A    between atoms: C15_25  and  C16_26 
ROOT
HETATM    1  C9  UNL     1      -7.190  19.214 -17.761  1.00  0.00     0.046 A 
HETATM    2  C10 UNL     1      -5.869  19.226 -18.217  1.00  0.00     0.117 A 
HETATM    3  N3  UNL     1      -5.944  19.282 -19.534  1.00  0.00    -0.345 N 
ATOM      4  H3  UNL     1      -5.133  19.303 -20.152  1.00  0.00     0.167 HD
HETATM    5  C11 UNL     1      -7.202  19.306 -19.957  1.00  0.00     0.146 A 
HETATM    6  N4  UNL     1      -8.000  19.264 -18.849  1.00  0.00    -0.328 N 
ENDROOT
BRANCH   1   7
HETATM    7  C8  UNL     1      -7.581  19.168 -16.352  1.00  0.00     0.175 C 
BRANCH   7   8
HETATM    8  N2  UNL     1      -7.483  17.907 -15.698  1.00  0.00    -0.406 N 
HETATM    9  C7  UNL     1      -8.486  17.603 -14.743  1.00  0.00     0.118 C 
HETATM   10  C6  UNL     1      -9.446  16.591 -15.394  1.00  0.00     0.034 C 
HETATM   11  C5  UNL     1      -8.657  15.283 -15.325  1.00  0.00     0.088 C 
HETATM   12  C20 UNL     1      -7.408  15.461 -16.146  1.00  0.00    -0.020 C 
HETATM   13  C19 UNL     1      -7.097  16.848 -16.561  1.00  0.00     0.126 C 
HETATM   14  C21 UNL     1      -6.226  14.816 -15.418  1.00  0.00     0.017 C 
HETATM   15  C22 UNL     1      -7.611  14.636 -17.427  1.00  0.00     0.017 C 
BRANCH  11  16
HETATM   16  C4  UNL     1      -9.484  14.134 -15.702  1.00  0.00     0.223 C 
HETATM   17  N1  UNL     1     -10.776  14.268 -16.274  1.00  0.00    -0.357 N 
ATOM     18  H1  UNL     1     -11.151  15.202 -16.433  1.00  0.00     0.162 HD
HETATM   19  O1  UNL     1      -9.045  12.972 -15.517  1.00  0.00    -0.273 OA
BRANCH  17  20
HETATM   20  C2  UNL     1     -11.578  13.116 -16.637  1.00  0.00     0.076 C 
HETATM   21  C1  UNL     1     -12.337  13.355 -17.918  1.00  0.00     0.032 C 
HETATM   22  C3  UNL     1     -12.554  12.873 -15.496  1.00  0.00     0.032 C 
ENDBRANCH  17  20
ENDBRANCH  11  16
ENDBRANCH   7   8
ENDBRANCH   1   7
BRANCH   6  23
HETATM   23  C15 UNL     1      -9.450  19.272 -18.899  1.00  0.00     0.135 C 
BRANCH  23  24
HETATM   24  C16 UNL     1     -10.030  18.014 -19.446  1.00  0.00     0.004 A 
HETATM   25  C17 UNL     1     -10.333  16.902 -18.419  1.00  0.00     0.007 A 
HETATM   26  C18 UNL     1      -9.170  16.776 -19.332  1.00  0.00     0.007 A 
ENDBRANCH  23  24
ENDBRANCH   6  23
BRANCH   5  27
HETATM   27  S1  UNL     1      -7.832  19.376 -21.607  1.00  0.00    -0.088 SA
BRANCH  27  28
HETATM   28  C12 UNL     1      -8.538  20.942 -22.074  1.00  0.00     0.160 C 
BRANCH  28  29
HETATM   29  C13 UNL     1     -10.007  21.082 -21.887  1.00  0.00     0.248 C 
HETATM   30  C14 UNL     1     -10.508  22.142 -22.879  1.00  0.00     0.091 C 
HETATM   31  F1  UNL     1     -10.750  19.961 -22.161  1.00  0.00    -0.206 F 
HETATM   32  F2  UNL     1     -10.319  21.596 -20.623  1.00  0.00    -0.206 F 
ENDBRANCH  28  29
ENDBRANCH  27  28
ENDBRANCH   5  27
TORSDOF 9
ENDMDL
MODEL 2
REMARK VINA RESULT: -5.876285637      1.412      1.931
REMARK  9 active torsions:
REMARK  status: ('A' for Active; 'I' for Inactive)
REMARK    1  A    between atoms: C2_2  and  N1_4 
REMARK       I    between atoms: N1_4  and  C4_6 
REMARK    2  A    between atoms: C4_6  and  C5_8 
REMARK    3  A    between atoms: N2_11  and  C8_12 
REMARK    4  A    between atoms: C8_12  and  C9_13 
REMARK    5  A    between atoms: C11_17  and  S1_18 
REMARK    6  A    between atoms: S1_18  and  C12_19 
REMARK    7  A    between atoms: C12_19  and  C13_20 
REMARK    8  A    between atoms: N4_24  and  C15_25 
REMARK    9  A    between atoms: C15_25  and  C16_26 
ROOT
HETATM    1  C9  UNL     1      -6.023  18.765 -18.205  1.00  0.00     0.046 A 
HETATM    2  C10 UNL     1      -5.882  20.155 -18.214  1.00  0.00     0.117 A 
HETATM    3  N3  UNL     1      -6.373  20.559 -19.371  1.00  0.00    -0.345 N 
ATOM      4  H3  UNL     1      -6.407  21.535 -19.668  1.00  0.00     0.167 HD
HETATM    5  C11 UNL     1      -6.817  19.544 -20.102  1.00  0.00     0.146 A 
HETATM    6  N4  UNL     1      -6.603  18.405 -19.379  1.00  0.00    -0.328 N 
ENDROOT
BRANCH   1   7
HETATM    7  C8  UNL     1      -5.618  17.896 -17.101  1.00  0.00     0.175 C 
BRANCH   7   8
HETATM    8  N2  UNL     1      -6.644  17.458 -16.217  1.00  0.00    -0.406 N 
HETATM    9  C7  UNL     1      -7.845  18.211 -16.209  1.00  0.00     0.118 C 
HETATM   10  C6  UNL     1      -8.900  17.398 -16.981  1.00  0.00     0.034 C 
HETATM   11  C5  UNL     1      -9.297  16.317 -15.975  1.00  0.00     0.088 C 
HETATM   12  C20 UNL     1      -8.073  15.492 -15.686  1.00  0.00    -0.020 C 
HETATM   13  C19 UNL     1      -6.789  16.046 -16.170  1.00  0.00     0.126 C 
HETATM   14  C21 UNL     1      -8.017  15.174 -14.189  1.00  0.00     0.017 C 
HETATM   15  C22 UNL     1      -8.284  14.143 -16.392  1.00  0.00     0.017 C 
BRANCH  11  16
HETATM   16  C4  UNL     1     -10.460  15.554 -16.435  1.00  0.00     0.223 C 
HETATM   17  N1  UNL     1     -10.700  14.208 -16.055  1.00  0.00    -0.357 N 
ATOM     18  H1  UNL     1     -10.038  13.745 -15.434  1.00  0.00     0.162 HD
HETATM   19  O1  UNL     1     -11.293  16.102 -17.200  1.00  0.00    -0.273 OA
BRANCH  17  20
HETATM   20  C2  UNL     1     -11.857  13.471 -16.525  1.00  0.00     0.076 C 
HETATM   21  C1  UNL     1     -12.785  13.120 -15.389  1.00  0.00     0.032 C 
HETATM   22  C3  UNL     1     -11.340  12.200 -17.183  1.00  0.00     0.032 C 
ENDBRANCH  17  20
ENDBRANCH  11  16
ENDBRANCH   7   8
ENDBRANCH   1   7
BRANCH   6  23
HETATM   23  C15 UNL     1      -6.956  17.077 -19.845  1.00  0.00     0.135 C 
BRANCH  23  24
HETATM   24  C16 UNL     1      -8.425  16.838 -19.893  1.00  0.00     0.004 A 
HETATM   25  C17 UNL     1      -8.879  15.365 -19.808  1.00  0.00     0.007 A 
HETATM   26  C18 UNL     1      -8.943  16.090 -21.100  1.00  0.00     0.007 A 
ENDBRANCH  23  24
ENDBRANCH   6  23
BRANCH   5  27
HETATM   27  S1  UNL     1      -7.554  19.553 -21.709  1.00  0.00    -0.088 SA
BRANCH  27  28
HETATM   28  C12 UNL     1      -8.540  20.991 -22.072  1.00  0.00     0.160 C 
BRANCH  28  29
HETATM   29  C13 UNL     1      -9.978  20.911 -21.699  1.00  0.00     0.248 C 
HETATM   30  C14 UNL     1     -10.216  19.544 -21.041  1.00  0.00     0.091 C 
HETATM   31  F1  UNL     1     -10.404  21.829 -20.772  1.00  0.00    -0.206 F 
HETATM   32  F2  UNL     1     -10.805  20.915 -22.829  1.00  0.00    -0.206 F 
ENDBRANCH  28  29
ENDBRANCH  27  28
ENDBRANCH   5  27
TORSDOF 9
ENDMDL
MODEL 3
REMARK VINA RESULT: -5.402860520      3.568      6.722
REMARK  9 active torsions:
REMARK  status: ('A' for Active; 'I' for Inactive)
REMARK    1  A    between atoms: C2_2  and  N1_4 
REMARK       I    between atoms: N1_4  and  C4_6 
REMARK    2  A    between atoms: C4_6  and  C5_8 
REMARK    3  A    between atoms: N2_11  and  C8_12 
REMARK    4  A    between atoms: C8_12  and  C9_13 
REMARK    5  A    between atoms: C11_17  and  S1_18 
REMARK    6  A    between atoms: S1_18  and  C12_19 
REMARK    7  A    between atoms: C12_19  and  C13_20 
REMARK    8  A    between atoms: N4_24  and  C15_25 
REMARK    9  A    between atoms: C15_25  and  C16_26 
ROOT
HETATM    1  C9  UNL     1      -7.883  14.919 -15.709  1.00  0.00     0.046 A 
HETATM    2  C10 UNL     1      -8.657  14.593 -14.592  1.00  0.00     0.117 A 
HETATM    3  N3  UNL     1      -8.251  15.398 -13.626  1.00  0.00    -0.345 N 
ATOM      4  H3  UNL     1      -8.636  15.395 -12.682  1.00  0.00     0.167 HD
HETATM    5  C11 UNL     1      -7.283  16.210 -14.033  1.00  0.00     0.146 A 
HETATM    6  N4  UNL     1      -7.040  15.919 -15.346  1.00  0.00    -0.328 N 
ENDROOT
BRANCH   1   7
HETATM    7  C8  UNL     1      -8.004  14.278 -17.018  1.00  0.00     0.175 C 
BRANCH   7   8
HETATM    8  N2  UNL     1      -8.861  14.907 -17.965  1.00  0.00    -0.406 N 
HETATM    9  C7  UNL     1      -9.859  15.772 -17.449  1.00  0.00     0.118 C 
HETATM   10  C6  UNL     1      -9.393  17.216 -17.710  1.00  0.00     0.034 C 
HETATM   11  C5  UNL     1      -9.677  17.398 -19.201  1.00  0.00     0.088 C 
HETATM   12  C20 UNL     1      -8.831  16.405 -19.951  1.00  0.00    -0.020 C 
HETATM   13  C19 UNL     1      -8.187  15.354 -19.132  1.00  0.00     0.126 C 
HETATM   14  C21 UNL     1      -9.650  15.801 -21.094  1.00  0.00     0.017 C 
HETATM   15  C22 UNL     1      -7.708  17.213 -20.623  1.00  0.00     0.017 C 
BRANCH  11  16
HETATM   16  C4  UNL     1      -9.504  18.793 -19.616  1.00  0.00     0.223 C 
HETATM   17  N1  UNL     1      -9.626  19.218 -20.964  1.00  0.00    -0.357 N 
ATOM     18  H1  UNL     1      -9.845  18.528 -21.682  1.00  0.00     0.162 HD
HETATM   19  O1  UNL     1      -9.235  19.664 -18.751  1.00  0.00    -0.273 OA
BRANCH  17  20
HETATM   20  C2  UNL     1      -9.448  20.604 -21.352  1.00  0.00     0.076 C 
HETATM   21  C1  UNL     1     -10.482  21.030 -22.364  1.00  0.00     0.032 C 
HETATM   22  C3  UNL     1      -8.056  20.724 -21.953  1.00  0.00     0.032 C 
ENDBRANCH  17  20
ENDBRANCH  11  16
ENDBRANCH   7   8
ENDBRANCH   1   7
BRANCH   6  23
HETATM   23  C15 UNL     1      -6.041  16.599 -16.149  1.00  0.00     0.135 C 
BRANCH  23  24
HETATM   24  C16 UNL     1      -6.618  17.602 -17.086  1.00  0.00     0.004 A 
HETATM   25  C17 UNL     1      -5.614  18.335 -18.002  1.00  0.00     0.007 A 
HETATM   26  C18 UNL     1      -6.223  19.042 -16.850  1.00  0.00     0.007 A 
ENDBRANCH  23  24
ENDBRANCH   6  23
BRANCH   5  27
HETATM   27  S1  UNL     1      -6.410  17.456 -13.133  1.00  0.00    -0.088 SA
BRANCH  27  28
HETATM   28  C12 UNL     1      -7.070  19.101 -13.300  1.00  0.00     0.160 C 
BRANCH  28  29
HETATM   29  C13 UNL     1      -8.553  19.219 -13.279  1.00  0.00     0.248 C 
HETATM   30  C14 UNL     1      -9.078  18.765 -14.649  1.00  0.00     0.091 C 
HETATM   31  F1  UNL     1      -9.199  18.420 -12.370  1.00  0.00    -0.206 F 
HETATM   32  F2  UNL     1      -8.963  20.552 -13.161  1.00  0.00    -0.206 F 
ENDBRANCH  28  29
ENDBRANCH  27  28
ENDBRANCH   5  27
TORSDOF 9
ENDMDL
MODEL 4
REMARK VINA RESULT: -4.927242421      1.553      2.656
REMARK  9 active torsions:
REMARK  status: ('A' for Active; 'I' for Inactive)
REMARK    1  A    between atoms: C2_2  and  N1_4 
REMARK       I    between atoms: N1_4  and  C4_6 
REMARK    2  A    between atoms: C4_6  and  C5_8 
REMARK    3  A    between atoms: N2_11  and  C8_12 
REMARK    4  A    between atoms: C8_12  and  C9_13 
REMARK    5  A    between atoms: C11_17  and  S1_18 
REMARK    6  A    between atoms: S1_18  and  C12_19 
REMARK    7  A    between atoms: C12_19  and  C13_20 
REMARK    8  A    between atoms: N4_24  and  C15_25 
REMARK    9  A    between atoms: C15_25  and  C16_26 
ROOT
HETATM    1  C9  UNL     1      -6.952  19.087 -17.397  1.00  0.00     0.046 A 
HETATM    2  C10 UNL     1      -5.626  18.953 -17.817  1.00  0.00     0.117 A 
HETATM    3  N3  UNL     1      -5.682  18.706 -19.113  1.00  0.00    -0.345 N 
ATOM      4  H3  UNL     1      -4.863  18.559 -19.703  1.00  0.00     0.167 HD
HETATM    5  C11 UNL     1      -6.933  18.672 -19.556  1.00  0.00     0.146 A 
HETATM    6  N4  UNL     1      -7.746  18.911 -18.484  1.00  0.00    -0.328 N 
ENDROOT
BRANCH   1   7
HETATM    7  C8  UNL     1      -7.362  19.379 -16.024  1.00  0.00     0.175 C 
BRANCH   7   8
HETATM    8  N2  UNL     1      -7.848  18.286 -15.251  1.00  0.00    -0.406 N 
HETATM    9  C7  UNL     1      -9.255  18.146 -15.156  1.00  0.00     0.118 C 
HETATM   10  C6  UNL     1      -9.663  16.982 -16.078  1.00  0.00     0.034 C 
HETATM   11  C5  UNL     1      -9.252  15.751 -15.270  1.00  0.00     0.088 C 
HETATM   12  C20 UNL     1      -7.759  15.805 -15.083  1.00  0.00    -0.020 C 
HETATM   13  C19 UNL     1      -7.109  17.087 -15.435  1.00  0.00     0.126 C 
HETATM   14  C21 UNL     1      -7.411  15.374 -13.657  1.00  0.00     0.017 C 
HETATM   15  C22 UNL     1      -7.168  14.725 -16.003  1.00  0.00     0.017 C 
BRANCH  11  16
HETATM   16  C4  UNL     1      -9.752  14.516 -15.880  1.00  0.00     0.223 C 
HETATM   17  N1  UNL     1     -11.097  14.352 -16.301  1.00  0.00    -0.357 N 
ATOM     18  H1  UNL     1     -11.751  15.125 -16.177  1.00  0.00     0.162 HD
HETATM   19  O1  UNL     1      -8.967  13.548 -16.045  1.00  0.00    -0.273 OA
BRANCH  17  20
HETATM   20  C2  UNL     1     -11.571  13.120 -16.900  1.00  0.00     0.076 C 
HETATM   21  C1  UNL     1     -12.363  13.386 -18.155  1.00  0.00     0.032 C 
HETATM   22  C3  UNL     1     -12.453  12.432 -15.868  1.00  0.00     0.032 C 
ENDBRANCH  17  20
ENDBRANCH  11  16
ENDBRANCH   7   8
ENDBRANCH   1   7
BRANCH   6  23
HETATM   23  C15 UNL     1      -9.194  18.953 -18.565  1.00  0.00     0.135 C 
BRANCH  23  24
HETATM   24  C16 UNL     1      -9.725  20.284 -18.969  1.00  0.00     0.004 A 
HETATM   25  C17 UNL     1     -11.182  20.310 -19.478  1.00  0.00     0.007 A 
HETATM   26  C18 UNL     1     -10.057  20.455 -20.434  1.00  0.00     0.007 A 
ENDBRANCH  23  24
ENDBRANCH   6  23
BRANCH   5  27
HETATM   27  S1  UNL     1      -7.539  18.379 -21.190  1.00  0.00    -0.088 SA
BRANCH  27  28
HETATM   28  C12 UNL     1      -7.895  16.675 -21.564  1.00  0.00     0.160 C 
BRANCH  28  29
HETATM   29  C13 UNL     1      -9.118  16.107 -20.935  1.00  0.00     0.248 C 
HETATM   30  C14 UNL     1      -8.718  15.532 -19.568  1.00  0.00     0.091 C 
HETATM   31  F1  UNL     1     -10.117  17.007 -20.662  1.00  0.00    -0.206 F 
HETATM   32  F2  UNL     1      -9.608  15.012 -21.657  1.00  0.00    -0.206 F 
ENDBRANCH  28  29
ENDBRANCH  27  28
ENDBRANCH   5  27
TORSDOF 9
ENDMDL
MODEL 5
REMARK VINA RESULT: -4.840315973      1.449      1.920
REMARK  9 active torsions:
REMARK  status: ('A' for Active; 'I' for Inactive)
REMARK    1  A    between atoms: C2_2  and  N1_4 
REMARK       I    between atoms: N1_4  and  C4_6 
REMARK    2  A    between atoms: C4_6  and  C5_8 
REMARK    3  A    between atoms: N2_11  and  C8_12 
REMARK    4  A    between atoms: C8_12  and  C9_13 
REMARK    5  A    between atoms: C11_17  and  S1_18 
REMARK    6  A    between atoms: S1_18  and  C12_19 
REMARK    7  A    between atoms: C12_19  and  C13_20 
REMARK    8  A    between atoms: N4_24  and  C15_25 
REMARK    9  A    between atoms: C15_25  and  C16_26 
ROOT
HETATM    1  C9  UNL     1      -7.276  18.718 -16.281  1.00  0.00     0.046 A 
HETATM    2  C10 UNL     1      -6.368  19.290 -17.176  1.00  0.00     0.117 A 
HETATM    3  N3  UNL     1      -7.091  19.719 -18.195  1.00  0.00    -0.345 N 
ATOM      4  H3  UNL     1      -6.702  20.186 -19.014  1.00  0.00     0.167 HD
HETATM    5  C11 UNL     1      -8.383  19.469 -18.025  1.00  0.00     0.146 A 
HETATM    6  N4  UNL     1      -8.516  18.838 -16.821  1.00  0.00    -0.328 N 
ENDROOT
BRANCH   1   7
HETATM    7  C8  UNL     1      -6.911  18.121 -14.996  1.00  0.00     0.175 C 
BRANCH   7   8
HETATM    8  N2  UNL     1      -6.784  16.703 -14.959  1.00  0.00    -0.406 N 
HETATM    9  C7  UNL     1      -7.450  16.030 -13.903  1.00  0.00     0.118 C 
HETATM   10  C6  UNL     1      -8.705  15.368 -14.502  1.00  0.00     0.034 C 
HETATM   11  C5  UNL     1      -8.131  14.151 -15.228  1.00  0.00     0.088 C 
HETATM   12  C20 UNL     1      -7.210  14.656 -16.306  1.00  0.00    -0.020 C 
HETATM   13  C19 UNL     1      -6.859  16.092 -16.238  1.00  0.00     0.126 C 
HETATM   14  C21 UNL     1      -5.959  13.775 -16.358  1.00  0.00     0.017 C 
HETATM   15  C22 UNL     1      -7.939  14.426 -17.640  1.00  0.00     0.017 C 
BRANCH  11  16
HETATM   16  C4  UNL     1      -9.191  13.253 -15.693  1.00  0.00     0.223 C 
HETATM   17  N1  UNL     1     -10.532  13.676 -15.885  1.00  0.00    -0.357 N 
ATOM     18  H1  UNL     1     -10.776  14.647 -15.693  1.00  0.00     0.162 HD
HETATM   19  O1  UNL     1      -8.918  12.051 -15.938  1.00  0.00    -0.273 OA
BRANCH  17  20
HETATM   20  C2  UNL     1     -11.566  12.769 -16.344  1.00  0.00     0.076 C 
HETATM   21  C1  UNL     1     -12.015  13.107 -17.743  1.00  0.00     0.032 C 
HETATM   22  C3  UNL     1     -12.736  12.900 -15.380  1.00  0.00     0.032 C 
ENDBRANCH  17  20
ENDBRANCH  11  16
ENDBRANCH   7   8
ENDBRANCH   1   7
BRANCH   6  23
HETATM   23  C15 UNL     1      -9.787  18.398 -16.278  1.00  0.00     0.135 C 
BRANCH  23  24
HETATM   24  C16 UNL     1     -10.077  16.961 -16.539  1.00  0.00     0.004 A 
HETATM   25  C17 UNL     1     -10.398  16.586 -18.001  1.00  0.00     0.007 A 
HETATM   26  C18 UNL     1     -11.482  16.633 -16.990  1.00  0.00     0.007 A 
ENDBRANCH  23  24
ENDBRANCH   6  23
BRANCH   5  27
HETATM   27  S1  UNL     1      -9.747  19.836 -19.087  1.00  0.00    -0.088 SA
BRANCH  27  28
HETATM   28  C12 UNL     1      -9.657  19.097 -20.705  1.00  0.00     0.160 C 
BRANCH  28  29
HETATM   29  C13 UNL     1      -8.987  19.906 -21.759  1.00  0.00     0.248 C 
HETATM   30  C14 UNL     1      -9.892  21.105 -22.076  1.00  0.00     0.091 C 
HETATM   31  F1  UNL     1      -7.780  20.456 -21.408  1.00  0.00    -0.206 F 
HETATM   32  F2  UNL     1      -8.889  19.201 -22.965  1.00  0.00    -0.206 F 
ENDBRANCH  28  29
ENDBRANCH  27  28
ENDBRANCH   5  27
TORSDOF 9
ENDMDL
