MODEL 1
REMARK VINA RESULT: -6.285630220      0.000      0.000
REMARK  11 active torsions:
REMARK  status: ('A' for Active; 'I' for Inactive)
REMARK    1  A    between atoms: C2_2  and  C3_3 
REMARK    2  A    between atoms: C3_3  and  N1_4 
REMARK    3  A    between atoms: C3_3  and  C22_34 
REMARK       I    between atoms: N1_4  and  C4_6 
REMARK    4  A    between atoms: C4_6  and  C5_8 
REMARK    5  A    between atoms: C5_8  and  N2_10 
REMARK       I    between atoms: N2_10  and  C7_12 
REMARK    6  A    between atoms: C7_12  and  C8_14 
REMARK       I    between atoms: N3_17  and  C11_18 
REMARK    7  A    between atoms: C11_18  and  C12_20 
REMARK    8  A    between atoms: C12_20  and  N4_21 
REMARK    9  A    between atoms: C12_20  and  C18_30 
REMARK       I    between atoms: N4_21  and  C13_23 
REMARK   10  A    between atoms: C13_23  and  O5_25 
REMARK   11  A    between atoms: O5_25  and  C14_26 
ROOT
HETATM    1  C8  UNL     1      16.831  15.026   3.797  1.00  0.00     0.180 C 
HETATM    2  C9  UNL     1      17.266  15.593   2.458  1.00  0.00     0.055 C 
HETATM    3  C10 UNL     1      15.794  15.797   2.280  1.00  0.00     0.129 C 
HETATM    4  N3  UNL     1      15.652  15.845   3.747  1.00  0.00    -0.337 N 
HETATM    5  C11 UNL     1      14.695  16.482   4.557  1.00  0.00     0.244 C 
HETATM    6  O3  UNL     1      13.755  17.097   3.917  1.00  0.00    -0.271 OA
ENDROOT
BRANCH   1   7
HETATM    7  C7  UNL     1      16.551  13.558   3.770  1.00  0.00     0.241 C 
HETATM    8  N2  UNL     1      16.809  12.753   2.649  1.00  0.00    -0.346 N 
ATOM      9  H2  UNL     1      17.201  13.212   1.827  1.00  0.00     0.163 HD
HETATM   10  O2  UNL     1      16.065  13.028   4.800  1.00  0.00    -0.271 OA
BRANCH   8  11
HETATM   11  C5  UNL     1      16.566  11.332   2.560  1.00  0.00     0.172 C 
HETATM   12  C6  UNL     1      17.910  10.639   2.446  1.00  0.00     0.042 C 
BRANCH  11  13
HETATM   13  C4  UNL     1      15.685  10.977   1.405  1.00  0.00     0.240 C 
HETATM   14  N1  UNL     1      14.893  11.992   0.832  1.00  0.00    -0.354 N 
ATOM     15  H1  UNL     1      14.939  12.936   1.216  1.00  0.00     0.162 HD
HETATM   16  O1  UNL     1      15.637   9.816   0.945  1.00  0.00    -0.271 OA
BRANCH  14  17
HETATM   17  C3  UNL     1      13.997  11.723  -0.312  1.00  0.00     0.087 C 
BRANCH  17  18
HETATM   18  C2  UNL     1      12.706  12.367   0.047  1.00  0.00     0.021 C 
HETATM   19  C1  UNL     1      11.466  11.588  -0.193  1.00  0.00     0.007 C 
ENDBRANCH  17  18
BRANCH  17  20
HETATM   20  C22 UNL     1      14.706  12.247  -1.504  1.00  0.00     0.000 C 
HETATM   21  C23 UNL     1      14.894  11.309  -2.645  1.00  0.00     0.011 C 
HETATM   22  C24 UNL     1      14.098  13.543  -2.022  1.00  0.00     0.011 C 
ENDBRANCH  17  20
ENDBRANCH  14  17
ENDBRANCH  11  13
ENDBRANCH   8  11
ENDBRANCH   1   7
BRANCH   5  23
HETATM   23  C12 UNL     1      14.609  16.543   6.006  1.00  0.00     0.186 C 
BRANCH  23  24
HETATM   24  N4  UNL     1      13.484  17.452   6.345  1.00  0.00    -0.323 N 
HETATM   25  C13 UNL     1      12.442  16.959   7.172  1.00  0.00     0.362 C 
HETATM   26  O4  UNL     1      12.465  15.796   7.609  1.00  0.00    -0.238 OA
ATOM     27  H4  UNL     1      13.461  18.408   5.991  1.00  0.00     0.165 HD
BRANCH  25  28
HETATM   28  O5  UNL     1      11.353  17.746   7.531  1.00  0.00    -0.294 OA
BRANCH  28  29
HETATM   29  C14 UNL     1      10.190  17.884   6.732  1.00  0.00     0.061 C 
HETATM   30  C15 UNL     1       9.348  18.989   7.325  1.00  0.00     0.046 C 
HETATM   31  C16 UNL     1      10.562  18.251   5.299  1.00  0.00     0.046 C 
HETATM   32  C17 UNL     1       9.400  16.589   6.718  1.00  0.00     0.046 C 
ENDBRANCH  28  29
ENDBRANCH  25  28
ENDBRANCH  23  24
BRANCH  23  33
HETATM   33  C18 UNL     1      15.798  17.168   6.706  1.00  0.00    -0.022 C 
HETATM   34  C19 UNL     1      16.583  15.992   7.312  1.00  0.00     0.017 C 
HETATM   35  C20 UNL     1      16.765  17.875   5.810  1.00  0.00     0.017 C 
HETATM   36  C21 UNL     1      15.422  18.058   7.856  1.00  0.00     0.017 C 
ENDBRANCH  23  33
ENDBRANCH   5  23
TORSDOF 11
ENDMDL
MODEL 2
REMARK VINA RESULT: -6.261601850      2.151      3.574
REMARK  11 active torsions:
REMARK  status: ('A' for Active; 'I' for Inactive)
REMARK    1  A    between atoms: C2_2  and  C3_3 
REMARK    2  A    between atoms: C3_3  and  N1_4 
REMARK    3  A    between atoms: C3_3  and  C22_34 
REMARK       I    between atoms: N1_4  and  C4_6 
REMARK    4  A    between atoms: C4_6  and  C5_8 
REMARK    5  A    between atoms: C5_8  and  N2_10 
REMARK       I    between atoms: N2_10  and  C7_12 
REMARK    6  A    between atoms: C7_12  and  C8_14 
REMARK       I    between atoms: N3_17  and  C11_18 
REMARK    7  A    between atoms: C11_18  and  C12_20 
REMARK    8  A    between atoms: C12_20  and  N4_21 
REMARK    9  A    between atoms: C12_20  and  C18_30 
REMARK       I    between atoms: N4_21  and  C13_23 
REMARK   10  A    between atoms: C13_23  and  O5_25 
REMARK   11  A    between atoms: O5_25  and  C14_26 
ROOT
HETATM    1  C8  UNL     1      16.021  13.165   3.181  1.00  0.00     0.180 C 
HETATM    2  C9  UNL     1      16.758  11.992   3.800  1.00  0.00     0.055 C 
HETATM    3  C10 UNL     1      17.922  12.931   3.731  1.00  0.00     0.129 C 
HETATM    4  N3  UNL     1      16.976  14.061   3.771  1.00  0.00    -0.337 N 
HETATM    5  C11 UNL     1      17.138  15.379   4.234  1.00  0.00     0.244 C 
HETATM    6  O3  UNL     1      18.324  15.670   4.659  1.00  0.00    -0.271 OA
ENDROOT
BRANCH   1   7
HETATM    7  C7  UNL     1      16.032  13.165   1.686  1.00  0.00     0.241 C 
HETATM    8  N2  UNL     1      14.860  13.121   0.915  1.00  0.00    -0.346 N 
ATOM      9  H2  UNL     1      13.973  13.083   1.418  1.00  0.00     0.163 HD
HETATM   10  O2  UNL     1      17.142  13.208   1.101  1.00  0.00    -0.271 OA
BRANCH   8  11
HETATM   11  C5  UNL     1      14.801  13.123  -0.528  1.00  0.00     0.172 C 
HETATM   12  C6  UNL     1      14.442  14.526  -0.976  1.00  0.00     0.042 C 
BRANCH  11  13
HETATM   13  C4  UNL     1      13.818  12.128  -1.058  1.00  0.00     0.240 C 
HETATM   14  N1  UNL     1      12.674  12.610  -1.725  1.00  0.00    -0.354 N 
ATOM     15  H1  UNL     1      12.544  13.616  -1.827  1.00  0.00     0.162 HD
HETATM   16  O1  UNL     1      13.987  10.897  -0.924  1.00  0.00    -0.271 OA
BRANCH  14  17
HETATM   17  C3  UNL     1      11.656  11.692  -2.278  1.00  0.00     0.087 C 
BRANCH  17  18
HETATM   18  C2  UNL     1      10.597  11.615  -1.238  1.00  0.00     0.021 C 
HETATM   19  C1  UNL     1       9.610  10.513  -1.350  1.00  0.00     0.007 C 
ENDBRANCH  17  18
BRANCH  17  20
HETATM   20  C22 UNL     1      11.274  12.267  -3.590  1.00  0.00     0.000 C 
HETATM   21  C23 UNL     1      12.352  12.925  -4.379  1.00  0.00     0.011 C 
HETATM   22  C24 UNL     1      10.552  11.263  -4.480  1.00  0.00     0.011 C 
ENDBRANCH  17  20
ENDBRANCH  14  17
ENDBRANCH  11  13
ENDBRANCH   8  11
ENDBRANCH   1   7
BRANCH   5  23
HETATM   23  C12 UNL     1      16.169  16.459   4.297  1.00  0.00     0.186 C 
BRANCH  23  24
HETATM   24  N4  UNL     1      15.034  15.988   5.131  1.00  0.00    -0.323 N 
HETATM   25  C13 UNL     1      14.750  16.678   6.339  1.00  0.00     0.362 C 
HETATM   26  O4  UNL     1      15.429  17.656   6.694  1.00  0.00    -0.238 OA
ATOM     27  H4  UNL     1      14.471  15.188   4.843  1.00  0.00     0.165 HD
BRANCH  25  28
HETATM   28  O5  UNL     1      13.707  16.296   7.177  1.00  0.00    -0.294 OA
BRANCH  28  29
HETATM   29  C14 UNL     1      12.415  16.878   7.133  1.00  0.00     0.061 C 
HETATM   30  C15 UNL     1      11.430  15.857   7.650  1.00  0.00     0.046 C 
HETATM   31  C16 UNL     1      12.355  18.123   8.012  1.00  0.00     0.046 C 
HETATM   32  C17 UNL     1      12.056  17.263   5.710  1.00  0.00     0.046 C 
ENDBRANCH  28  29
ENDBRANCH  25  28
ENDBRANCH  23  24
BRANCH  23  33
HETATM   33  C18 UNL     1      15.517  16.830   2.981  1.00  0.00    -0.022 C 
HETATM   34  C19 UNL     1      15.227  18.338   3.076  1.00  0.00     0.017 C 
HETATM   35  C20 UNL     1      16.383  16.665   1.773  1.00  0.00     0.017 C 
HETATM   36  C21 UNL     1      14.191  16.161   2.755  1.00  0.00     0.017 C 
ENDBRANCH  23  33
ENDBRANCH   5  23
TORSDOF 11
ENDMDL
MODEL 3
REMARK VINA RESULT: -6.255229766      3.374      5.296
REMARK  11 active torsions:
REMARK  status: ('A' for Active; 'I' for Inactive)
REMARK    1  A    between atoms: C2_2  and  C3_3 
REMARK    2  A    between atoms: C3_3  and  N1_4 
REMARK    3  A    between atoms: C3_3  and  C22_34 
REMARK       I    between atoms: N1_4  and  C4_6 
REMARK    4  A    between atoms: C4_6  and  C5_8 
REMARK    5  A    between atoms: C5_8  and  N2_10 
REMARK       I    between atoms: N2_10  and  C7_12 
REMARK    6  A    between atoms: C7_12  and  C8_14 
REMARK       I    between atoms: N3_17  and  C11_18 
REMARK    7  A    between atoms: C11_18  and  C12_20 
REMARK    8  A    between atoms: C12_20  and  N4_21 
REMARK    9  A    between atoms: C12_20  and  C18_30 
REMARK       I    between atoms: N4_21  and  C13_23 
REMARK   10  A    between atoms: C13_23  and  O5_25 
REMARK   11  A    between atoms: O5_25  and  C14_26 
ROOT
HETATM    1  C8  UNL     1      16.280  11.789   3.096  1.00  0.00     0.180 C 
HETATM    2  C9  UNL     1      17.173  11.133   4.133  1.00  0.00     0.055 C 
HETATM    3  C10 UNL     1      18.154  12.161   3.661  1.00  0.00     0.129 C 
HETATM    4  N3  UNL     1      17.023  13.009   3.245  1.00  0.00    -0.337 N 
HETATM    5  C11 UNL     1      16.920  14.405   3.116  1.00  0.00     0.244 C 
HETATM    6  O3  UNL     1      18.007  15.061   3.362  1.00  0.00    -0.271 OA
ENDROOT
BRANCH   1   7
HETATM    7  C7  UNL     1      16.384  11.177   1.736  1.00  0.00     0.241 C 
HETATM    8  N2  UNL     1      16.615  11.933   0.576  1.00  0.00    -0.346 N 
ATOM      9  H2  UNL     1      16.709  12.942   0.688  1.00  0.00     0.163 HD
HETATM   10  O2  UNL     1      16.258   9.932   1.635  1.00  0.00    -0.271 OA
BRANCH   8  11
HETATM   11  C5  UNL     1      16.729  11.405  -0.763  1.00  0.00     0.172 C 
HETATM   12  C6  UNL     1      17.421  12.450  -1.617  1.00  0.00     0.042 C 
BRANCH  11  13
HETATM   13  C4  UNL     1      15.401  11.038  -1.345  1.00  0.00     0.240 C 
HETATM   14  N1  UNL     1      14.379  12.008  -1.341  1.00  0.00    -0.354 N 
ATOM     15  H1  UNL     1      14.567  12.928  -0.944  1.00  0.00     0.162 HD
HETATM   16  O1  UNL     1      15.182   9.905  -1.827  1.00  0.00    -0.271 OA
BRANCH  14  17
HETATM   17  C3  UNL     1      13.039  11.724  -1.897  1.00  0.00     0.087 C 
BRANCH  17  18
HETATM   18  C2  UNL     1      12.083  12.325  -0.931  1.00  0.00     0.021 C 
HETATM   19  C1  UNL     1      11.061  11.429  -0.336  1.00  0.00     0.007 C 
ENDBRANCH  17  18
BRANCH  17  20
HETATM   20  C22 UNL     1      13.054  12.282  -3.271  1.00  0.00     0.000 C 
HETATM   21  C23 UNL     1      11.742  12.403  -3.966  1.00  0.00     0.011 C 
HETATM   22  C24 UNL     1      13.781  13.619  -3.350  1.00  0.00     0.011 C 
ENDBRANCH  17  20
ENDBRANCH  14  17
ENDBRANCH  11  13
ENDBRANCH   8  11
ENDBRANCH   1   7
BRANCH   5  23
HETATM   23  C12 UNL     1      15.773  15.214   2.742  1.00  0.00     0.186 C 
BRANCH  23  24
HETATM   24  N4  UNL     1      16.136  15.953   1.506  1.00  0.00    -0.323 N 
HETATM   25  C13 UNL     1      15.660  15.466   0.261  1.00  0.00     0.362 C 
HETATM   26  O4  UNL     1      14.952  14.446   0.200  1.00  0.00    -0.238 OA
ATOM     27  H4  UNL     1      16.714  16.793   1.551  1.00  0.00     0.165 HD
BRANCH  25  28
HETATM   28  O5  UNL     1      15.959  16.099  -0.940  1.00  0.00    -0.294 OA
BRANCH  28  29
HETATM   29  C14 UNL     1      15.407  17.346  -1.326  1.00  0.00     0.061 C 
HETATM   30  C15 UNL     1      15.246  17.337  -2.828  1.00  0.00     0.046 C 
HETATM   31  C16 UNL     1      14.042  17.554  -0.678  1.00  0.00     0.046 C 
HETATM   32  C17 UNL     1      16.324  18.483  -0.915  1.00  0.00     0.046 C 
ENDBRANCH  28  29
ENDBRANCH  25  28
ENDBRANCH  23  24
BRANCH  23  33
HETATM   33  C18 UNL     1      15.399  16.310   3.719  1.00  0.00    -0.022 C 
HETATM   34  C19 UNL     1      13.955  16.704   3.363  1.00  0.00     0.017 C 
HETATM   35  C20 UNL     1      15.358  15.895   5.155  1.00  0.00     0.017 C 
HETATM   36  C21 UNL     1      16.223  17.556   3.571  1.00  0.00     0.017 C 
ENDBRANCH  23  33
ENDBRANCH   5  23
TORSDOF 11
ENDMDL
MODEL 4
REMARK VINA RESULT: -6.148940529      3.559      5.681
REMARK  11 active torsions:
REMARK  status: ('A' for Active; 'I' for Inactive)
REMARK    1  A    between atoms: C2_2  and  C3_3 
REMARK    2  A    between atoms: C3_3  and  N1_4 
REMARK    3  A    between atoms: C3_3  and  C22_34 
REMARK       I    between atoms: N1_4  and  C4_6 
REMARK    4  A    between atoms: C4_6  and  C5_8 
REMARK    5  A    between atoms: C5_8  and  N2_10 
REMARK       I    between atoms: N2_10  and  C7_12 
REMARK    6  A    between atoms: C7_12  and  C8_14 
REMARK       I    between atoms: N3_17  and  C11_18 
REMARK    7  A    between atoms: C11_18  and  C12_20 
REMARK    8  A    between atoms: C12_20  and  N4_21 
REMARK    9  A    between atoms: C12_20  and  C18_30 
REMARK       I    between atoms: N4_21  and  C13_23 
REMARK   10  A    between atoms: C13_23  and  O5_25 
REMARK   11  A    between atoms: O5_25  and  C14_26 
ROOT
HETATM    1  C8  UNL     1      15.998  11.689   2.420  1.00  0.00     0.180 C 
HETATM    2  C9  UNL     1      17.028  10.897   3.204  1.00  0.00     0.055 C 
HETATM    3  C10 UNL     1      17.979  11.854   2.557  1.00  0.00     0.129 C 
HETATM    4  N3  UNL     1      16.877  12.826   2.438  1.00  0.00    -0.337 N 
HETATM    5  C11 UNL     1      16.891  14.230   2.383  1.00  0.00     0.244 C 
HETATM    6  O3  UNL     1      18.067  14.768   2.397  1.00  0.00    -0.271 OA
ENDROOT
BRANCH   1   7
HETATM    7  C7  UNL     1      15.733  11.148   1.052  1.00  0.00     0.241 C 
HETATM    8  N2  UNL     1      15.621  11.966  -0.083  1.00  0.00    -0.346 N 
ATOM      9  H2  UNL     1      15.726  12.971   0.055  1.00  0.00     0.163 HD
HETATM   10  O2  UNL     1      15.605   9.905   0.921  1.00  0.00    -0.271 OA
BRANCH   8  11
HETATM   11  C5  UNL     1      15.371  11.508  -1.429  1.00  0.00     0.172 C 
HETATM   12  C6  UNL     1      16.597  11.825  -2.263  1.00  0.00     0.042 C 
BRANCH  11  13
HETATM   13  C4  UNL     1      14.148  12.131  -2.024  1.00  0.00     0.240 C 
HETATM   14  N1  UNL     1      12.892  11.582  -1.697  1.00  0.00    -0.354 N 
ATOM     15  H1  UNL     1      12.847  10.780  -1.069  1.00  0.00     0.162 HD
HETATM   16  O1  UNL     1      14.216  13.113  -2.794  1.00  0.00    -0.271 OA
BRANCH  14  17
HETATM   17  C3  UNL     1      11.637  12.140  -2.242  1.00  0.00     0.087 C 
BRANCH  17  18
HETATM   18  C2  UNL     1      11.530  11.584  -3.616  1.00  0.00     0.021 C 
HETATM   19  C1  UNL     1      11.210  12.531  -4.712  1.00  0.00     0.007 C 
ENDBRANCH  17  18
BRANCH  17  20
HETATM   20  C22 UNL     1      10.580  11.761  -1.274  1.00  0.00     0.000 C 
HETATM   21  C23 UNL     1       9.652  10.669  -1.680  1.00  0.00     0.011 C 
HETATM   22  C24 UNL     1      11.138  11.448   0.108  1.00  0.00     0.011 C 
ENDBRANCH  17  20
ENDBRANCH  14  17
ENDBRANCH  11  13
ENDBRANCH   8  11
ENDBRANCH   1   7
BRANCH   5  23
HETATM   23  C12 UNL     1      15.779  15.161   2.307  1.00  0.00     0.186 C 
BRANCH  23  24
HETATM   24  N4  UNL     1      16.069  16.109   1.201  1.00  0.00    -0.323 N 
HETATM   25  C13 UNL     1      15.389  15.938  -0.033  1.00  0.00     0.362 C 
HETATM   26  O4  UNL     1      14.566  15.020  -0.190  1.00  0.00    -0.238 OA
ATOM     27  H4  UNL     1      16.741  16.866   1.325  1.00  0.00     0.165 HD
BRANCH  25  28
HETATM   28  O5  UNL     1      15.608  16.781  -1.117  1.00  0.00    -0.294 OA
BRANCH  28  29
HETATM   29  C14 UNL     1      15.162  18.125  -1.165  1.00  0.00     0.061 C 
HETATM   30  C15 UNL     1      15.026  18.517  -2.618  1.00  0.00     0.046 C 
HETATM   31  C16 UNL     1      13.808  18.269  -0.478  1.00  0.00     0.046 C 
HETATM   32  C17 UNL     1      16.161  19.039  -0.479  1.00  0.00     0.046 C 
ENDBRANCH  28  29
ENDBRANCH  25  28
ENDBRANCH  23  24
BRANCH  23  33
HETATM   33  C18 UNL     1      15.596  16.061   3.512  1.00  0.00    -0.022 C 
HETATM   34  C19 UNL     1      14.138  16.545   3.446  1.00  0.00     0.017 C 
HETATM   35  C20 UNL     1      15.733  15.384   4.838  1.00  0.00     0.017 C 
HETATM   36  C21 UNL     1      16.451  17.295   3.478  1.00  0.00     0.017 C 
ENDBRANCH  23  33
ENDBRANCH   5  23
TORSDOF 11
ENDMDL
MODEL 5
REMARK VINA RESULT: -6.092458479      2.974      4.879
REMARK  11 active torsions:
REMARK  status: ('A' for Active; 'I' for Inactive)
REMARK    1  A    between atoms: C2_2  and  C3_3 
REMARK    2  A    between atoms: C3_3  and  N1_4 
REMARK    3  A    between atoms: C3_3  and  C22_34 
REMARK       I    between atoms: N1_4  and  C4_6 
REMARK    4  A    between atoms: C4_6  and  C5_8 
REMARK    5  A    between atoms: C5_8  and  N2_10 
REMARK       I    between atoms: N2_10  and  C7_12 
REMARK    6  A    between atoms: C7_12  and  C8_14 
REMARK       I    between atoms: N3_17  and  C11_18 
REMARK    7  A    between atoms: C11_18  and  C12_20 
REMARK    8  A    between atoms: C12_20  and  N4_21 
REMARK    9  A    between atoms: C12_20  and  C18_30 
REMARK       I    between atoms: N4_21  and  C13_23 
REMARK   10  A    between atoms: C13_23  and  O5_25 
REMARK   11  A    between atoms: O5_25  and  C14_26 
ROOT
HETATM    1  C8  UNL     1      16.220  11.899   3.240  1.00  0.00     0.180 C 
HETATM    2  C9  UNL     1      17.153  10.903   3.904  1.00  0.00     0.055 C 
HETATM    3  C10 UNL     1      18.183  11.939   3.578  1.00  0.00     0.129 C 
HETATM    4  N3  UNL     1      17.120  12.961   3.594  1.00  0.00    -0.337 N 
HETATM    5  C11 UNL     1      17.174  14.339   3.867  1.00  0.00     0.244 C 
HETATM    6  O3  UNL     1      18.357  14.806   4.105  1.00  0.00    -0.271 OA
ENDROOT
BRANCH   1   7
HETATM    7  C7  UNL     1      16.069  11.697   1.767  1.00  0.00     0.241 C 
HETATM    8  N2  UNL     1      15.826  12.753   0.874  1.00  0.00    -0.346 N 
ATOM      9  H2  UNL     1      15.749  13.690   1.269  1.00  0.00     0.163 HD
HETATM   10  O2  UNL     1      16.165  10.529   1.316  1.00  0.00    -0.271 OA
BRANCH   8  11
HETATM   11  C5  UNL     1      15.674  12.626  -0.557  1.00  0.00     0.172 C 
HETATM   12  C6  UNL     1      16.693  13.538  -1.214  1.00  0.00     0.042 C 
BRANCH  11  13
HETATM   13  C4  UNL     1      14.290  12.959  -1.014  1.00  0.00     0.240 C 
HETATM   14  N1  UNL     1      13.482  11.917  -1.514  1.00  0.00    -0.354 N 
ATOM     15  H1  UNL     1      13.859  10.971  -1.553  1.00  0.00     0.162 HD
HETATM   16  O1  UNL     1      13.841  14.124  -0.964  1.00  0.00    -0.271 OA
BRANCH  14  17
HETATM   17  C3  UNL     1      12.103  12.164  -1.985  1.00  0.00     0.087 C 
BRANCH  17  18
HETATM   18  C2  UNL     1      12.151  11.949  -3.455  1.00  0.00     0.021 C 
HETATM   19  C1  UNL     1      12.556  13.099  -4.300  1.00  0.00     0.007 C 
ENDBRANCH  17  18
BRANCH  17  20
HETATM   20  C22 UNL     1      11.245  11.250  -1.195  1.00  0.00     0.000 C 
HETATM   21  C23 UNL     1      11.052  11.579   0.244  1.00  0.00     0.011 C 
HETATM   22  C24 UNL     1       9.882  11.026  -1.838  1.00  0.00     0.011 C 
ENDBRANCH  17  20
ENDBRANCH  14  17
ENDBRANCH  11  13
ENDBRANCH   8  11
ENDBRANCH   1   7
BRANCH   5  23
HETATM   23  C12 UNL     1      16.097  15.312   3.915  1.00  0.00     0.186 C 
BRANCH  23  24
HETATM   24  N4  UNL     1      16.312  16.267   2.798  1.00  0.00    -0.323 N 
HETATM   25  C13 UNL     1      15.452  16.194   1.671  1.00  0.00     0.362 C 
HETATM   26  O4  UNL     1      14.536  15.356   1.616  1.00  0.00    -0.238 OA
ATOM     27  H4  UNL     1      17.060  16.959   2.840  1.00  0.00     0.165 HD
BRANCH  25  28
HETATM   28  O5  UNL     1      15.591  17.050   0.584  1.00  0.00    -0.294 OA
BRANCH  28  29
HETATM   29  C14 UNL     1      14.856  18.253   0.436  1.00  0.00     0.061 C 
HETATM   30  C15 UNL     1      13.850  18.049  -0.672  1.00  0.00     0.046 C 
HETATM   31  C16 UNL     1      14.119  18.596   1.726  1.00  0.00     0.046 C 
HETATM   32  C17 UNL     1      15.784  19.400   0.081  1.00  0.00     0.046 C 
ENDBRANCH  28  29
ENDBRANCH  25  28
ENDBRANCH  23  24
BRANCH  23  33
HETATM   33  C18 UNL     1      16.070  16.198   5.144  1.00  0.00    -0.022 C 
HETATM   34  C19 UNL     1      14.596  16.595   5.332  1.00  0.00     0.017 C 
HETATM   35  C20 UNL     1      16.470  15.528   6.420  1.00  0.00     0.017 C 
HETATM   36  C21 UNL     1      16.834  17.480   4.979  1.00  0.00     0.017 C 
ENDBRANCH  23  33
ENDBRANCH   5  23
TORSDOF 11
ENDMDL
