MODEL 1
REMARK VINA RESULT: -8.309540295      0.000      0.000
REMARK  10 active torsions:
REMARK  status: ('A' for Active; 'I' for Inactive)
REMARK       I    between atoms: C2_2  and  N1_4 
REMARK    1  A    between atoms: N1_4  and  N2_6 
REMARK       I    between atoms: N2_6  and  C3_8 
REMARK    2  A    between atoms: C3_8  and  C4_10 
REMARK    3  A    between atoms: C4_10  and  N3_11 
REMARK    4  A    between atoms: C4_10  and  C5_15 
REMARK       I    between atoms: C5_15  and  N4_17 
REMARK    5  A    between atoms: N4_17  and  C6_19 
REMARK    6  A    between atoms: C6_19  and  C8_21 
REMARK       I    between atoms: C8_21  and  N5_23 
REMARK    7  A    between atoms: N5_23  and  C9_25 
REMARK    8  A    between atoms: C9_25  and  C11_27 
REMARK    9  A    between atoms: C11_27  and  N6_28 
REMARK   10  A    between atoms: C11_27  and  N7_32 
ROOT
HETATM    1  C5  UNL     1      11.349  46.554  -1.766  1.00  0.00     0.258 C 
HETATM    2  O3  UNL     1      10.406  46.934  -2.494  1.00  0.00    -0.271 OA
HETATM    3  N4  UNL     1      11.949  47.426  -0.832  1.00  0.00    -0.346 N 
ATOM      4  H4  UNL     1      12.716  47.093  -0.248  1.00  0.00     0.163 HD
ENDROOT
BRANCH   3   5
HETATM    5  C6  UNL     1      11.485  48.786  -0.697  1.00  0.00     0.172 C 
HETATM    6  C7  UNL     1      10.388  48.805   0.367  1.00  0.00     0.042 C 
BRANCH   5   7
HETATM    7  C8  UNL     1      12.584  49.715  -0.339  1.00  0.00     0.240 C 
HETATM    8  O4  UNL     1      13.697  49.260  -0.001  1.00  0.00    -0.271 OA
HETATM    9  N5  UNL     1      12.363  51.098  -0.381  1.00  0.00    -0.351 N 
ATOM     10  H5  UNL     1      11.439  51.429  -0.660  1.00  0.00     0.163 HD
BRANCH   9  11
HETATM   11  C9  UNL     1      13.372  52.087  -0.050  1.00  0.00     0.138 C 
HETATM   12  C10 UNL     1      13.433  52.218   1.449  1.00  0.00     0.036 C 
BRANCH  11  13
HETATM   13  C11 UNL     1      13.081  53.403  -0.733  1.00  0.00     0.400 C 
BRANCH  13  14
HETATM   14  N6  UNL     1      13.478  54.505   0.119  1.00  0.00    -0.048 N 
ATOM     15  H63 UNL     1      12.854  54.613   0.919  1.00  0.00     0.276 HD
ATOM     16  H62 UNL     1      14.339  54.303   0.628  1.00  0.00     0.276 HD
ATOM     17  H61 UNL     1      13.549  55.363  -0.427  1.00  0.00     0.276 HD
ENDBRANCH  13  14
BRANCH  13  18
HETATM   18  N7  UNL     1      13.865  53.465  -1.940  1.00  0.00    -0.048 N 
ATOM     19  H73 UNL     1      14.844  53.691  -1.762  1.00  0.00     0.276 HD
ATOM     20  H72 UNL     1      14.012  52.548  -2.362  1.00  0.00     0.276 HD
ATOM     21  H71 UNL     1      13.418  54.124  -2.576  1.00  0.00     0.276 HD
ENDBRANCH  13  18
ENDBRANCH  11  13
ENDBRANCH   9  11
ENDBRANCH   5   7
ENDBRANCH   3   5
BRANCH   1  22
HETATM   22  C4  UNL     1      11.829  45.162  -1.900  1.00  0.00     0.367 C 
BRANCH  22  23
HETATM   23  C3  UNL     1      13.109  45.130  -2.656  1.00  0.00     0.276 C 
HETATM   24  N2  UNL     1      13.993  44.040  -2.505  1.00  0.00    -0.265 N 
ATOM     25  H2  UNL     1      13.745  43.277  -1.876  1.00  0.00     0.190 HD
HETATM   26  O2  UNL     1      13.393  46.063  -3.417  1.00  0.00    -0.269 OA
BRANCH  24  27
HETATM   27  N1  UNL     1      15.212  43.987  -3.210  1.00  0.00    -0.268 N 
HETATM   28  C2  UNL     1      16.420  44.393  -2.599  1.00  0.00     0.232 C 
HETATM   29  C1  UNL     1      17.678  44.333  -3.342  1.00  0.00     0.119 C 
HETATM   30  O1  UNL     1      16.401  44.803  -1.420  1.00  0.00    -0.272 OA
ATOM     31  H1  UNL     1      15.223  43.651  -4.173  1.00  0.00     0.190 HD
ENDBRANCH  24  27
ENDBRANCH  22  23
BRANCH  22  32
HETATM   32  N3  UNL     1      10.840  44.322  -2.577  1.00  0.00    -0.058 N 
ATOM     33  H33 UNL     1      10.984  44.294  -3.587  1.00  0.00     0.275 HD
ATOM     34  H32 UNL     1      10.978  43.330  -2.383  1.00  0.00     0.275 HD
ATOM     35  H31 UNL     1       9.901  44.635  -2.331  1.00  0.00     0.275 HD
ENDBRANCH  22  32
ENDBRANCH   1  22
TORSDOF 10
ENDMDL
MODEL 2
REMARK VINA RESULT: -8.035329792      2.323      7.103
REMARK  10 active torsions:
REMARK  status: ('A' for Active; 'I' for Inactive)
REMARK       I    between atoms: C2_2  and  N1_4 
REMARK    1  A    between atoms: N1_4  and  N2_6 
REMARK       I    between atoms: N2_6  and  C3_8 
REMARK    2  A    between atoms: C3_8  and  C4_10 
REMARK    3  A    between atoms: C4_10  and  N3_11 
REMARK    4  A    between atoms: C4_10  and  C5_15 
REMARK       I    between atoms: C5_15  and  N4_17 
REMARK    5  A    between atoms: N4_17  and  C6_19 
REMARK    6  A    between atoms: C6_19  and  C8_21 
REMARK       I    between atoms: C8_21  and  N5_23 
REMARK    7  A    between atoms: N5_23  and  C9_25 
REMARK    8  A    between atoms: C9_25  and  C11_27 
REMARK    9  A    between atoms: C11_27  and  N6_28 
REMARK   10  A    between atoms: C11_27  and  N7_32 
ROOT
HETATM    1  C5  UNL     1      12.332  45.202  -2.458  1.00  0.00     0.258 C 
HETATM    2  O3  UNL     1      12.567  45.279  -1.233  1.00  0.00    -0.271 OA
HETATM    3  N4  UNL     1      12.459  43.979  -3.152  1.00  0.00    -0.346 N 
ATOM      4  H4  UNL     1      12.260  43.940  -4.152  1.00  0.00     0.163 HD
ENDROOT
BRANCH   3   5
HETATM    5  C6  UNL     1      12.866  42.782  -2.455  1.00  0.00     0.172 C 
HETATM    6  C7  UNL     1      12.332  41.580  -3.234  1.00  0.00     0.042 C 
BRANCH   5   7
HETATM    7  C8  UNL     1      14.339  42.702  -2.304  1.00  0.00     0.240 C 
HETATM    8  O4  UNL     1      14.891  41.588  -2.183  1.00  0.00    -0.271 OA
HETATM    9  N5  UNL     1      15.099  43.878  -2.296  1.00  0.00    -0.351 N 
ATOM     10  H5  UNL     1      14.610  44.767  -2.396  1.00  0.00     0.163 HD
BRANCH   9  11
HETATM   11  C9  UNL     1      16.543  43.905  -2.154  1.00  0.00     0.138 C 
HETATM   12  C10 UNL     1      16.876  44.499  -0.812  1.00  0.00     0.036 C 
BRANCH  11  13
HETATM   13  C11 UNL     1      17.183  44.660  -3.296  1.00  0.00     0.400 C 
BRANCH  13  14
HETATM   14  N6  UNL     1      18.432  45.253  -2.863  1.00  0.00    -0.048 N 
ATOM     15  H63 UNL     1      18.472  45.359  -1.849  1.00  0.00     0.276 HD
ATOM     16  H62 UNL     1      19.218  44.613  -2.977  1.00  0.00     0.276 HD
ATOM     17  H61 UNL     1      18.586  46.138  -3.345  1.00  0.00     0.276 HD
ENDBRANCH  13  14
BRANCH  13  18
HETATM   18  N7  UNL     1      17.474  43.721  -4.348  1.00  0.00    -0.048 N 
ATOM     19  H73 UNL     1      18.433  43.374  -4.312  1.00  0.00     0.276 HD
ATOM     20  H72 UNL     1      17.000  42.826  -4.220  1.00  0.00     0.276 HD
ATOM     21  H71 UNL     1      17.248  44.162  -5.239  1.00  0.00     0.276 HD
ENDBRANCH  13  18
ENDBRANCH  11  13
ENDBRANCH   9  11
ENDBRANCH   5   7
ENDBRANCH   3   5
BRANCH   1  22
HETATM   22  C4  UNL     1      11.915  46.426  -3.178  1.00  0.00     0.367 C 
BRANCH  22  23
HETATM   23  C3  UNL     1      11.299  47.394  -2.232  1.00  0.00     0.276 C 
HETATM   24  N2  UNL     1      12.085  48.408  -1.646  1.00  0.00    -0.265 N 
ATOM     25  H2  UNL     1      13.076  48.471  -1.877  1.00  0.00     0.190 HD
HETATM   26  O2  UNL     1      10.094  47.304  -1.964  1.00  0.00    -0.269 OA
BRANCH  24  27
HETATM   27  N1  UNL     1      11.524  49.336  -0.746  1.00  0.00    -0.268 N 
HETATM   28  C2  UNL     1      12.333  50.015   0.193  1.00  0.00     0.232 C 
HETATM   29  C1  UNL     1      11.738  50.976   1.121  1.00  0.00     0.119 C 
HETATM   30  O1  UNL     1      13.560  49.785   0.222  1.00  0.00    -0.272 OA
ATOM     31  H1  UNL     1      10.521  49.521  -0.773  1.00  0.00     0.190 HD
ENDBRANCH  24  27
ENDBRANCH  22  23
BRANCH  22  32
HETATM   32  N3  UNL     1      10.966  46.114  -4.248  1.00  0.00    -0.058 N 
ATOM     33  H33 UNL     1      10.344  45.345  -3.999  1.00  0.00     0.275 HD
ATOM     34  H32 UNL     1      10.259  46.842  -4.361  1.00  0.00     0.275 HD
ATOM     35  H31 UNL     1      11.475  45.934  -5.113  1.00  0.00     0.275 HD
ENDBRANCH  22  32
ENDBRANCH   1  22
TORSDOF 10
ENDMDL
MODEL 3
REMARK VINA RESULT: -7.948209309      2.676      6.883
REMARK  10 active torsions:
REMARK  status: ('A' for Active; 'I' for Inactive)
REMARK       I    between atoms: C2_2  and  N1_4 
REMARK    1  A    between atoms: N1_4  and  N2_6 
REMARK       I    between atoms: N2_6  and  C3_8 
REMARK    2  A    between atoms: C3_8  and  C4_10 
REMARK    3  A    between atoms: C4_10  and  N3_11 
REMARK    4  A    between atoms: C4_10  and  C5_15 
REMARK       I    between atoms: C5_15  and  N4_17 
REMARK    5  A    between atoms: N4_17  and  C6_19 
REMARK    6  A    between atoms: C6_19  and  C8_21 
REMARK       I    between atoms: C8_21  and  N5_23 
REMARK    7  A    between atoms: N5_23  and  C9_25 
REMARK    8  A    between atoms: C9_25  and  C11_27 
REMARK    9  A    between atoms: C11_27  and  N6_28 
REMARK   10  A    between atoms: C11_27  and  N7_32 
ROOT
HETATM    1  C5  UNL     1      11.575  44.321  -2.765  1.00  0.00     0.258 C 
HETATM    2  O3  UNL     1      11.459  44.342  -1.521  1.00  0.00    -0.271 OA
HETATM    3  N4  UNL     1      12.202  43.239  -3.423  1.00  0.00    -0.346 N 
ATOM      4  H4  UNL     1      12.284  43.243  -4.439  1.00  0.00     0.163 HD
ENDROOT
BRANCH   3   5
HETATM    5  C6  UNL     1      12.726  42.128  -2.665  1.00  0.00     0.172 C 
HETATM    6  C7  UNL     1      12.429  40.847  -3.444  1.00  0.00     0.042 C 
BRANCH   5   7
HETATM    7  C8  UNL     1      14.181  42.266  -2.411  1.00  0.00     0.240 C 
HETATM    8  O4  UNL     1      14.852  41.265  -2.085  1.00  0.00    -0.271 OA
HETATM    9  N5  UNL     1      14.789  43.521  -2.538  1.00  0.00    -0.351 N 
ATOM     10  H5  UNL     1      14.205  44.313  -2.805  1.00  0.00     0.163 HD
BRANCH   9  11
HETATM   11  C9  UNL     1      16.203  43.759  -2.311  1.00  0.00     0.138 C 
HETATM   12  C10 UNL     1      16.354  44.513  -1.017  1.00  0.00     0.036 C 
BRANCH  11  13
HETATM   13  C11 UNL     1      16.821  44.490  -3.482  1.00  0.00     0.400 C 
BRANCH  13  14
HETATM   14  N6  UNL     1      17.875  45.368  -3.019  1.00  0.00    -0.048 N 
ATOM     15  H63 UNL     1      17.969  45.350  -2.003  1.00  0.00     0.276 HD
ATOM     16  H62 UNL     1      18.801  45.013  -3.260  1.00  0.00     0.276 HD
ATOM     17  H61 UNL     1      17.725  46.313  -3.372  1.00  0.00     0.276 HD
ENDBRANCH  13  14
BRANCH  13  18
HETATM   18  N7  UNL     1      17.405  43.512  -4.362  1.00  0.00    -0.048 N 
ATOM     19  H73 UNL     1      18.320  43.795  -4.713  1.00  0.00     0.276 HD
ATOM     20  H72 UNL     1      17.702  42.667  -3.873  1.00  0.00     0.276 HD
ATOM     21  H71 UNL     1      16.739  43.320  -5.110  1.00  0.00     0.276 HD
ENDBRANCH  13  18
ENDBRANCH  11  13
ENDBRANCH   9  11
ENDBRANCH   5   7
ENDBRANCH   3   5
BRANCH   1  22
HETATM   22  C4  UNL     1      11.040  45.457  -3.546  1.00  0.00     0.367 C 
BRANCH  22  23
HETATM   23  C3  UNL     1      11.056  46.698  -2.726  1.00  0.00     0.276 C 
HETATM   24  N2  UNL     1      12.282  47.325  -2.415  1.00  0.00    -0.265 N 
ATOM     25  H2  UNL     1      13.153  46.920  -2.758  1.00  0.00     0.190 HD
HETATM   26  O2  UNL     1       9.990  47.175  -2.320  1.00  0.00    -0.269 OA
BRANCH  24  27
HETATM   27  N1  UNL     1      12.323  48.500  -1.640  1.00  0.00    -0.268 N 
HETATM   28  C2  UNL     1      13.214  48.618  -0.549  1.00  0.00     0.232 C 
HETATM   29  C1  UNL     1      13.246  49.844   0.248  1.00  0.00     0.119 C 
HETATM   30  O1  UNL     1      13.972  47.665  -0.274  1.00  0.00    -0.272 OA
ATOM     31  H1  UNL     1      11.701  49.276  -1.868  1.00  0.00     0.190 HD
ENDBRANCH  24  27
ENDBRANCH  22  23
BRANCH  22  32
HETATM   32  N3  UNL     1       9.675  45.190  -4.004  1.00  0.00    -0.058 N 
ATOM     33  H33 UNL     1       9.324  44.295  -3.666  1.00  0.00     0.275 HD
ATOM     34  H32 UNL     1       8.991  45.796  -3.551  1.00  0.00     0.275 HD
ATOM     35  H31 UNL     1       9.638  45.260  -5.021  1.00  0.00     0.275 HD
ENDBRANCH  22  32
ENDBRANCH   1  22
TORSDOF 10
ENDMDL
MODEL 4
REMARK VINA RESULT: -7.809032403      1.260      1.515
REMARK  10 active torsions:
REMARK  status: ('A' for Active; 'I' for Inactive)
REMARK       I    between atoms: C2_2  and  N1_4 
REMARK    1  A    between atoms: N1_4  and  N2_6 
REMARK       I    between atoms: N2_6  and  C3_8 
REMARK    2  A    between atoms: C3_8  and  C4_10 
REMARK    3  A    between atoms: C4_10  and  N3_11 
REMARK    4  A    between atoms: C4_10  and  C5_15 
REMARK       I    between atoms: C5_15  and  N4_17 
REMARK    5  A    between atoms: N4_17  and  C6_19 
REMARK    6  A    between atoms: C6_19  and  C8_21 
REMARK       I    between atoms: C8_21  and  N5_23 
REMARK    7  A    between atoms: N5_23  and  C9_25 
REMARK    8  A    between atoms: C9_25  and  C11_27 
REMARK    9  A    between atoms: C11_27  and  N6_28 
REMARK   10  A    between atoms: C11_27  and  N7_32 
ROOT
HETATM    1  C5  UNL     1      12.452  46.477  -1.983  1.00  0.00     0.258 C 
HETATM    2  O3  UNL     1      11.695  46.739  -2.942  1.00  0.00    -0.271 OA
HETATM    3  N4  UNL     1      12.639  47.395  -0.927  1.00  0.00    -0.346 N 
ATOM      4  H4  UNL     1      13.261  47.158  -0.154  1.00  0.00     0.163 HD
ENDROOT
BRANCH   3   5
HETATM    5  C6  UNL     1      11.955  48.666  -0.932  1.00  0.00     0.172 C 
HETATM    6  C7  UNL     1      10.616  48.482  -0.220  1.00  0.00     0.042 C 
BRANCH   5   7
HETATM    7  C8  UNL     1      12.757  49.731  -0.282  1.00  0.00     0.240 C 
HETATM    8  O4  UNL     1      13.790  49.430   0.353  1.00  0.00    -0.271 OA
HETATM    9  N5  UNL     1      12.347  51.066  -0.385  1.00  0.00    -0.351 N 
ATOM     10  H5  UNL     1      11.497  51.269  -0.911  1.00  0.00     0.163 HD
BRANCH   9  11
HETATM   11  C9  UNL     1      13.062  52.178   0.214  1.00  0.00     0.138 C 
HETATM   12  C10 UNL     1      12.520  52.398   1.601  1.00  0.00     0.036 C 
BRANCH  11  13
HETATM   13  C11 UNL     1      12.958  53.414  -0.650  1.00  0.00     0.400 C 
BRANCH  13  14
HETATM   14  N6  UNL     1      13.437  54.571   0.077  1.00  0.00    -0.048 N 
ATOM     15  H63 UNL     1      14.205  54.335   0.706  1.00  0.00     0.276 HD
ATOM     16  H62 UNL     1      13.935  55.223  -0.530  1.00  0.00     0.276 HD
ATOM     17  H61 UNL     1      12.665  55.020   0.568  1.00  0.00     0.276 HD
ENDBRANCH  13  14
BRANCH  13  18
HETATM   18  N7  UNL     1      13.801  53.227  -1.803  1.00  0.00    -0.048 N 
ATOM     19  H73 UNL     1      14.187  52.284  -1.860  1.00  0.00     0.276 HD
ATOM     20  H72 UNL     1      13.276  53.213  -2.678  1.00  0.00     0.276 HD
ATOM     21  H71 UNL     1      14.523  53.947  -1.788  1.00  0.00     0.276 HD
ENDBRANCH  13  18
ENDBRANCH  11  13
ENDBRANCH   9  11
ENDBRANCH   5   7
ENDBRANCH   3   5
BRANCH   1  22
HETATM   22  C4  UNL     1      13.156  45.176  -1.972  1.00  0.00     0.367 C 
BRANCH  22  23
HETATM   23  C3  UNL     1      14.614  45.382  -1.764  1.00  0.00     0.276 C 
HETATM   24  N2  UNL     1      15.532  45.005  -2.768  1.00  0.00    -0.265 N 
ATOM     25  H2  UNL     1      15.186  44.592  -3.634  1.00  0.00     0.190 HD
HETATM   26  O2  UNL     1      15.016  45.884  -0.708  1.00  0.00    -0.269 OA
BRANCH  24  27
HETATM   27  N1  UNL     1      16.918  45.188  -2.594  1.00  0.00    -0.268 N 
HETATM   28  C2  UNL     1      17.842  44.637  -3.510  1.00  0.00     0.232 C 
HETATM   29  C1  UNL     1      19.278  44.836  -3.317  1.00  0.00     0.119 C 
HETATM   30  O1  UNL     1      17.420  43.980  -4.484  1.00  0.00    -0.272 OA
ATOM     31  H1  UNL     1      17.259  45.726  -1.796  1.00  0.00     0.190 HD
ENDBRANCH  24  27
ENDBRANCH  22  23
BRANCH  22  32
HETATM   32  N3  UNL     1      12.938  44.444  -3.222  1.00  0.00    -0.058 N 
ATOM     33  H33 UNL     1      13.134  45.017  -4.043  1.00  0.00     0.275 HD
ATOM     34  H32 UNL     1      13.644  43.724  -3.375  1.00  0.00     0.275 HD
ATOM     35  H31 UNL     1      11.992  44.065  -3.233  1.00  0.00     0.275 HD
ENDBRANCH  22  32
ENDBRANCH   1  22
TORSDOF 10
ENDMDL
MODEL 5
REMARK VINA RESULT: -7.739181990      2.902      4.335
REMARK  10 active torsions:
REMARK  status: ('A' for Active; 'I' for Inactive)
REMARK       I    between atoms: C2_2  and  N1_4 
REMARK    1  A    between atoms: N1_4  and  N2_6 
REMARK       I    between atoms: N2_6  and  C3_8 
REMARK    2  A    between atoms: C3_8  and  C4_10 
REMARK    3  A    between atoms: C4_10  and  N3_11 
REMARK    4  A    between atoms: C4_10  and  C5_15 
REMARK       I    between atoms: C5_15  and  N4_17 
REMARK    5  A    between atoms: N4_17  and  C6_19 
REMARK    6  A    between atoms: C6_19  and  C8_21 
REMARK       I    between atoms: C8_21  and  N5_23 
REMARK    7  A    between atoms: N5_23  and  C9_25 
REMARK    8  A    between atoms: C9_25  and  C11_27 
REMARK    9  A    between atoms: C11_27  and  N6_28 
REMARK   10  A    between atoms: C11_27  and  N7_32 
ROOT
HETATM    1  C5  UNL     1      12.232  43.319  -2.563  1.00  0.00     0.258 C 
HETATM    2  O3  UNL     1      12.889  44.280  -2.109  1.00  0.00    -0.271 OA
HETATM    3  N4  UNL     1      10.969  43.516  -3.162  1.00  0.00    -0.346 N 
ATOM      4  H4  UNL     1      10.451  42.716  -3.528  1.00  0.00     0.163 HD
ENDROOT
BRANCH   3   5
HETATM    5  C6  UNL     1      10.404  44.840  -3.262  1.00  0.00     0.172 C 
HETATM    6  C7  UNL     1       8.922  44.695  -3.603  1.00  0.00     0.042 C 
BRANCH   5   7
HETATM    7  C8  UNL     1      10.585  45.617  -2.012  1.00  0.00     0.240 C 
HETATM    8  O4  UNL     1       9.953  45.295  -0.984  1.00  0.00    -0.271 OA
HETATM    9  N5  UNL     1      11.464  46.707  -1.995  1.00  0.00    -0.351 N 
ATOM     10  H5  UNL     1      11.960  46.938  -2.856  1.00  0.00     0.163 HD
BRANCH   9  11
HETATM   11  C9  UNL     1      11.710  47.528  -0.823  1.00  0.00     0.138 C 
HETATM   12  C10 UNL     1      10.964  48.825  -0.989  1.00  0.00     0.036 C 
BRANCH  11  13
HETATM   13  C11 UNL     1      13.192  47.736  -0.612  1.00  0.00     0.400 C 
BRANCH  13  14
HETATM   14  N6  UNL     1      13.932  47.225  -1.747  1.00  0.00    -0.048 N 
ATOM     15  H63 UNL     1      13.320  46.792  -2.438  1.00  0.00     0.276 HD
ATOM     16  H62 UNL     1      14.307  47.975  -2.328  1.00  0.00     0.276 HD
ATOM     17  H61 UNL     1      14.662  46.586  -1.431  1.00  0.00     0.276 HD
ENDBRANCH  13  14
BRANCH  13  18
HETATM   18  N7  UNL     1      13.437  49.152  -0.518  1.00  0.00    -0.048 N 
ATOM     19  H73 UNL     1      13.230  49.646  -1.386  1.00  0.00     0.276 HD
ATOM     20  H72 UNL     1      12.759  49.631   0.076  1.00  0.00     0.276 HD
ATOM     21  H71 UNL     1      14.398  49.287  -0.206  1.00  0.00     0.276 HD
ENDBRANCH  13  18
ENDBRANCH  11  13
ENDBRANCH   9  11
ENDBRANCH   5   7
ENDBRANCH   3   5
BRANCH   1  22
HETATM   22  C4  UNL     1      12.805  41.959  -2.463  1.00  0.00     0.367 C 
BRANCH  22  23
HETATM   23  C3  UNL     1      14.290  42.028  -2.430  1.00  0.00     0.276 C 
HETATM   24  N2  UNL     1      14.954  43.198  -2.855  1.00  0.00    -0.265 N 
ATOM     25  H2  UNL     1      14.407  43.994  -3.182  1.00  0.00     0.190 HD
HETATM   26  O2  UNL     1      14.938  41.053  -2.029  1.00  0.00    -0.269 OA
BRANCH  24  27
HETATM   27  N1  UNL     1      16.360  43.287  -2.834  1.00  0.00    -0.268 N 
HETATM   28  C2  UNL     1      17.009  44.536  -2.952  1.00  0.00     0.232 C 
HETATM   29  C1  UNL     1      18.469  44.614  -2.929  1.00  0.00     0.119 C 
HETATM   30  O1  UNL     1      16.323  45.572  -3.077  1.00  0.00    -0.272 OA
ATOM     31  H1  UNL     1      16.917  42.438  -2.732  1.00  0.00     0.190 HD
ENDBRANCH  24  27
ENDBRANCH  22  23
BRANCH  22  32
HETATM   32  N3  UNL     1      12.379  41.120  -3.585  1.00  0.00    -0.058 N 
ATOM     33  H33 UNL     1      11.467  41.398  -3.950  1.00  0.00     0.275 HD
ATOM     34  H32 UNL     1      12.931  41.291  -4.426  1.00  0.00     0.275 HD
ATOM     35  H31 UNL     1      12.398  40.140  -3.304  1.00  0.00     0.275 HD
ENDBRANCH  22  32
ENDBRANCH   1  22
TORSDOF 10
ENDMDL
