MODEL 1
REMARK VINA RESULT: -8.314369783      0.000      0.000
REMARK  12 active torsions:
REMARK  status: ('A' for Active; 'I' for Inactive)
REMARK    1  A    between atoms: N2_3  and  N3_5 
REMARK    2  A    between atoms: C2_7  and  N4_8 
REMARK    3  A    between atoms: C2_7  and  C9_22 
REMARK    4  A    between atoms: N4_8  and  N5_10 
REMARK       I    between atoms: N5_10  and  C3_12 
REMARK    5  A    between atoms: C3_12  and  C4_14 
REMARK    6  A    between atoms: C4_14  and  N6_15 
REMARK    7  A    between atoms: N7_18  and  C7_19 
REMARK    8  A    between atoms: C9_22  and  O3_23 
REMARK    9  A    between atoms: C9_22  and  C10_25 
REMARK   10  A    between atoms: C10_25  and  C11_26 
REMARK   11  A    between atoms: C11_26  and  N8_27 
REMARK   12  A    between atoms: C11_26  and  N9_31 
ROOT
HETATM    1  N3  UNL     1      13.817  45.747  -2.732  1.00  0.00    -0.285 N 
ATOM      2  H3  UNL     1      14.490  46.436  -2.396  1.00  0.00     0.188 HD
HETATM    3  C2  UNL     1      12.640  46.164  -2.972  1.00  0.00     0.140 C 
ENDROOT
BRANCH   3   4
HETATM    4  N4  UNL     1      12.314  47.533  -2.771  1.00  0.00    -0.283 N 
ATOM      5  H4  UNL     1      11.619  47.998  -3.354  1.00  0.00     0.188 HD
BRANCH   4   6
HETATM    6  N5  UNL     1      12.984  48.231  -1.732  1.00  0.00    -0.267 N 
HETATM    7  C3  UNL     1      12.301  48.666  -0.571  1.00  0.00     0.254 C 
HETATM    8  O1  UNL     1      11.066  48.404  -0.503  1.00  0.00    -0.270 OA
ATOM      9  H5  UNL     1      13.981  48.424  -1.826  1.00  0.00     0.190 HD
BRANCH   7  10
HETATM   10  C4  UNL     1      13.035  49.384   0.476  1.00  0.00     0.233 C 
BRANCH  10  11
HETATM   11  N6  UNL     1      12.706  50.789   0.536  1.00  0.00    -0.342 N 
HETATM   12  C5  UNL     1      11.756  51.390   1.273  1.00  0.00     0.110 A 
HETATM   13  C6  UNL     1      11.835  52.731   0.980  1.00  0.00     0.117 A 
HETATM   14  N7  UNL     1      12.824  52.933   0.074  1.00  0.00    -0.295 N 
HETATM   15  C8  UNL     1      13.352  51.719  -0.189  1.00  0.00     0.192 A 
BRANCH  14  16
HETATM   16  C7  UNL     1      13.225  54.170  -0.487  1.00  0.00     0.360 C 
HETATM   17  O2  UNL     1      13.713  54.243  -1.634  1.00  0.00    -0.283 OA
ENDBRANCH  14  16
ENDBRANCH  10  11
ENDBRANCH   7  10
ENDBRANCH   4   6
ENDBRANCH   3   4
BRANCH   3  18
HETATM   18  C9  UNL     1      11.598  45.233  -3.457  1.00  0.00     0.192 C 
BRANCH  18  19
HETATM   19  O3  UNL     1      11.983  44.527  -4.596  1.00  0.00    -0.388 OA
ATOM     20  H3  UNL     1      12.307  45.089  -5.290  1.00  0.00     0.210 HD
ENDBRANCH  18  19
BRANCH  18  21
HETATM   21  C10 UNL     1      10.298  45.955  -3.603  1.00  0.00     0.101 C 
BRANCH  21  22
HETATM   22  C11 UNL     1       9.115  45.042  -3.353  1.00  0.00     0.380 C 
BRANCH  22  23
HETATM   23  N8  UNL     1       7.879  45.564  -3.874  1.00  0.00    -0.050 N 
ATOM     24  H83 UNL     1       7.921  45.652  -4.890  1.00  0.00     0.276 HD
ATOM     25  H82 UNL     1       7.132  44.873  -3.797  1.00  0.00     0.276 HD
ATOM     26  H81 UNL     1       7.603  46.446  -3.444  1.00  0.00     0.276 HD
ENDBRANCH  22  23
BRANCH  22  27
HETATM   27  N9  UNL     1       9.420  43.726  -3.899  1.00  0.00    -0.050 N 
ATOM     28  H93 UNL     1       9.650  43.759  -4.893  1.00  0.00     0.276 HD
ATOM     29  H92 UNL     1      10.310  43.360  -3.561  1.00  0.00     0.276 HD
ATOM     30  H91 UNL     1       8.639  43.102  -3.699  1.00  0.00     0.276 HD
ENDBRANCH  22  27
ENDBRANCH  21  22
ENDBRANCH  18  21
ENDBRANCH   3  18
BRANCH   1  31
HETATM   31  N2  UNL     1      14.272  44.459  -2.879  1.00  0.00    -0.297 N 
HETATM   32  C1  UNL     1      15.396  44.088  -2.376  1.00  0.00     0.206 C 
HETATM   33  N1  UNL     1      15.892  42.755  -2.513  1.00  0.00    -0.095 NA
ATOM     34  H2  UNL     1      13.708  43.785  -3.397  1.00  0.00     0.187 HD
ENDBRANCH   1  31
TORSDOF 12
ENDMDL
MODEL 2
REMARK VINA RESULT: -8.309258498      1.439      3.308
REMARK  12 active torsions:
REMARK  status: ('A' for Active; 'I' for Inactive)
REMARK    1  A    between atoms: N2_3  and  N3_5 
REMARK    2  A    between atoms: C2_7  and  N4_8 
REMARK    3  A    between atoms: C2_7  and  C9_22 
REMARK    4  A    between atoms: N4_8  and  N5_10 
REMARK       I    between atoms: N5_10  and  C3_12 
REMARK    5  A    between atoms: C3_12  and  C4_14 
REMARK    6  A    between atoms: C4_14  and  N6_15 
REMARK    7  A    between atoms: N7_18  and  C7_19 
REMARK    8  A    between atoms: C9_22  and  O3_23 
REMARK    9  A    between atoms: C9_22  and  C10_25 
REMARK   10  A    between atoms: C10_25  and  C11_26 
REMARK   11  A    between atoms: C11_26  and  N8_27 
REMARK   12  A    between atoms: C11_26  and  N9_31 
ROOT
HETATM    1  N3  UNL     1      10.880  45.972  -3.883  1.00  0.00    -0.285 N 
ATOM      2  H3  UNL     1      10.404  46.749  -4.340  1.00  0.00     0.188 HD
HETATM    3  C2  UNL     1      11.900  46.258  -3.180  1.00  0.00     0.140 C 
ENDROOT
BRANCH   3   4
HETATM    4  N4  UNL     1      12.329  47.607  -3.061  1.00  0.00    -0.283 N 
ATOM      5  H4  UNL     1      12.371  48.219  -3.875  1.00  0.00     0.188 HD
BRANCH   4   6
HETATM    6  N5  UNL     1      12.698  48.078  -1.773  1.00  0.00    -0.267 N 
HETATM    7  C3  UNL     1      11.785  48.786  -0.954  1.00  0.00     0.254 C 
HETATM    8  O1  UNL     1      10.628  48.981  -1.424  1.00  0.00    -0.270 OA
ATOM      9  H5  UNL     1      13.642  47.901  -1.430  1.00  0.00     0.190 HD
BRANCH   7  10
HETATM   10  C4  UNL     1      12.210  49.252   0.370  1.00  0.00     0.233 C 
BRANCH  10  11
HETATM   11  N6  UNL     1      12.233  50.691   0.483  1.00  0.00    -0.342 N 
HETATM   12  C5  UNL     1      11.560  51.469   1.348  1.00  0.00     0.110 A 
HETATM   13  C6  UNL     1      11.913  52.765   1.053  1.00  0.00     0.117 A 
HETATM   14  N7  UNL     1      12.792  52.764   0.019  1.00  0.00    -0.295 N 
HETATM   15  C8  UNL     1      12.978  51.472  -0.321  1.00  0.00     0.192 A 
BRANCH  14  16
HETATM   16  C7  UNL     1      13.395  53.894  -0.584  1.00  0.00     0.360 C 
HETATM   17  O2  UNL     1      13.769  53.880  -1.776  1.00  0.00    -0.283 OA
ENDBRANCH  14  16
ENDBRANCH  10  11
ENDBRANCH   7  10
ENDBRANCH   4   6
ENDBRANCH   3   4
BRANCH   3  18
HETATM   18  C9  UNL     1      12.656  45.192  -2.485  1.00  0.00     0.192 C 
BRANCH  18  19
HETATM   19  O3  UNL     1      12.440  45.180  -1.107  1.00  0.00    -0.388 OA
ATOM     20  H3  UNL     1      11.594  45.533  -0.860  1.00  0.00     0.210 HD
ENDBRANCH  18  19
BRANCH  18  21
HETATM   21  C10 UNL     1      14.099  45.256  -2.871  1.00  0.00     0.101 C 
BRANCH  21  22
HETATM   22  C11 UNL     1      14.839  43.991  -2.490  1.00  0.00     0.380 C 
BRANCH  22  23
HETATM   23  N8  UNL     1      14.043  42.802  -2.645  1.00  0.00    -0.050 N 
ATOM     24  H83 UNL     1      13.245  42.975  -3.256  1.00  0.00     0.276 HD
ATOM     25  H82 UNL     1      14.535  42.105  -3.205  1.00  0.00     0.276 HD
ATOM     26  H81 UNL     1      13.739  42.405  -1.756  1.00  0.00     0.276 HD
ENDBRANCH  22  23
BRANCH  22  27
HETATM   27  N9  UNL     1      16.070  43.922  -3.267  1.00  0.00    -0.050 N 
ATOM     28  H93 UNL     1      16.643  44.760  -3.167  1.00  0.00     0.276 HD
ATOM     29  H92 UNL     1      16.736  43.250  -2.885  1.00  0.00     0.276 HD
ATOM     30  H91 UNL     1      15.831  43.726  -4.239  1.00  0.00     0.276 HD
ENDBRANCH  22  27
ENDBRANCH  21  22
ENDBRANCH  18  21
ENDBRANCH   3  18
BRANCH   1  31
HETATM   31  N2  UNL     1      10.356  44.718  -4.087  1.00  0.00    -0.297 N 
HETATM   32  C1  UNL     1      10.903  43.893  -4.908  1.00  0.00     0.206 C 
HETATM   33  N1  UNL     1      10.380  42.584  -5.139  1.00  0.00    -0.095 NA
ATOM     34  H2  UNL     1       9.518  44.437  -3.578  1.00  0.00     0.187 HD
ENDBRANCH   1  31
TORSDOF 12
ENDMDL
MODEL 3
REMARK VINA RESULT: -8.256556767      1.165      1.219
REMARK  12 active torsions:
REMARK  status: ('A' for Active; 'I' for Inactive)
REMARK    1  A    between atoms: N2_3  and  N3_5 
REMARK    2  A    between atoms: C2_7  and  N4_8 
REMARK    3  A    between atoms: C2_7  and  C9_22 
REMARK    4  A    between atoms: N4_8  and  N5_10 
REMARK       I    between atoms: N5_10  and  C3_12 
REMARK    5  A    between atoms: C3_12  and  C4_14 
REMARK    6  A    between atoms: C4_14  and  N6_15 
REMARK    7  A    between atoms: N7_18  and  C7_19 
REMARK    8  A    between atoms: C9_22  and  O3_23 
REMARK    9  A    between atoms: C9_22  and  C10_25 
REMARK   10  A    between atoms: C10_25  and  C11_26 
REMARK   11  A    between atoms: C11_26  and  N8_27 
REMARK   12  A    between atoms: C11_26  and  N9_31 
ROOT
HETATM    1  N3  UNL     1      14.096  46.027  -2.860  1.00  0.00    -0.285 N 
ATOM      2  H3  UNL     1      14.698  46.784  -2.536  1.00  0.00     0.188 HD
HETATM    3  C2  UNL     1      12.870  46.309  -3.048  1.00  0.00     0.140 C 
ENDROOT
BRANCH   3   4
HETATM    4  N4  UNL     1      12.397  47.627  -2.806  1.00  0.00    -0.283 N 
ATOM      5  H4  UNL     1      11.920  48.156  -3.535  1.00  0.00     0.188 HD
BRANCH   4   6
HETATM    6  N5  UNL     1      12.609  48.185  -1.518  1.00  0.00    -0.267 N 
HETATM    7  C3  UNL     1      11.577  48.865  -0.826  1.00  0.00     0.254 C 
HETATM    8  O1  UNL     1      10.459  48.953  -1.410  1.00  0.00    -0.270 OA
ATOM      9  H5  UNL     1      13.526  48.094  -1.081  1.00  0.00     0.190 HD
BRANCH   7  10
HETATM   10  C4  UNL     1      11.841  49.424   0.503  1.00  0.00     0.233 C 
BRANCH  10  11
HETATM   11  N6  UNL     1      12.050  50.853   0.484  1.00  0.00    -0.342 N 
HETATM   12  C5  UNL     1      11.590  51.773   1.350  1.00  0.00     0.110 A 
HETATM   13  C6  UNL     1      12.055  52.987   0.902  1.00  0.00     0.117 A 
HETATM   14  N7  UNL     1      12.789  52.797  -0.222  1.00  0.00    -0.295 N 
HETATM   15  C8  UNL     1      12.775  51.470  -0.466  1.00  0.00     0.192 A 
BRANCH  14  16
HETATM   16  C7  UNL     1      13.441  53.792  -0.990  1.00  0.00     0.360 C 
HETATM   17  O2  UNL     1      14.000  53.523  -2.074  1.00  0.00    -0.283 OA
ENDBRANCH  14  16
ENDBRANCH  10  11
ENDBRANCH   7  10
ENDBRANCH   4   6
ENDBRANCH   3   4
BRANCH   3  18
HETATM   18  C9  UNL     1      11.923  45.272  -3.512  1.00  0.00     0.192 C 
BRANCH  18  19
HETATM   19  O3  UNL     1      10.962  45.766  -4.394  1.00  0.00    -0.388 OA
ATOM     20  H3  UNL     1      10.293  45.127  -4.611  1.00  0.00     0.210 HD
ENDBRANCH  18  19
BRANCH  18  21
HETATM   21  C10 UNL     1      11.350  44.543  -2.339  1.00  0.00     0.101 C 
BRANCH  21  22
HETATM   22  C11 UNL     1      10.064  45.180  -1.855  1.00  0.00     0.380 C 
BRANCH  22  23
HETATM   23  N8  UNL     1       8.926  44.845  -2.670  1.00  0.00    -0.050 N 
ATOM     24  H83 UNL     1       8.412  45.684  -2.939  1.00  0.00     0.276 HD
ATOM     25  H82 UNL     1       9.221  44.526  -3.593  1.00  0.00     0.276 HD
ATOM     26  H81 UNL     1       8.305  44.164  -2.232  1.00  0.00     0.276 HD
ENDBRANCH  22  23
BRANCH  22  27
HETATM   27  N9  UNL     1       9.858  44.807  -0.461  1.00  0.00    -0.050 N 
ATOM     28  H93 UNL     1      10.595  44.198  -0.106  1.00  0.00     0.276 HD
ATOM     29  H92 UNL     1      10.002  45.590   0.177  1.00  0.00     0.276 HD
ATOM     30  H91 UNL     1       8.931  44.393  -0.368  1.00  0.00     0.276 HD
ENDBRANCH  22  27
ENDBRANCH  21  22
ENDBRANCH  18  21
ENDBRANCH   3  18
BRANCH   1  31
HETATM   31  N2  UNL     1      14.689  44.802  -3.051  1.00  0.00    -0.297 N 
HETATM   32  C1  UNL     1      15.654  44.406  -2.299  1.00  0.00     0.206 C 
HETATM   33  N1  UNL     1      16.289  43.137  -2.474  1.00  0.00    -0.095 NA
ATOM     34  H2  UNL     1      14.357  44.197  -3.801  1.00  0.00     0.187 HD
ENDBRANCH   1  31
TORSDOF 12
ENDMDL
MODEL 4
REMARK VINA RESULT: -8.195936817      1.339      3.369
REMARK  12 active torsions:
REMARK  status: ('A' for Active; 'I' for Inactive)
REMARK    1  A    between atoms: N2_3  and  N3_5 
REMARK    2  A    between atoms: C2_7  and  N4_8 
REMARK    3  A    between atoms: C2_7  and  C9_22 
REMARK    4  A    between atoms: N4_8  and  N5_10 
REMARK       I    between atoms: N5_10  and  C3_12 
REMARK    5  A    between atoms: C3_12  and  C4_14 
REMARK    6  A    between atoms: C4_14  and  N6_15 
REMARK    7  A    between atoms: N7_18  and  C7_19 
REMARK    8  A    between atoms: C9_22  and  O3_23 
REMARK    9  A    between atoms: C9_22  and  C10_25 
REMARK   10  A    between atoms: C10_25  and  C11_26 
REMARK   11  A    between atoms: C11_26  and  N8_27 
REMARK   12  A    between atoms: C11_26  and  N9_31 
ROOT
HETATM    1  N3  UNL     1       9.767  45.338  -3.046  1.00  0.00    -0.285 N 
ATOM      2  H3  UNL     1       8.844  45.298  -2.615  1.00  0.00     0.188 HD
HETATM    3  C2  UNL     1      10.676  45.949  -2.399  1.00  0.00     0.140 C 
ENDROOT
BRANCH   3   4
HETATM    4  N4  UNL     1      10.382  46.536  -1.139  1.00  0.00    -0.283 N 
ATOM      5  H4  UNL     1       9.445  46.485  -0.741  1.00  0.00     0.188 HD
BRANCH   4   6
HETATM    6  N5  UNL     1      11.434  47.196  -0.451  1.00  0.00    -0.267 N 
HETATM    7  C3  UNL     1      11.678  48.580  -0.624  1.00  0.00     0.254 C 
HETATM    8  O1  UNL     1      10.917  49.199  -1.421  1.00  0.00    -0.270 OA
ATOM      9  H5  UNL     1      12.027  46.661   0.183  1.00  0.00     0.190 HD
BRANCH   7  10
HETATM   10  C4  UNL     1      12.776  49.220   0.108  1.00  0.00     0.233 C 
BRANCH  10  11
HETATM   11  N6  UNL     1      12.548  50.625   0.355  1.00  0.00    -0.342 N 
HETATM   12  C5  UNL     1      11.698  51.189   1.231  1.00  0.00     0.110 A 
HETATM   13  C6  UNL     1      11.846  52.549   1.087  1.00  0.00     0.117 A 
HETATM   14  N7  UNL     1      12.777  52.798   0.132  1.00  0.00    -0.295 N 
HETATM   15  C8  UNL     1      13.201  51.595  -0.309  1.00  0.00     0.192 A 
BRANCH  14  16
HETATM   16  C7  UNL     1      13.219  54.067  -0.313  1.00  0.00     0.360 C 
HETATM   17  O2  UNL     1      13.652  54.242  -1.471  1.00  0.00    -0.283 OA
ENDBRANCH  14  16
ENDBRANCH  10  11
ENDBRANCH   7  10
ENDBRANCH   4   6
ENDBRANCH   3   4
BRANCH   3  18
HETATM   18  C9  UNL     1      12.044  46.062  -2.951  1.00  0.00     0.192 C 
BRANCH  18  19
HETATM   19  O3  UNL     1      12.065  46.512  -4.271  1.00  0.00    -0.388 OA
ATOM     20  H3  UNL     1      12.042  47.459  -4.341  1.00  0.00     0.210 HD
ENDBRANCH  18  19
BRANCH  18  21
HETATM   21  C10 UNL     1      12.787  44.783  -2.736  1.00  0.00     0.101 C 
BRANCH  21  22
HETATM   22  C11 UNL     1      14.207  45.028  -2.270  1.00  0.00     0.380 C 
BRANCH  22  23
HETATM   23  N8  UNL     1      15.164  44.145  -2.883  1.00  0.00    -0.050 N 
ATOM     24  H83 UNL     1      14.939  43.170  -2.683  1.00  0.00     0.276 HD
ATOM     25  H82 UNL     1      15.053  44.137  -3.898  1.00  0.00     0.276 HD
ATOM     26  H81 UNL     1      16.127  44.356  -2.624  1.00  0.00     0.276 HD
ENDBRANCH  22  23
BRANCH  22  27
HETATM   27  N9  UNL     1      14.537  46.428  -2.502  1.00  0.00    -0.050 N 
ATOM     28  H93 UNL     1      13.753  47.052  -2.309  1.00  0.00     0.276 HD
ATOM     29  H92 UNL     1      15.186  46.797  -1.807  1.00  0.00     0.276 HD
ATOM     30  H91 UNL     1      14.888  46.526  -3.455  1.00  0.00     0.276 HD
ENDBRANCH  22  27
ENDBRANCH  21  22
ENDBRANCH  18  21
ENDBRANCH   3  18
BRANCH   1  31
HETATM   31  N2  UNL     1       9.907  44.727  -4.269  1.00  0.00    -0.297 N 
HETATM   32  C1  UNL     1      10.184  43.474  -4.359  1.00  0.00     0.206 C 
HETATM   33  N1  UNL     1      10.334  42.813  -5.617  1.00  0.00    -0.095 NA
ATOM     34  H2  UNL     1       9.790  45.277  -5.120  1.00  0.00     0.187 HD
ENDBRANCH   1  31
TORSDOF 12
ENDMDL
MODEL 5
REMARK VINA RESULT: -8.082718076      2.094      2.797
REMARK  12 active torsions:
REMARK  status: ('A' for Active; 'I' for Inactive)
REMARK    1  A    between atoms: N2_3  and  N3_5 
REMARK    2  A    between atoms: C2_7  and  N4_8 
REMARK    3  A    between atoms: C2_7  and  C9_22 
REMARK    4  A    between atoms: N4_8  and  N5_10 
REMARK       I    between atoms: N5_10  and  C3_12 
REMARK    5  A    between atoms: C3_12  and  C4_14 
REMARK    6  A    between atoms: C4_14  and  N6_15 
REMARK    7  A    between atoms: N7_18  and  C7_19 
REMARK    8  A    between atoms: C9_22  and  O3_23 
REMARK    9  A    between atoms: C9_22  and  C10_25 
REMARK   10  A    between atoms: C10_25  and  C11_26 
REMARK   11  A    between atoms: C11_26  and  N8_27 
REMARK   12  A    between atoms: C11_26  and  N9_31 
ROOT
HETATM    1  N3  UNL     1      10.371  45.683  -1.037  1.00  0.00    -0.285 N 
ATOM      2  H3  UNL     1      10.058  46.511  -0.529  1.00  0.00     0.188 HD
HETATM    3  C2  UNL     1      11.040  45.883  -2.101  1.00  0.00     0.140 C 
ENDROOT
BRANCH   3   4
HETATM    4  N4  UNL     1      11.318  47.208  -2.531  1.00  0.00    -0.283 N 
ATOM      5  H4  UNL     1      10.808  47.627  -3.308  1.00  0.00     0.188 HD
BRANCH   4   6
HETATM    6  N5  UNL     1      12.327  47.933  -1.844  1.00  0.00    -0.267 N 
HETATM    7  C3  UNL     1      12.069  48.575  -0.609  1.00  0.00     0.254 C 
HETATM    8  O1  UNL     1      10.896  48.474  -0.148  1.00  0.00    -0.270 OA
ATOM      9  H5  UNL     1      13.261  47.992  -2.251  1.00  0.00     0.190 HD
BRANCH   7  10
HETATM   10  C4  UNL     1      13.143  49.312   0.064  1.00  0.00     0.233 C 
BRANCH  10  11
HETATM   11  N6  UNL     1      12.804  50.690   0.330  1.00  0.00    -0.342 N 
HETATM   12  C5  UNL     1      11.912  51.172   1.212  1.00  0.00     0.110 A 
HETATM   13  C6  UNL     1      11.950  52.542   1.087  1.00  0.00     0.117 A 
HETATM   14  N7  UNL     1      12.858  52.877   0.136  1.00  0.00    -0.295 N 
HETATM   15  C8  UNL     1      13.376  51.718  -0.321  1.00  0.00     0.192 A 
BRANCH  14  16
HETATM   16  C7  UNL     1      13.196  54.184  -0.292  1.00  0.00     0.360 C 
HETATM   17  O2  UNL     1      13.591  54.411  -1.454  1.00  0.00    -0.283 OA
ENDBRANCH  14  16
ENDBRANCH  10  11
ENDBRANCH   7  10
ENDBRANCH   4   6
ENDBRANCH   3   4
BRANCH   3  18
HETATM   18  C9  UNL     1      11.530  44.741  -2.904  1.00  0.00     0.192 C 
BRANCH  18  19
HETATM   19  O3  UNL     1      12.726  45.015  -3.568  1.00  0.00    -0.388 OA
ATOM     20  H3  UNL     1      12.702  44.783  -4.489  1.00  0.00     0.210 HD
ENDBRANCH  18  19
BRANCH  18  21
HETATM   21  C10 UNL     1      10.441  44.243  -3.799  1.00  0.00     0.101 C 
BRANCH  21  22
HETATM   22  C11 UNL     1      10.742  42.859  -4.335  1.00  0.00     0.380 C 
BRANCH  22  23
HETATM   23  N8  UNL     1      11.238  42.872  -5.686  1.00  0.00    -0.050 N 
ATOM     24  H83 UNL     1      10.931  42.042  -6.194  1.00  0.00     0.276 HD
ATOM     25  H82 UNL     1      10.769  43.590  -6.239  1.00  0.00     0.276 HD
ATOM     26  H81 UNL     1      12.251  42.975  -5.740  1.00  0.00     0.276 HD
ENDBRANCH  22  23
BRANCH  22  27
HETATM   27  N9  UNL     1      11.670  42.200  -3.424  1.00  0.00    -0.050 N 
ATOM     28  H93 UNL     1      11.314  42.155  -2.469  1.00  0.00     0.276 HD
ATOM     29  H92 UNL     1      11.740  41.197  -3.597  1.00  0.00     0.276 HD
ATOM     30  H91 UNL     1      12.573  42.671  -3.483  1.00  0.00     0.276 HD
ENDBRANCH  22  27
ENDBRANCH  21  22
ENDBRANCH  18  21
ENDBRANCH   3  18
BRANCH   1  31
HETATM   31  N2  UNL     1      10.029  44.464  -0.506  1.00  0.00    -0.297 N 
HETATM   32  C1  UNL     1      10.017  44.271   0.766  1.00  0.00     0.206 C 
HETATM   33  N1  UNL     1       9.665  43.014   1.346  1.00  0.00    -0.095 NA
ATOM     34  H2  UNL     1       9.779  43.697  -1.131  1.00  0.00     0.187 HD
ENDBRANCH   1  31
TORSDOF 12
ENDMDL
