MODEL 1
REMARK VINA RESULT: -7.969233871      0.000      0.000
REMARK  13 active torsions:
REMARK  status: ('A' for Active; 'I' for Inactive)
REMARK    1  A    between atoms: N1_1  and  C1_5 
REMARK    2  A    between atoms: C1_5  and  C2_6 
REMARK    3  A    between atoms: C2_6  and  N2_7 
REMARK    4  A    between atoms: N2_7  and  C3_10 
REMARK    5  A    between atoms: C3_10  and  C4_11 
REMARK       I    between atoms: C4_11  and  N3_13 
REMARK    6  A    between atoms: N3_13  and  C5_15 
REMARK    7  A    between atoms: N5_20  and  C7_21 
REMARK    8  A    between atoms: C7_21  and  C8_22 
REMARK    9  A    between atoms: C8_22  and  N6_23 
REMARK   10  A    between atoms: N6_23  and  C9_25 
REMARK   11  A    between atoms: C9_25  and  C10_26 
REMARK   12  A    between atoms: C10_26  and  N7_27 
REMARK   13  A    between atoms: N7_27  and  N8_28 
ROOT
HETATM    1  C5  UNL     1      79.829  27.488  -2.647  1.00  0.00     0.273 C 
HETATM    2  C6  UNL     1      78.662  28.180  -2.064  1.00  0.00     0.268 C 
HETATM    3  O2  UNL     1      78.660  29.350  -1.647  1.00  0.00    -0.269 OA
HETATM    4  N4  UNL     1      77.594  27.244  -2.090  1.00  0.00    -0.263 N 
ATOM      5  H4  UNL     1      76.710  27.352  -1.593  1.00  0.00     0.190 HD
HETATM    6  N5  UNL     1      77.928  26.163  -2.889  1.00  0.00    -0.255 N 
HETATM    7  C11 UNL     1      79.222  26.372  -3.401  1.00  0.00     0.270 C 
HETATM    8  O3  UNL     1      79.796  25.726  -4.350  1.00  0.00    -0.269 OA
ENDROOT
BRANCH   1   9
HETATM    9  N3  UNL     1      80.598  26.933  -1.556  1.00  0.00    -0.339 N 
HETATM   10  C4  UNL     1      82.003  26.953  -1.584  1.00  0.00     0.244 C 
HETATM   11  O1  UNL     1      82.598  27.453  -2.557  1.00  0.00    -0.272 OA
ATOM     12  H3  UNL     1      80.115  26.523  -0.757  1.00  0.00     0.163 HD
BRANCH  10  13
HETATM   13  C3  UNL     1      82.774  26.387  -0.469  1.00  0.00     0.334 C 
BRANCH  13  14
HETATM   14  N2  UNL     1      83.147  25.036  -0.786  1.00  0.00    -0.065 N 
ATOM     15  H22 UNL     1      83.300  24.923  -1.789  1.00  0.00     0.277 HD
ATOM     16  H21 UNL     1      82.359  24.399  -0.668  1.00  0.00     0.277 HD
BRANCH  14  17
HETATM   17  C2  UNL     1      84.299  24.587  -0.029  1.00  0.00     0.260 C 
BRANCH  17  18
HETATM   18  C1  UNL     1      85.542  25.376  -0.442  1.00  0.00     0.257 C 
BRANCH  18  19
HETATM   19  N1  UNL     1      86.203  24.629  -1.519  1.00  0.00    -0.078 N 
ATOM     20  H13 UNL     1      87.191  24.456  -1.334  1.00  0.00     0.274 HD
ATOM     21  H12 UNL     1      85.904  23.655  -1.569  1.00  0.00     0.274 HD
ATOM     22  H11 UNL     1      86.045  25.139  -2.389  1.00  0.00     0.274 HD
ENDBRANCH  18  19
ENDBRANCH  17  18
ENDBRANCH  14  17
ENDBRANCH  13  14
ENDBRANCH  10  13
ENDBRANCH   1   9
BRANCH   6  23
HETATM   23  C7  UNL     1      77.083  25.002  -3.158  1.00  0.00     0.171 C 
BRANCH  23  24
HETATM   24  C8  UNL     1      77.834  23.826  -2.538  1.00  0.00     0.135 C 
BRANCH  24  25
HETATM   25  N6  UNL     1      78.208  22.907  -3.563  1.00  0.00    -0.418 N 
ATOM     26  H6  UNL     1      79.117  22.945  -4.026  1.00  0.00     0.153 HD
BRANCH  25  27
HETATM   27  C9  UNL     1      77.220  21.931  -3.892  1.00  0.00     0.131 C 
BRANCH  27  28
HETATM   28  C10 UNL     1      77.669  20.512  -3.789  1.00  0.00     0.153 C 
BRANCH  28  29
HETATM   29  N7  UNL     1      78.462  20.065  -4.894  1.00  0.00    -0.147 NA
BRANCH  29  30
HETATM   30  N8  UNL     1      79.789  19.906  -4.551  1.00  0.00    -0.348 N 
ATOM     31  H82 UNL     1      80.128  19.128  -3.986  1.00  0.00     0.172 HD
ATOM     32  H81 UNL     1      80.377  20.650  -4.927  1.00  0.00     0.172 HD
ENDBRANCH  29  30
ENDBRANCH  28  29
ENDBRANCH  27  28
ENDBRANCH  25  27
ENDBRANCH  24  25
ENDBRANCH  23  24
ENDBRANCH   6  23
TORSDOF 13
ENDMDL
MODEL 2
REMARK VINA RESULT: -7.727980597      2.006      6.320
REMARK  13 active torsions:
REMARK  status: ('A' for Active; 'I' for Inactive)
REMARK    1  A    between atoms: N1_1  and  C1_5 
REMARK    2  A    between atoms: C1_5  and  C2_6 
REMARK    3  A    between atoms: C2_6  and  N2_7 
REMARK    4  A    between atoms: N2_7  and  C3_10 
REMARK    5  A    between atoms: C3_10  and  C4_11 
REMARK       I    between atoms: C4_11  and  N3_13 
REMARK    6  A    between atoms: N3_13  and  C5_15 
REMARK    7  A    between atoms: N5_20  and  C7_21 
REMARK    8  A    between atoms: C7_21  and  C8_22 
REMARK    9  A    between atoms: C8_22  and  N6_23 
REMARK   10  A    between atoms: N6_23  and  C9_25 
REMARK   11  A    between atoms: C9_25  and  C10_26 
REMARK   12  A    between atoms: C10_26  and  N7_27 
REMARK   13  A    between atoms: N7_27  and  N8_28 
ROOT
HETATM    1  C5  UNL     1      77.101  24.902  -2.744  1.00  0.00     0.273 C 
HETATM    2  C6  UNL     1      76.398  26.059  -3.335  1.00  0.00     0.268 C 
HETATM    3  O2  UNL     1      75.171  26.248  -3.292  1.00  0.00    -0.269 OA
HETATM    4  N4  UNL     1      77.402  26.866  -3.936  1.00  0.00    -0.263 N 
ATOM      5  H4  UNL     1      77.224  27.635  -4.582  1.00  0.00     0.190 HD
HETATM    6  N5  UNL     1      78.656  26.456  -3.516  1.00  0.00    -0.255 N 
HETATM    7  C11 UNL     1      78.497  25.372  -2.632  1.00  0.00     0.270 C 
HETATM    8  O3  UNL     1      79.385  24.864  -1.858  1.00  0.00    -0.269 OA
ENDROOT
BRANCH   1   9
HETATM    9  N3  UNL     1      77.060  23.827  -3.708  1.00  0.00    -0.339 N 
HETATM   10  C4  UNL     1      77.091  22.485  -3.290  1.00  0.00     0.244 C 
HETATM   11  O1  UNL     1      77.153  22.214  -2.077  1.00  0.00    -0.272 OA
ATOM     12  H3  UNL     1      77.009  24.043  -4.704  1.00  0.00     0.163 HD
BRANCH  10  13
HETATM   13  C3  UNL     1      77.048  21.400  -4.279  1.00  0.00     0.334 C 
BRANCH  13  14
HETATM   14  N2  UNL     1      78.294  20.684  -4.254  1.00  0.00    -0.065 N 
ATOM     15  H22 UNL     1      78.994  21.185  -3.707  1.00  0.00     0.277 HD
ATOM     16  H21 UNL     1      78.751  20.710  -5.166  1.00  0.00     0.277 HD
BRANCH  14  17
HETATM   17  C2  UNL     1      78.140  19.321  -3.785  1.00  0.00     0.260 C 
BRANCH  17  18
HETATM   18  C1  UNL     1      79.170  19.018  -2.697  1.00  0.00     0.257 C 
BRANCH  18  19
HETATM   19  N1  UNL     1      78.733  19.697  -1.472  1.00  0.00    -0.078 N 
ATOM     20  H13 UNL     1      78.020  20.406  -1.643  1.00  0.00     0.274 HD
ATOM     21  H12 UNL     1      78.181  19.096  -0.860  1.00  0.00     0.274 HD
ATOM     22  H11 UNL     1      79.564  20.073  -1.014  1.00  0.00     0.274 HD
ENDBRANCH  18  19
ENDBRANCH  17  18
ENDBRANCH  14  17
ENDBRANCH  13  14
ENDBRANCH  10  13
ENDBRANCH   1   9
BRANCH   6  23
HETATM   23  C7  UNL     1      79.931  27.047  -3.918  1.00  0.00     0.171 C 
BRANCH  23  24
HETATM   24  C8  UNL     1      80.137  28.212  -2.952  1.00  0.00     0.135 C 
BRANCH  24  25
HETATM   25  N6  UNL     1      80.781  27.741  -1.770  1.00  0.00    -0.418 N 
ATOM     26  H6  UNL     1      80.404  27.911  -0.837  1.00  0.00     0.153 HD
BRANCH  25  27
HETATM   27  C9  UNL     1      81.991  27.015  -1.986  1.00  0.00     0.131 C 
BRANCH  27  28
HETATM   28  C10 UNL     1      82.685  26.554  -0.749  1.00  0.00     0.153 C 
BRANCH  28  29
HETATM   29  N7  UNL     1      82.671  25.135  -0.562  1.00  0.00    -0.147 NA
BRANCH  29  30
HETATM   30  N8  UNL     1      83.942  24.597  -0.561  1.00  0.00    -0.348 N 
ATOM     31  H82 UNL     1      84.363  24.168   0.263  1.00  0.00     0.172 HD
ATOM     32  H81 UNL     1      84.397  24.682  -1.470  1.00  0.00     0.172 HD
ENDBRANCH  29  30
ENDBRANCH  28  29
ENDBRANCH  27  28
ENDBRANCH  25  27
ENDBRANCH  24  25
ENDBRANCH  23  24
ENDBRANCH   6  23
TORSDOF 13
ENDMDL
MODEL 3
REMARK VINA RESULT: -7.651203744      1.352      1.520
REMARK  13 active torsions:
REMARK  status: ('A' for Active; 'I' for Inactive)
REMARK    1  A    between atoms: N1_1  and  C1_5 
REMARK    2  A    between atoms: C1_5  and  C2_6 
REMARK    3  A    between atoms: C2_6  and  N2_7 
REMARK    4  A    between atoms: N2_7  and  C3_10 
REMARK    5  A    between atoms: C3_10  and  C4_11 
REMARK       I    between atoms: C4_11  and  N3_13 
REMARK    6  A    between atoms: N3_13  and  C5_15 
REMARK    7  A    between atoms: N5_20  and  C7_21 
REMARK    8  A    between atoms: C7_21  and  C8_22 
REMARK    9  A    between atoms: C8_22  and  N6_23 
REMARK   10  A    between atoms: N6_23  and  C9_25 
REMARK   11  A    between atoms: C9_25  and  C10_26 
REMARK   12  A    between atoms: C10_26  and  N7_27 
REMARK   13  A    between atoms: N7_27  and  N8_28 
ROOT
HETATM    1  C5  UNL     1      79.846  27.644  -2.661  1.00  0.00     0.273 C 
HETATM    2  C6  UNL     1      78.727  28.405  -2.069  1.00  0.00     0.268 C 
HETATM    3  O2  UNL     1      78.806  29.562  -1.623  1.00  0.00    -0.269 OA
HETATM    4  N4  UNL     1      77.595  27.549  -2.124  1.00  0.00    -0.263 N 
ATOM      5  H4  UNL     1      76.716  27.709  -1.630  1.00  0.00     0.190 HD
HETATM    6  N5  UNL     1      77.857  26.466  -2.946  1.00  0.00    -0.255 N 
HETATM    7  C11 UNL     1      79.167  26.593  -3.445  1.00  0.00     0.270 C 
HETATM    8  O3  UNL     1      79.700  25.931  -4.406  1.00  0.00    -0.269 OA
ENDROOT
BRANCH   1   9
HETATM    9  N3  UNL     1      80.564  27.010  -1.579  1.00  0.00    -0.339 N 
HETATM   10  C4  UNL     1      81.969  26.958  -1.582  1.00  0.00     0.244 C 
HETATM   11  O1  UNL     1      82.607  27.462  -2.524  1.00  0.00    -0.272 OA
ATOM     12  H3  UNL     1      80.046  26.596  -0.804  1.00  0.00     0.163 HD
BRANCH  10  13
HETATM   13  C3  UNL     1      82.688  26.312  -0.476  1.00  0.00     0.334 C 
BRANCH  13  14
HETATM   14  N2  UNL     1      83.221  25.055  -0.926  1.00  0.00    -0.065 N 
ATOM     15  H22 UNL     1      83.498  25.103  -1.906  1.00  0.00     0.277 HD
ATOM     16  H21 UNL     1      82.489  24.349  -0.997  1.00  0.00     0.277 HD
BRANCH  14  17
HETATM   17  C2  UNL     1      84.316  24.589  -0.096  1.00  0.00     0.260 C 
BRANCH  17  18
HETATM   18  C1  UNL     1      85.595  25.355  -0.431  1.00  0.00     0.257 C 
BRANCH  18  19
HETATM   19  N1  UNL     1      86.285  24.620  -1.498  1.00  0.00    -0.078 N 
ATOM     20  H13 UNL     1      87.296  24.582  -1.364  1.00  0.00     0.274 HD
ATOM     21  H12 UNL     1      86.108  23.616  -1.468  1.00  0.00     0.274 HD
ATOM     22  H11 UNL     1      86.018  25.044  -2.387  1.00  0.00     0.274 HD
ENDBRANCH  18  19
ENDBRANCH  17  18
ENDBRANCH  14  17
ENDBRANCH  13  14
ENDBRANCH  10  13
ENDBRANCH   1   9
BRANCH   6  23
HETATM   23  C7  UNL     1      76.932  25.375  -3.249  1.00  0.00     0.171 C 
BRANCH  23  24
HETATM   24  C8  UNL     1      77.710  24.105  -2.909  1.00  0.00     0.135 C 
BRANCH  24  25
HETATM   25  N6  UNL     1      77.164  23.005  -3.633  1.00  0.00    -0.418 N 
ATOM     26  H6  UNL     1      76.750  23.111  -4.559  1.00  0.00     0.153 HD
BRANCH  25  27
HETATM   27  C9  UNL     1      77.238  21.745  -2.967  1.00  0.00     0.131 C 
BRANCH  27  28
HETATM   28  C10 UNL     1      77.609  21.809  -1.524  1.00  0.00     0.153 C 
BRANCH  28  29
HETATM   29  N7  UNL     1      78.382  20.695  -1.066  1.00  0.00    -0.147 NA
BRANCH  29  30
HETATM   30  N8  UNL     1      78.083  20.354   0.238  1.00  0.00    -0.348 N 
ATOM     31  H82 UNL     1      77.641  19.471   0.495  1.00  0.00     0.172 HD
ATOM     32  H81 UNL     1      78.355  21.082   0.898  1.00  0.00     0.172 HD
ENDBRANCH  29  30
ENDBRANCH  28  29
ENDBRANCH  27  28
ENDBRANCH  25  27
ENDBRANCH  24  25
ENDBRANCH  23  24
ENDBRANCH   6  23
TORSDOF 13
ENDMDL
MODEL 4
REMARK VINA RESULT: -7.643595682      2.155      6.697
REMARK  13 active torsions:
REMARK  status: ('A' for Active; 'I' for Inactive)
REMARK    1  A    between atoms: N1_1  and  C1_5 
REMARK    2  A    between atoms: C1_5  and  C2_6 
REMARK    3  A    between atoms: C2_6  and  N2_7 
REMARK    4  A    between atoms: N2_7  and  C3_10 
REMARK    5  A    between atoms: C3_10  and  C4_11 
REMARK       I    between atoms: C4_11  and  N3_13 
REMARK    6  A    between atoms: N3_13  and  C5_15 
REMARK    7  A    between atoms: N5_20  and  C7_21 
REMARK    8  A    between atoms: C7_21  and  C8_22 
REMARK    9  A    between atoms: C8_22  and  N6_23 
REMARK   10  A    between atoms: N6_23  and  C9_25 
REMARK   11  A    between atoms: C9_25  and  C10_26 
REMARK   12  A    between atoms: C10_26  and  N7_27 
REMARK   13  A    between atoms: N7_27  and  N8_28 
ROOT
HETATM    1  C5  UNL     1      77.355  24.823  -2.663  1.00  0.00     0.273 C 
HETATM    2  C6  UNL     1      76.730  26.046  -3.209  1.00  0.00     0.268 C 
HETATM    3  O2  UNL     1      75.522  26.324  -3.137  1.00  0.00    -0.269 OA
HETATM    4  N4  UNL     1      77.781  26.793  -3.805  1.00  0.00    -0.263 N 
ATOM      5  H4  UNL     1      77.650  27.592  -4.426  1.00  0.00     0.190 HD
HETATM    6  N5  UNL     1      79.008  26.279  -3.422  1.00  0.00    -0.255 N 
HETATM    7  C11 UNL     1      78.784  25.185  -2.566  1.00  0.00     0.270 C 
HETATM    8  O3  UNL     1      79.644  24.590  -1.823  1.00  0.00    -0.269 OA
ENDROOT
BRANCH   1   9
HETATM    9  N3  UNL     1      77.217  23.782  -3.656  1.00  0.00    -0.339 N 
HETATM   10  C4  UNL     1      77.191  22.428  -3.279  1.00  0.00     0.244 C 
HETATM   11  O1  UNL     1      77.287  22.117  -2.078  1.00  0.00    -0.272 OA
ATOM     12  H3  UNL     1      77.139  24.033  -4.642  1.00  0.00     0.163 HD
BRANCH  10  13
HETATM   13  C3  UNL     1      77.050  21.379  -4.298  1.00  0.00     0.334 C 
BRANCH  13  14
HETATM   14  N2  UNL     1      78.269  20.622  -4.372  1.00  0.00    -0.065 N 
ATOM     15  H22 UNL     1      79.032  21.105  -3.897  1.00  0.00     0.277 HD
ATOM     16  H21 UNL     1      78.644  20.621  -5.321  1.00  0.00     0.277 HD
BRANCH  14  17
HETATM   17  C2  UNL     1      78.114  19.270  -3.871  1.00  0.00     0.260 C 
BRANCH  17  18
HETATM   18  C1  UNL     1      79.191  18.966  -2.830  1.00  0.00     0.257 C 
BRANCH  18  19
HETATM   19  N1  UNL     1      78.773  19.584  -1.566  1.00  0.00    -0.078 N 
ATOM     20  H13 UNL     1      78.057  20.300  -1.691  1.00  0.00     0.274 HD
ATOM     21  H12 UNL     1      78.230  18.953  -0.976  1.00  0.00     0.274 HD
ATOM     22  H11 UNL     1      79.611  19.938  -1.103  1.00  0.00     0.274 HD
ENDBRANCH  18  19
ENDBRANCH  17  18
ENDBRANCH  14  17
ENDBRANCH  13  14
ENDBRANCH  10  13
ENDBRANCH   1   9
BRANCH   6  23
HETATM   23  C7  UNL     1      80.316  26.786  -3.832  1.00  0.00     0.171 C 
BRANCH  23  24
HETATM   24  C8  UNL     1      80.886  27.442  -2.576  1.00  0.00     0.135 C 
BRANCH  24  25
HETATM   25  N6  UNL     1      82.071  26.758  -2.177  1.00  0.00    -0.418 N 
ATOM     26  H6  UNL     1      82.683  26.289  -2.845  1.00  0.00     0.153 HD
BRANCH  25  27
HETATM   27  C9  UNL     1      82.340  26.777  -0.775  1.00  0.00     0.131 C 
BRANCH  27  28
HETATM   28  C10 UNL     1      83.619  26.128  -0.364  1.00  0.00     0.153 C 
BRANCH  28  29
HETATM   29  N7  UNL     1      84.368  26.869   0.605  1.00  0.00    -0.147 NA
BRANCH  29  30
HETATM   30  N8  UNL     1      85.541  26.231   0.954  1.00  0.00    -0.348 N 
ATOM     31  H82 UNL     1      86.064  25.637   0.312  1.00  0.00     0.172 HD
ATOM     32  H81 UNL     1      85.813  26.427   1.918  1.00  0.00     0.172 HD
ENDBRANCH  29  30
ENDBRANCH  28  29
ENDBRANCH  27  28
ENDBRANCH  25  27
ENDBRANCH  24  25
ENDBRANCH  23  24
ENDBRANCH   6  23
TORSDOF 13
ENDMDL
MODEL 5
REMARK VINA RESULT: -7.366402877      1.530      1.797
REMARK  13 active torsions:
REMARK  status: ('A' for Active; 'I' for Inactive)
REMARK    1  A    between atoms: N1_1  and  C1_5 
REMARK    2  A    between atoms: C1_5  and  C2_6 
REMARK    3  A    between atoms: C2_6  and  N2_7 
REMARK    4  A    between atoms: N2_7  and  C3_10 
REMARK    5  A    between atoms: C3_10  and  C4_11 
REMARK       I    between atoms: C4_11  and  N3_13 
REMARK    6  A    between atoms: N3_13  and  C5_15 
REMARK    7  A    between atoms: N5_20  and  C7_21 
REMARK    8  A    between atoms: C7_21  and  C8_22 
REMARK    9  A    between atoms: C8_22  and  N6_23 
REMARK   10  A    between atoms: N6_23  and  C9_25 
REMARK   11  A    between atoms: C9_25  and  C10_26 
REMARK   12  A    between atoms: C10_26  and  N7_27 
REMARK   13  A    between atoms: N7_27  and  N8_28 
ROOT
HETATM    1  C5  UNL     1      79.985  27.590  -2.350  1.00  0.00     0.273 C 
HETATM    2  C6  UNL     1      79.174  28.295  -1.337  1.00  0.00     0.268 C 
HETATM    3  O2  UNL     1      79.627  29.032  -0.446  1.00  0.00    -0.269 OA
HETATM    4  N4  UNL     1      77.822  27.949  -1.604  1.00  0.00    -0.263 N 
ATOM      5  H4  UNL     1      77.039  28.124  -0.974  1.00  0.00     0.190 HD
HETATM    6  N5  UNL     1      77.722  27.342  -2.844  1.00  0.00    -0.255 N 
HETATM    7  C11 UNL     1      79.008  27.278  -3.413  1.00  0.00     0.270 C 
HETATM    8  O3  UNL     1      79.306  27.004  -4.630  1.00  0.00    -0.269 OA
ENDROOT
BRANCH   1   9
HETATM    9  N3  UNL     1      80.431  26.346  -1.766  1.00  0.00    -0.339 N 
HETATM   10  C4  UNL     1      81.715  26.235  -1.204  1.00  0.00     0.244 C 
HETATM   11  O1  UNL     1      82.481  27.216  -1.209  1.00  0.00    -0.272 OA
ATOM     12  H3  UNL     1      79.807  25.539  -1.760  1.00  0.00     0.163 HD
BRANCH  10  13
HETATM   13  C3  UNL     1      82.157  24.965  -0.612  1.00  0.00     0.334 C 
BRANCH  13  14
HETATM   14  N2  UNL     1      83.529  24.727  -0.967  1.00  0.00    -0.065 N 
ATOM     15  H22 UNL     1      83.834  25.362  -1.705  1.00  0.00     0.277 HD
ATOM     16  H21 UNL     1      83.632  23.841  -1.461  1.00  0.00     0.277 HD
BRANCH  14  17
HETATM   17  C2  UNL     1      84.417  24.792   0.178  1.00  0.00     0.260 C 
BRANCH  17  18
HETATM   18  C1  UNL     1      85.757  25.403  -0.228  1.00  0.00     0.257 C 
BRANCH  18  19
HETATM   19  N1  UNL     1      86.239  24.673  -1.407  1.00  0.00    -0.078 N 
ATOM     20  H13 UNL     1      86.943  23.971  -1.179  1.00  0.00     0.274 HD
ATOM     21  H12 UNL     1      85.539  24.039  -1.794  1.00  0.00     0.274 HD
ATOM     22  H11 UNL     1      86.568  25.362  -2.083  1.00  0.00     0.274 HD
ENDBRANCH  18  19
ENDBRANCH  17  18
ENDBRANCH  14  17
ENDBRANCH  13  14
ENDBRANCH  10  13
ENDBRANCH   1   9
BRANCH   6  23
HETATM   23  C7  UNL     1      76.492  26.852  -3.463  1.00  0.00     0.171 C 
BRANCH  23  24
HETATM   24  C8  UNL     1      76.340  25.425  -2.940  1.00  0.00     0.135 C 
BRANCH  24  25
HETATM   25  N6  UNL     1      77.257  24.569  -3.618  1.00  0.00    -0.418 N 
ATOM     26  H6  UNL     1      77.404  24.616  -4.626  1.00  0.00     0.153 HD
BRANCH  25  27
HETATM   27  C9  UNL     1      77.952  23.643  -2.784  1.00  0.00     0.131 C 
BRANCH  27  28
HETATM   28  C10 UNL     1      77.199  22.400  -2.448  1.00  0.00     0.153 C 
BRANCH  28  29
HETATM   29  N7  UNL     1      77.965  21.423  -1.736  1.00  0.00    -0.147 NA
BRANCH  29  30
HETATM   30  N8  UNL     1      78.472  21.919  -0.552  1.00  0.00    -0.348 N 
ATOM     31  H82 UNL     1      79.252  21.489  -0.057  1.00  0.00     0.172 HD
ATOM     32  H81 UNL     1      77.976  22.754  -0.242  1.00  0.00     0.172 HD
ENDBRANCH  29  30
ENDBRANCH  28  29
ENDBRANCH  27  28
ENDBRANCH  25  27
ENDBRANCH  24  25
ENDBRANCH  23  24
ENDBRANCH   6  23
TORSDOF 13
ENDMDL
