MODEL 1
REMARK VINA RESULT: -7.852444446      0.000      0.000
REMARK  13 active torsions:
REMARK  status: ('A' for Active; 'I' for Inactive)
REMARK    1  A    between atoms: N1_1  and  C1_5 
REMARK    2  A    between atoms: C1_5  and  C2_6 
REMARK    3  A    between atoms: C2_6  and  N2_7 
REMARK    4  A    between atoms: N2_7  and  C3_9 
REMARK    5  A    between atoms: C3_9  and  C4_10 
REMARK    6  A    between atoms: C5_11  and  O1_12 
REMARK    7  A    between atoms: C6_14  and  N3_15 
REMARK    8  A    between atoms: C7_19  and  N4_20 
REMARK       I    between atoms: N4_20  and  C8_22 
REMARK    9  A    between atoms: C8_22  and  C9_24 
REMARK   10  A    between atoms: C9_24  and  N5_25 
REMARK   11  A    between atoms: N5_25  and  C10_27 
REMARK   12  A    between atoms: C10_27  and  C11_28 
REMARK   13  A    between atoms: C11_28  and  N6_29 
ROOT
HETATM    1  C4  UNL     1      41.549 -65.707  33.482  1.00  0.00     0.080 C 
HETATM    2  C5  UNL     1      41.888 -65.007  32.181  1.00  0.00     0.161 C 
HETATM    3  C6  UNL     1      40.617 -65.664  31.613  1.00  0.00     0.236 C 
HETATM    4  C7  UNL     1      40.858 -66.777  32.610  1.00  0.00     0.129 C 
ENDROOT
BRANCH   4   5
HETATM    5  N4  UNL     1      41.783 -67.782  32.157  1.00  0.00    -0.349 N 
HETATM    6  C8  UNL     1      41.341 -69.042  31.718  1.00  0.00     0.257 C 
HETATM    7  O2  UNL     1      40.115 -69.300  31.720  1.00  0.00    -0.267 OA
ATOM      8  H4  UNL     1      42.782 -67.575  32.155  1.00  0.00     0.163 HD
BRANCH   6   9
HETATM    9  C9  UNL     1      42.284 -70.103  31.243  1.00  0.00     0.162 C 
BRANCH   9  10
HETATM   10  N5  UNL     1      43.301 -70.432  32.158  1.00  0.00    -0.373 N 
ATOM     11  H5  UNL     1      43.566 -69.762  32.880  1.00  0.00     0.164 HD
BRANCH  10  12
HETATM   12  C10 UNL     1      43.958 -71.672  32.090  1.00  0.00     0.080 C 
BRANCH  12  13
HETATM   13  C11 UNL     1      44.885 -71.896  30.927  1.00  0.00     0.166 C 
BRANCH  13  14
HETATM   14  N6  UNL     1      46.170 -71.309  31.069  1.00  0.00    -0.362 N 
HETATM   15  C12 UNL     1      46.540 -70.365  30.253  1.00  0.00     0.197 C 
HETATM   16  N7  UNL     1      47.817 -69.786  30.402  1.00  0.00    -0.067 NA
HETATM   17  N8  UNL     1      45.662 -69.931  29.234  1.00  0.00    -0.067 NA
ATOM     18  H6  UNL     1      46.800 -71.626  31.806  1.00  0.00     0.162 HD
ENDBRANCH  13  14
ENDBRANCH  12  13
ENDBRANCH  10  12
ENDBRANCH   9  10
ENDBRANCH   6   9
ENDBRANCH   4   5
BRANCH   1  19
HETATM   19  C3  UNL     1      42.772 -66.207  34.185  1.00  0.00     0.069 C 
BRANCH  19  20
HETATM   20  N2  UNL     1      43.882 -65.344  34.174  1.00  0.00    -0.380 N 
ATOM     21  H2  UNL     1      44.686 -65.544  33.577  1.00  0.00     0.164 HD
BRANCH  20  22
HETATM   22  C2  UNL     1      43.874 -64.201  34.996  1.00  0.00     0.087 C 
BRANCH  22  23
HETATM   23  C1  UNL     1      44.541 -62.977  34.392  1.00  0.00     0.274 C 
BRANCH  23  24
HETATM   24  N1  UNL     1      44.848 -63.296  32.993  1.00  0.00    -0.075 N 
ATOM     25  H13 UNL     1      45.698 -63.849  32.887  1.00  0.00     0.274 HD
ATOM     26  H12 UNL     1      44.200 -63.972  32.586  1.00  0.00     0.274 HD
ATOM     27  H11 UNL     1      44.877 -62.413  32.482  1.00  0.00     0.274 HD
ENDBRANCH  23  24
ENDBRANCH  22  23
ENDBRANCH  20  22
ENDBRANCH  19  20
ENDBRANCH   1  19
BRANCH   3  28
HETATM   28  N3  UNL     1      39.489 -64.822  31.885  1.00  0.00    -0.071 N 
ATOM     29  H33 UNL     1      38.955 -65.139  32.694  1.00  0.00     0.274 HD
ATOM     30  H32 UNL     1      39.766 -63.908  32.245  1.00  0.00     0.274 HD
ATOM     31  H31 UNL     1      38.914 -64.750  31.046  1.00  0.00     0.274 HD
ENDBRANCH   3  28
BRANCH   2  32
HETATM   32  O1  UNL     1      41.759 -63.641  32.232  1.00  0.00    -0.393 OA
ATOM     33  H1  UNL     1      40.904 -63.324  31.969  1.00  0.00     0.210 HD
ENDBRANCH   2  32
TORSDOF 13
ENDMDL
MODEL 2
REMARK VINA RESULT: -7.189873102      1.027      1.240
REMARK  13 active torsions:
REMARK  status: ('A' for Active; 'I' for Inactive)
REMARK    1  A    between atoms: N1_1  and  C1_5 
REMARK    2  A    between atoms: C1_5  and  C2_6 
REMARK    3  A    between atoms: C2_6  and  N2_7 
REMARK    4  A    between atoms: N2_7  and  C3_9 
REMARK    5  A    between atoms: C3_9  and  C4_10 
REMARK    6  A    between atoms: C5_11  and  O1_12 
REMARK    7  A    between atoms: C6_14  and  N3_15 
REMARK    8  A    between atoms: C7_19  and  N4_20 
REMARK       I    between atoms: N4_20  and  C8_22 
REMARK    9  A    between atoms: C8_22  and  C9_24 
REMARK   10  A    between atoms: C9_24  and  N5_25 
REMARK   11  A    between atoms: N5_25  and  C10_27 
REMARK   12  A    between atoms: C10_27  and  C11_28 
REMARK   13  A    between atoms: C11_28  and  N6_29 
ROOT
HETATM    1  C4  UNL     1      41.450 -66.049  33.322  1.00  0.00     0.080 C 
HETATM    2  C5  UNL     1      41.794 -65.237  32.089  1.00  0.00     0.161 C 
HETATM    3  C6  UNL     1      40.542 -65.864  31.451  1.00  0.00     0.236 C 
HETATM    4  C7  UNL     1      40.788 -67.052  32.355  1.00  0.00     0.129 C 
ENDROOT
BRANCH   4   5
HETATM    5  N4  UNL     1      41.735 -68.001  31.833  1.00  0.00    -0.349 N 
HETATM    6  C8  UNL     1      41.344 -69.298  31.457  1.00  0.00     0.257 C 
HETATM    7  O2  UNL     1      40.145 -69.639  31.578  1.00  0.00    -0.267 OA
ATOM      8  H4  UNL     1      42.713 -67.727  31.733  1.00  0.00     0.163 HD
BRANCH   6   9
HETATM    9  C9  UNL     1      42.311 -70.302  30.911  1.00  0.00     0.162 C 
BRANCH   9  10
HETATM   10  N5  UNL     1      43.453 -70.505  31.708  1.00  0.00    -0.373 N 
ATOM     11  H5  UNL     1      43.746 -69.780  32.363  1.00  0.00     0.164 HD
BRANCH  10  12
HETATM   12  C10 UNL     1      44.196 -71.694  31.612  1.00  0.00     0.080 C 
BRANCH  12  13
HETATM   13  C11 UNL     1      45.672 -71.563  31.353  1.00  0.00     0.166 C 
BRANCH  13  14
HETATM   14  N6  UNL     1      46.085 -71.956  30.052  1.00  0.00    -0.362 N 
HETATM   15  C12 UNL     1      46.080 -71.084  29.086  1.00  0.00     0.197 C 
HETATM   16  N7  UNL     1      46.493 -71.482  27.797  1.00  0.00    -0.067 NA
HETATM   17  N8  UNL     1      45.664 -69.757  29.336  1.00  0.00    -0.067 NA
ATOM     18  H6  UNL     1      46.384 -72.915  29.877  1.00  0.00     0.162 HD
ENDBRANCH  13  14
ENDBRANCH  12  13
ENDBRANCH  10  12
ENDBRANCH   9  10
ENDBRANCH   6   9
ENDBRANCH   4   5
BRANCH   1  19
HETATM   19  C3  UNL     1      42.673 -66.587  33.998  1.00  0.00     0.069 C 
BRANCH  19  20
HETATM   20  N2  UNL     1      43.736 -65.679  34.159  1.00  0.00    -0.380 N 
ATOM     21  H2  UNL     1      44.442 -65.578  33.430  1.00  0.00     0.164 HD
BRANCH  20  22
HETATM   22  C2  UNL     1      43.813 -64.912  35.337  1.00  0.00     0.087 C 
BRANCH  22  23
HETATM   23  C1  UNL     1      43.440 -63.449  35.171  1.00  0.00     0.274 C 
BRANCH  23  24
HETATM   24  N1  UNL     1      41.976 -63.366  35.231  1.00  0.00    -0.075 N 
ATOM     25  H13 UNL     1      41.608 -63.476  36.176  1.00  0.00     0.274 HD
ATOM     26  H12 UNL     1      41.622 -62.424  35.061  1.00  0.00     0.274 HD
ATOM     27  H11 UNL     1      41.608 -64.055  34.575  1.00  0.00     0.274 HD
ENDBRANCH  23  24
ENDBRANCH  22  23
ENDBRANCH  20  22
ENDBRANCH  19  20
ENDBRANCH   1  19
BRANCH   3  28
HETATM   28  N3  UNL     1      39.397 -65.065  31.777  1.00  0.00    -0.071 N 
ATOM     29  H33 UNL     1      38.761 -64.958  30.987  1.00  0.00     0.274 HD
ATOM     30  H32 UNL     1      38.758 -65.544  32.413  1.00  0.00     0.274 HD
ATOM     31  H31 UNL     1      39.709 -64.166  32.146  1.00  0.00     0.274 HD
ENDBRANCH   3  28
BRANCH   2  32
HETATM   32  O1  UNL     1      41.642 -63.882  32.253  1.00  0.00    -0.393 OA
ATOM     33  H1  UNL     1      42.462 -63.407  32.321  1.00  0.00     0.210 HD
ENDBRANCH   2  32
TORSDOF 13
ENDMDL
MODEL 3
REMARK VINA RESULT: -6.803998631      1.684      2.215
REMARK  13 active torsions:
REMARK  status: ('A' for Active; 'I' for Inactive)
REMARK    1  A    between atoms: N1_1  and  C1_5 
REMARK    2  A    between atoms: C1_5  and  C2_6 
REMARK    3  A    between atoms: C2_6  and  N2_7 
REMARK    4  A    between atoms: N2_7  and  C3_9 
REMARK    5  A    between atoms: C3_9  and  C4_10 
REMARK    6  A    between atoms: C5_11  and  O1_12 
REMARK    7  A    between atoms: C6_14  and  N3_15 
REMARK    8  A    between atoms: C7_19  and  N4_20 
REMARK       I    between atoms: N4_20  and  C8_22 
REMARK    9  A    between atoms: C8_22  and  C9_24 
REMARK   10  A    between atoms: C9_24  and  N5_25 
REMARK   11  A    between atoms: N5_25  and  C10_27 
REMARK   12  A    between atoms: C10_27  and  C11_28 
REMARK   13  A    between atoms: C11_28  and  N6_29 
ROOT
HETATM    1  C4  UNL     1      42.644 -64.179  33.260  1.00  0.00     0.080 C 
HETATM    2  C5  UNL     1      41.322 -63.645  32.744  1.00  0.00     0.161 C 
HETATM    3  C6  UNL     1      40.667 -64.801  33.519  1.00  0.00     0.236 C 
HETATM    4  C7  UNL     1      41.957 -65.560  33.296  1.00  0.00     0.129 C 
ENDROOT
BRANCH   4   5
HETATM    5  N4  UNL     1      42.032 -66.232  32.026  1.00  0.00    -0.349 N 
HETATM    6  C8  UNL     1      41.228 -67.349  31.738  1.00  0.00     0.257 C 
HETATM    7  O2  UNL     1      40.428 -67.772  32.603  1.00  0.00    -0.267 OA
ATOM      8  H4  UNL     1      42.683 -65.890  31.318  1.00  0.00     0.163 HD
BRANCH   6   9
HETATM    9  C9  UNL     1      41.288 -68.063  30.423  1.00  0.00     0.162 C 
BRANCH   9  10
HETATM   10  N5  UNL     1      42.338 -68.993  30.312  1.00  0.00    -0.373 N 
ATOM     11  H5  UNL     1      43.160 -68.762  29.754  1.00  0.00     0.164 HD
BRANCH  10  12
HETATM   12  C10 UNL     1      42.268 -70.238  30.960  1.00  0.00     0.080 C 
BRANCH  12  13
HETATM   13  C11 UNL     1      43.554 -71.003  31.118  1.00  0.00     0.166 C 
BRANCH  13  14
HETATM   14  N6  UNL     1      44.643 -70.501  30.358  1.00  0.00    -0.362 N 
HETATM   15  C12 UNL     1      45.859 -70.838  30.677  1.00  0.00     0.197 C 
HETATM   16  N7  UNL     1      46.935 -70.336  29.915  1.00  0.00    -0.067 NA
HETATM   17  N8  UNL     1      46.087 -71.699  31.774  1.00  0.00    -0.067 NA
ATOM     18  H6  UNL     1      44.473 -69.880  29.567  1.00  0.00     0.162 HD
ENDBRANCH  13  14
ENDBRANCH  12  13
ENDBRANCH  10  12
ENDBRANCH   9  10
ENDBRANCH   6   9
ENDBRANCH   4   5
BRANCH   1  19
HETATM   19  C3  UNL     1      43.729 -64.077  32.235  1.00  0.00     0.069 C 
BRANCH  19  20
HETATM   20  N2  UNL     1      44.964 -63.585  32.694  1.00  0.00    -0.380 N 
ATOM     21  H2  UNL     1      45.831 -63.850  32.226  1.00  0.00     0.164 HD
BRANCH  20  22
HETATM   22  C2  UNL     1      44.991 -62.723  33.807  1.00  0.00     0.087 C 
BRANCH  22  23
HETATM   23  C1  UNL     1      46.162 -61.756  33.836  1.00  0.00     0.274 C 
BRANCH  23  24
HETATM   24  N1  UNL     1      46.263 -61.240  35.207  1.00  0.00    -0.075 N 
ATOM     25  H13 UNL     1      47.098 -60.674  35.360  1.00  0.00     0.274 HD
ATOM     26  H12 UNL     1      45.574 -60.515  35.412  1.00  0.00     0.274 HD
ATOM     27  H11 UNL     1      46.200 -62.041  35.836  1.00  0.00     0.274 HD
ENDBRANCH  23  24
ENDBRANCH  22  23
ENDBRANCH  20  22
ENDBRANCH  19  20
ENDBRANCH   1  19
BRANCH   3  28
HETATM   28  N3  UNL     1      40.420 -64.383  34.869  1.00  0.00    -0.071 N 
ATOM     29  H33 UNL     1      40.850 -65.005  35.552  1.00  0.00     0.274 HD
ATOM     30  H32 UNL     1      40.928 -63.531  35.110  1.00  0.00     0.274 HD
ATOM     31  H31 UNL     1      39.414 -64.289  35.011  1.00  0.00     0.274 HD
ENDBRANCH   3  28
BRANCH   2  32
HETATM   32  O1  UNL     1      40.967 -62.428  33.273  1.00  0.00    -0.393 OA
ATOM     33  H1  UNL     1      41.705 -61.889  33.530  1.00  0.00     0.210 HD
ENDBRANCH   2  32
TORSDOF 13
ENDMDL
MODEL 4
REMARK VINA RESULT: -6.744455480      1.956      3.152
REMARK  13 active torsions:
REMARK  status: ('A' for Active; 'I' for Inactive)
REMARK    1  A    between atoms: N1_1  and  C1_5 
REMARK    2  A    between atoms: C1_5  and  C2_6 
REMARK    3  A    between atoms: C2_6  and  N2_7 
REMARK    4  A    between atoms: N2_7  and  C3_9 
REMARK    5  A    between atoms: C3_9  and  C4_10 
REMARK    6  A    between atoms: C5_11  and  O1_12 
REMARK    7  A    between atoms: C6_14  and  N3_15 
REMARK    8  A    between atoms: C7_19  and  N4_20 
REMARK       I    between atoms: N4_20  and  C8_22 
REMARK    9  A    between atoms: C8_22  and  C9_24 
REMARK   10  A    between atoms: C9_24  and  N5_25 
REMARK   11  A    between atoms: N5_25  and  C10_27 
REMARK   12  A    between atoms: C10_27  and  C11_28 
REMARK   13  A    between atoms: C11_28  and  N6_29 
ROOT
HETATM    1  C4  UNL     1      43.763 -64.356  34.150  1.00  0.00     0.080 C 
HETATM    2  C5  UNL     1      42.412 -63.715  34.396  1.00  0.00     0.161 C 
HETATM    3  C6  UNL     1      41.973 -65.085  34.939  1.00  0.00     0.236 C 
HETATM    4  C7  UNL     1      42.993 -65.684  33.995  1.00  0.00     0.129 C 
ENDROOT
BRANCH   4   5
HETATM    5  N4  UNL     1      42.511 -65.873  32.652  1.00  0.00    -0.349 N 
HETATM    6  C8  UNL     1      41.401 -66.692  32.380  1.00  0.00     0.257 C 
HETATM    7  O2  UNL     1      40.817 -67.272  33.323  1.00  0.00    -0.267 OA
ATOM      8  H4  UNL     1      42.985 -65.402  31.881  1.00  0.00     0.163 HD
BRANCH   6   9
HETATM    9  C9  UNL     1      40.882 -66.904  30.992  1.00  0.00     0.162 C 
BRANCH   9  10
HETATM   10  N5  UNL     1      41.507 -67.950  30.288  1.00  0.00    -0.373 N 
ATOM     11  H5  UNL     1      42.155 -67.731  29.531  1.00  0.00     0.164 HD
BRANCH  10  12
HETATM   12  C10 UNL     1      41.249 -69.292  30.614  1.00  0.00     0.080 C 
BRANCH  12  13
HETATM   13  C11 UNL     1      42.438 -70.198  30.785  1.00  0.00     0.166 C 
BRANCH  13  14
HETATM   14  N6  UNL     1      43.577 -69.836  30.018  1.00  0.00    -0.362 N 
HETATM   15  C12 UNL     1      44.661 -70.553  30.099  1.00  0.00     0.197 C 
HETATM   16  N7  UNL     1      45.787 -70.188  29.333  1.00  0.00    -0.067 NA
HETATM   17  N8  UNL     1      44.696 -71.683  30.947  1.00  0.00    -0.067 NA
ATOM     18  H6  UNL     1      43.547 -69.020  29.407  1.00  0.00     0.162 HD
ENDBRANCH  13  14
ENDBRANCH  12  13
ENDBRANCH  10  12
ENDBRANCH   9  10
ENDBRANCH   6   9
ENDBRANCH   4   5
BRANCH   1  19
HETATM   19  C3  UNL     1      44.388 -63.875  32.877  1.00  0.00     0.069 C 
BRANCH  19  20
HETATM   20  N2  UNL     1      45.472 -62.989  33.021  1.00  0.00    -0.380 N 
ATOM     21  H2  UNL     1      46.203 -62.949  32.311  1.00  0.00     0.164 HD
BRANCH  20  22
HETATM   22  C2  UNL     1      45.536 -62.159  34.156  1.00  0.00     0.087 C 
BRANCH  22  23
HETATM   23  C1  UNL     1      46.538 -61.022  34.058  1.00  0.00     0.274 C 
BRANCH  23  24
HETATM   24  N1  UNL     1      46.752 -60.515  35.419  1.00  0.00    -0.075 N 
ATOM     25  H13 UNL     1      46.194 -59.688  35.630  1.00  0.00     0.274 HD
ATOM     26  H12 UNL     1      46.362 -61.124  36.138  1.00  0.00     0.274 HD
ATOM     27  H11 UNL     1      47.755 -60.360  35.528  1.00  0.00     0.274 HD
ENDBRANCH  23  24
ENDBRANCH  22  23
ENDBRANCH  20  22
ENDBRANCH  19  20
ENDBRANCH   1  19
BRANCH   3  28
HETATM   28  N3  UNL     1      42.298 -65.166  36.334  1.00  0.00    -0.071 N 
ATOM     29  H33 UNL     1      43.300 -65.271  36.493  1.00  0.00     0.274 HD
ATOM     30  H32 UNL     1      42.169 -64.274  36.814  1.00  0.00     0.274 HD
ATOM     31  H31 UNL     1      41.757 -65.918  36.761  1.00  0.00     0.274 HD
ENDBRANCH   3  28
BRANCH   2  32
HETATM   32  O1  UNL     1      42.417 -62.765  35.389  1.00  0.00    -0.393 OA
ATOM     33  H1  UNL     1      42.627 -61.890  35.085  1.00  0.00     0.210 HD
ENDBRANCH   2  32
TORSDOF 13
ENDMDL
MODEL 5
REMARK VINA RESULT: -6.685016883      2.278      7.230
REMARK  13 active torsions:
REMARK  status: ('A' for Active; 'I' for Inactive)
REMARK    1  A    between atoms: N1_1  and  C1_5 
REMARK    2  A    between atoms: C1_5  and  C2_6 
REMARK    3  A    between atoms: C2_6  and  N2_7 
REMARK    4  A    between atoms: N2_7  and  C3_9 
REMARK    5  A    between atoms: C3_9  and  C4_10 
REMARK    6  A    between atoms: C5_11  and  O1_12 
REMARK    7  A    between atoms: C6_14  and  N3_15 
REMARK    8  A    between atoms: C7_19  and  N4_20 
REMARK       I    between atoms: N4_20  and  C8_22 
REMARK    9  A    between atoms: C8_22  and  C9_24 
REMARK   10  A    between atoms: C9_24  and  N5_25 
REMARK   11  A    between atoms: N5_25  and  C10_27 
REMARK   12  A    between atoms: C10_27  and  C11_28 
REMARK   13  A    between atoms: C11_28  and  N6_29 
ROOT
HETATM    1  C4  UNL     1      44.616 -71.351  30.904  1.00  0.00     0.080 C 
HETATM    2  C5  UNL     1      45.474 -70.771  32.010  1.00  0.00     0.161 C 
HETATM    3  C6  UNL     1      44.504 -71.458  32.986  1.00  0.00     0.236 C 
HETATM    4  C7  UNL     1      43.450 -71.290  31.913  1.00  0.00     0.129 C 
ENDROOT
BRANCH   4   5
HETATM    5  N4  UNL     1      42.807 -70.002  31.916  1.00  0.00    -0.349 N 
HETATM    6  C8  UNL     1      41.574 -69.795  31.274  1.00  0.00     0.257 C 
HETATM    7  O2  UNL     1      41.020 -70.750  30.684  1.00  0.00    -0.267 OA
ATOM      8  H4  UNL     1      43.257 -69.222  32.396  1.00  0.00     0.163 HD
BRANCH   6   9
HETATM    9  C9  UNL     1      40.888 -68.465  31.265  1.00  0.00     0.162 C 
BRANCH   9  10
HETATM   10  N5  UNL     1      41.551 -67.461  31.993  1.00  0.00    -0.373 N 
ATOM     11  H5  UNL     1      42.561 -67.518  32.127  1.00  0.00     0.164 HD
BRANCH  10  12
HETATM   12  C10 UNL     1      40.840 -66.379  32.540  1.00  0.00     0.080 C 
BRANCH  12  13
HETATM   13  C11 UNL     1      41.331 -64.996  32.208  1.00  0.00     0.166 C 
BRANCH  13  14
HETATM   14  N6  UNL     1      42.743 -64.852  32.195  1.00  0.00    -0.362 N 
HETATM   15  C12 UNL     1      43.312 -64.018  33.016  1.00  0.00     0.197 C 
HETATM   16  N7  UNL     1      44.716 -63.882  32.997  1.00  0.00    -0.067 NA
HETATM   17  N8  UNL     1      42.523 -63.262  33.912  1.00  0.00    -0.067 NA
ATOM     18  H6  UNL     1      43.309 -65.400  31.546  1.00  0.00     0.162 HD
ENDBRANCH  13  14
ENDBRANCH  12  13
ENDBRANCH  10  12
ENDBRANCH   9  10
ENDBRANCH   6   9
ENDBRANCH   4   5
BRANCH   1  19
HETATM   19  C3  UNL     1      44.463 -70.402  29.756  1.00  0.00     0.069 C 
BRANCH  19  20
HETATM   20  N2  UNL     1      45.591 -70.253  28.928  1.00  0.00    -0.380 N 
ATOM     21  H2  UNL     1      45.938 -69.323  28.692  1.00  0.00     0.164 HD
BRANCH  20  22
HETATM   22  C2  UNL     1      46.235 -71.401  28.430  1.00  0.00     0.087 C 
BRANCH  22  23
HETATM   23  C1  UNL     1      46.477 -71.397  26.930  1.00  0.00     0.274 C 
BRANCH  23  24
HETATM   24  N1  UNL     1      45.196 -71.084  26.286  1.00  0.00    -0.075 N 
ATOM     25  H13 UNL     1      44.855 -71.837  25.689  1.00  0.00     0.274 HD
ATOM     26  H12 UNL     1      44.413 -71.071  26.940  1.00  0.00     0.274 HD
ATOM     27  H11 UNL     1      45.316 -70.202  25.788  1.00  0.00     0.274 HD
ENDBRANCH  23  24
ENDBRANCH  22  23
ENDBRANCH  20  22
ENDBRANCH  19  20
ENDBRANCH   1  19
BRANCH   3  28
HETATM   28  N3  UNL     1      44.942 -72.803  33.218  1.00  0.00    -0.071 N 
ATOM     29  H33 UNL     1      44.167 -73.466  33.234  1.00  0.00     0.274 HD
ATOM     30  H32 UNL     1      45.446 -73.190  32.419  1.00  0.00     0.274 HD
ATOM     31  H31 UNL     1      45.494 -72.833  34.076  1.00  0.00     0.274 HD
ENDBRANCH   3  28
BRANCH   2  32
HETATM   32  O1  UNL     1      46.730 -71.321  32.089  1.00  0.00    -0.393 OA
ATOM     33  H1  UNL     1      47.375 -70.890  31.542  1.00  0.00     0.210 HD
ENDBRANCH   2  32
TORSDOF 13
ENDMDL
