MODEL 1
REMARK VINA RESULT: -5.446919357      0.000      0.000
REMARK  13 active torsions:
REMARK  status: ('A' for Active; 'I' for Inactive)
REMARK       I    between atoms: C2_2  and  N1_4 
REMARK    1  A    between atoms: N1_4  and  C3_6 
REMARK    2  A    between atoms: C3_6  and  C4_7 
REMARK    3  A    between atoms: C3_6  and  C6_16 
REMARK    4  A    between atoms: C3_6  and  C12_30 
REMARK    5  A    between atoms: C4_7  and  N2_8 
REMARK    6  A    between atoms: N2_8  and  C5_11 
REMARK    7  A    between atoms: C5_11  and  N3_12 
REMARK    8  A    between atoms: N3_12  and  N4_13 
REMARK    9  A    between atoms: C6_16  and  O2_17 
REMARK   10  A    between atoms: O2_17  and  C7_18 
REMARK   11  A    between atoms: C9_20  and  N5_21 
REMARK   12  A    between atoms: C10_25  and  N6_26 
REMARK   13  A    between atoms: N6_26  and  C11_28 
ROOT
HETATM    1  C3  UNL     1      42.224 -70.070  31.365  1.00  0.00     0.157 C 
ENDROOT
BRANCH   1   2
HETATM    2  N1  UNL     1      42.120 -68.835  32.077  1.00  0.00    -0.341 N 
HETATM    3  C2  UNL     1      41.538 -67.632  31.618  1.00  0.00     0.214 C 
HETATM    4  C1  UNL     1      41.492 -66.402  32.458  1.00  0.00     0.117 C 
HETATM    5  O1  UNL     1      41.025 -67.516  30.482  1.00  0.00    -0.274 OA
ATOM      6  H1  UNL     1      42.508 -68.820  33.020  1.00  0.00     0.163 HD
ENDBRANCH   1   2
BRANCH   1   7
HETATM    7  C4  UNL     1      42.727 -71.135  32.310  1.00  0.00     0.276 C 
BRANCH   7   8
HETATM    8  N2  UNL     1      43.990 -70.655  32.894  1.00  0.00    -0.058 N 
ATOM      9  H22 UNL     1      44.483 -70.021  32.265  1.00  0.00     0.278 HD
ATOM     10  H21 UNL     1      43.831 -70.007  33.666  1.00  0.00     0.278 HD
BRANCH   8  11
HETATM   11  C5  UNL     1      44.821 -71.777  33.292  1.00  0.00     0.365 C 
BRANCH  11  12
HETATM   12  N3  UNL     1      46.017 -71.350  33.952  1.00  0.00    -0.121 NA
BRANCH  12  13
HETATM   13  N4  UNL     1      46.156 -69.964  33.820  1.00  0.00    -0.347 N 
ATOM     14  H42 UNL     1      45.719 -69.408  33.085  1.00  0.00     0.172 HD
ATOM     15  H41 UNL     1      46.753 -69.608  34.567  1.00  0.00     0.172 HD
ENDBRANCH  12  13
ENDBRANCH  11  12
ENDBRANCH   8  11
ENDBRANCH   7   8
ENDBRANCH   1   7
BRANCH   1  16
HETATM   16  C6  UNL     1      42.977 -70.033  30.084  1.00  0.00     0.210 C 
BRANCH  16  17
HETATM   17  O2  UNL     1      44.093 -70.734  29.998  1.00  0.00    -0.381 OA
BRANCH  17  18
HETATM   18  C7  UNL     1      45.281 -70.289  29.564  1.00  0.00     0.148 C 
HETATM   19  C8  UNL     1      45.771 -71.186  28.411  1.00  0.00     0.069 C 
HETATM   20  C9  UNL     1      46.275 -72.129  29.479  1.00  0.00     0.211 C 
HETATM   21  C10 UNL     1      46.472 -70.912  30.356  1.00  0.00     0.143 C 
BRANCH  20  22
HETATM   22  N5  UNL     1      45.257 -72.991  30.038  1.00  0.00    -0.073 N 
ATOM     23  H53 UNL     1      44.330 -72.599  29.875  1.00  0.00     0.274 HD
ATOM     24  H52 UNL     1      45.180 -73.851  29.497  1.00  0.00     0.274 HD
ATOM     25  H51 UNL     1      45.385 -73.203  31.028  1.00  0.00     0.274 HD
ENDBRANCH  20  22
BRANCH  21  26
HETATM   26  N6  UNL     1      47.698 -70.241  30.030  1.00  0.00    -0.359 N 
ATOM     27  H6  UNL     1      48.046 -70.207  29.072  1.00  0.00     0.162 HD
BRANCH  26  28
HETATM   28  C11 UNL     1      48.411 -69.623  31.103  1.00  0.00     0.348 C 
HETATM   29  O3  UNL     1      48.481 -70.133  32.259  1.00  0.00    -0.284 OA
ENDBRANCH  26  28
ENDBRANCH  21  26
ENDBRANCH  17  18
ENDBRANCH  16  17
ENDBRANCH   1  16
BRANCH   1  30
HETATM   30  C12 UNL     1      40.774 -70.449  31.000  1.00  0.00     0.263 C 
HETATM   31  N7  UNL     1      39.781 -70.407  32.002  1.00  0.00    -0.060 NA
HETATM   32  O4  UNL     1      40.493 -70.782  29.849  1.00  0.00    -0.274 OA
ENDBRANCH   1  30
TORSDOF 13
ENDMDL
MODEL 2
REMARK VINA RESULT: -4.982250908      1.384      2.319
REMARK  13 active torsions:
REMARK  status: ('A' for Active; 'I' for Inactive)
REMARK       I    between atoms: C2_2  and  N1_4 
REMARK    1  A    between atoms: N1_4  and  C3_6 
REMARK    2  A    between atoms: C3_6  and  C4_7 
REMARK    3  A    between atoms: C3_6  and  C6_16 
REMARK    4  A    between atoms: C3_6  and  C12_30 
REMARK    5  A    between atoms: C4_7  and  N2_8 
REMARK    6  A    between atoms: N2_8  and  C5_11 
REMARK    7  A    between atoms: C5_11  and  N3_12 
REMARK    8  A    between atoms: N3_12  and  N4_13 
REMARK    9  A    between atoms: C6_16  and  O2_17 
REMARK   10  A    between atoms: O2_17  and  C7_18 
REMARK   11  A    between atoms: C9_20  and  N5_21 
REMARK   12  A    between atoms: C10_25  and  N6_26 
REMARK   13  A    between atoms: N6_26  and  C11_28 
ROOT
HETATM    1  C3  UNL     1      42.190 -70.018  31.394  1.00  0.00     0.157 C 
ENDROOT
BRANCH   1   2
HETATM    2  N1  UNL     1      42.060 -68.789  32.113  1.00  0.00    -0.341 N 
HETATM    3  C2  UNL     1      41.494 -67.581  31.646  1.00  0.00     0.214 C 
HETATM    4  C1  UNL     1      41.418 -66.360  32.495  1.00  0.00     0.117 C 
HETATM    5  O1  UNL     1      41.020 -67.456  30.494  1.00  0.00    -0.274 OA
ATOM      6  H1  UNL     1      42.416 -68.783  33.070  1.00  0.00     0.163 HD
ENDBRANCH   1   2
BRANCH   1   7
HETATM    7  C4  UNL     1      42.647 -71.094  32.350  1.00  0.00     0.276 C 
BRANCH   7   8
HETATM    8  N2  UNL     1      43.914 -70.649  32.952  1.00  0.00    -0.058 N 
ATOM      9  H22 UNL     1      44.396 -69.968  32.365  1.00  0.00     0.278 HD
ATOM     10  H21 UNL     1      43.760 -70.059  33.771  1.00  0.00     0.278 HD
BRANCH   8  11
HETATM   11  C5  UNL     1      44.756 -71.791  33.260  1.00  0.00     0.365 C 
BRANCH  11  12
HETATM   12  N3  UNL     1      46.122 -71.412  33.455  1.00  0.00    -0.121 NA
BRANCH  12  13
HETATM   13  N4  UNL     1      46.182 -70.084  33.892  1.00  0.00    -0.347 N 
ATOM     14  H42 UNL     1      45.577 -69.686  34.610  1.00  0.00     0.172 HD
ATOM     15  H41 UNL     1      46.916 -69.591  33.385  1.00  0.00     0.172 HD
ENDBRANCH  12  13
ENDBRANCH  11  12
ENDBRANCH   8  11
ENDBRANCH   7   8
ENDBRANCH   1   7
BRANCH   1  16
HETATM   16  C6  UNL     1      42.997 -69.971  30.147  1.00  0.00     0.210 C 
BRANCH  16  17
HETATM   17  O2  UNL     1      44.219 -70.473  30.178  1.00  0.00    -0.381 OA
BRANCH  17  18
HETATM   18  C7  UNL     1      44.757 -71.314  29.284  1.00  0.00     0.148 C 
HETATM   19  C8  UNL     1      45.803 -72.202  29.983  1.00  0.00     0.069 C 
HETATM   20  C9  UNL     1      46.769 -71.053  29.802  1.00  0.00     0.211 C 
HETATM   21  C10 UNL     1      45.990 -70.694  28.556  1.00  0.00     0.143 C 
BRANCH  20  22
HETATM   22  N5  UNL     1      46.638 -70.007  30.792  1.00  0.00    -0.073 N 
ATOM     23  H53 UNL     1      45.727 -70.059  31.248  1.00  0.00     0.274 HD
ATOM     24  H52 UNL     1      47.243 -70.195  31.591  1.00  0.00     0.274 HD
ATOM     25  H51 UNL     1      46.805 -69.067  30.433  1.00  0.00     0.274 HD
ENDBRANCH  20  22
BRANCH  21  26
HETATM   26  N6  UNL     1      46.388 -71.519  27.450  1.00  0.00    -0.359 N 
ATOM     27  H6  UNL     1      46.937 -72.367  27.591  1.00  0.00     0.162 HD
BRANCH  26  28
HETATM   28  C11 UNL     1      45.984 -71.102  26.145  1.00  0.00     0.348 C 
HETATM   29  O3  UNL     1      44.950 -71.555  25.573  1.00  0.00    -0.284 OA
ENDBRANCH  26  28
ENDBRANCH  21  26
ENDBRANCH  17  18
ENDBRANCH  16  17
ENDBRANCH   1  16
BRANCH   1  30
HETATM   30  C12 UNL     1      40.756 -70.386  30.963  1.00  0.00     0.263 C 
HETATM   31  N7  UNL     1      39.722 -70.355  31.923  1.00  0.00    -0.060 NA
HETATM   32  O4  UNL     1      40.522 -70.700  29.796  1.00  0.00    -0.274 OA
ENDBRANCH   1  30
TORSDOF 13
ENDMDL
MODEL 3
REMARK VINA RESULT: -4.955495447      2.285      5.562
REMARK  13 active torsions:
REMARK  status: ('A' for Active; 'I' for Inactive)
REMARK       I    between atoms: C2_2  and  N1_4 
REMARK    1  A    between atoms: N1_4  and  C3_6 
REMARK    2  A    between atoms: C3_6  and  C4_7 
REMARK    3  A    between atoms: C3_6  and  C6_16 
REMARK    4  A    between atoms: C3_6  and  C12_30 
REMARK    5  A    between atoms: C4_7  and  N2_8 
REMARK    6  A    between atoms: N2_8  and  C5_11 
REMARK    7  A    between atoms: C5_11  and  N3_12 
REMARK    8  A    between atoms: N3_12  and  N4_13 
REMARK    9  A    between atoms: C6_16  and  O2_17 
REMARK   10  A    between atoms: O2_17  and  C7_18 
REMARK   11  A    between atoms: C9_20  and  N5_21 
REMARK   12  A    between atoms: C10_25  and  N6_26 
REMARK   13  A    between atoms: N6_26  and  C11_28 
ROOT
HETATM    1  C3  UNL     1      42.093 -69.560  30.979  1.00  0.00     0.157 C 
ENDROOT
BRANCH   1   2
HETATM    2  N1  UNL     1      42.821 -69.980  32.135  1.00  0.00    -0.341 N 
HETATM    3  C2  UNL     1      43.581 -71.163  32.282  1.00  0.00     0.214 C 
HETATM    4  C1  UNL     1      44.297 -71.493  33.546  1.00  0.00     0.117 C 
HETATM    5  O1  UNL     1      43.703 -72.009  31.368  1.00  0.00    -0.274 OA
ATOM      6  H1  UNL     1      42.789 -69.358  32.943  1.00  0.00     0.163 HD
ENDBRANCH   1   2
BRANCH   1   7
HETATM    7  C4  UNL     1      42.855 -69.978  29.745  1.00  0.00     0.276 C 
BRANCH   7   8
HETATM    8  N2  UNL     1      44.263 -69.594  29.937  1.00  0.00    -0.058 N 
ATOM      9  H22 UNL     1      44.406 -68.593  29.805  1.00  0.00     0.278 HD
ATOM     10  H21 UNL     1      44.545 -69.658  30.916  1.00  0.00     0.278 HD
BRANCH   8  11
HETATM   11  C5  UNL     1      45.124 -70.382  29.074  1.00  0.00     0.365 C 
BRANCH  11  12
HETATM   12  N3  UNL     1      46.487 -70.356  29.509  1.00  0.00    -0.121 NA
BRANCH  12  13
HETATM   13  N4  UNL     1      46.710 -71.400  30.413  1.00  0.00    -0.347 N 
ATOM     14  H42 UNL     1      47.184 -72.272  30.181  1.00  0.00     0.172 HD
ATOM     15  H41 UNL     1      46.329 -71.149  31.325  1.00  0.00     0.172 HD
ENDBRANCH  12  13
ENDBRANCH  11  12
ENDBRANCH   8  11
ENDBRANCH   7   8
ENDBRANCH   1   7
BRANCH   1  16
HETATM   16  C6  UNL     1      41.674 -68.134  30.944  1.00  0.00     0.210 C 
BRANCH  16  17
HETATM   17  O2  UNL     1      41.175 -67.606  32.047  1.00  0.00    -0.381 OA
BRANCH  17  18
HETATM   18  C7  UNL     1      41.838 -66.858  32.941  1.00  0.00     0.148 C 
HETATM   19  C8  UNL     1      40.832 -66.211  33.912  1.00  0.00     0.069 C 
HETATM   20  C9  UNL     1      40.632 -65.150  32.853  1.00  0.00     0.211 C 
HETATM   21  C10 UNL     1      42.065 -65.398  32.439  1.00  0.00     0.143 C 
BRANCH  20  22
HETATM   22  N5  UNL     1      39.729 -65.535  31.791  1.00  0.00    -0.073 N 
ATOM     23  H53 UNL     1      39.687 -66.551  31.710  1.00  0.00     0.274 HD
ATOM     24  H52 UNL     1      38.763 -65.342  32.056  1.00  0.00     0.274 HD
ATOM     25  H51 UNL     1      39.942 -65.113  30.887  1.00  0.00     0.274 HD
ENDBRANCH  20  22
BRANCH  21  26
HETATM   26  N6  UNL     1      42.974 -64.704  33.305  1.00  0.00    -0.359 N 
ATOM     27  H6  UNL     1      42.957 -64.844  34.316  1.00  0.00     0.162 HD
BRANCH  26  28
HETATM   28  C11 UNL     1      43.905 -63.808  32.695  1.00  0.00     0.348 C 
HETATM   29  O3  UNL     1      44.994 -63.474  33.246  1.00  0.00    -0.284 OA
ENDBRANCH  26  28
ENDBRANCH  21  26
ENDBRANCH  17  18
ENDBRANCH  16  17
ENDBRANCH   1  16
BRANCH   1  30
HETATM   30  C12 UNL     1      40.792 -70.389  30.999  1.00  0.00     0.263 C 
HETATM   31  N7  UNL     1      40.097 -70.547  32.217  1.00  0.00    -0.060 NA
HETATM   32  O4  UNL     1      40.369 -70.901  29.963  1.00  0.00    -0.274 OA
ENDBRANCH   1  30
TORSDOF 13
ENDMDL
MODEL 4
REMARK VINA RESULT: -4.840674785      6.626      9.221
REMARK  13 active torsions:
REMARK  status: ('A' for Active; 'I' for Inactive)
REMARK       I    between atoms: C2_2  and  N1_4 
REMARK    1  A    between atoms: N1_4  and  C3_6 
REMARK    2  A    between atoms: C3_6  and  C4_7 
REMARK    3  A    between atoms: C3_6  and  C6_16 
REMARK    4  A    between atoms: C3_6  and  C12_30 
REMARK    5  A    between atoms: C4_7  and  N2_8 
REMARK    6  A    between atoms: N2_8  and  C5_11 
REMARK    7  A    between atoms: C5_11  and  N3_12 
REMARK    8  A    between atoms: N3_12  and  N4_13 
REMARK    9  A    between atoms: C6_16  and  O2_17 
REMARK   10  A    between atoms: O2_17  and  C7_18 
REMARK   11  A    between atoms: C9_20  and  N5_21 
REMARK   12  A    between atoms: C10_25  and  N6_26 
REMARK   13  A    between atoms: N6_26  and  C11_28 
ROOT
HETATM    1  C3  UNL     1      43.311 -63.975  34.177  1.00  0.00     0.157 C 
ENDROOT
BRANCH   1   2
HETATM    2  N1  UNL     1      42.142 -63.155  34.106  1.00  0.00    -0.341 N 
HETATM    3  C2  UNL     1      40.834 -63.495  34.519  1.00  0.00     0.214 C 
HETATM    4  C1  UNL     1      39.691 -62.549  34.390  1.00  0.00     0.117 C 
HETATM    5  O1  UNL     1      40.548 -64.607  35.017  1.00  0.00    -0.274 OA
ATOM      6  H1  UNL     1      42.266 -62.221  33.715  1.00  0.00     0.163 HD
ENDBRANCH   1   2
BRANCH   1   7
HETATM    7  C4  UNL     1      42.889 -65.404  34.417  1.00  0.00     0.276 C 
BRANCH   7   8
HETATM    8  N2  UNL     1      42.805 -66.072  33.108  1.00  0.00    -0.058 N 
ATOM      9  H22 UNL     1      42.998 -65.429  32.340  1.00  0.00     0.278 HD
ATOM     10  H21 UNL     1      43.580 -66.719  32.961  1.00  0.00     0.278 HD
BRANCH   8  11
HETATM   11  C5  UNL     1      41.518 -66.726  32.956  1.00  0.00     0.365 C 
BRANCH  11  12
HETATM   12  N3  UNL     1      40.891 -66.391  31.714  1.00  0.00    -0.121 NA
BRANCH  12  13
HETATM   13  N4  UNL     1      40.149 -65.215  31.866  1.00  0.00    -0.347 N 
ATOM     14  H42 UNL     1      40.263 -64.557  32.637  1.00  0.00     0.172 HD
ATOM     15  H41 UNL     1      39.489 -65.125  31.094  1.00  0.00     0.172 HD
ENDBRANCH  12  13
ENDBRANCH  11  12
ENDBRANCH   8  11
ENDBRANCH   7   8
ENDBRANCH   1   7
BRANCH   1  16
HETATM   16  C6  UNL     1      44.379 -63.524  35.108  1.00  0.00     0.210 C 
BRANCH  16  17
HETATM   17  O2  UNL     1      44.681 -62.239  35.131  1.00  0.00    -0.381 OA
BRANCH  17  18
HETATM   18  C7  UNL     1      45.888 -61.701  34.901  1.00  0.00     0.148 C 
HETATM   19  C8  UNL     1      46.637 -61.538  36.237  1.00  0.00     0.069 C 
HETATM   20  C9  UNL     1      45.861 -60.253  36.413  1.00  0.00     0.211 C 
HETATM   21  C10 UNL     1      45.851 -60.141  34.905  1.00  0.00     0.143 C 
BRANCH  20  22
HETATM   22  N5  UNL     1      44.516 -60.436  36.911  1.00  0.00    -0.073 N 
ATOM     23  H53 UNL     1      44.454 -61.288  37.467  1.00  0.00     0.274 HD
ATOM     24  H52 UNL     1      44.304 -59.744  37.629  1.00  0.00     0.274 HD
ATOM     25  H51 UNL     1      43.797 -60.430  36.187  1.00  0.00     0.274 HD
ENDBRANCH  20  22
BRANCH  21  26
HETATM   26  N6  UNL     1      47.093 -59.607  34.423  1.00  0.00    -0.359 N 
ATOM     27  H6  UNL     1      47.979 -60.080  34.603  1.00  0.00     0.162 HD
BRANCH  26  28
HETATM   28  C11 UNL     1      47.039 -58.387  33.683  1.00  0.00     0.348 C 
HETATM   29  O3  UNL     1      46.337 -57.399  34.046  1.00  0.00    -0.284 OA
ENDBRANCH  26  28
ENDBRANCH  21  26
ENDBRANCH  17  18
ENDBRANCH  16  17
ENDBRANCH   1  16
BRANCH   1  30
HETATM   30  C12 UNL     1      43.925 -63.925  32.763  1.00  0.00     0.263 C 
HETATM   31  N7  UNL     1      43.103 -63.578  31.670  1.00  0.00    -0.060 NA
HETATM   32  O4  UNL     1      45.117 -64.183  32.597  1.00  0.00    -0.274 OA
ENDBRANCH   1  30
TORSDOF 13
ENDMDL
MODEL 5
REMARK VINA RESULT: -4.701706945      2.103      6.185
REMARK  13 active torsions:
REMARK  status: ('A' for Active; 'I' for Inactive)
REMARK       I    between atoms: C2_2  and  N1_4 
REMARK    1  A    between atoms: N1_4  and  C3_6 
REMARK    2  A    between atoms: C3_6  and  C4_7 
REMARK    3  A    between atoms: C3_6  and  C6_16 
REMARK    4  A    between atoms: C3_6  and  C12_30 
REMARK    5  A    between atoms: C4_7  and  N2_8 
REMARK    6  A    between atoms: N2_8  and  C5_11 
REMARK    7  A    between atoms: C5_11  and  N3_12 
REMARK    8  A    between atoms: N3_12  and  N4_13 
REMARK    9  A    between atoms: C6_16  and  O2_17 
REMARK   10  A    between atoms: O2_17  and  C7_18 
REMARK   11  A    between atoms: C9_20  and  N5_21 
REMARK   12  A    between atoms: C10_25  and  N6_26 
REMARK   13  A    between atoms: N6_26  and  C11_28 
ROOT
HETATM    1  C3  UNL     1      45.347 -71.217  30.935  1.00  0.00     0.157 C 
ENDROOT
BRANCH   1   2
HETATM    2  N1  UNL     1      46.375 -70.871  31.866  1.00  0.00    -0.341 N 
HETATM    3  C2  UNL     1      47.554 -70.138  31.602  1.00  0.00     0.214 C 
HETATM    4  C1  UNL     1      48.558 -69.843  32.663  1.00  0.00     0.117 C 
HETATM    5  O1  UNL     1      47.835 -69.689  30.468  1.00  0.00    -0.274 OA
ATOM      6  H1  UNL     1      46.243 -71.189  32.826  1.00  0.00     0.163 HD
ENDBRANCH   1   2
BRANCH   1   7
HETATM    7  C4  UNL     1      45.447 -70.303  29.737  1.00  0.00     0.276 C 
BRANCH   7   8
HETATM    8  N2  UNL     1      44.916 -71.030  28.573  1.00  0.00    -0.058 N 
ATOM      9  H22 UNL     1      44.850 -72.033  28.748  1.00  0.00     0.278 HD
ATOM     10  H21 UNL     1      43.925 -70.838  28.424  1.00  0.00     0.278 HD
BRANCH   8  11
HETATM   11  C5  UNL     1      45.708 -70.738  27.392  1.00  0.00     0.365 C 
BRANCH  11  12
HETATM   12  N3  UNL     1      45.574 -71.754  26.393  1.00  0.00    -0.121 NA
BRANCH  12  13
HETATM   13  N4  UNL     1      44.998 -71.207  25.242  1.00  0.00    -0.347 N 
ATOM     14  H42 UNL     1      45.101 -70.235  24.952  1.00  0.00     0.172 HD
ATOM     15  H41 UNL     1      44.468 -71.926  24.750  1.00  0.00     0.172 HD
ENDBRANCH  12  13
ENDBRANCH  11  12
ENDBRANCH   8  11
ENDBRANCH   7   8
ENDBRANCH   1   7
BRANCH   1  16
HETATM   16  C6  UNL     1      43.966 -71.308  31.478  1.00  0.00     0.210 C 
BRANCH  16  17
HETATM   17  O2  UNL     1      43.103 -70.367  31.141  1.00  0.00    -0.381 OA
BRANCH  17  18
HETATM   18  C7  UNL     1      42.246 -69.743  31.962  1.00  0.00     0.148 C 
HETATM   19  C8  UNL     1      40.858 -70.402  31.849  1.00  0.00     0.069 C 
HETATM   20  C9  UNL     1      40.647 -69.539  30.626  1.00  0.00     0.211 C 
HETATM   21  C10 UNL     1      41.555 -68.522  31.279  1.00  0.00     0.143 C 
BRANCH  20  22
HETATM   22  N5  UNL     1      41.260 -70.057  29.422  1.00  0.00    -0.073 N 
ATOM     23  H53 UNL     1      41.623 -69.295  28.851  1.00  0.00     0.274 HD
ATOM     24  H52 UNL     1      42.131 -70.538  29.644  1.00  0.00     0.274 HD
ATOM     25  H51 UNL     1      40.651 -70.660  28.868  1.00  0.00     0.274 HD
ENDBRANCH  20  22
BRANCH  21  26
HETATM   26  N6  UNL     1      40.836 -67.744  32.248  1.00  0.00    -0.359 N 
ATOM     27  H6  UNL     1      40.185 -68.180  32.902  1.00  0.00     0.162 HD
BRANCH  26  28
HETATM   28  C11 UNL     1      41.069 -66.335  32.260  1.00  0.00     0.348 C 
HETATM   29  O3  UNL     1      40.354 -65.519  31.608  1.00  0.00    -0.284 OA
ENDBRANCH  26  28
ENDBRANCH  21  26
ENDBRANCH  17  18
ENDBRANCH  16  17
ENDBRANCH   1  16
BRANCH   1  30
HETATM   30  C12 UNL     1      45.708 -72.634  30.443  1.00  0.00     0.263 C 
HETATM   31  N7  UNL     1      46.917 -72.830  29.743  1.00  0.00    -0.060 NA
HETATM   32  O4  UNL     1      44.948 -73.577  30.662  1.00  0.00    -0.274 OA
ENDBRANCH   1  30
TORSDOF 13
ENDMDL
