MODEL 1
REMARK VINA RESULT: -7.558342248      0.000      0.000
REMARK  6 active torsions:
REMARK  status: ('A' for Active; 'I' for Inactive)
REMARK    1  A    between atoms: C4_5  and  C5_6 
REMARK    2  A    between atoms: C5_6  and  O2_7 
REMARK    3  A    between atoms: O2_7  and  C6_8 
REMARK    4  A    between atoms: C6_8  and  C7_10 
REMARK    5  A    between atoms: C7_10  and  S1_11 
REMARK    6  A    between atoms: S1_11  and  C8_12 
ROOT
HETATM    1  C6  UNL     1       7.325  26.911  -9.882  1.00  0.00     0.268 C 
HETATM    2  O3  UNL     1       6.165  26.519  -9.611  1.00  0.00    -0.264 OA
ENDROOT
BRANCH   1   3
HETATM    3  O2  UNL     1       7.456  27.838 -10.864  1.00  0.00    -0.319 OA
BRANCH   3   4
HETATM    4  C5  UNL     1       8.086  29.026 -10.992  1.00  0.00     0.204 C 
BRANCH   4   5
HETATM    5  C4  UNL     1       7.317  30.307 -10.863  1.00  0.00     0.109 C 
HETATM    6  C3  UNL     1       5.845  30.079 -11.144  1.00  0.00     0.036 C 
HETATM    7  C2  UNL     1       5.360  31.450 -11.557  1.00  0.00     0.105 C 
HETATM    8  C1  UNL     1       6.568  31.935 -12.325  1.00  0.00     0.218 C 
HETATM    9  O1  UNL     1       6.503  32.670 -13.341  1.00  0.00    -0.274 OA
HETATM   10  N1  UNL     1       7.707  31.394 -11.663  1.00  0.00    -0.354 N 
ATOM     11  H1  UNL     1       8.660  31.743 -11.757  1.00  0.00     0.162 HD
ENDBRANCH   4   5
ENDBRANCH   3   4
ENDBRANCH   1   3
BRANCH   1  12
HETATM   12  C7  UNL     1       8.488  26.349  -9.119  1.00  0.00     0.185 C 
BRANCH  12  13
HETATM   13  S1  UNL     1       8.903  24.692  -9.721  1.00  0.00    -0.154 SA
BRANCH  13  14
HETATM   14  C8  UNL     1       8.454  23.496  -8.438  1.00  0.00     0.047 C 
HETATM   15  C9  UNL     1       9.247  22.218  -8.561  1.00  0.00     0.015 C 
HETATM   16  C10 UNL     1       8.721  21.380  -9.693  1.00  0.00     0.001 C 
HETATM   17  C11 UNL     1       7.291  20.988  -9.333  1.00  0.00     0.000 C 
HETATM   18  C12 UNL     1       6.472  22.245  -9.343  1.00  0.00     0.001 C 
HETATM   19  C13 UNL     1       6.972  23.268  -8.371  1.00  0.00     0.015 C 
ENDBRANCH  13  14
ENDBRANCH  12  13
ENDBRANCH   1  12
TORSDOF 6
ENDMDL
MODEL 2
REMARK VINA RESULT: -7.475653200      1.115      1.313
REMARK  6 active torsions:
REMARK  status: ('A' for Active; 'I' for Inactive)
REMARK    1  A    between atoms: C4_5  and  C5_6 
REMARK    2  A    between atoms: C5_6  and  O2_7 
REMARK    3  A    between atoms: O2_7  and  C6_8 
REMARK    4  A    between atoms: C6_8  and  C7_10 
REMARK    5  A    between atoms: C7_10  and  S1_11 
REMARK    6  A    between atoms: S1_11  and  C8_12 
ROOT
HETATM    1  C6  UNL     1       7.524  26.676 -10.102  1.00  0.00     0.268 C 
HETATM    2  O3  UNL     1       8.486  25.917 -10.372  1.00  0.00    -0.264 OA
ENDROOT
BRANCH   1   3
HETATM    3  O2  UNL     1       7.390  27.801 -10.848  1.00  0.00    -0.319 OA
BRANCH   3   4
HETATM    4  C5  UNL     1       8.049  28.976 -10.948  1.00  0.00     0.204 C 
BRANCH   4   5
HETATM    5  C4  UNL     1       7.305  30.273 -10.826  1.00  0.00     0.109 C 
HETATM    6  C3  UNL     1       5.836  30.079 -11.143  1.00  0.00     0.036 C 
HETATM    7  C2  UNL     1       5.390  31.463 -11.557  1.00  0.00     0.105 C 
HETATM    8  C1  UNL     1       6.626  31.927 -12.293  1.00  0.00     0.218 C 
HETATM    9  O1  UNL     1       6.600  32.670 -13.305  1.00  0.00    -0.274 OA
HETATM   10  N1  UNL     1       7.737  31.357 -11.610  1.00  0.00    -0.354 N 
ATOM     11  H1  UNL     1       8.699  31.686 -11.679  1.00  0.00     0.162 HD
ENDBRANCH   4   5
ENDBRANCH   3   4
ENDBRANCH   1   3
BRANCH   1  12
HETATM   12  C7  UNL     1       6.587  26.306  -8.991  1.00  0.00     0.185 C 
BRANCH  12  13
HETATM   13  S1  UNL     1       5.852  24.680  -9.292  1.00  0.00    -0.154 SA
BRANCH  13  14
HETATM   14  C8  UNL     1       6.597  23.500  -8.139  1.00  0.00     0.047 C 
HETATM   15  C9  UNL     1       8.002  23.129  -8.544  1.00  0.00     0.015 C 
HETATM   16  C10 UNL     1       7.979  22.167  -9.698  1.00  0.00     0.001 C 
HETATM   17  C11 UNL     1       7.304  20.891  -9.206  1.00  0.00     0.000 C 
HETATM   18  C12 UNL     1       5.869  21.229  -8.929  1.00  0.00     0.001 C 
HETATM   19  C13 UNL     1       5.716  22.307  -7.903  1.00  0.00     0.015 C 
ENDBRANCH  13  14
ENDBRANCH  12  13
ENDBRANCH   1  12
TORSDOF 6
ENDMDL
MODEL 3
REMARK VINA RESULT: -7.464061766      1.096      1.275
REMARK  6 active torsions:
REMARK  status: ('A' for Active; 'I' for Inactive)
REMARK    1  A    between atoms: C4_5  and  C5_6 
REMARK    2  A    between atoms: C5_6  and  O2_7 
REMARK    3  A    between atoms: O2_7  and  C6_8 
REMARK    4  A    between atoms: C6_8  and  C7_10 
REMARK    5  A    between atoms: C7_10  and  S1_11 
REMARK    6  A    between atoms: S1_11  and  C8_12 
ROOT
HETATM    1  C6  UNL     1       7.196  27.031  -9.554  1.00  0.00     0.268 C 
HETATM    2  O3  UNL     1       6.301  26.269  -9.991  1.00  0.00    -0.264 OA
ENDROOT
BRANCH   1   3
HETATM    3  O2  UNL     1       6.961  28.366  -9.611  1.00  0.00    -0.319 OA
BRANCH   3   4
HETATM    4  C5  UNL     1       7.504  29.415 -10.267  1.00  0.00     0.204 C 
BRANCH   4   5
HETATM    5  C4  UNL     1       6.701  30.163 -11.291  1.00  0.00     0.109 C 
HETATM    6  C3  UNL     1       7.520  31.286 -11.896  1.00  0.00     0.036 C 
HETATM    7  C2  UNL     1       6.465  32.247 -12.396  1.00  0.00     0.105 C 
HETATM    8  C1  UNL     1       5.436  32.098 -11.298  1.00  0.00     0.218 C 
HETATM    9  O1  UNL     1       4.714  33.039 -10.885  1.00  0.00    -0.274 OA
HETATM   10  N1  UNL     1       5.486  30.738 -10.883  1.00  0.00    -0.354 N 
ATOM     11  H1  UNL     1       4.750  30.255 -10.369  1.00  0.00     0.162 HD
ENDBRANCH   4   5
ENDBRANCH   3   4
ENDBRANCH   1   3
BRANCH   1  12
HETATM   12  C7  UNL     1       8.458  26.440  -8.999  1.00  0.00     0.185 C 
BRANCH  12  13
HETATM   13  S1  UNL     1       8.761  24.804  -9.713  1.00  0.00    -0.154 SA
BRANCH  13  14
HETATM   14  C8  UNL     1       8.408  23.560  -8.446  1.00  0.00     0.047 C 
HETATM   15  C9  UNL     1       9.285  22.341  -8.595  1.00  0.00     0.015 C 
HETATM   16  C10 UNL     1       8.806  21.487  -9.736  1.00  0.00     0.001 C 
HETATM   17  C11 UNL     1       7.410  20.992  -9.371  1.00  0.00     0.000 C 
HETATM   18  C12 UNL     1       6.507  22.190  -9.353  1.00  0.00     0.001 C 
HETATM   19  C13 UNL     1       6.945  23.230  -8.370  1.00  0.00     0.015 C 
ENDBRANCH  13  14
ENDBRANCH  12  13
ENDBRANCH   1  12
TORSDOF 6
ENDMDL
MODEL 4
REMARK VINA RESULT: -7.462561987      1.508      1.766
REMARK  6 active torsions:
REMARK  status: ('A' for Active; 'I' for Inactive)
REMARK    1  A    between atoms: C4_5  and  C5_6 
REMARK    2  A    between atoms: C5_6  and  O2_7 
REMARK    3  A    between atoms: O2_7  and  C6_8 
REMARK    4  A    between atoms: C6_8  and  C7_10 
REMARK    5  A    between atoms: C7_10  and  S1_11 
REMARK    6  A    between atoms: S1_11  and  C8_12 
ROOT
HETATM    1  C6  UNL     1       6.888  26.911  -9.600  1.00  0.00     0.268 C 
HETATM    2  O3  UNL     1       7.784  26.406 -10.318  1.00  0.00    -0.264 OA
ENDROOT
BRANCH   1   3
HETATM    3  O2  UNL     1       6.627  28.232  -9.767  1.00  0.00    -0.319 OA
BRANCH   3   4
HETATM    4  C5  UNL     1       7.271  29.279 -10.326  1.00  0.00     0.204 C 
BRANCH   4   5
HETATM    5  C4  UNL     1       6.581  30.131 -11.352  1.00  0.00     0.109 C 
HETATM    6  C3  UNL     1       7.501  31.231 -11.841  1.00  0.00     0.036 C 
HETATM    7  C2  UNL     1       6.539  32.281 -12.347  1.00  0.00     0.105 C 
HETATM    8  C1  UNL     1       5.435  32.138 -11.324  1.00  0.00     0.218 C 
HETATM    9  O1  UNL     1       4.745  33.099 -10.901  1.00  0.00    -0.274 OA
HETATM   10  N1  UNL     1       5.378  30.758 -10.986  1.00  0.00    -0.354 N 
ATOM     11  H1  UNL     1       4.584  30.294 -10.545  1.00  0.00     0.162 HD
ENDBRANCH   4   5
ENDBRANCH   3   4
ENDBRANCH   1   3
BRANCH   1  12
HETATM   12  C7  UNL     1       6.163  26.046  -8.612  1.00  0.00     0.185 C 
BRANCH  12  13
HETATM   13  S1  UNL     1       6.027  24.350  -9.231  1.00  0.00    -0.154 SA
BRANCH  13  14
HETATM   14  C8  UNL     1       7.077  23.289  -8.208  1.00  0.00     0.047 C 
HETATM   15  C9  UNL     1       8.480  23.192  -8.755  1.00  0.00     0.015 C 
HETATM   16  C10 UNL     1       8.516  22.279  -9.949  1.00  0.00     0.001 C 
HETATM   17  C11 UNL     1       8.129  20.887  -9.460  1.00  0.00     0.000 C 
HETATM   18  C12 UNL     1       6.691  20.950  -9.040  1.00  0.00     0.001 C 
HETATM   19  C13 UNL     1       6.449  21.949  -7.953  1.00  0.00     0.015 C 
ENDBRANCH  13  14
ENDBRANCH  12  13
ENDBRANCH   1  12
TORSDOF 6
ENDMDL
MODEL 5
REMARK VINA RESULT: -7.284889213      0.978      1.531
REMARK  6 active torsions:
REMARK  status: ('A' for Active; 'I' for Inactive)
REMARK    1  A    between atoms: C4_5  and  C5_6 
REMARK    2  A    between atoms: C5_6  and  O2_7 
REMARK    3  A    between atoms: O2_7  and  C6_8 
REMARK    4  A    between atoms: C6_8  and  C7_10 
REMARK    5  A    between atoms: C7_10  and  S1_11 
REMARK    6  A    between atoms: S1_11  and  C8_12 
ROOT
HETATM    1  C6  UNL     1       7.552  27.267  -9.206  1.00  0.00     0.268 C 
HETATM    2  O3  UNL     1       6.399  27.013  -9.628  1.00  0.00    -0.264 OA
ENDROOT
BRANCH   1   3
HETATM    3  O2  UNL     1       8.277  28.186  -9.892  1.00  0.00    -0.319 OA
BRANCH   3   4
HETATM    4  C5  UNL     1       8.067  28.970 -10.972  1.00  0.00     0.204 C 
BRANCH   4   5
HETATM    5  C4  UNL     1       7.314  30.261 -10.833  1.00  0.00     0.109 C 
HETATM    6  C3  UNL     1       5.846  30.060 -11.151  1.00  0.00     0.036 C 
HETATM    7  C2  UNL     1       5.389  31.446 -11.546  1.00  0.00     0.105 C 
HETATM    8  C1  UNL     1       6.622  31.928 -12.278  1.00  0.00     0.218 C 
HETATM    9  O1  UNL     1       6.589  32.684 -13.280  1.00  0.00    -0.274 OA
HETATM   10  N1  UNL     1       7.737  31.357 -11.603  1.00  0.00    -0.354 N 
ATOM     11  H1  UNL     1       8.697  31.694 -11.669  1.00  0.00     0.162 HD
ENDBRANCH   4   5
ENDBRANCH   3   4
ENDBRANCH   1   3
BRANCH   1  12
HETATM   12  C7  UNL     1       8.063  26.557  -7.988  1.00  0.00     0.185 C 
BRANCH  12  13
HETATM   13  S1  UNL     1       9.304  25.320  -8.445  1.00  0.00    -0.154 SA
BRANCH  13  14
HETATM   14  C8  UNL     1       8.595  24.256  -9.728  1.00  0.00     0.047 C 
HETATM   15  C9  UNL     1       7.367  23.529  -9.238  1.00  0.00     0.015 C 
HETATM   16  C10 UNL     1       7.755  22.389  -8.339  1.00  0.00     0.001 C 
HETATM   17  C11 UNL     1       8.552  21.401  -9.186  1.00  0.00     0.000 C 
HETATM   18  C12 UNL     1       9.837  22.078  -9.561  1.00  0.00     0.001 C 
HETATM   19  C13 UNL     1       9.621  23.342 -10.333  1.00  0.00     0.015 C 
ENDBRANCH  13  14
ENDBRANCH  12  13
ENDBRANCH   1  12
TORSDOF 6
ENDMDL
