MODEL 1
REMARK VINA RESULT: -11.474197162      0.000      0.000
REMARK  6 active torsions:
REMARK  status: ('A' for Active; 'I' for Inactive)
REMARK    1  A    between atoms: N1_1  and  C1_4 
REMARK    2  A    between atoms: C4_9  and  C5_10 
REMARK    3  A    between atoms: C7_12  and  N3_13 
REMARK       I    between atoms: N3_13  and  C8_15 
REMARK    4  A    between atoms: C8_15  and  C9_17 
REMARK    5  A    between atoms: C19_32  and  N5_33 
REMARK    6  A    between atoms: N5_33  and  C20_35 
ROOT
HETATM    1  C1  UNL     1       3.661  30.179  38.758  1.00  0.00     0.676 A 
HETATM    2  N2  UNL     1       3.223  31.263  39.392  1.00  0.00    -0.201 N 
ATOM      3  H2  UNL     1       3.495  31.407  40.365  1.00  0.00     0.183 HD
HETATM    4  C2  UNL     1       2.436  32.177  38.798  1.00  0.00     0.121 A 
HETATM    5  C3  UNL     1       2.070  31.970  37.471  1.00  0.00     0.023 A 
HETATM    6  C4  UNL     1       1.292  32.854  36.810  1.00  0.00     0.005 A 
HETATM    7  C18 UNL     1       0.982  32.586  35.467  1.00  0.00     0.103 A 
HETATM    8  N4  UNL     1       1.429  31.505  34.859  1.00  0.00    -0.350 N 
ATOM      9  H4  UNL     1       1.173  31.361  33.882  1.00  0.00     0.166 HD
HETATM   10  C19 UNL     1       2.228  30.556  35.473  1.00  0.00     0.134 A 
HETATM   11  C26 UNL     1       2.534  30.824  36.801  1.00  0.00     0.105 A 
HETATM   12  N6  UNL     1       3.315  29.971  37.477  1.00  0.00    -0.187 N 
ATOM     13  H6  UNL     1       3.658  29.136  37.003  1.00  0.00     0.184 HD
ENDROOT
BRANCH   6  14
HETATM   14  C5  UNL     1       0.716  34.027  37.441  1.00  0.00     0.000 A 
HETATM   15  C6  UNL     1       1.262  35.274  37.423  1.00  0.00     0.043 A 
HETATM   16  C7  UNL     1       0.732  36.392  38.089  1.00  0.00     0.035 A 
HETATM   17  C15 UNL     1      -0.419  36.155  38.792  1.00  0.00     0.031 A 
HETATM   18  C16 UNL     1      -1.029  34.891  38.848  1.00  0.00     0.027 A 
HETATM   19  C17 UNL     1      -0.452  33.843  38.170  1.00  0.00     0.045 A 
HETATM   20 CL1  UNL     1      -1.250  32.283  38.256  1.00  0.00    -0.083 Cl
BRANCH  16  21
HETATM   21  N3  UNL     1       1.383  37.648  37.964  1.00  0.00    -0.323 N 
HETATM   22  C8  UNL     1       0.779  38.818  37.529  1.00  0.00     0.259 C 
HETATM   23  O1  UNL     1      -0.455  38.795  37.234  1.00  0.00    -0.267 OA
ATOM     24  H3  UNL     1       2.370  37.693  38.214  1.00  0.00     0.169 HD
BRANCH  22  25
HETATM   25  C9  UNL     1       1.467  40.089  37.389  1.00  0.00     0.071 A 
HETATM   26  C10 UNL     1       2.394  40.159  36.339  1.00  0.00     0.023 A 
HETATM   27  C11 UNL     1       3.048  41.342  36.136  1.00  0.00     0.043 A 
HETATM   28  C12 UNL     1       2.833  42.448  36.914  1.00  0.00     0.119 A 
HETATM   29  F1  UNL     1       3.504  43.624  36.687  1.00  0.00    -0.206 F 
HETATM   30  C13 UNL     1       1.919  42.365  37.943  1.00  0.00     0.085 A 
HETATM   31  C14 UNL     1       1.235  41.181  38.180  1.00  0.00     0.135 A 
HETATM   32  F2  UNL     1       0.382  41.180  39.222  1.00  0.00    -0.205 F 
ENDBRANCH  22  25
ENDBRANCH  16  21
ENDBRANCH   6  14
BRANCH  10  33
HETATM   33  N5  UNL     1       2.581  29.600  34.821  1.00  0.00    -0.338 N 
ATOM     34  H5  UNL     1       2.005  28.863  35.227  1.00  0.00     0.167 HD
BRANCH  33  35
HETATM   35  C20 UNL     1       3.253  28.919  33.905  1.00  0.00     0.072 A 
HETATM   36  C21 UNL     1       4.556  28.439  34.118  1.00  0.00     0.034 A 
HETATM   37  C22 UNL     1       5.248  27.728  33.174  1.00  0.00     0.021 A 
HETATM   38  C23 UNL     1       4.632  27.480  31.969  1.00  0.00     0.014 A 
HETATM   39 BR1  UNL     1       5.557  26.493  30.618  1.00  0.00    -0.051 Br
HETATM   40  C24 UNL     1       3.353  27.930  31.708  1.00  0.00     0.063 A 
HETATM   41  C25 UNL     1       2.696  28.634  32.675  1.00  0.00     0.144 A 
HETATM   42  F3  UNL     1       1.430  29.057  32.368  1.00  0.00    -0.204 F 
ENDBRANCH  33  35
ENDBRANCH  10  33
BRANCH   1  43
HETATM   43  N1  UNL     1       4.427  29.292  39.337  1.00  0.00    -0.234 N 
ATOM     44  H12 UNL     1       3.992  28.634  39.984  1.00  0.00     0.174 HD
ATOM     45  H11 UNL     1       5.431  29.240  39.162  1.00  0.00     0.174 HD
ENDBRANCH   1  43
TORSDOF 6
ENDMDL
MODEL 2
REMARK VINA RESULT: -11.390923617      0.776      1.071
REMARK  6 active torsions:
REMARK  status: ('A' for Active; 'I' for Inactive)
REMARK    1  A    between atoms: N1_1  and  C1_4 
REMARK    2  A    between atoms: C4_9  and  C5_10 
REMARK    3  A    between atoms: C7_12  and  N3_13 
REMARK       I    between atoms: N3_13  and  C8_15 
REMARK    4  A    between atoms: C8_15  and  C9_17 
REMARK    5  A    between atoms: C19_32  and  N5_33 
REMARK    6  A    between atoms: N5_33  and  C20_35 
ROOT
HETATM    1  C1  UNL     1       3.652  30.255  38.648  1.00  0.00     0.676 A 
HETATM    2  N2  UNL     1       3.242  31.340  39.298  1.00  0.00    -0.201 N 
ATOM      3  H2  UNL     1       3.531  31.471  40.268  1.00  0.00     0.183 HD
HETATM    4  C2  UNL     1       2.459  32.271  38.725  1.00  0.00     0.121 A 
HETATM    5  C3  UNL     1       2.068  32.082  37.403  1.00  0.00     0.023 A 
HETATM    6  C4  UNL     1       1.293  32.983  36.762  1.00  0.00     0.005 A 
HETATM    7  C18 UNL     1       0.957  32.732  35.422  1.00  0.00     0.103 A 
HETATM    8  N4  UNL     1       1.378  31.650  34.797  1.00  0.00    -0.350 N 
ATOM      9  H4  UNL     1       1.104  31.518  33.823  1.00  0.00     0.166 HD
HETATM   10  C19 UNL     1       2.171  30.684  35.390  1.00  0.00     0.134 A 
HETATM   11  C26 UNL     1       2.503  30.935  36.715  1.00  0.00     0.105 A 
HETATM   12  N6  UNL     1       3.282  30.065  37.371  1.00  0.00    -0.187 N 
ATOM     13  H6  UNL     1       3.605  29.228  36.884  1.00  0.00     0.184 HD
ENDROOT
BRANCH   6  14
HETATM   14  C5  UNL     1       0.745  34.159  37.413  1.00  0.00     0.000 A 
HETATM   15  C6  UNL     1       1.300  35.402  37.381  1.00  0.00     0.043 A 
HETATM   16  C7  UNL     1       0.798  36.522  38.064  1.00  0.00     0.035 A 
HETATM   17  C15 UNL     1      -0.332  36.292  38.802  1.00  0.00     0.031 A 
HETATM   18  C16 UNL     1      -0.949  35.032  38.875  1.00  0.00     0.027 A 
HETATM   19  C17 UNL     1      -0.401  33.982  38.178  1.00  0.00     0.045 A 
HETATM   20 CL1  UNL     1      -1.207  32.427  38.286  1.00  0.00    -0.083 Cl
BRANCH  16  21
HETATM   21  N3  UNL     1       1.454  37.774  37.922  1.00  0.00    -0.323 N 
HETATM   22  C8  UNL     1       0.839  38.956  37.537  1.00  0.00     0.259 C 
HETATM   23  O1  UNL     1      -0.409  38.949  37.309  1.00  0.00    -0.267 OA
ATOM     24  H3  UNL     1       2.454  37.806  38.118  1.00  0.00     0.169 HD
BRANCH  22  25
HETATM   25  C9  UNL     1       1.532  40.222  37.378  1.00  0.00     0.071 A 
HETATM   26  C10 UNL     1       2.458  40.273  36.326  1.00  0.00     0.023 A 
HETATM   27  C11 UNL     1       3.116  41.451  36.104  1.00  0.00     0.043 A 
HETATM   28  C12 UNL     1       2.905  42.570  36.865  1.00  0.00     0.119 A 
HETATM   29  F1  UNL     1       3.580  43.739  36.621  1.00  0.00    -0.206 F 
HETATM   30  C13 UNL     1       1.992  42.505  37.896  1.00  0.00     0.085 A 
HETATM   31  C14 UNL     1       1.304  41.327  38.152  1.00  0.00     0.135 A 
HETATM   32  F2  UNL     1       0.452  41.344  39.193  1.00  0.00    -0.205 F 
ENDBRANCH  22  25
ENDBRANCH  16  21
ENDBRANCH   6  14
BRANCH  10  33
HETATM   33  N5  UNL     1       2.500  29.729  34.724  1.00  0.00    -0.338 N 
ATOM     34  H5  UNL     1       1.839  29.025  35.053  1.00  0.00     0.167 HD
BRANCH  33  35
HETATM   35  C20 UNL     1       3.186  29.032  33.831  1.00  0.00     0.072 A 
HETATM   36  C21 UNL     1       2.572  28.290  32.808  1.00  0.00     0.034 A 
HETATM   37  C22 UNL     1       3.282  27.576  31.881  1.00  0.00     0.021 A 
HETATM   38  C23 UNL     1       4.655  27.592  31.963  1.00  0.00     0.014 A 
HETATM   39 BR1  UNL     1       5.693  26.610  30.692  1.00  0.00    -0.051 Br
HETATM   40  C24 UNL     1       5.309  28.305  32.948  1.00  0.00     0.063 A 
HETATM   41  C25 UNL     1       4.566  29.005  33.854  1.00  0.00     0.144 A 
HETATM   42  F3  UNL     1       5.261  29.696  34.810  1.00  0.00    -0.204 F 
ENDBRANCH  33  35
ENDBRANCH  10  33
BRANCH   1  43
HETATM   43  N1  UNL     1       4.415  29.351  39.206  1.00  0.00    -0.234 N 
ATOM     44  H12 UNL     1       5.419  29.405  39.040  1.00  0.00     0.174 HD
ATOM     45  H11 UNL     1       4.038  28.607  39.793  1.00  0.00     0.174 HD
ENDBRANCH   1  43
TORSDOF 6
ENDMDL
MODEL 3
REMARK VINA RESULT: -11.253785571      5.369     11.158
REMARK  6 active torsions:
REMARK  status: ('A' for Active; 'I' for Inactive)
REMARK    1  A    between atoms: N1_1  and  C1_4 
REMARK    2  A    between atoms: C4_9  and  C5_10 
REMARK    3  A    between atoms: C7_12  and  N3_13 
REMARK       I    between atoms: N3_13  and  C8_15 
REMARK    4  A    between atoms: C8_15  and  C9_17 
REMARK    5  A    between atoms: C19_32  and  N5_33 
REMARK    6  A    between atoms: N5_33  and  C20_35 
ROOT
HETATM    1  C1  UNL     1      -1.909  33.586  37.975  1.00  0.00     0.676 A 
HETATM    2  N2  UNL     1      -1.651  32.301  37.745  1.00  0.00    -0.201 N 
ATOM      3  H2  UNL     1      -2.431  31.646  37.686  1.00  0.00     0.183 HD
HETATM    4  C2  UNL     1      -0.400  31.834  37.585  1.00  0.00     0.121 A 
HETATM    5  C3  UNL     1       0.656  32.736  37.669  1.00  0.00     0.023 A 
HETATM    6  C4  UNL     1       1.936  32.336  37.506  1.00  0.00     0.005 A 
HETATM    7  C18 UNL     1       2.947  33.308  37.586  1.00  0.00     0.103 A 
HETATM    8  N4  UNL     1       2.667  34.576  37.813  1.00  0.00    -0.350 N 
ATOM      9  H4  UNL     1       3.441  35.240  37.860  1.00  0.00     0.166 HD
HETATM   10  C19 UNL     1       1.381  35.056  37.991  1.00  0.00     0.134 A 
HETATM   11  C26 UNL     1       0.384  34.093  37.912  1.00  0.00     0.105 A 
HETATM   12  N6  UNL     1      -0.895  34.464  38.056  1.00  0.00    -0.187 N 
ATOM     13  H6  UNL     1      -1.107  35.446  38.233  1.00  0.00     0.184 HD
ENDROOT
BRANCH   6  14
HETATM   14  C5  UNL     1       2.314  30.947  37.319  1.00  0.00     0.000 A 
HETATM   15  C6  UNL     1       2.683  30.095  38.315  1.00  0.00     0.043 A 
HETATM   16  C7  UNL     1       3.108  28.771  38.120  1.00  0.00     0.035 A 
HETATM   17  C15 UNL     1       3.134  28.357  36.815  1.00  0.00     0.031 A 
HETATM   18  C16 UNL     1       2.765  29.189  35.745  1.00  0.00     0.027 A 
HETATM   19  C17 UNL     1       2.359  30.475  36.013  1.00  0.00     0.045 A 
HETATM   20 CL1  UNL     1       1.896  31.480  34.652  1.00  0.00    -0.083 Cl
BRANCH  16  21
HETATM   21  N3  UNL     1       3.437  27.974  39.248  1.00  0.00    -0.323 N 
HETATM   22  C8  UNL     1       2.595  27.042  39.838  1.00  0.00     0.259 C 
HETATM   23  O1  UNL     1       1.446  26.854  39.335  1.00  0.00    -0.267 OA
ATOM     24  H3  UNL     1       4.363  28.096  39.657  1.00  0.00     0.169 HD
BRANCH  22  25
HETATM   25  C9  UNL     1       2.943  26.250  41.005  1.00  0.00     0.071 A 
HETATM   26  C10 UNL     1       2.768  26.891  42.240  1.00  0.00     0.023 A 
HETATM   27  C11 UNL     1       3.045  26.184  43.377  1.00  0.00     0.043 A 
HETATM   28  C12 UNL     1       3.484  24.887  43.351  1.00  0.00     0.119 A 
HETATM   29  F1  UNL     1       3.756  24.201  44.508  1.00  0.00    -0.206 F 
HETATM   30  C13 UNL     1       3.653  24.270  42.130  1.00  0.00     0.085 A 
HETATM   31  C14 UNL     1       3.381  24.956  40.954  1.00  0.00     0.135 A 
HETATM   32  F2  UNL     1       3.598  24.286  39.806  1.00  0.00    -0.205 F 
ENDBRANCH  22  25
ENDBRANCH  16  21
ENDBRANCH   6  14
BRANCH  10  33
HETATM   33  N5  UNL     1       1.239  36.241  38.196  1.00  0.00    -0.338 N 
ATOM     34  H5  UNL     1       0.498  36.230  38.897  1.00  0.00     0.167 HD
BRANCH  33  35
HETATM   35  C20 UNL     1       1.450  37.542  38.073  1.00  0.00     0.072 A 
HETATM   36  C21 UNL     1       2.702  38.136  38.304  1.00  0.00     0.034 A 
HETATM   37  C22 UNL     1       2.921  39.480  38.169  1.00  0.00     0.021 A 
HETATM   38  C23 UNL     1       1.864  40.275  37.791  1.00  0.00     0.014 A 
HETATM   39 BR1  UNL     1       2.119  42.159  37.590  1.00  0.00    -0.051 Br
HETATM   40  C24 UNL     1       0.613  39.743  37.552  1.00  0.00     0.063 A 
HETATM   41  C25 UNL     1       0.434  38.398  37.696  1.00  0.00     0.144 A 
HETATM   42  F3  UNL     1      -0.824  37.918  37.447  1.00  0.00    -0.204 F 
ENDBRANCH  33  35
ENDBRANCH  10  33
BRANCH   1  43
HETATM   43  N1  UNL     1      -3.126  34.039  38.128  1.00  0.00    -0.234 N 
ATOM     44  H12 UNL     1      -3.897  33.380  38.025  1.00  0.00     0.174 HD
ATOM     45  H11 UNL     1      -3.321  35.016  38.345  1.00  0.00     0.174 HD
ENDBRANCH   1  43
TORSDOF 6
ENDMDL
MODEL 4
REMARK VINA RESULT: -10.658689151      0.972      1.122
REMARK  6 active torsions:
REMARK  status: ('A' for Active; 'I' for Inactive)
REMARK    1  A    between atoms: N1_1  and  C1_4 
REMARK    2  A    between atoms: C4_9  and  C5_10 
REMARK    3  A    between atoms: C7_12  and  N3_13 
REMARK       I    between atoms: N3_13  and  C8_15 
REMARK    4  A    between atoms: C8_15  and  C9_17 
REMARK    5  A    between atoms: C19_32  and  N5_33 
REMARK    6  A    between atoms: N5_33  and  C20_35 
ROOT
HETATM    1  C1  UNL     1       3.718  29.878  38.664  1.00  0.00     0.676 A 
HETATM    2  N2  UNL     1       3.281  30.952  39.315  1.00  0.00    -0.201 N 
ATOM      3  H2  UNL     1       3.557  31.083  40.288  1.00  0.00     0.183 HD
HETATM    4  C2  UNL     1       2.488  31.872  38.737  1.00  0.00     0.121 A 
HETATM    5  C3  UNL     1       2.117  31.682  37.409  1.00  0.00     0.023 A 
HETATM    6  C4  UNL     1       1.334  32.573  36.764  1.00  0.00     0.005 A 
HETATM    7  C18 UNL     1       1.017  32.322  35.419  1.00  0.00     0.103 A 
HETATM    8  N4  UNL     1       1.464  31.251  34.794  1.00  0.00    -0.350 N 
ATOM      9  H4  UNL     1       1.204  31.119  33.816  1.00  0.00     0.166 HD
HETATM   10  C19 UNL     1       2.267  30.296  35.392  1.00  0.00     0.134 A 
HETATM   11  C26 UNL     1       2.580  30.547  36.722  1.00  0.00     0.105 A 
HETATM   12  N6  UNL     1       3.366  29.687  37.382  1.00  0.00    -0.187 N 
ATOM     13  H6  UNL     1       3.709  28.859  36.895  1.00  0.00     0.184 HD
ENDROOT
BRANCH   6  14
HETATM   14  C5  UNL     1       0.757  33.736  37.414  1.00  0.00     0.000 A 
HETATM   15  C6  UNL     1       1.252  35.002  37.335  1.00  0.00     0.043 A 
HETATM   16  C7  UNL     1       0.726  36.112  38.017  1.00  0.00     0.035 A 
HETATM   17  C15 UNL     1      -0.362  35.846  38.804  1.00  0.00     0.031 A 
HETATM   18  C16 UNL     1      -0.917  34.562  38.926  1.00  0.00     0.027 A 
HETATM   19  C17 UNL     1      -0.348  33.523  38.227  1.00  0.00     0.045 A 
HETATM   20 CL1  UNL     1      -1.076  31.936  38.397  1.00  0.00    -0.083 Cl
BRANCH  16  21
HETATM   21  N3  UNL     1       1.317  37.389  37.824  1.00  0.00    -0.323 N 
HETATM   22  C8  UNL     1       0.936  38.550  38.481  1.00  0.00     0.259 C 
HETATM   23  O1  UNL     1       0.005  38.488  39.340  1.00  0.00    -0.267 OA
ATOM     24  H3  UNL     1       2.080  37.458  37.151  1.00  0.00     0.169 HD
BRANCH  22  25
HETATM   25  C9  UNL     1       1.540  39.851  38.255  1.00  0.00     0.071 A 
HETATM   26  C10 UNL     1       0.641  40.891  37.974  1.00  0.00     0.023 A 
HETATM   27  C11 UNL     1       1.147  42.147  37.787  1.00  0.00     0.043 A 
HETATM   28  C12 UNL     1       2.487  42.422  37.862  1.00  0.00     0.119 A 
HETATM   29  F1  UNL     1       2.968  43.693  37.670  1.00  0.00    -0.206 F 
HETATM   30  C13 UNL     1       3.359  41.390  38.139  1.00  0.00     0.085 A 
HETATM   31  C14 UNL     1       2.882  40.101  38.335  1.00  0.00     0.135 A 
HETATM   32  F2  UNL     1       3.805  39.151  38.573  1.00  0.00    -0.205 F 
ENDBRANCH  22  25
ENDBRANCH  16  21
ENDBRANCH   6  14
BRANCH  10  33
HETATM   33  N5  UNL     1       2.620  29.350  34.724  1.00  0.00    -0.338 N 
ATOM     34  H5  UNL     1       2.010  28.617  35.087  1.00  0.00     0.167 HD
BRANCH  33  35
HETATM   35  C20 UNL     1       3.308  28.677  33.814  1.00  0.00     0.072 A 
HETATM   36  C21 UNL     1       4.632  28.254  34.019  1.00  0.00     0.034 A 
HETATM   37  C22 UNL     1       5.340  27.553  33.081  1.00  0.00     0.021 A 
HETATM   38  C23 UNL     1       4.720  27.254  31.890  1.00  0.00     0.014 A 
HETATM   39 BR1  UNL     1       5.666  26.276  30.547  1.00  0.00    -0.051 Br
HETATM   40  C24 UNL     1       3.420  27.646  31.637  1.00  0.00     0.063 A 
HETATM   41  C25 UNL     1       2.747  28.343  32.598  1.00  0.00     0.144 A 
HETATM   42  F3  UNL     1       1.461  28.708  32.300  1.00  0.00    -0.204 F 
ENDBRANCH  33  35
ENDBRANCH  10  33
BRANCH   1  43
HETATM   43  N1  UNL     1       4.489  28.984  39.227  1.00  0.00    -0.234 N 
ATOM     44  H12 UNL     1       5.499  29.118  39.165  1.00  0.00     0.174 HD
ATOM     45  H11 UNL     1       4.116  28.172  39.719  1.00  0.00     0.174 HD
ENDBRANCH   1  43
TORSDOF 6
ENDMDL
MODEL 5
REMARK VINA RESULT: -10.519288583      0.832      1.136
REMARK  6 active torsions:
REMARK  status: ('A' for Active; 'I' for Inactive)
REMARK    1  A    between atoms: N1_1  and  C1_4 
REMARK    2  A    between atoms: C4_9  and  C5_10 
REMARK    3  A    between atoms: C7_12  and  N3_13 
REMARK       I    between atoms: N3_13  and  C8_15 
REMARK    4  A    between atoms: C8_15  and  C9_17 
REMARK    5  A    between atoms: C19_32  and  N5_33 
REMARK    6  A    between atoms: N5_33  and  C20_35 
ROOT
HETATM    1  C1  UNL     1       3.597  30.340  38.648  1.00  0.00     0.676 A 
HETATM    2  N2  UNL     1       3.216  31.433  39.302  1.00  0.00    -0.201 N 
ATOM      3  H2  UNL     1       3.513  31.555  40.271  1.00  0.00     0.183 HD
HETATM    4  C2  UNL     1       2.455  32.385  38.734  1.00  0.00     0.121 A 
HETATM    5  C3  UNL     1       2.055  32.209  37.413  1.00  0.00     0.023 A 
HETATM    6  C4  UNL     1       1.300  33.132  36.778  1.00  0.00     0.005 A 
HETATM    7  C18 UNL     1       0.953  32.892  35.438  1.00  0.00     0.103 A 
HETATM    8  N4  UNL     1       1.344  31.802  34.809  1.00  0.00    -0.350 N 
ATOM      9  H4  UNL     1       1.063  31.679  33.836  1.00  0.00     0.166 HD
HETATM   10  C19 UNL     1       2.115  30.814  35.397  1.00  0.00     0.134 A 
HETATM   11  C26 UNL     1       2.459  31.054  36.721  1.00  0.00     0.105 A 
HETATM   12  N6  UNL     1       3.218  30.162  37.372  1.00  0.00    -0.187 N 
ATOM     13  H6  UNL     1       3.517  29.320  36.881  1.00  0.00     0.184 HD
ENDROOT
BRANCH   6  14
HETATM   14  C5  UNL     1       0.784  34.319  37.434  1.00  0.00     0.000 A 
HETATM   15  C6  UNL     1       1.346  35.558  37.365  1.00  0.00     0.043 A 
HETATM   16  C7  UNL     1       0.877  36.690  38.052  1.00  0.00     0.035 A 
HETATM   17  C15 UNL     1      -0.227  36.476  38.834  1.00  0.00     0.031 A 
HETATM   18  C16 UNL     1      -0.849  35.222  38.946  1.00  0.00     0.027 A 
HETATM   19  C17 UNL     1      -0.334  34.159  38.242  1.00  0.00     0.045 A 
HETATM   20 CL1  UNL     1      -1.146  32.612  38.399  1.00  0.00    -0.083 Cl
BRANCH  16  21
HETATM   21  N3  UNL     1       1.535  37.935  37.871  1.00  0.00    -0.323 N 
HETATM   22  C8  UNL     1       0.910  39.123  37.523  1.00  0.00     0.259 C 
HETATM   23  O1  UNL     1      -0.350  39.128  37.372  1.00  0.00    -0.267 OA
ATOM     24  H3  UNL     1       2.546  37.957  38.005  1.00  0.00     0.169 HD
BRANCH  22  25
HETATM   25  C9  UNL     1       1.604  40.383  37.322  1.00  0.00     0.071 A 
HETATM   26  C10 UNL     1       1.337  41.375  38.277  1.00  0.00     0.023 A 
HETATM   27  C11 UNL     1       1.988  42.572  38.160  1.00  0.00     0.043 A 
HETATM   28  C12 UNL     1       2.881  42.832  37.154  1.00  0.00     0.119 A 
HETATM   29  F1  UNL     1       3.521  44.042  37.061  1.00  0.00    -0.206 F 
HETATM   30  C13 UNL     1       3.133  41.847  36.223  1.00  0.00     0.085 A 
HETATM   31  C14 UNL     1       2.491  40.619  36.309  1.00  0.00     0.135 A 
HETATM   32  F2  UNL     1       2.776  39.726  35.343  1.00  0.00    -0.205 F 
ENDBRANCH  22  25
ENDBRANCH  16  21
ENDBRANCH   6  14
BRANCH  10  33
HETATM   33  N5  UNL     1       2.417  29.853  34.727  1.00  0.00    -0.338 N 
ATOM     34  H5  UNL     1       1.656  29.212  34.951  1.00  0.00     0.167 HD
BRANCH  33  35
HETATM   35  C20 UNL     1       3.124  29.118  33.882  1.00  0.00     0.072 A 
HETATM   36  C21 UNL     1       4.441  28.707  34.148  1.00  0.00     0.034 A 
HETATM   37  C22 UNL     1       5.169  27.941  33.277  1.00  0.00     0.021 A 
HETATM   38  C23 UNL     1       4.577  27.563  32.095  1.00  0.00     0.014 A 
HETATM   39 BR1  UNL     1       5.552  26.494  30.846  1.00  0.00    -0.051 Br
HETATM   40  C24 UNL     1       3.285  27.940  31.784  1.00  0.00     0.063 A 
HETATM   41  C25 UNL     1       2.591  28.703  32.677  1.00  0.00     0.144 A 
HETATM   42  F3  UNL     1       1.315  29.049  32.324  1.00  0.00    -0.204 F 
ENDBRANCH  33  35
ENDBRANCH  10  33
BRANCH   1  43
HETATM   43  N1  UNL     1       4.339  29.416  39.201  1.00  0.00    -0.234 N 
ATOM     44  H12 UNL     1       4.253  28.462  38.851  1.00  0.00     0.174 HD
ATOM     45  H11 UNL     1       4.990  29.620  39.959  1.00  0.00     0.174 HD
ENDBRANCH   1  43
TORSDOF 6
ENDMDL
