MODEL 1
REMARK VINA RESULT: -8.456450813      0.000      0.000
REMARK  15 active torsions:
REMARK  status: ('A' for Active; 'I' for Inactive)
REMARK    1  A    between atoms: C4_4  and  N1_5 
REMARK    2  A    between atoms: N1_5  and  C5_7 
REMARK    3  A    between atoms: C5_7  and  C6_8 
REMARK    4  A    between atoms: C6_8  and  C7_9 
REMARK    5  A    between atoms: C7_9  and  C8_10 
REMARK    6  A    between atoms: C8_10  and  C9_11 
REMARK    7  A    between atoms: C9_11  and  C10_12 
REMARK    8  A    between atoms: C10_12  and  C11_13 
REMARK    9  A    between atoms: C11_13  and  C12_14 
REMARK   10  A    between atoms: C12_14  and  N2_15 
REMARK   11  A    between atoms: N2_15  and  C13_17 
REMARK   12  A    between atoms: C16_22  and  N4_23 
REMARK   13  A    between atoms: C17_28  and  N6_29 
REMARK   14  A    between atoms: C19_33  and  C20_34 
REMARK   15  A    between atoms: C20_34  and  C21_35 
ROOT
HETATM    1  N1  UNL     1      10.415  42.488  -7.192  1.00  0.00    -0.388 N 
ATOM      2  H1  UNL     1      10.218  42.308  -6.207  1.00  0.00     0.159 HD
ENDROOT
BRANCH   1   3
HETATM    3  C4  UNL     1      11.398  41.719  -7.859  1.00  0.00     0.061 A 
HETATM    4  C3  UNL     1      12.205  42.372  -8.806  1.00  0.00     0.039 A 
HETATM    5  C2  UNL     1      13.218  41.742  -9.485  1.00  0.00    -0.053 A 
HETATM    6  C1  UNL     1      14.020  42.516 -10.477  1.00  0.00     0.049 C 
HETATM    7  C19 UNL     1      13.442  40.408  -9.214  1.00  0.00    -0.045 A 
HETATM    8  C18 UNL     1      12.662  39.757  -8.292  1.00  0.00     0.046 A 
HETATM    9  C17 UNL     1      11.617  40.412  -7.595  1.00  0.00     0.129 A 
BRANCH   7  10
HETATM   10  C20 UNL     1      14.482  39.642  -9.886  1.00  0.00     0.085 C 
BRANCH  10  11
HETATM   11  C21 UNL     1      14.109  38.355 -10.471  1.00  0.00     0.036 A 
HETATM   12  C22 UNL     1      13.786  38.319 -11.836  1.00  0.00     0.022 A 
HETATM   13  C23 UNL     1      13.837  39.615 -12.573  1.00  0.00     0.069 C 
HETATM   14  N7  UNL     1      13.445  37.184 -12.456  1.00  0.00    -0.312 N 
HETATM   15  C24 UNL     1      13.396  36.014 -11.788  1.00  0.00     0.327 A 
ATOM     16  H7  UNL     1      13.218  37.204 -13.450  1.00  0.00     0.170 HD
HETATM   17  O3  UNL     1      13.072  34.942 -12.380  1.00  0.00    -0.247 OA
HETATM   18  N8  UNL     1      13.700  36.024 -10.482  1.00  0.00    -0.275 N 
HETATM   19  C25 UNL     1      14.050  37.146  -9.813  1.00  0.00     0.257 A 
ATOM     20  H8  UNL     1      13.665  35.143  -9.968  1.00  0.00     0.173 HD
HETATM   21  O4  UNL     1      14.330  37.127  -8.591  1.00  0.00    -0.267 OA
ENDBRANCH  10  11
ENDBRANCH   7  10
BRANCH   9  22
HETATM   22  N6  UNL     1      10.858  39.684  -6.665  1.00  0.00    -0.113 N 
HETATM   23  O1  UNL     1      10.365  40.187  -5.667  1.00  0.00    -0.532 OA
HETATM   24  O2  UNL     1      10.603  38.329  -6.888  1.00  0.00    -0.532 OA
ENDBRANCH   9  22
ENDBRANCH   1   3
BRANCH   1  25
HETATM   25  C5  UNL     1       9.679  43.533  -7.890  1.00  0.00     0.120 C 
BRANCH  25  26
HETATM   26  C6  UNL     1       8.401  43.801  -7.151  1.00  0.00     0.020 C 
BRANCH  26  27
HETATM   27  C7  UNL     1       8.307  43.198  -5.794  1.00  0.00     0.002 C 
BRANCH  27  28
HETATM   28  C8  UNL     1       6.902  42.769  -5.407  1.00  0.00     0.000 C 
BRANCH  28  29
HETATM   29  C9  UNL     1       6.990  41.880  -4.186  1.00  0.00     0.000 C 
BRANCH  29  30
HETATM   30  C10 UNL     1       6.376  42.536  -2.971  1.00  0.00     0.002 C 
BRANCH  30  31
HETATM   31  C11 UNL     1       7.349  42.654  -1.842  1.00  0.00     0.020 C 
BRANCH  31  32
HETATM   32  C12 UNL     1       8.736  42.175  -2.136  1.00  0.00     0.121 C 
BRANCH  32  33
HETATM   33  N2  UNL     1       9.175  41.180  -1.216  1.00  0.00    -0.376 N 
ATOM     34  H2  UNL     1       9.201  41.478  -0.241  1.00  0.00     0.161 HD
BRANCH  33  35
HETATM   35  C13 UNL     1       9.538  39.990  -1.418  1.00  0.00     0.118 A 
HETATM   36  C14 UNL     1       9.658  39.131  -0.318  1.00  0.00     0.066 A 
HETATM   37  C15 UNL     1      10.051  37.819  -0.476  1.00  0.00     0.110 A 
HETATM   38  N3  UNL     1      10.326  37.345  -1.692  1.00  0.00    -0.202 N 
HETATM   39  C16 UNL     1      10.203  38.188  -2.729  1.00  0.00     0.677 A 
ATOM     40  H3  UNL     1      10.617  36.377  -1.829  1.00  0.00     0.183 HD
HETATM   41  N5  UNL     1       9.822  39.473  -2.618  1.00  0.00    -0.177 N 
ATOM     42  H5  UNL     1       9.751  40.056  -3.452  1.00  0.00     0.185 HD
BRANCH  39  43
HETATM   43  N4  UNL     1      10.466  37.739  -3.913  1.00  0.00    -0.234 N 
ATOM     44  H42 UNL     1       9.970  36.904  -4.224  1.00  0.00     0.174 HD
ATOM     45  H41 UNL     1      11.155  38.240  -4.475  1.00  0.00     0.174 HD
ENDBRANCH  39  43
ENDBRANCH  33  35
ENDBRANCH  32  33
ENDBRANCH  31  32
ENDBRANCH  30  31
ENDBRANCH  29  30
ENDBRANCH  28  29
ENDBRANCH  27  28
ENDBRANCH  26  27
ENDBRANCH  25  26
ENDBRANCH   1  25
TORSDOF 15
ENDMDL
MODEL 2
REMARK VINA RESULT: -8.202144291      3.524      6.825
REMARK  15 active torsions:
REMARK  status: ('A' for Active; 'I' for Inactive)
REMARK    1  A    between atoms: C4_4  and  N1_5 
REMARK    2  A    between atoms: N1_5  and  C5_7 
REMARK    3  A    between atoms: C5_7  and  C6_8 
REMARK    4  A    between atoms: C6_8  and  C7_9 
REMARK    5  A    between atoms: C7_9  and  C8_10 
REMARK    6  A    between atoms: C8_10  and  C9_11 
REMARK    7  A    between atoms: C9_11  and  C10_12 
REMARK    8  A    between atoms: C10_12  and  C11_13 
REMARK    9  A    between atoms: C11_13  and  C12_14 
REMARK   10  A    between atoms: C12_14  and  N2_15 
REMARK   11  A    between atoms: N2_15  and  C13_17 
REMARK   12  A    between atoms: C16_22  and  N4_23 
REMARK   13  A    between atoms: C17_28  and  N6_29 
REMARK   14  A    between atoms: C19_33  and  C20_34 
REMARK   15  A    between atoms: C20_34  and  C21_35 
ROOT
HETATM    1  N1  UNL     1      13.442  38.402 -10.954  1.00  0.00    -0.388 N 
ATOM      2  H1  UNL     1      12.470  38.393 -10.643  1.00  0.00     0.159 HD
ENDROOT
BRANCH   1   3
HETATM    3  C4  UNL     1      13.746  38.081 -12.299  1.00  0.00     0.061 A 
HETATM    4  C3  UNL     1      13.999  39.144 -13.182  1.00  0.00     0.039 A 
HETATM    5  C2  UNL     1      14.346  38.957 -14.497  1.00  0.00    -0.053 A 
HETATM    6  C1  UNL     1      14.590  40.147 -15.362  1.00  0.00     0.049 C 
HETATM    7  C19 UNL     1      14.446  37.660 -14.957  1.00  0.00    -0.045 A 
HETATM    8  C18 UNL     1      14.202  36.611 -14.107  1.00  0.00     0.046 A 
HETATM    9  C17 UNL     1      13.844  36.811 -12.751  1.00  0.00     0.129 A 
BRANCH   7  10
HETATM   10  C20 UNL     1      14.795  37.348 -16.336  1.00  0.00     0.085 C 
BRANCH  10  11
HETATM   11  C21 UNL     1      14.804  35.942 -16.735  1.00  0.00     0.036 A 
HETATM   12  C22 UNL     1      16.026  35.254 -16.705  1.00  0.00     0.022 A 
HETATM   13  C23 UNL     1      17.226  36.034 -16.281  1.00  0.00     0.069 C 
HETATM   14  N7  UNL     1      16.124  33.964 -17.042  1.00  0.00    -0.312 N 
HETATM   15  C24 UNL     1      15.041  33.261 -17.428  1.00  0.00     0.327 A 
ATOM     16  H7  UNL     1      17.034  33.504 -17.006  1.00  0.00     0.170 HD
HETATM   17  O3  UNL     1      15.139  32.039 -17.746  1.00  0.00    -0.247 OA
HETATM   18  N8  UNL     1      13.860  33.898 -17.465  1.00  0.00    -0.275 N 
HETATM   19  C25 UNL     1      13.713  35.201 -17.134  1.00  0.00     0.257 A 
ATOM     20  H8  UNL     1      13.035  33.374 -17.757  1.00  0.00     0.173 HD
HETATM   21  O4  UNL     1      12.598  35.771 -17.177  1.00  0.00    -0.267 OA
ENDBRANCH  10  11
ENDBRANCH   7  10
BRANCH   9  22
HETATM   22  N6  UNL     1      13.608  35.691 -11.936  1.00  0.00    -0.113 N 
HETATM   23  O1  UNL     1      12.637  34.963 -12.068  1.00  0.00    -0.532 OA
HETATM   24  O2  UNL     1      14.533  35.347 -10.949  1.00  0.00    -0.532 OA
ENDBRANCH   9  22
ENDBRANCH   1   3
BRANCH   1  25
HETATM   25  C5  UNL     1      14.494  38.745 -10.009  1.00  0.00     0.120 C 
BRANCH  25  26
HETATM   26  C6  UNL     1      14.528  40.235  -9.842  1.00  0.00     0.020 C 
BRANCH  26  27
HETATM   27  C7  UNL     1      15.828  40.886 -10.159  1.00  0.00     0.002 C 
BRANCH  27  28
HETATM   28  C8  UNL     1      16.039  42.216  -9.456  1.00  0.00     0.000 C 
BRANCH  28  29
HETATM   29  C9  UNL     1      14.696  42.735  -8.996  1.00  0.00     0.000 C 
BRANCH  29  30
HETATM   30  C10 UNL     1      14.706  43.093  -7.528  1.00  0.00     0.002 C 
BRANCH  30  31
HETATM   31  C11 UNL     1      13.562  42.474  -6.790  1.00  0.00     0.020 C 
BRANCH  31  32
HETATM   32  C12 UNL     1      12.337  42.211  -7.606  1.00  0.00     0.121 C 
BRANCH  32  33
HETATM   33  N2  UNL     1      11.390  41.396  -6.921  1.00  0.00    -0.376 N 
ATOM     34  H2  UNL     1      10.487  41.837  -6.751  1.00  0.00     0.161 HD
BRANCH  33  35
HETATM   35  C13 UNL     1      11.494  40.216  -6.491  1.00  0.00     0.118 A 
HETATM   36  C14 UNL     1      12.131  39.264  -7.297  1.00  0.00     0.066 A 
HETATM   37  C15 UNL     1      12.273  37.957  -6.880  1.00  0.00     0.110 A 
HETATM   38  N3  UNL     1      11.803  37.578  -5.691  1.00  0.00    -0.202 N 
HETATM   39  C16 UNL     1      11.197  38.511  -4.938  1.00  0.00     0.677 A 
ATOM     40  H3  UNL     1      11.899  36.616  -5.366  1.00  0.00     0.183 HD
HETATM   41  N5  UNL     1      11.038  39.794  -5.307  1.00  0.00    -0.177 N 
ATOM     42  H5  UNL     1      10.567  40.447  -4.681  1.00  0.00     0.185 HD
BRANCH  39  43
HETATM   43  N4  UNL     1      10.737  38.155  -3.782  1.00  0.00    -0.234 N 
ATOM     44  H42 UNL     1      11.360  37.635  -3.164  1.00  0.00     0.174 HD
ATOM     45  H41 UNL     1       9.777  38.410  -3.549  1.00  0.00     0.174 HD
ENDBRANCH  39  43
ENDBRANCH  33  35
ENDBRANCH  32  33
ENDBRANCH  31  32
ENDBRANCH  30  31
ENDBRANCH  29  30
ENDBRANCH  28  29
ENDBRANCH  27  28
ENDBRANCH  26  27
ENDBRANCH  25  26
ENDBRANCH   1  25
TORSDOF 15
ENDMDL
MODEL 3
REMARK VINA RESULT: -8.100671738      3.866      6.730
REMARK  15 active torsions:
REMARK  status: ('A' for Active; 'I' for Inactive)
REMARK    1  A    between atoms: C4_4  and  N1_5 
REMARK    2  A    between atoms: N1_5  and  C5_7 
REMARK    3  A    between atoms: C5_7  and  C6_8 
REMARK    4  A    between atoms: C6_8  and  C7_9 
REMARK    5  A    between atoms: C7_9  and  C8_10 
REMARK    6  A    between atoms: C8_10  and  C9_11 
REMARK    7  A    between atoms: C9_11  and  C10_12 
REMARK    8  A    between atoms: C10_12  and  C11_13 
REMARK    9  A    between atoms: C11_13  and  C12_14 
REMARK   10  A    between atoms: C12_14  and  N2_15 
REMARK   11  A    between atoms: N2_15  and  C13_17 
REMARK   12  A    between atoms: C16_22  and  N4_23 
REMARK   13  A    between atoms: C17_28  and  N6_29 
REMARK   14  A    between atoms: C19_33  and  C20_34 
REMARK   15  A    between atoms: C20_34  and  C21_35 
ROOT
HETATM    1  N1  UNL     1      13.713  38.295 -11.841  1.00  0.00    -0.388 N 
ATOM      2  H1  UNL     1      12.872  38.065 -11.313  1.00  0.00     0.159 HD
ENDROOT
BRANCH   1   3
HETATM    3  C4  UNL     1      13.946  37.668 -13.089  1.00  0.00     0.061 A 
HETATM    4  C3  UNL     1      14.134  38.495 -14.209  1.00  0.00     0.039 A 
HETATM    5  C2  UNL     1      14.408  38.005 -15.462  1.00  0.00    -0.053 A 
HETATM    6  C1  UNL     1      14.588  38.960 -16.593  1.00  0.00     0.049 C 
HETATM    7  C19 UNL     1      14.500  36.636 -15.611  1.00  0.00    -0.045 A 
HETATM    8  C18 UNL     1      14.318  35.816 -14.526  1.00  0.00     0.046 A 
HETATM    9  C17 UNL     1      14.035  36.327 -13.236  1.00  0.00     0.129 A 
BRANCH   7  10
HETATM   10  C20 UNL     1      14.775  36.011 -16.897  1.00  0.00     0.085 C 
BRANCH  10  11
HETATM   11  C21 UNL     1      15.870  35.044 -16.963  1.00  0.00     0.036 A 
HETATM   12  C22 UNL     1      15.560  33.718 -17.296  1.00  0.00     0.022 A 
HETATM   13  C23 UNL     1      14.122  33.404 -17.540  1.00  0.00     0.069 C 
HETATM   14  N7  UNL     1      16.500  32.771 -17.391  1.00  0.00    -0.312 N 
HETATM   15  C24 UNL     1      17.799  33.054 -17.167  1.00  0.00     0.327 A 
ATOM     16  H7  UNL     1      16.229  31.818 -17.636  1.00  0.00     0.170 HD
HETATM   17  O3  UNL     1      18.685  32.154 -17.258  1.00  0.00    -0.247 OA
HETATM   18  N8  UNL     1      18.119  34.317 -16.846  1.00  0.00    -0.275 N 
HETATM   19  C25 UNL     1      17.204  35.307 -16.739  1.00  0.00     0.257 A 
ATOM     20  H8  UNL     1      19.099  34.541 -16.675  1.00  0.00     0.173 HD
HETATM   21  O4  UNL     1      17.530  36.479 -16.438  1.00  0.00    -0.267 OA
ENDBRANCH  10  11
ENDBRANCH   7  10
BRANCH   9  22
HETATM   22  N6  UNL     1      13.860  35.430 -12.171  1.00  0.00    -0.113 N 
HETATM   23  O1  UNL     1      14.597  35.398 -11.198  1.00  0.00    -0.532 OA
HETATM   24  O2  UNL     1      12.775  34.550 -12.178  1.00  0.00    -0.532 OA
ENDBRANCH   9  22
ENDBRANCH   1   3
BRANCH   1  25
HETATM   25  C5  UNL     1      14.658  39.262 -11.301  1.00  0.00     0.120 C 
BRANCH  25  26
HETATM   26  C6  UNL     1      14.425  39.393  -9.824  1.00  0.00     0.020 C 
BRANCH  26  27
HETATM   27  C7  UNL     1      13.094  38.934  -9.343  1.00  0.00     0.002 C 
BRANCH  27  28
HETATM   28  C8  UNL     1      13.148  37.677  -8.491  1.00  0.00     0.000 C 
BRANCH  28  29
HETATM   29  C9  UNL     1      12.632  38.010  -7.108  1.00  0.00     0.000 C 
BRANCH  29  30
HETATM   30  C10 UNL     1      11.497  39.005  -7.159  1.00  0.00     0.002 C 
BRANCH  30  31
HETATM   31  C11 UNL     1      11.064  39.435  -5.793  1.00  0.00     0.020 C 
BRANCH  31  32
HETATM   32  C12 UNL     1      10.711  38.328  -4.852  1.00  0.00     0.121 C 
BRANCH  32  33
HETATM   33  N2  UNL     1      10.899  38.692  -3.487  1.00  0.00    -0.376 N 
ATOM     34  H2  UNL     1      11.566  39.447  -3.332  1.00  0.00     0.161 HD
BRANCH  33  35
HETATM   35  C13 UNL     1      10.369  38.227  -2.442  1.00  0.00     0.118 A 
HETATM   36  C14 UNL     1      10.204  39.077  -1.341  1.00  0.00     0.066 A 
HETATM   37  C15 UNL     1       9.632  38.624  -0.170  1.00  0.00     0.110 A 
HETATM   38  N3  UNL     1       9.224  37.359  -0.070  1.00  0.00    -0.202 N 
HETATM   39  C16 UNL     1       9.395  36.565  -1.140  1.00  0.00     0.677 A 
ATOM     40  H3  UNL     1       8.799  37.006   0.787  1.00  0.00     0.183 HD
HETATM   41  N5  UNL     1       9.947  36.966  -2.298  1.00  0.00    -0.177 N 
ATOM     42  H5  UNL     1      10.044  36.306  -3.070  1.00  0.00     0.185 HD
BRANCH  39  43
HETATM   43  N4  UNL     1       9.002  35.336  -1.054  1.00  0.00    -0.234 N 
ATOM     44  H42 UNL     1       9.220  34.827  -0.197  1.00  0.00     0.174 HD
ATOM     45  H41 UNL     1       8.498  34.936  -1.846  1.00  0.00     0.174 HD
ENDBRANCH  39  43
ENDBRANCH  33  35
ENDBRANCH  32  33
ENDBRANCH  31  32
ENDBRANCH  30  31
ENDBRANCH  29  30
ENDBRANCH  28  29
ENDBRANCH  27  28
ENDBRANCH  26  27
ENDBRANCH  25  26
ENDBRANCH   1  25
TORSDOF 15
ENDMDL
MODEL 4
REMARK VINA RESULT: -8.025746498      3.556      6.409
REMARK  15 active torsions:
REMARK  status: ('A' for Active; 'I' for Inactive)
REMARK    1  A    between atoms: C4_4  and  N1_5 
REMARK    2  A    between atoms: N1_5  and  C5_7 
REMARK    3  A    between atoms: C5_7  and  C6_8 
REMARK    4  A    between atoms: C6_8  and  C7_9 
REMARK    5  A    between atoms: C7_9  and  C8_10 
REMARK    6  A    between atoms: C8_10  and  C9_11 
REMARK    7  A    between atoms: C9_11  and  C10_12 
REMARK    8  A    between atoms: C10_12  and  C11_13 
REMARK    9  A    between atoms: C11_13  and  C12_14 
REMARK   10  A    between atoms: C12_14  and  N2_15 
REMARK   11  A    between atoms: N2_15  and  C13_17 
REMARK   12  A    between atoms: C16_22  and  N4_23 
REMARK   13  A    between atoms: C17_28  and  N6_29 
REMARK   14  A    between atoms: C19_33  and  C20_34 
REMARK   15  A    between atoms: C20_34  and  C21_35 
ROOT
HETATM    1  N1  UNL     1      13.606  38.148 -11.350  1.00  0.00    -0.388 N 
ATOM      2  H1  UNL     1      12.830  37.691 -10.871  1.00  0.00     0.159 HD
ENDROOT
BRANCH   1   3
HETATM    3  C4  UNL     1      13.910  37.789 -12.685  1.00  0.00     0.061 A 
HETATM    4  C3  UNL     1      14.094  38.827 -13.613  1.00  0.00     0.039 A 
HETATM    5  C2  UNL     1      14.433  38.604 -14.925  1.00  0.00    -0.053 A 
HETATM    6  C1  UNL     1      14.602  39.769 -15.840  1.00  0.00     0.049 C 
HETATM    7  C19 UNL     1      14.598  37.297 -15.334  1.00  0.00    -0.045 A 
HETATM    8  C18 UNL     1      14.422  36.272 -14.438  1.00  0.00     0.046 A 
HETATM    9  C17 UNL     1      14.070  36.508 -13.086  1.00  0.00     0.129 A 
BRANCH   7  10
HETATM   10  C20 UNL     1      14.946  36.948 -16.704  1.00  0.00     0.085 C 
BRANCH  10  11
HETATM   11  C21 UNL     1      14.948  35.531 -17.066  1.00  0.00     0.036 A 
HETATM   12  C22 UNL     1      16.170  34.844 -17.036  1.00  0.00     0.022 A 
HETATM   13  C23 UNL     1      17.376  35.633 -16.649  1.00  0.00     0.069 C 
HETATM   14  N7  UNL     1      16.262  33.545 -17.341  1.00  0.00    -0.312 N 
HETATM   15  C24 UNL     1      15.173  32.833 -17.693  1.00  0.00     0.327 A 
ATOM     16  H7  UNL     1      17.172  33.085 -17.305  1.00  0.00     0.170 HD
HETATM   17  O3  UNL     1      15.266  31.603 -17.981  1.00  0.00    -0.247 OA
HETATM   18  N8  UNL     1      13.993  33.470 -17.730  1.00  0.00    -0.275 N 
HETATM   19  C25 UNL     1      13.851  34.782 -17.431  1.00  0.00     0.257 A 
ATOM     20  H8  UNL     1      13.163  32.940 -17.997  1.00  0.00     0.173 HD
HETATM   21  O4  UNL     1      12.735  35.352 -17.472  1.00  0.00    -0.267 OA
ENDBRANCH  10  11
ENDBRANCH   7  10
BRANCH   9  22
HETATM   22  N6  UNL     1      13.906  35.412 -12.224  1.00  0.00    -0.113 N 
HETATM   23  O1  UNL     1      13.000  34.602 -12.340  1.00  0.00    -0.532 OA
HETATM   24  O2  UNL     1      14.832  35.190 -11.203  1.00  0.00    -0.532 OA
ENDBRANCH   9  22
ENDBRANCH   1   3
BRANCH   1  25
HETATM   25  C5  UNL     1      14.384  39.160 -10.650  1.00  0.00     0.120 C 
BRANCH  25  26
HETATM   26  C6  UNL     1      13.469  40.275 -10.239  1.00  0.00     0.020 C 
BRANCH  26  27
HETATM   27  C7  UNL     1      13.421  40.560  -8.779  1.00  0.00     0.002 C 
BRANCH  27  28
HETATM   28  C8  UNL     1      12.275  39.875  -8.055  1.00  0.00     0.000 C 
BRANCH  28  29
HETATM   29  C9  UNL     1      12.728  38.493  -7.637  1.00  0.00     0.000 C 
BRANCH  29  30
HETATM   30  C10 UNL     1      11.872  37.937  -6.522  1.00  0.00     0.002 C 
BRANCH  30  31
HETATM   31  C11 UNL     1      11.089  39.005  -5.828  1.00  0.00     0.020 C 
BRANCH  31  32
HETATM   32  C12 UNL     1      10.139  38.524  -4.777  1.00  0.00     0.121 C 
BRANCH  32  33
HETATM   33  N2  UNL     1      10.738  38.467  -3.486  1.00  0.00    -0.376 N 
ATOM     34  H2  UNL     1      11.697  38.810  -3.442  1.00  0.00     0.161 HD
BRANCH  33  35
HETATM   35  C13 UNL     1      10.269  38.058  -2.390  1.00  0.00     0.118 A 
HETATM   36  C14 UNL     1      10.184  38.958  -1.321  1.00  0.00     0.066 A 
HETATM   37  C15 UNL     1       9.681  38.568  -0.097  1.00  0.00     0.110 A 
HETATM   38  N3  UNL     1       9.264  37.315   0.086  1.00  0.00    -0.202 N 
HETATM   39  C16 UNL     1       9.356  36.472  -0.955  1.00  0.00     0.677 A 
ATOM     40  H3  UNL     1       8.888  37.008   0.983  1.00  0.00     0.183 HD
HETATM   41  N5  UNL     1       9.840  36.812  -2.162  1.00  0.00    -0.177 N 
ATOM     42  H5  UNL     1       9.880  36.116  -2.908  1.00  0.00     0.185 HD
BRANCH  39  43
HETATM   43  N4  UNL     1       8.954  35.254  -0.789  1.00  0.00    -0.234 N 
ATOM     44  H42 UNL     1       8.305  34.871  -1.476  1.00  0.00     0.174 HD
ATOM     45  H41 UNL     1       9.303  34.739   0.020  1.00  0.00     0.174 HD
ENDBRANCH  39  43
ENDBRANCH  33  35
ENDBRANCH  32  33
ENDBRANCH  31  32
ENDBRANCH  30  31
ENDBRANCH  29  30
ENDBRANCH  28  29
ENDBRANCH  27  28
ENDBRANCH  26  27
ENDBRANCH  25  26
ENDBRANCH   1  25
TORSDOF 15
ENDMDL
MODEL 5
REMARK VINA RESULT: -7.929653309      3.527      5.190
REMARK  15 active torsions:
REMARK  status: ('A' for Active; 'I' for Inactive)
REMARK    1  A    between atoms: C4_4  and  N1_5 
REMARK    2  A    between atoms: N1_5  and  C5_7 
REMARK    3  A    between atoms: C5_7  and  C6_8 
REMARK    4  A    between atoms: C6_8  and  C7_9 
REMARK    5  A    between atoms: C7_9  and  C8_10 
REMARK    6  A    between atoms: C8_10  and  C9_11 
REMARK    7  A    between atoms: C9_11  and  C10_12 
REMARK    8  A    between atoms: C10_12  and  C11_13 
REMARK    9  A    between atoms: C11_13  and  C12_14 
REMARK   10  A    between atoms: C12_14  and  N2_15 
REMARK   11  A    between atoms: N2_15  and  C13_17 
REMARK   12  A    between atoms: C16_22  and  N4_23 
REMARK   13  A    between atoms: C17_28  and  N6_29 
REMARK   14  A    between atoms: C19_33  and  C20_34 
REMARK   15  A    between atoms: C20_34  and  C21_35 
ROOT
HETATM    1  N1  UNL     1      13.874  41.636 -10.862  1.00  0.00    -0.388 N 
ATOM      2  H1  UNL     1      14.755  42.116 -10.673  1.00  0.00     0.159 HD
ENDROOT
BRANCH   1   3
HETATM    3  C4  UNL     1      13.892  40.364 -11.483  1.00  0.00     0.061 A 
HETATM    4  C3  UNL     1      13.636  39.242 -10.677  1.00  0.00     0.039 A 
HETATM    5  C2  UNL     1      13.584  37.963 -11.173  1.00  0.00    -0.053 A 
HETATM    6  C1  UNL     1      13.312  36.832 -10.240  1.00  0.00     0.049 C 
HETATM    7  C19 UNL     1      13.796  37.788 -12.525  1.00  0.00    -0.045 A 
HETATM    8  C18 UNL     1      14.047  38.875 -13.325  1.00  0.00     0.046 A 
HETATM    9  C17 UNL     1      14.099  40.192 -12.807  1.00  0.00     0.129 A 
BRANCH   7  10
HETATM   10  C20 UNL     1      13.775  36.474 -13.152  1.00  0.00     0.085 C 
BRANCH  10  11
HETATM   11  C21 UNL     1      14.889  36.122 -14.032  1.00  0.00     0.036 A 
HETATM   12  C22 UNL     1      14.594  35.715 -15.341  1.00  0.00     0.022 A 
HETATM   13  C23 UNL     1      13.151  35.659 -15.718  1.00  0.00     0.069 C 
HETATM   14  N7  UNL     1      15.550  35.386 -16.215  1.00  0.00    -0.312 N 
HETATM   15  C24 UNL     1      16.853  35.433 -15.873  1.00  0.00     0.327 A 
ATOM     16  H7  UNL     1      15.290  35.095 -17.158  1.00  0.00     0.170 HD
HETATM   17  O3  UNL     1      17.756  35.120 -16.705  1.00  0.00    -0.247 OA
HETATM   18  N8  UNL     1      17.160  35.819 -14.625  1.00  0.00    -0.275 N 
HETATM   19  C25 UNL     1      16.227  36.160 -13.707  1.00  0.00     0.257 A 
ATOM     20  H8  UNL     1      18.143  35.857 -14.356  1.00  0.00     0.173 HD
HETATM   21  O4  UNL     1      16.541  36.519 -12.547  1.00  0.00    -0.267 OA
ENDBRANCH  10  11
ENDBRANCH   7  10
BRANCH   9  22
HETATM   22  N6  UNL     1      14.361  41.258 -13.683  1.00  0.00    -0.113 N 
HETATM   23  O1  UNL     1      13.549  42.136 -13.927  1.00  0.00    -0.532 OA
HETATM   24  O2  UNL     1      15.618  41.368 -14.283  1.00  0.00    -0.532 OA
ENDBRANCH   9  22
ENDBRANCH   1   3
BRANCH   1  25
HETATM   25  C5  UNL     1      12.618  42.271 -10.489  1.00  0.00     0.120 C 
BRANCH  25  26
HETATM   26  C6  UNL     1      12.476  42.222  -8.996  1.00  0.00     0.020 C 
BRANCH  26  27
HETATM   27  C7  UNL     1      11.190  41.668  -8.493  1.00  0.00     0.002 C 
BRANCH  27  28
HETATM   28  C8  UNL     1      11.293  41.017  -7.124  1.00  0.00     0.000 C 
BRANCH  28  29
HETATM   29  C9  UNL     1      12.281  39.875  -7.208  1.00  0.00     0.000 C 
BRANCH  29  30
HETATM   30  C10 UNL     1      11.592  38.532  -7.145  1.00  0.00     0.002 C 
BRANCH  30  31
HETATM   31  C11 UNL     1      11.608  37.956  -5.765  1.00  0.00     0.020 C 
BRANCH  31  32
HETATM   32  C12 UNL     1      10.459  38.349  -4.891  1.00  0.00     0.121 C 
BRANCH  32  33
HETATM   33  N2  UNL     1      10.853  38.573  -3.540  1.00  0.00    -0.376 N 
ATOM     34  H2  UNL     1      11.669  39.173  -3.425  1.00  0.00     0.161 HD
BRANCH  33  35
HETATM   35  C13 UNL     1      10.353  38.144  -2.466  1.00  0.00     0.118 A 
HETATM   36  C14 UNL     1      10.196  39.037  -1.398  1.00  0.00     0.066 A 
HETATM   37  C15 UNL     1       9.654  38.625  -0.198  1.00  0.00     0.110 A 
HETATM   38  N3  UNL     1       9.269  37.359  -0.036  1.00  0.00    -0.202 N 
HETATM   39  C16 UNL     1       9.431  36.524  -1.075  1.00  0.00     0.677 A 
ATOM     40  H3  UNL     1       8.867  37.037   0.844  1.00  0.00     0.183 HD
HETATM   41  N5  UNL     1       9.953  36.884  -2.261  1.00  0.00    -0.177 N 
ATOM     42  H5  UNL     1      10.045  36.194  -3.006  1.00  0.00     0.185 HD
BRANCH  39  43
HETATM   43  N4  UNL     1       9.060  35.293  -0.930  1.00  0.00    -0.234 N 
ATOM     44  H42 UNL     1       9.621  34.698  -0.322  1.00  0.00     0.174 HD
ATOM     45  H41 UNL     1       8.227  34.981  -1.431  1.00  0.00     0.174 HD
ENDBRANCH  39  43
ENDBRANCH  33  35
ENDBRANCH  32  33
ENDBRANCH  31  32
ENDBRANCH  30  31
ENDBRANCH  29  30
ENDBRANCH  28  29
ENDBRANCH  27  28
ENDBRANCH  26  27
ENDBRANCH  25  26
ENDBRANCH   1  25
TORSDOF 15
ENDMDL
