MODEL 1
REMARK VINA RESULT: -7.179486436      0.000      0.000
REMARK  13 active torsions:
REMARK  status: ('A' for Active; 'I' for Inactive)
REMARK    1  A    between atoms: N1_1  and  N2_4 
REMARK    2  A    between atoms: N3_6  and  C1_8 
REMARK    3  A    between atoms: C2_9  and  O1_10 
REMARK    4  A    between atoms: O1_10  and  C3_11 
REMARK    5  A    between atoms: C3_11  and  C4_12 
REMARK    6  A    between atoms: C5_14  and  O3_15 
REMARK    7  A    between atoms: O3_15  and  C6_16 
REMARK    8  A    between atoms: C12_22  and  O4_23 
REMARK    9  A    between atoms: C13_25  and  O5_26 
REMARK   10  A    between atoms: C14_28  and  O6_29 
REMARK   11  A    between atoms: C16_32  and  C17_33 
REMARK   12  A    between atoms: C18_36  and  O9_37 
REMARK   13  A    between atoms: C19_39  and  O10_40 
ROOT
HETATM    1  O1  UNL     1      -3.461 -35.817 -13.373  1.00  0.00    -0.381 OA
ENDROOT
BRANCH   1   2
HETATM    2  C2  UNL     1      -2.331 -35.655 -12.601  1.00  0.00     0.149 C 
HETATM    3  C1  UNL     1      -2.583 -34.877 -11.353  1.00  0.00     0.161 C 
HETATM    4  C19 UNL     1      -2.307 -35.621 -10.071  1.00  0.00     0.174 C 
HETATM    5  C18 UNL     1      -0.898 -36.129 -10.100  1.00  0.00     0.163 C 
HETATM    6  C16 UNL     1      -0.758 -37.099 -11.243  1.00  0.00     0.120 C 
HETATM    7  C15 UNL     1      -1.888 -37.062 -12.210  1.00  0.00     0.052 C 
BRANCH   3   8
HETATM    8  N3  UNL     1      -1.664 -33.722 -11.311  1.00  0.00    -0.313 N 
HETATM    9  N2  UNL     1      -1.360 -33.115 -12.323  1.00  0.00    -0.253 N 
ATOM     10  H2  UNL     1      -0.573 -33.673 -12.655  1.00  0.00     0.207 HD
ATOM     11  H3  UNL     1      -1.276 -33.426 -10.415  1.00  0.00     0.182 HD
BRANCH   9  12
HETATM   12  N1  UNL     1      -1.414 -32.235 -13.204  1.00  0.00    -0.331 N 
ATOM     13  H12 UNL     1      -1.872 -32.787 -13.929  1.00  0.00     0.178 HD
ATOM     14  H11 UNL     1      -1.284 -31.322 -13.638  1.00  0.00     0.178 HD
ENDBRANCH   9  12
ENDBRANCH   3   8
BRANCH   4  15
HETATM   15  O10 UNL     1      -3.242 -36.565  -9.735  1.00  0.00    -0.391 OA
ATOM     16  H10 UNL     1      -3.138 -36.945  -8.871  1.00  0.00     0.210 HD
ENDBRANCH   4  15
BRANCH   5  17
HETATM   17  O9  UNL     1      -0.593 -36.735  -8.878  1.00  0.00    -0.392 OA
ATOM     18  H9  UNL     1      -0.055 -36.170  -8.337  1.00  0.00     0.210 HD
ENDBRANCH   5  17
BRANCH   6  19
HETATM   19  C17 UNL     1      -0.563 -38.482 -10.707  1.00  0.00     0.179 C 
HETATM   20  O7  UNL     1      -1.575 -39.145 -10.384  1.00  0.00    -0.648 OA
HETATM   21  O8  UNL     1       0.672 -39.055 -10.552  1.00  0.00    -0.648 OA
ENDBRANCH   6  19
ENDBRANCH   1   2
BRANCH   1  22
HETATM   22  C3  UNL     1      -3.297 -35.844 -14.722  1.00  0.00     0.203 C 
BRANCH  22  23
HETATM   23  C4  UNL     1      -2.438 -34.703 -15.208  1.00  0.00     0.179 C 
HETATM   24  O2  UNL     1      -1.098 -34.914 -15.007  1.00  0.00    -0.348 OA
HETATM   25  C5  UNL     1      -0.484 -35.834 -15.809  1.00  0.00     0.292 C 
HETATM   26  C12 UNL     1      -0.903 -35.766 -17.258  1.00  0.00     0.204 C 
HETATM   27  C13 UNL     1      -1.507 -34.367 -17.441  1.00  0.00     0.183 C 
HETATM   28  C14 UNL     1      -2.793 -34.407 -16.645  1.00  0.00     0.180 C 
BRANCH  25  29
HETATM   29  O3  UNL     1      -0.591 -37.156 -15.386  1.00  0.00    -0.353 OA
BRANCH  29  30
HETATM   30  C6  UNL     1       0.601 -37.822 -15.497  1.00  0.00     0.124 C 
HETATM   31  C7  UNL     1       0.769 -38.955 -14.523  1.00  0.00     0.032 C 
HETATM   32  C8  UNL     1       1.930 -39.795 -14.992  1.00  0.00     0.002 C 
HETATM   33  C9  UNL     1       3.178 -39.025 -15.228  1.00  0.00     0.000 C 
HETATM   34  C10 UNL     1       3.003 -37.688 -15.847  1.00  0.00     0.002 C 
HETATM   35  C11 UNL     1       1.811 -36.921 -15.340  1.00  0.00     0.032 C 
ENDBRANCH  29  30
ENDBRANCH  25  29
BRANCH  26  36
HETATM   36  O4  UNL     1       0.172 -35.902 -18.132  1.00  0.00    -0.388 OA
ATOM     37  H4  UNL     1       0.082 -35.362 -18.907  1.00  0.00     0.210 HD
ENDBRANCH  26  36
BRANCH  27  38
HETATM   38  O5  UNL     1      -1.752 -34.121 -18.787  1.00  0.00    -0.390 OA
ATOM     39  H5  UNL     1      -2.132 -33.258 -18.900  1.00  0.00     0.210 HD
ENDBRANCH  27  38
BRANCH  28  40
HETATM   40  O6  UNL     1      -3.572 -35.423 -17.201  1.00  0.00    -0.390 OA
ATOM     41  H6  UNL     1      -3.091 -35.911 -17.860  1.00  0.00     0.210 HD
ENDBRANCH  28  40
ENDBRANCH  22  23
ENDBRANCH   1  22
TORSDOF 13
ENDMDL
MODEL 2
REMARK VINA RESULT: -6.899225701      1.700      2.054
REMARK  13 active torsions:
REMARK  status: ('A' for Active; 'I' for Inactive)
REMARK    1  A    between atoms: N1_1  and  N2_4 
REMARK    2  A    between atoms: N3_6  and  C1_8 
REMARK    3  A    between atoms: C2_9  and  O1_10 
REMARK    4  A    between atoms: O1_10  and  C3_11 
REMARK    5  A    between atoms: C3_11  and  C4_12 
REMARK    6  A    between atoms: C5_14  and  O3_15 
REMARK    7  A    between atoms: O3_15  and  C6_16 
REMARK    8  A    between atoms: C12_22  and  O4_23 
REMARK    9  A    between atoms: C13_25  and  O5_26 
REMARK   10  A    between atoms: C14_28  and  O6_29 
REMARK   11  A    between atoms: C16_32  and  C17_33 
REMARK   12  A    between atoms: C18_36  and  O9_37 
REMARK   13  A    between atoms: C19_39  and  O10_40 
ROOT
HETATM    1  O1  UNL     1      -2.481 -34.661 -11.941  1.00  0.00    -0.381 OA
ENDROOT
BRANCH   1   2
HETATM    2  C2  UNL     1      -1.599 -35.557 -11.376  1.00  0.00     0.149 C 
HETATM    3  C1  UNL     1      -1.552 -35.472  -9.888  1.00  0.00     0.161 C 
HETATM    4  C19 UNL     1      -1.956 -36.731  -9.164  1.00  0.00     0.174 C 
HETATM    5  C18 UNL     1      -1.107 -37.865  -9.654  1.00  0.00     0.163 C 
HETATM    6  C16 UNL     1      -1.372 -38.065 -11.123  1.00  0.00     0.120 C 
HETATM    7  C15 UNL     1      -2.109 -36.943 -11.764  1.00  0.00     0.052 C 
BRANCH   3   8
HETATM    8  N3  UNL     1      -0.158 -35.236  -9.462  1.00  0.00    -0.313 N 
HETATM    9  N2  UNL     1       0.337 -34.123  -9.496  1.00  0.00    -0.253 N 
ATOM     10  H2  UNL     1       0.671 -34.088 -10.459  1.00  0.00     0.207 HD
ATOM     11  H3  UNL     1       0.402 -36.022  -9.133  1.00  0.00     0.182 HD
BRANCH   9  12
HETATM   12  N1  UNL     1       0.687 -33.000  -9.083  1.00  0.00    -0.331 N 
ATOM     13  H12 UNL     1      -0.239 -32.579  -9.012  1.00  0.00     0.178 HD
ATOM     14  H11 UNL     1       1.318 -32.259  -8.779  1.00  0.00     0.178 HD
ENDBRANCH   9  12
ENDBRANCH   3   8
BRANCH   4  15
HETATM   15  O10 UNL     1      -3.302 -36.992  -9.160  1.00  0.00    -0.391 OA
ATOM     16  H10 UNL     1      -3.669 -37.201  -8.309  1.00  0.00     0.210 HD
ENDBRANCH   4  15
BRANCH   5  17
HETATM   17  O9  UNL     1      -1.400 -39.020  -8.923  1.00  0.00    -0.392 OA
ATOM     18  H9  UNL     1      -1.228 -38.895  -7.997  1.00  0.00     0.210 HD
ENDBRANCH   5  17
BRANCH   6  19
HETATM   19  C17 UNL     1      -2.089 -39.361 -11.332  1.00  0.00     0.179 C 
HETATM   20  O7  UNL     1      -3.337 -39.375 -11.227  1.00  0.00    -0.648 OA
HETATM   21  O8  UNL     1      -1.444 -40.531 -11.633  1.00  0.00    -0.648 OA
ENDBRANCH   6  19
ENDBRANCH   1   2
BRANCH   1  22
HETATM   22  C3  UNL     1      -2.824 -34.857 -13.240  1.00  0.00     0.203 C 
BRANCH  22  23
HETATM   23  C4  UNL     1      -2.073 -33.934 -14.167  1.00  0.00     0.179 C 
HETATM   24  O2  UNL     1      -0.895 -34.469 -14.623  1.00  0.00    -0.348 OA
HETATM   25  C5  UNL     1      -0.981 -35.470 -15.547  1.00  0.00     0.292 C 
HETATM   26  C12 UNL     1      -2.024 -35.236 -16.614  1.00  0.00     0.204 C 
HETATM   27  C13 UNL     1      -2.297 -33.726 -16.591  1.00  0.00     0.183 C 
HETATM   28  C14 UNL     1      -3.003 -33.494 -15.273  1.00  0.00     0.180 C 
BRANCH  25  29
HETATM   29  O3  UNL     1      -1.172 -36.747 -15.025  1.00  0.00    -0.353 OA
BRANCH  29  30
HETATM   30  C6  UNL     1       0.015 -37.410 -14.860  1.00  0.00     0.124 C 
HETATM   31  C7  UNL     1       0.938 -37.330 -16.044  1.00  0.00     0.032 C 
HETATM   32  C8  UNL     1       2.304 -37.782 -15.592  1.00  0.00     0.002 C 
HETATM   33  C9  UNL     1       2.312 -39.107 -14.922  1.00  0.00     0.000 C 
HETATM   34  C10 UNL     1       1.166 -39.382 -14.021  1.00  0.00     0.002 C 
HETATM   35  C11 UNL     1      -0.159 -38.882 -14.535  1.00  0.00     0.032 C 
ENDBRANCH  29  30
ENDBRANCH  25  29
BRANCH  26  36
HETATM   36  O4  UNL     1      -1.574 -35.585 -17.885  1.00  0.00    -0.388 OA
ATOM     37  H4  UNL     1      -2.191 -35.347 -18.567  1.00  0.00     0.210 HD
ENDBRANCH  26  36
BRANCH  27  38
HETATM   38  O5  UNL     1      -3.101 -33.366 -17.665  1.00  0.00    -0.390 OA
ATOM     39  H5  UNL     1      -3.960 -33.100 -17.359  1.00  0.00     0.210 HD
ENDBRANCH  27  38
BRANCH  28  40
HETATM   40  O6  UNL     1      -4.165 -34.266 -15.303  1.00  0.00    -0.390 OA
ATOM     41  H6  UNL     1      -4.678 -34.095 -16.085  1.00  0.00     0.210 HD
ENDBRANCH  28  40
ENDBRANCH  22  23
ENDBRANCH   1  22
TORSDOF 13
ENDMDL
MODEL 3
REMARK VINA RESULT: -6.863177195      0.623      1.270
REMARK  13 active torsions:
REMARK  status: ('A' for Active; 'I' for Inactive)
REMARK    1  A    between atoms: N1_1  and  N2_4 
REMARK    2  A    between atoms: N3_6  and  C1_8 
REMARK    3  A    between atoms: C2_9  and  O1_10 
REMARK    4  A    between atoms: O1_10  and  C3_11 
REMARK    5  A    between atoms: C3_11  and  C4_12 
REMARK    6  A    between atoms: C5_14  and  O3_15 
REMARK    7  A    between atoms: O3_15  and  C6_16 
REMARK    8  A    between atoms: C12_22  and  O4_23 
REMARK    9  A    between atoms: C13_25  and  O5_26 
REMARK   10  A    between atoms: C14_28  and  O6_29 
REMARK   11  A    between atoms: C16_32  and  C17_33 
REMARK   12  A    between atoms: C18_36  and  O9_37 
REMARK   13  A    between atoms: C19_39  and  O10_40 
ROOT
HETATM    1  O1  UNL     1      -3.227 -35.616 -13.158  1.00  0.00    -0.381 OA
ENDROOT
BRANCH   1   2
HETATM    2  C2  UNL     1      -2.057 -35.546 -12.431  1.00  0.00     0.149 C 
HETATM    3  C1  UNL     1      -2.190 -34.733 -11.188  1.00  0.00     0.161 C 
HETATM    4  C19 UNL     1      -1.933 -35.480  -9.905  1.00  0.00     0.174 C 
HETATM    5  C18 UNL     1      -0.577 -36.114  -9.978  1.00  0.00     0.163 C 
HETATM    6  C16 UNL     1      -0.569 -37.109 -11.108  1.00  0.00     0.120 C 
HETATM    7  C15 UNL     1      -1.728 -36.983 -12.033  1.00  0.00     0.052 C 
BRANCH   3   8
HETATM    8  N3  UNL     1      -1.171 -33.665 -11.200  1.00  0.00    -0.313 N 
HETATM    9  N2  UNL     1      -1.402 -32.561 -10.736  1.00  0.00    -0.253 N 
ATOM     10  H2  UNL     1      -1.832 -32.100 -11.538  1.00  0.00     0.207 HD
ATOM     11  H3  UNL     1      -0.254 -33.854 -11.605  1.00  0.00     0.182 HD
BRANCH   9  12
HETATM   12  N1  UNL     1      -1.438 -31.647  -9.889  1.00  0.00    -0.331 N 
ATOM     13  H12 UNL     1      -2.448 -31.511  -9.870  1.00  0.00     0.178 HD
ATOM     14  H11 UNL     1      -1.086 -30.965  -9.218  1.00  0.00     0.178 HD
ENDBRANCH   9  12
ENDBRANCH   3   8
BRANCH   4  15
HETATM   15  O10 UNL     1      -2.935 -36.332  -9.518  1.00  0.00    -0.391 OA
ATOM     16  H10 UNL     1      -2.829 -36.712  -8.654  1.00  0.00     0.210 HD
ENDBRANCH   4  15
BRANCH   5  17
HETATM   17  O9  UNL     1      -0.280 -36.729  -8.758  1.00  0.00    -0.392 OA
ATOM     18  H9  UNL     1       0.204 -37.536  -8.886  1.00  0.00     0.210 HD
ENDBRANCH   5  17
BRANCH   6  19
HETATM   19  C17 UNL     1      -0.478 -38.496 -10.556  1.00  0.00     0.179 C 
HETATM   20  O7  UNL     1       0.587 -39.134 -10.721  1.00  0.00    -0.648 OA
HETATM   21  O8  UNL     1      -1.505 -39.100  -9.880  1.00  0.00    -0.648 OA
ENDBRANCH   6  19
ENDBRANCH   1   2
BRANCH   1  22
HETATM   22  C3  UNL     1      -3.118 -35.690 -14.510  1.00  0.00     0.203 C 
BRANCH  22  23
HETATM   23  C4  UNL     1      -2.272 -34.573 -15.069  1.00  0.00     0.179 C 
HETATM   24  O2  UNL     1      -0.925 -34.817 -14.974  1.00  0.00    -0.348 OA
HETATM   25  C5  UNL     1      -0.402 -35.755 -15.818  1.00  0.00     0.292 C 
HETATM   26  C12 UNL     1      -0.933 -35.680 -17.229  1.00  0.00     0.204 C 
HETATM   27  C13 UNL     1      -1.514 -34.266 -17.370  1.00  0.00     0.183 C 
HETATM   28  C14 UNL     1      -2.733 -34.271 -16.474  1.00  0.00     0.180 C 
BRANCH  25  29
HETATM   29  O3  UNL     1      -0.508 -37.073 -15.382  1.00  0.00    -0.353 OA
BRANCH  29  30
HETATM   30  C6  UNL     1       0.721 -37.636 -15.162  1.00  0.00     0.124 C 
HETATM   31  C7  UNL     1       1.703 -37.436 -16.283  1.00  0.00     0.032 C 
HETATM   32  C8  UNL     1       3.074 -37.782 -15.760  1.00  0.00     0.002 C 
HETATM   33  C9  UNL     1       3.160 -39.123 -15.127  1.00  0.00     0.000 C 
HETATM   34  C10 UNL     1       1.991 -39.526 -14.308  1.00  0.00     0.002 C 
HETATM   35  C11 UNL     1       0.660 -39.127 -14.889  1.00  0.00     0.032 C 
ENDBRANCH  29  30
ENDBRANCH  25  29
BRANCH  26  36
HETATM   36  O4  UNL     1       0.065 -35.847 -18.186  1.00  0.00    -0.388 OA
ATOM     37  H4  UNL     1      -0.252 -35.710 -19.071  1.00  0.00     0.210 HD
ENDBRANCH  26  36
BRANCH  27  38
HETATM   38  O5  UNL     1      -1.859 -34.018 -18.693  1.00  0.00    -0.390 OA
ATOM     39  H5  UNL     1      -1.803 -34.818 -19.203  1.00  0.00     0.210 HD
ENDBRANCH  27  38
BRANCH  28  40
HETATM   40  O6  UNL     1      -3.579 -35.268 -16.961  1.00  0.00    -0.390 OA
ATOM     41  H6  UNL     1      -4.437 -34.922 -17.178  1.00  0.00     0.210 HD
ENDBRANCH  28  40
ENDBRANCH  22  23
ENDBRANCH   1  22
TORSDOF 13
ENDMDL
MODEL 4
REMARK VINA RESULT: -6.780252651      2.993      5.125
REMARK  13 active torsions:
REMARK  status: ('A' for Active; 'I' for Inactive)
REMARK    1  A    between atoms: N1_1  and  N2_4 
REMARK    2  A    between atoms: N3_6  and  C1_8 
REMARK    3  A    between atoms: C2_9  and  O1_10 
REMARK    4  A    between atoms: O1_10  and  C3_11 
REMARK    5  A    between atoms: C3_11  and  C4_12 
REMARK    6  A    between atoms: C5_14  and  O3_15 
REMARK    7  A    between atoms: O3_15  and  C6_16 
REMARK    8  A    between atoms: C12_22  and  O4_23 
REMARK    9  A    between atoms: C13_25  and  O5_26 
REMARK   10  A    between atoms: C14_28  and  O6_29 
REMARK   11  A    between atoms: C16_32  and  C17_33 
REMARK   12  A    between atoms: C18_36  and  O9_37 
REMARK   13  A    between atoms: C19_39  and  O10_40 
ROOT
HETATM    1  O1  UNL     1      -4.125 -36.612 -14.857  1.00  0.00    -0.381 OA
ENDROOT
BRANCH   1   2
HETATM    2  C2  UNL     1      -2.948 -35.910 -14.700  1.00  0.00     0.149 C 
HETATM    3  C1  UNL     1      -2.883 -34.684 -15.547  1.00  0.00     0.161 C 
HETATM    4  C19 UNL     1      -2.753 -33.389 -14.786  1.00  0.00     0.174 C 
HETATM    5  C18 UNL     1      -1.556 -33.475 -13.888  1.00  0.00     0.163 C 
HETATM    6  C16 UNL     1      -1.779 -34.582 -12.892  1.00  0.00     0.120 C 
HETATM    7  C15 UNL     1      -2.909 -35.486 -13.235  1.00  0.00     0.052 C 
BRANCH   3   8
HETATM    8  N3  UNL     1      -1.668 -34.740 -16.384  1.00  0.00    -0.313 N 
HETATM    9  N2  UNL     1      -1.726 -34.621 -17.596  1.00  0.00    -0.253 N 
ATOM     10  H2  UNL     1      -1.912 -35.585 -17.877  1.00  0.00     0.207 HD
ATOM     11  H3  UNL     1      -0.762 -34.882 -15.938  1.00  0.00     0.182 HD
BRANCH   9  12
HETATM   12  N1  UNL     1      -1.698 -34.053 -18.705  1.00  0.00    -0.331 N 
ATOM     13  H12 UNL     1      -0.883 -34.531 -19.089  1.00  0.00     0.178 HD
ATOM     14  H11 UNL     1      -1.983 -33.417 -19.449  1.00  0.00     0.178 HD
ENDBRANCH   9  12
ENDBRANCH   3   8
BRANCH   4  15
HETATM   15  O10 UNL     1      -3.898 -32.963 -14.164  1.00  0.00    -0.391 OA
ATOM     16  H10 UNL     1      -3.787 -32.220 -13.583  1.00  0.00     0.210 HD
ENDBRANCH   4  15
BRANCH   5  17
HETATM   17  O9  UNL     1      -1.362 -32.247 -13.248  1.00  0.00    -0.392 OA
ATOM     18  H9  UNL     1      -0.590 -31.803 -13.579  1.00  0.00     0.210 HD
ENDBRANCH   5  17
BRANCH   6  19
HETATM   19  C17 UNL     1      -1.958 -34.000 -11.526  1.00  0.00     0.179 C 
HETATM   20  O7  UNL     1      -3.063 -33.486 -11.237  1.00  0.00    -0.648 OA
HETATM   21  O8  UNL     1      -0.970 -34.003 -10.577  1.00  0.00    -0.648 OA
ENDBRANCH   6  19
ENDBRANCH   1   2
BRANCH   1  22
HETATM   22  C3  UNL     1      -4.504 -37.430 -13.841  1.00  0.00     0.203 C 
BRANCH  22  23
HETATM   23  C4  UNL     1      -4.703 -38.851 -14.306  1.00  0.00     0.179 C 
HETATM   24  O2  UNL     1      -3.547 -39.440 -14.752  1.00  0.00    -0.348 OA
HETATM   25  C5  UNL     1      -2.621 -39.786 -13.810  1.00  0.00     0.292 C 
HETATM   26  C12 UNL     1      -3.208 -40.407 -12.566  1.00  0.00     0.204 C 
HETATM   27  C13 UNL     1      -4.603 -40.898 -12.977  1.00  0.00     0.183 C 
HETATM   28  C14 UNL     1      -5.392 -39.629 -13.210  1.00  0.00     0.180 C 
BRANCH  25  29
HETATM   29  O3  UNL     1      -1.759 -38.763 -13.420  1.00  0.00    -0.353 OA
BRANCH  29  30
HETATM   30  C6  UNL     1      -0.609 -38.757 -14.164  1.00  0.00     0.124 C 
HETATM   31  C7  UNL     1       0.403 -39.787 -13.745  1.00  0.00     0.032 C 
HETATM   32  C8  UNL     1       1.426 -39.900 -14.848  1.00  0.00     0.002 C 
HETATM   33  C9  UNL     1       2.029 -38.604 -15.249  1.00  0.00     0.000 C 
HETATM   34  C10 UNL     1       1.103 -37.446 -15.288  1.00  0.00     0.002 C 
HETATM   35  C11 UNL     1       0.101 -37.416 -14.165  1.00  0.00     0.032 C 
ENDBRANCH  29  30
ENDBRANCH  25  29
BRANCH  26  36
HETATM   36  O4  UNL     1      -2.470 -41.498 -12.115  1.00  0.00    -0.388 OA
ATOM     37  H4  UNL     1      -2.735 -41.784 -11.248  1.00  0.00     0.210 HD
ENDBRANCH  26  36
BRANCH  27  38
HETATM   38  O5  UNL     1      -5.163 -41.662 -11.960  1.00  0.00    -0.390 OA
ATOM     39  H5  UNL     1      -5.548 -42.453 -12.317  1.00  0.00     0.210 HD
ENDBRANCH  27  38
BRANCH  28  40
HETATM   40  O6  UNL     1      -5.385 -38.929 -12.003  1.00  0.00    -0.390 OA
ATOM     41  H6  UNL     1      -6.183 -39.077 -11.509  1.00  0.00     0.210 HD
ENDBRANCH  28  40
ENDBRANCH  22  23
ENDBRANCH   1  22
TORSDOF 13
ENDMDL
MODEL 5
REMARK VINA RESULT: -6.664489488      2.180      2.693
REMARK  13 active torsions:
REMARK  status: ('A' for Active; 'I' for Inactive)
REMARK    1  A    between atoms: N1_1  and  N2_4 
REMARK    2  A    between atoms: N3_6  and  C1_8 
REMARK    3  A    between atoms: C2_9  and  O1_10 
REMARK    4  A    between atoms: O1_10  and  C3_11 
REMARK    5  A    between atoms: C3_11  and  C4_12 
REMARK    6  A    between atoms: C5_14  and  O3_15 
REMARK    7  A    between atoms: O3_15  and  C6_16 
REMARK    8  A    between atoms: C12_22  and  O4_23 
REMARK    9  A    between atoms: C13_25  and  O5_26 
REMARK   10  A    between atoms: C14_28  and  O6_29 
REMARK   11  A    between atoms: C16_32  and  C17_33 
REMARK   12  A    between atoms: C18_36  and  O9_37 
REMARK   13  A    between atoms: C19_39  and  O10_40 
ROOT
HETATM    1  O1  UNL     1      -2.331 -34.932 -11.821  1.00  0.00    -0.381 OA
ENDROOT
BRANCH   1   2
HETATM    2  C2  UNL     1      -1.981 -36.164 -11.311  1.00  0.00     0.149 C 
HETATM    3  C1  UNL     1      -2.422 -36.358  -9.900  1.00  0.00     0.161 C 
HETATM    4  C19 UNL     1      -3.382 -37.499  -9.682  1.00  0.00     0.174 C 
HETATM    5  C18 UNL     1      -2.770 -38.756 -10.220  1.00  0.00     0.163 C 
HETATM    6  C16 UNL     1      -2.563 -38.595 -11.703  1.00  0.00     0.120 C 
HETATM    7  C15 UNL     1      -2.694 -37.193 -12.184  1.00  0.00     0.052 C 
BRANCH   3   8
HETATM    8  N3  UNL     1      -1.249 -36.703  -9.072  1.00  0.00    -0.313 N 
HETATM    9  N2  UNL     1      -0.185 -36.122  -9.203  1.00  0.00    -0.253 N 
ATOM     10  H2  UNL     1       0.240 -36.665  -9.955  1.00  0.00     0.207 HD
ATOM     11  H3  UNL     1      -1.331 -37.444  -8.375  1.00  0.00     0.182 HD
BRANCH   9  12
HETATM   12  N1  UNL     1       0.705 -35.277  -8.988  1.00  0.00    -0.331 N 
ATOM     13  H12 UNL     1       0.957 -35.086  -9.958  1.00  0.00     0.178 HD
ATOM     14  H11 UNL     1       1.324 -34.672  -8.450  1.00  0.00     0.178 HD
ENDBRANCH   9  12
ENDBRANCH   3   8
BRANCH   4  15
HETATM   15  O10 UNL     1      -4.665 -37.267 -10.107  1.00  0.00    -0.391 OA
ATOM     16  H10 UNL     1      -5.280 -37.033  -9.421  1.00  0.00     0.210 HD
ENDBRANCH   4  15
BRANCH   5  17
HETATM   17  O9  UNL     1      -3.603 -39.842  -9.938  1.00  0.00    -0.392 OA
ATOM     18  H9  UNL     1      -3.962 -39.783  -9.060  1.00  0.00     0.210 HD
ENDBRANCH   5  17
BRANCH   6  19
HETATM   19  C17 UNL     1      -3.498 -39.500 -12.441  1.00  0.00     0.179 C 
HETATM   20  O7  UNL     1      -4.661 -39.096 -12.672  1.00  0.00    -0.648 OA
HETATM   21  O8  UNL     1      -3.141 -40.749 -12.876  1.00  0.00    -0.648 OA
ENDBRANCH   6  19
ENDBRANCH   1   2
BRANCH   1  22
HETATM   22  C3  UNL     1      -2.882 -34.904 -13.063  1.00  0.00     0.203 C 
BRANCH  22  23
HETATM   23  C4  UNL     1      -2.173 -33.931 -13.972  1.00  0.00     0.179 C 
HETATM   24  O2  UNL     1      -0.992 -34.419 -14.469  1.00  0.00    -0.348 OA
HETATM   25  C5  UNL     1      -1.072 -35.391 -15.426  1.00  0.00     0.292 C 
HETATM   26  C12 UNL     1      -2.141 -35.147 -16.463  1.00  0.00     0.204 C 
HETATM   27  C13 UNL     1      -2.452 -33.646 -16.382  1.00  0.00     0.183 C 
HETATM   28  C14 UNL     1      -3.136 -33.478 -15.043  1.00  0.00     0.180 C 
BRANCH  25  29
HETATM   29  O3  UNL     1      -1.220 -36.689 -14.944  1.00  0.00    -0.353 OA
BRANCH  29  30
HETATM   30  C6  UNL     1      -0.015 -37.332 -14.839  1.00  0.00     0.124 C 
HETATM   31  C7  UNL     1       0.845 -37.238 -16.068  1.00  0.00     0.032 C 
HETATM   32  C8  UNL     1       2.239 -37.666 -15.686  1.00  0.00     0.002 C 
HETATM   33  C9  UNL     1       2.305 -38.990 -15.015  1.00  0.00     0.000 C 
HETATM   34  C10 UNL     1       1.210 -39.282 -14.058  1.00  0.00     0.002 C 
HETATM   35  C11 UNL     1      -0.147 -38.806 -14.504  1.00  0.00     0.032 C 
ENDBRANCH  29  30
ENDBRANCH  25  29
BRANCH  26  36
HETATM   36  O4  UNL     1      -1.710 -35.442 -17.754  1.00  0.00    -0.388 OA
ATOM     37  H4  UNL     1      -2.323 -35.150 -18.418  1.00  0.00     0.210 HD
ENDBRANCH  26  36
BRANCH  27  38
HETATM   38  O5  UNL     1      -3.287 -33.271 -17.428  1.00  0.00    -0.390 OA
ATOM     39  H5  UNL     1      -4.069 -32.852 -17.089  1.00  0.00     0.210 HD
ENDBRANCH  27  38
BRANCH  28  40
HETATM   40  O6  UNL     1      -4.279 -34.278 -15.078  1.00  0.00    -0.390 OA
ATOM     41  H6  UNL     1      -4.682 -34.348 -14.220  1.00  0.00     0.210 HD
ENDBRANCH  28  40
ENDBRANCH  22  23
ENDBRANCH   1  22
TORSDOF 13
ENDMDL
