MODEL 1
REMARK VINA RESULT: -7.174929131      0.000      0.000
REMARK  5 active torsions:
REMARK  status: ('A' for Active; 'I' for Inactive)
REMARK    1  A    between atoms: C3_7  and  S1_8 
REMARK    2  A    between atoms: S1_8  and  C4_9 
REMARK    3  A    between atoms: C4_9  and  C5_10 
REMARK    4  A    between atoms: C5_10  and  N3_12 
REMARK    5  A    between atoms: N4_15  and  C9_16 
ROOT
HETATM    1  C5  UNL     1      -3.351   6.106  13.435  1.00  0.00     0.229 C 
HETATM    2  C6  UNL     1      -2.687   7.415  13.713  1.00  0.00     0.043 C 
ENDROOT
BRANCH   1   3
HETATM    3  C4  UNL     1      -2.636   5.259  12.440  1.00  0.00     0.117 C 
BRANCH   3   4
HETATM    4  S1  UNL     1      -3.643   4.562  11.149  1.00  0.00    -0.090 SA
BRANCH   4   5
HETATM    5  C3  UNL     1      -4.178   2.914  11.341  1.00  0.00     0.160 A 
HETATM    6  N2  UNL     1      -5.188   2.328  10.672  1.00  0.00    -0.278 N 
HETATM    7  N1  UNL     1      -5.308   1.081  11.032  1.00  0.00    -0.287 N 
ATOM      8  H2  UNL     1      -5.777   2.795   9.982  1.00  0.00     0.189 HD
HETATM    9  C2  UNL     1      -4.368   0.819  11.953  1.00  0.00     0.093 A 
ATOM     10  H1  UNL     1      -5.997   0.418  10.674  1.00  0.00     0.188 HD
HETATM   11  C1  UNL     1      -4.206  -0.517  12.591  1.00  0.00     0.090 C 
HETATM   12  N5  UNL     1      -3.668   1.944  12.149  1.00  0.00    -0.325 N 
ATOM     13  H5  UNL     1      -2.885   2.054  12.793  1.00  0.00     0.169 HD
ENDBRANCH   4   5
ENDBRANCH   3   4
ENDBRANCH   1   3
BRANCH   1  14
HETATM   14  N3  UNL     1      -3.711   5.380  14.629  1.00  0.00     0.096 N 
HETATM   15  C7  UNL     1      -5.108   5.224  14.840  1.00  0.00     0.292 C 
HETATM   16  C8  UNL     1      -5.545   3.868  14.293  1.00  0.00     0.147 C 
HETATM   17  N4  UNL     1      -4.934   2.842  15.063  1.00  0.00    -0.405 N 
HETATM   18  C14 UNL     1      -3.645   3.129  15.584  1.00  0.00     0.147 C 
HETATM   19  C15 UNL     1      -2.954   4.175  14.712  1.00  0.00     0.292 C 
BRANCH  17  20
HETATM   20  C9  UNL     1      -5.785   1.990  15.782  1.00  0.00     0.083 C 
HETATM   21  C10 UNL     1      -4.993   1.019  16.618  1.00  0.00     0.051 C 
HETATM   22  C11 UNL     1      -5.902   0.120  17.445  1.00  0.00     0.169 C 
HETATM   23  O1  UNL     1      -7.212   0.349  16.984  1.00  0.00    -0.391 OA
HETATM   24  C12 UNL     1      -7.613   1.647  17.352  1.00  0.00     0.169 C 
HETATM   25  C13 UNL     1      -6.807   2.709  16.636  1.00  0.00     0.051 C 
ENDBRANCH  17  20
ENDBRANCH   1  14
TORSDOF 5
ENDMDL
MODEL 2
REMARK VINA RESULT: -6.665098374      2.648      3.452
REMARK  5 active torsions:
REMARK  status: ('A' for Active; 'I' for Inactive)
REMARK    1  A    between atoms: C3_7  and  S1_8 
REMARK    2  A    between atoms: S1_8  and  C4_9 
REMARK    3  A    between atoms: C4_9  and  C5_10 
REMARK    4  A    between atoms: C5_10  and  N3_12 
REMARK    5  A    between atoms: N4_15  and  C9_16 
ROOT
HETATM    1  C5  UNL     1      -3.380   6.339  13.600  1.00  0.00     0.229 C 
HETATM    2  C6  UNL     1      -2.351   7.380  13.899  1.00  0.00     0.043 C 
ENDROOT
BRANCH   1   3
HETATM    3  C4  UNL     1      -3.122   5.566  12.354  1.00  0.00     0.117 C 
BRANCH   3   4
HETATM    4  S1  UNL     1      -1.866   6.226  11.278  1.00  0.00    -0.090 SA
BRANCH   4   5
HETATM    5  C3  UNL     1      -0.402   5.299  11.079  1.00  0.00     0.160 A 
HETATM    6  N2  UNL     1       0.416   4.893  12.067  1.00  0.00    -0.278 N 
HETATM    7  N1  UNL     1       1.404   4.196  11.580  1.00  0.00    -0.287 N 
ATOM      8  H2  UNL     1       0.282   5.102  13.057  1.00  0.00     0.189 HD
HETATM    9  C2  UNL     1       1.253   4.128  10.248  1.00  0.00     0.093 A 
ATOM     10  H1  UNL     1       2.162   3.774  12.118  1.00  0.00     0.188 HD
HETATM   11  C1  UNL     1       2.202   3.404   9.358  1.00  0.00     0.090 C 
HETATM   12  N5  UNL     1       0.141   4.806   9.933  1.00  0.00    -0.325 N 
ATOM     13  H5  UNL     1      -0.234   4.931   8.993  1.00  0.00     0.169 HD
ENDBRANCH   4   5
ENDBRANCH   3   4
ENDBRANCH   1   3
BRANCH   1  14
HETATM   14  N3  UNL     1      -3.687   5.494  14.728  1.00  0.00     0.096 N 
HETATM   15  C7  UNL     1      -5.072   5.295  14.972  1.00  0.00     0.292 C 
HETATM   16  C8  UNL     1      -5.511   3.992  14.310  1.00  0.00     0.147 C 
HETATM   17  N4  UNL     1      -4.858   2.905  14.953  1.00  0.00    -0.405 N 
HETATM   18  C14 UNL     1      -3.554   3.161  15.453  1.00  0.00     0.147 C 
HETATM   19  C15 UNL     1      -2.910   4.300  14.664  1.00  0.00     0.292 C 
BRANCH  17  20
HETATM   20  C9  UNL     1      -5.669   1.972  15.614  1.00  0.00     0.083 C 
HETATM   21  C10 UNL     1      -4.871   1.175  16.612  1.00  0.00     0.051 C 
HETATM   22  C11 UNL     1      -5.749   0.193  17.376  1.00  0.00     0.169 C 
HETATM   23  O1  UNL     1      -7.000   0.198  16.734  1.00  0.00    -0.391 OA
HETATM   24  C12 UNL     1      -7.630   1.437  16.953  1.00  0.00     0.169 C 
HETATM   25  C13 UNL     1      -6.893   2.570  16.275  1.00  0.00     0.051 C 
ENDBRANCH  17  20
ENDBRANCH   1  14
TORSDOF 5
ENDMDL
MODEL 3
REMARK VINA RESULT: -6.633404787      2.768      3.578
REMARK  5 active torsions:
REMARK  status: ('A' for Active; 'I' for Inactive)
REMARK    1  A    between atoms: C3_7  and  S1_8 
REMARK    2  A    between atoms: S1_8  and  C4_9 
REMARK    3  A    between atoms: C4_9  and  C5_10 
REMARK    4  A    between atoms: C5_10  and  N3_12 
REMARK    5  A    between atoms: N4_15  and  C9_16 
ROOT
HETATM    1  C5  UNL     1      -3.440   6.347  13.505  1.00  0.00     0.229 C 
HETATM    2  C6  UNL     1      -2.390   7.376  13.774  1.00  0.00     0.043 C 
ENDROOT
BRANCH   1   3
HETATM    3  C4  UNL     1      -3.215   5.558  12.262  1.00  0.00     0.117 C 
BRANCH   3   4
HETATM    4  S1  UNL     1      -3.599   6.389  10.736  1.00  0.00    -0.090 SA
BRANCH   4   5
HETATM    5  C3  UNL     1      -5.265   6.810  10.440  1.00  0.00     0.160 A 
HETATM    6  N2  UNL     1      -6.150   7.228  11.363  1.00  0.00    -0.278 N 
HETATM    7  N1  UNL     1      -7.299   7.486  10.805  1.00  0.00    -0.287 N 
ATOM      8  H2  UNL     1      -5.949   7.329  12.358  1.00  0.00     0.189 HD
HETATM    9  C2  UNL     1      -7.192   7.241   9.490  1.00  0.00     0.093 A 
ATOM     10  H1  UNL     1      -8.136   7.818  11.285  1.00  0.00     0.188 HD
HETATM   11  C1  UNL     1      -8.317   7.430   8.533  1.00  0.00     0.090 C 
HETATM   12  N5  UNL     1      -5.940   6.824   9.258  1.00  0.00    -0.325 N 
ATOM     13  H5  UNL     1      -5.558   6.561   8.349  1.00  0.00     0.169 HD
ENDBRANCH   4   5
ENDBRANCH   3   4
ENDBRANCH   1   3
BRANCH   1  14
HETATM   14  N3  UNL     1      -3.736   5.517  14.647  1.00  0.00     0.096 N 
HETATM   15  C7  UNL     1      -5.120   5.307  14.896  1.00  0.00     0.292 C 
HETATM   16  C8  UNL     1      -5.545   3.989  14.256  1.00  0.00     0.147 C 
HETATM   17  N4  UNL     1      -4.880   2.921  14.916  1.00  0.00    -0.405 N 
HETATM   18  C14 UNL     1      -3.579   3.198  15.411  1.00  0.00     0.147 C 
HETATM   19  C15 UNL     1      -2.947   4.331  14.603  1.00  0.00     0.292 C 
BRANCH  17  20
HETATM   20  C9  UNL     1      -5.681   1.990  15.594  1.00  0.00     0.083 C 
HETATM   21  C10 UNL     1      -4.864   1.188  16.573  1.00  0.00     0.051 C 
HETATM   22  C11 UNL     1      -5.730   0.209  17.355  1.00  0.00     0.169 C 
HETATM   23  O1  UNL     1      -6.995   0.220  16.740  1.00  0.00    -0.391 OA
HETATM   24  C12 UNL     1      -7.615   1.462  16.974  1.00  0.00     0.169 C 
HETATM   25  C13 UNL     1      -6.887   2.593  16.282  1.00  0.00     0.051 C 
ENDBRANCH  17  20
ENDBRANCH   1  14
TORSDOF 5
ENDMDL
MODEL 4
REMARK VINA RESULT: -6.614177523      2.361      3.394
REMARK  5 active torsions:
REMARK  status: ('A' for Active; 'I' for Inactive)
REMARK    1  A    between atoms: C3_7  and  S1_8 
REMARK    2  A    between atoms: S1_8  and  C4_9 
REMARK    3  A    between atoms: C4_9  and  C5_10 
REMARK    4  A    between atoms: C5_10  and  N3_12 
REMARK    5  A    between atoms: N4_15  and  C9_16 
ROOT
HETATM    1  C5  UNL     1      -3.865   5.955  12.327  1.00  0.00     0.229 C 
HETATM    2  C6  UNL     1      -4.199   6.835  11.167  1.00  0.00     0.043 C 
ENDROOT
BRANCH   1   3
HETATM    3  C4  UNL     1      -3.257   6.674  13.481  1.00  0.00     0.117 C 
BRANCH   3   4
HETATM    4  S1  UNL     1      -1.609   6.171  13.927  1.00  0.00    -0.090 SA
BRANCH   4   5
HETATM    5  C3  UNL     1      -0.802   5.027  12.887  1.00  0.00     0.160 A 
HETATM    6  N2  UNL     1      -1.034   3.703  12.838  1.00  0.00    -0.278 N 
HETATM    7  N1  UNL     1      -0.282   3.144  11.932  1.00  0.00    -0.287 N 
ATOM      8  H2  UNL     1      -1.704   3.207  13.426  1.00  0.00     0.189 HD
HETATM    9  C2  UNL     1       0.467   4.099  11.361  1.00  0.00     0.093 A 
ATOM     10  H1  UNL     1      -0.266   2.151  11.697  1.00  0.00     0.188 HD
HETATM   11  C1  UNL     1       1.448   3.822  10.276  1.00  0.00     0.090 C 
HETATM   12  N5  UNL     1       0.152   5.263  11.944  1.00  0.00    -0.325 N 
ATOM     13  H5  UNL     1       0.558   6.171  11.720  1.00  0.00     0.169 HD
ENDBRANCH   4   5
ENDBRANCH   3   4
ENDBRANCH   1   3
BRANCH   1  14
HETATM   14  N3  UNL     1      -4.947   5.085  12.719  1.00  0.00     0.096 N 
HETATM   15  C7  UNL     1      -4.619   3.703  12.771  1.00  0.00     0.292 C 
HETATM   16  C8  UNL     1      -4.253   3.332  14.205  1.00  0.00     0.147 C 
HETATM   17  N4  UNL     1      -5.405   3.475  15.026  1.00  0.00    -0.405 N 
HETATM   18  C14 UNL     1      -6.315   4.501  14.661  1.00  0.00     0.147 C 
HETATM   19  C15 UNL     1      -5.580   5.596  13.890  1.00  0.00     0.292 C 
BRANCH  17  20
HETATM   20  C9  UNL     1      -5.898   2.316  15.643  1.00  0.00     0.083 C 
HETATM   21  C10 UNL     1      -4.773   1.466  16.170  1.00  0.00     0.051 C 
HETATM   22  C11 UNL     1      -5.295   0.229  16.890  1.00  0.00     0.169 C 
HETATM   23  O1  UNL     1      -6.676   0.173  16.630  1.00  0.00    -0.391 OA
HETATM   24  C12 UNL     1      -7.317   1.234  17.298  1.00  0.00     0.169 C 
HETATM   25  C13 UNL     1      -6.917   2.578  16.732  1.00  0.00     0.051 C 
ENDBRANCH  17  20
ENDBRANCH   1  14
TORSDOF 5
ENDMDL
MODEL 5
REMARK VINA RESULT: -6.547726788      2.869      3.819
REMARK  5 active torsions:
REMARK  status: ('A' for Active; 'I' for Inactive)
REMARK    1  A    between atoms: C3_7  and  S1_8 
REMARK    2  A    between atoms: S1_8  and  C4_9 
REMARK    3  A    between atoms: C4_9  and  C5_10 
REMARK    4  A    between atoms: C5_10  and  N3_12 
REMARK    5  A    between atoms: N4_15  and  C9_16 
ROOT
HETATM    1  C5  UNL     1      -2.792   5.775  13.247  1.00  0.00     0.229 C 
HETATM    2  C6  UNL     1      -1.467   5.130  13.004  1.00  0.00     0.043 C 
ENDROOT
BRANCH   1   3
HETATM    3  C4  UNL     1      -3.058   6.965  12.392  1.00  0.00     0.117 C 
BRANCH   3   4
HETATM    4  S1  UNL     1      -3.585   6.621  10.727  1.00  0.00    -0.090 SA
BRANCH   4   5
HETATM    5  C3  UNL     1      -5.257   6.916  10.330  1.00  0.00     0.160 A 
HETATM    6  N2  UNL     1      -6.202   7.366  11.176  1.00  0.00    -0.278 N 
HETATM    7  N1  UNL     1      -7.339   7.505  10.554  1.00  0.00    -0.287 N 
ATOM      8  H2  UNL     1      -6.050   7.570  12.164  1.00  0.00     0.189 HD
HETATM    9  C2  UNL     1      -7.162   7.145   9.273  1.00  0.00     0.093 A 
ATOM     10  H1  UNL     1      -8.212   7.831  10.969  1.00  0.00     0.188 HD
HETATM   11  C1  UNL     1      -8.254   7.179   8.261  1.00  0.00     0.090 C 
HETATM   12  N5  UNL     1      -5.881   6.781   9.128  1.00  0.00    -0.325 N 
ATOM     13  H5  UNL     1      -5.448   6.458   8.263  1.00  0.00     0.169 HD
ENDBRANCH   4   5
ENDBRANCH   3   4
ENDBRANCH   1   3
BRANCH   1  14
HETATM   14  N3  UNL     1      -3.892   4.840  13.260  1.00  0.00     0.096 N 
HETATM   15  C7  UNL     1      -3.546   3.510  13.622  1.00  0.00     0.292 C 
HETATM   16  C8  UNL     1      -3.810   3.317  15.113  1.00  0.00     0.147 C 
HETATM   17  N4  UNL     1      -5.207   3.419  15.350  1.00  0.00    -0.405 N 
HETATM   18  C14 UNL     1      -5.926   4.308  14.509  1.00  0.00     0.147 C 
HETATM   19  C15 UNL     1      -4.990   5.393  13.981  1.00  0.00     0.292 C 
BRANCH  17  20
HETATM   20  C9  UNL     1      -5.856   2.280  15.849  1.00  0.00     0.083 C 
HETATM   21  C10 UNL     1      -4.919   1.448  16.685  1.00  0.00     0.051 C 
HETATM   22  C11 UNL     1      -5.623   0.235  17.277  1.00  0.00     0.169 C 
HETATM   23  O1  UNL     1      -6.885   0.168  16.659  1.00  0.00    -0.391 OA
HETATM   24  C12 UNL     1      -7.674   1.249  17.097  1.00  0.00     0.169 C 
HETATM   25  C13 UNL     1      -7.127   2.575  16.617  1.00  0.00     0.051 C 
ENDBRANCH  17  20
ENDBRANCH   1  14
TORSDOF 5
ENDMDL
