MODEL 1
REMARK VINA RESULT: -6.991094356      0.000      0.000
REMARK  3 active torsions:
REMARK  status: ('A' for Active; 'I' for Inactive)
REMARK    1  A    between atoms: C1_2  and  C2_4 
REMARK    2  A    between atoms: C2_4  and  O3_5 
REMARK    3  A    between atoms: O3_5  and  C3_6 
ROOT
HETATM    1  C3  UNL     1      -4.313   0.434  12.532  1.00  0.00     0.140 C 
HETATM    2  C4  UNL     1      -3.806   1.849  12.392  1.00  0.00     0.035 C 
HETATM    3  C5  UNL     1      -4.861   2.742  13.025  1.00  0.00     0.028 C 
HETATM    4  C6  UNL     1      -5.335   2.246  14.337  1.00  0.00     0.083 C 
HETATM    5  C7  UNL     1      -5.218   3.389  15.339  1.00  0.00     0.025 C 
HETATM    6  C8  UNL     1      -6.453   3.481  16.189  1.00  0.00     0.002 C 
HETATM    7  C9  UNL     1      -6.557   2.380  17.210  1.00  0.00     0.005 C 
HETATM    8  C10 UNL     1      -6.360   1.006  16.580  1.00  0.00     0.044 C 
HETATM    9  C11 UNL     1      -4.951   0.766  16.173  1.00  0.00     0.058 C 
HETATM   10  N1  UNL     1      -4.595   1.148  14.868  1.00  0.00    -0.386 N 
HETATM   11  C12 UNL     1      -4.330   0.077  13.973  1.00  0.00     0.154 C 
ENDROOT
BRANCH   1  12
HETATM   12  O3  UNL     1      -3.397  -0.395  11.875  1.00  0.00    -0.374 OA
BRANCH  12  13
HETATM   13  C2  UNL     1      -3.980  -1.573  11.449  1.00  0.00     0.281 C 
BRANCH  13  14
HETATM   14  C1  UNL     1      -2.926  -2.607  11.359  1.00  0.00     0.197 C 
HETATM   15  O1  UNL     1      -1.704  -2.301  11.310  1.00  0.00    -0.646 OA
HETATM   16  O2  UNL     1      -3.217  -3.969  11.323  1.00  0.00    -0.646 OA
ENDBRANCH  13  14
ENDBRANCH  12  13
ENDBRANCH   1  12
TORSDOF 3
ENDMDL
MODEL 2
REMARK VINA RESULT: -6.823360609      3.495      4.328
REMARK  3 active torsions:
REMARK  status: ('A' for Active; 'I' for Inactive)
REMARK    1  A    between atoms: C1_2  and  C2_4 
REMARK    2  A    between atoms: C2_4  and  O3_5 
REMARK    3  A    between atoms: O3_5  and  C3_6 
ROOT
HETATM    1  C3  UNL     1      -4.537   4.082  13.376  1.00  0.00     0.140 C 
HETATM    2  C4  UNL     1      -5.401   5.028  14.175  1.00  0.00     0.035 C 
HETATM    3  C5  UNL     1      -6.511   4.183  14.777  1.00  0.00     0.028 C 
HETATM    4  C6  UNL     1      -6.023   2.924  15.385  1.00  0.00     0.083 C 
HETATM    5  C7  UNL     1      -6.573   2.847  16.805  1.00  0.00     0.025 C 
HETATM    6  C8  UNL     1      -7.097   1.470  17.098  1.00  0.00     0.002 C 
HETATM    7  C9  UNL     1      -6.011   0.447  17.290  1.00  0.00     0.005 C 
HETATM    8  C10 UNL     1      -5.001   0.476  16.149  1.00  0.00     0.044 C 
HETATM    9  C11 UNL     1      -4.141   1.687  16.183  1.00  0.00     0.058 C 
HETATM   10  N1  UNL     1      -4.604   2.813  15.481  1.00  0.00    -0.386 N 
HETATM   11  C12 UNL     1      -3.867   3.146  14.313  1.00  0.00     0.154 C 
ENDROOT
BRANCH   1  12
HETATM   12  O3  UNL     1      -3.560   4.858  12.741  1.00  0.00    -0.374 OA
BRANCH  12  13
HETATM   13  C2  UNL     1      -3.063   4.238  11.611  1.00  0.00     0.281 C 
BRANCH  13  14
HETATM   14  C1  UNL     1      -4.186   4.010  10.675  1.00  0.00     0.197 C 
HETATM   15  O1  UNL     1      -4.401   2.878  10.165  1.00  0.00    -0.646 OA
HETATM   16  O2  UNL     1      -5.066   5.024  10.304  1.00  0.00    -0.646 OA
ENDBRANCH  13  14
ENDBRANCH  12  13
ENDBRANCH   1  12
TORSDOF 3
ENDMDL
MODEL 3
REMARK VINA RESULT: -6.502329015      3.567      5.712
REMARK  3 active torsions:
REMARK  status: ('A' for Active; 'I' for Inactive)
REMARK    1  A    between atoms: C1_2  and  C2_4 
REMARK    2  A    between atoms: C2_4  and  O3_5 
REMARK    3  A    between atoms: O3_5  and  C3_6 
ROOT
HETATM    1  C3  UNL     1      -5.070   2.784  14.940  1.00  0.00     0.140 C 
HETATM    2  C4  UNL     1      -4.749   4.253  14.796  1.00  0.00     0.035 C 
HETATM    3  C5  UNL     1      -3.314   4.326  14.300  1.00  0.00     0.028 C 
HETATM    4  C6  UNL     1      -3.031   3.389  13.191  1.00  0.00     0.083 C 
HETATM    5  C7  UNL     1      -2.396   4.186  12.056  1.00  0.00     0.025 C 
HETATM    6  C8  UNL     1      -1.215   3.453  11.486  1.00  0.00     0.002 C 
HETATM    7  C9  UNL     1      -1.600   2.262  10.651  1.00  0.00     0.005 C 
HETATM    8  C10 UNL     1      -2.578   1.351  11.385  1.00  0.00     0.044 C 
HETATM    9  C11 UNL     1      -3.931   1.952  11.507  1.00  0.00     0.058 C 
HETATM   10  N1  UNL     1      -4.176   2.733  12.650  1.00  0.00    -0.386 N 
HETATM   11  C12 UNL     1      -5.078   2.167  13.590  1.00  0.00     0.154 C 
ENDROOT
BRANCH   1  12
HETATM   12  O3  UNL     1      -6.358   2.699  15.481  1.00  0.00    -0.374 OA
BRANCH  12  13
HETATM   13  C2  UNL     1      -6.331   2.480  16.845  1.00  0.00     0.281 C 
BRANCH  13  14
HETATM   14  C1  UNL     1      -6.234   1.022  17.078  1.00  0.00     0.197 C 
HETATM   15  O1  UNL     1      -7.112   0.225  16.651  1.00  0.00    -0.646 OA
HETATM   16  O2  UNL     1      -5.175   0.447  17.777  1.00  0.00    -0.646 OA
ENDBRANCH  13  14
ENDBRANCH  12  13
ENDBRANCH   1  12
TORSDOF 3
ENDMDL
MODEL 4
REMARK VINA RESULT: -6.377959183      1.522      1.821
REMARK  3 active torsions:
REMARK  status: ('A' for Active; 'I' for Inactive)
REMARK    1  A    between atoms: C1_2  and  C2_4 
REMARK    2  A    between atoms: C2_4  and  O3_5 
REMARK    3  A    between atoms: O3_5  and  C3_6 
ROOT
HETATM    1  C3  UNL     1      -4.341   0.654  13.182  1.00  0.00     0.140 C 
HETATM    2  C4  UNL     1      -4.022   2.127  13.096  1.00  0.00     0.035 C 
HETATM    3  C5  UNL     1      -5.208   2.854  13.709  1.00  0.00     0.028 C 
HETATM    4  C6  UNL     1      -5.657   2.262  14.989  1.00  0.00     0.083 C 
HETATM    5  C7  UNL     1      -5.729   3.381  16.022  1.00  0.00     0.025 C 
HETATM    6  C8  UNL     1      -6.994   3.284  16.826  1.00  0.00     0.002 C 
HETATM    7  C9  UNL     1      -6.986   2.151  17.815  1.00  0.00     0.005 C 
HETATM    8  C10 UNL     1      -6.586   0.833  17.161  1.00  0.00     0.044 C 
HETATM    9  C11 UNL     1      -5.144   0.793  16.803  1.00  0.00     0.058 C 
HETATM   10  N1  UNL     1      -4.797   1.256  15.522  1.00  0.00    -0.386 N 
HETATM   11  C12 UNL     1      -4.360   0.257  14.612  1.00  0.00     0.154 C 
ENDROOT
BRANCH   1  12
HETATM   12  O3  UNL     1      -3.299  -0.028  12.541  1.00  0.00    -0.374 OA
BRANCH  12  13
HETATM   13  C2  UNL     1      -3.767  -0.872  11.552  1.00  0.00     0.281 C 
BRANCH  13  14
HETATM   14  C1  UNL     1      -3.589  -0.200  10.246  1.00  0.00     0.197 C 
HETATM   15  O1  UNL     1      -4.481  -0.237   9.357  1.00  0.00    -0.646 OA
HETATM   16  O2  UNL     1      -2.433   0.507   9.922  1.00  0.00    -0.646 OA
ENDBRANCH  13  14
ENDBRANCH  12  13
ENDBRANCH   1  12
TORSDOF 3
ENDMDL
MODEL 5
REMARK VINA RESULT: -6.368176801      3.331      5.833
REMARK  3 active torsions:
REMARK  status: ('A' for Active; 'I' for Inactive)
REMARK    1  A    between atoms: C1_2  and  C2_4 
REMARK    2  A    between atoms: C2_4  and  O3_5 
REMARK    3  A    between atoms: O3_5  and  C3_6 
ROOT
HETATM    1  C3  UNL     1      -4.005   1.304  11.903  1.00  0.00     0.140 C 
HETATM    2  C4  UNL     1      -2.794   0.435  11.662  1.00  0.00     0.035 C 
HETATM    3  C5  UNL     1      -2.086   1.020  10.452  1.00  0.00     0.028 C 
HETATM    4  C6  UNL     1      -1.947   2.492  10.511  1.00  0.00     0.083 C 
HETATM    5  C7  UNL     1      -0.481   2.833  10.268  1.00  0.00     0.025 C 
HETATM    6  C8  UNL     1      -0.353   3.984   9.311  1.00  0.00     0.002 C 
HETATM    7  C9  UNL     1      -0.729   5.309   9.918  1.00  0.00     0.005 C 
HETATM    8  C10 UNL     1      -2.087   5.247  10.608  1.00  0.00     0.044 C 
HETATM    9  C11 UNL     1      -2.048   4.457  11.866  1.00  0.00     0.058 C 
HETATM   10  N1  UNL     1      -2.311   3.081  11.758  1.00  0.00    -0.386 N 
HETATM   11  C12 UNL     1      -3.544   2.652  12.319  1.00  0.00     0.154 C 
ENDROOT
BRANCH   1  12
HETATM   12  O3  UNL     1      -4.717   0.727  12.961  1.00  0.00    -0.374 OA
BRANCH  12  13
HETATM   13  C2  UNL     1      -4.639   1.489  14.111  1.00  0.00     0.281 C 
BRANCH  13  14
HETATM   14  C1  UNL     1      -4.322   0.589  15.242  1.00  0.00     0.197 C 
HETATM   15  O1  UNL     1      -4.809  -0.571  15.320  1.00  0.00    -0.646 OA
HETATM   16  O2  UNL     1      -3.473   0.966  16.280  1.00  0.00    -0.646 OA
ENDBRANCH  13  14
ENDBRANCH  12  13
ENDBRANCH   1  12
TORSDOF 3
ENDMDL
