MODEL 1
REMARK VINA RESULT: -8.182304035      0.000      0.000
REMARK  4 active torsions:
REMARK  status: ('A' for Active; 'I' for Inactive)
REMARK    1  A    between atoms: C5_9  and  N3_10 
REMARK       I    between atoms: N3_10  and  C6_12 
REMARK    2  A    between atoms: C6_12  and  C7_14 
REMARK    3  A    between atoms: C7_14  and  N4_15 
REMARK    4  A    between atoms: C8_18  and  C9_19 
ROOT
HETATM    1  N4  UNL     1      -3.587   3.547  11.991  1.00  0.00    -0.287 N 
HETATM    2  N5  UNL     1      -3.549   2.363  11.389  1.00  0.00    -0.293 N 
ATOM      3  H5  UNL     1      -3.301   2.233  10.409  1.00  0.00     0.187 HD
HETATM    4  C8  UNL     1      -3.871   1.371  12.207  1.00  0.00     0.140 A 
HETATM    5  C10 UNL     1      -4.143   1.948  13.456  1.00  0.00    -0.001 A 
HETATM    6  C11 UNL     1      -3.948   3.310  13.247  1.00  0.00     0.037 A 
HETATM    7  C12 UNL     1      -4.165   4.330  14.322  1.00  0.00     0.059 C 
HETATM    8  C13 UNL     1      -5.575   4.245  14.829  1.00  0.00     0.006 C 
HETATM    9  C14 UNL     1      -5.907   3.010  15.587  1.00  0.00     0.001 C 
HETATM   10  C15 UNL     1      -4.775   2.067  15.824  1.00  0.00     0.005 C 
HETATM   11  C16 UNL     1      -4.540   1.156  14.643  1.00  0.00     0.043 C 
ENDROOT
BRANCH   1  12
HETATM   12  C7  UNL     1      -3.268   4.840  11.428  1.00  0.00     0.252 C 
BRANCH  12  13
HETATM   13  C6  UNL     1      -4.340   5.437  10.633  1.00  0.00     0.242 C 
HETATM   14  N3  UNL     1      -4.561   6.828  10.486  1.00  0.00    -0.321 N 
ATOM     15  H3  UNL     1      -3.943   7.488  10.959  1.00  0.00     0.169 HD
HETATM   16  O1  UNL     1      -5.140   4.657  10.022  1.00  0.00    -0.271 OA
BRANCH  14  17
HETATM   17  C5  UNL     1      -5.643   7.324   9.681  1.00  0.00     0.099 A 
HETATM   18  C2  UNL     1      -6.882   7.683  10.143  1.00  0.00     0.052 A 
HETATM   19  C1  UNL     1      -7.374   7.695  11.549  1.00  0.00     0.072 C 
HETATM   20  N1  UNL     1      -7.605   8.054   9.047  1.00  0.00    -0.300 N 
HETATM   21  N2  UNL     1      -6.856   7.931   7.956  1.00  0.00    -0.283 N 
ATOM     22  H1  UNL     1      -8.574   8.376   9.062  1.00  0.00     0.187 HD
HETATM   23  C3  UNL     1      -7.253   8.216   6.574  1.00  0.00     0.179 C 
HETATM   24  C4  UNL     1      -5.647   7.485   8.319  1.00  0.00     0.148 A 
HETATM   25 CL1  UNL     1      -4.324   7.181   7.192  1.00  0.00    -0.060 Cl
ENDBRANCH  14  17
ENDBRANCH  12  13
ENDBRANCH   1  12
BRANCH   4  26
HETATM   26  C9  UNL     1      -3.956  -0.097  11.963  1.00  0.00     0.434 C 
HETATM   27  F1  UNL     1      -2.778  -0.557  11.403  1.00  0.00    -0.165 F 
HETATM   28  F2  UNL     1      -4.214  -0.812  13.114  1.00  0.00    -0.165 F 
HETATM   29  F3  UNL     1      -4.954  -0.385  11.060  1.00  0.00    -0.165 F 
ENDBRANCH   4  26
TORSDOF 4
ENDMDL
MODEL 2
REMARK VINA RESULT: -8.172615398      1.196      1.744
REMARK  4 active torsions:
REMARK  status: ('A' for Active; 'I' for Inactive)
REMARK    1  A    between atoms: C5_9  and  N3_10 
REMARK       I    between atoms: N3_10  and  C6_12 
REMARK    2  A    between atoms: C6_12  and  C7_14 
REMARK    3  A    between atoms: C7_14  and  N4_15 
REMARK    4  A    between atoms: C8_18  and  C9_19 
ROOT
HETATM    1  N4  UNL     1      -3.617   3.525  12.029  1.00  0.00    -0.287 N 
HETATM    2  N5  UNL     1      -3.550   2.325  11.463  1.00  0.00    -0.293 N 
ATOM      3  H5  UNL     1      -3.282   2.171  10.491  1.00  0.00     0.187 HD
HETATM    4  C8  UNL     1      -3.869   1.352  12.304  1.00  0.00     0.140 A 
HETATM    5  C10 UNL     1      -4.173   1.962  13.530  1.00  0.00    -0.001 A 
HETATM    6  C11 UNL     1      -3.995   3.320  13.284  1.00  0.00     0.037 A 
HETATM    7  C12 UNL     1      -4.249   4.367  14.325  1.00  0.00     0.059 C 
HETATM    8  C13 UNL     1      -5.665   4.273  14.810  1.00  0.00     0.006 C 
HETATM    9  C14 UNL     1      -5.990   3.056  15.599  1.00  0.00     0.001 C 
HETATM   10  C15 UNL     1      -4.848   2.139  15.883  1.00  0.00     0.005 C 
HETATM   11  C16 UNL     1      -4.577   1.198  14.733  1.00  0.00     0.043 C 
ENDROOT
BRANCH   1  12
HETATM   12  C7  UNL     1      -3.309   4.807  11.433  1.00  0.00     0.252 C 
BRANCH  12  13
HETATM   13  C6  UNL     1      -4.312   5.294  10.488  1.00  0.00     0.242 C 
HETATM   14  N3  UNL     1      -4.399   6.624  10.011  1.00  0.00    -0.321 N 
ATOM     15  H3  UNL     1      -3.725   7.319  10.335  1.00  0.00     0.169 HD
HETATM   16  O1  UNL     1      -5.179   4.467  10.052  1.00  0.00    -0.271 OA
BRANCH  14  17
HETATM   17  C5  UNL     1      -5.421   7.011   9.079  1.00  0.00     0.099 A 
HETATM   18  C2  UNL     1      -5.307   6.986   7.713  1.00  0.00     0.052 A 
HETATM   19  C1  UNL     1      -4.155   6.520   6.893  1.00  0.00     0.072 C 
HETATM   20  N1  UNL     1      -6.486   7.468   7.223  1.00  0.00    -0.300 N 
HETATM   21  N2  UNL     1      -7.293   7.780   8.231  1.00  0.00    -0.283 N 
ATOM     22  H1  UNL     1      -6.712   7.574   6.234  1.00  0.00     0.187 HD
HETATM   23  C3  UNL     1      -8.647   8.337   8.140  1.00  0.00     0.179 C 
HETATM   24  C4  UNL     1      -6.664   7.507   9.381  1.00  0.00     0.148 A 
HETATM   25 CL1  UNL     1      -7.366   7.761  10.979  1.00  0.00    -0.060 Cl
ENDBRANCH  14  17
ENDBRANCH  12  13
ENDBRANCH   1  12
BRANCH   4  26
HETATM   26  C9  UNL     1      -3.927  -0.123  12.102  1.00  0.00     0.434 C 
HETATM   27  F1  UNL     1      -2.744  -0.575  11.546  1.00  0.00    -0.165 F 
HETATM   28  F2  UNL     1      -4.161  -0.811  13.275  1.00  0.00    -0.165 F 
HETATM   29  F3  UNL     1      -4.925  -0.457  11.216  1.00  0.00    -0.165 F 
ENDBRANCH   4  26
TORSDOF 4
ENDMDL
MODEL 3
REMARK VINA RESULT: -7.697592216      1.059      1.083
REMARK  4 active torsions:
REMARK  status: ('A' for Active; 'I' for Inactive)
REMARK    1  A    between atoms: C5_9  and  N3_10 
REMARK       I    between atoms: N3_10  and  C6_12 
REMARK    2  A    between atoms: C6_12  and  C7_14 
REMARK    3  A    between atoms: C7_14  and  N4_15 
REMARK    4  A    between atoms: C8_18  and  C9_19 
ROOT
HETATM    1  N4  UNL     1      -3.320   4.437  12.015  1.00  0.00    -0.287 N 
HETATM    2  N5  UNL     1      -3.248   3.291  11.348  1.00  0.00    -0.293 N 
ATOM      3  H5  UNL     1      -2.862   3.205  10.408  1.00  0.00     0.187 HD
HETATM    4  C8  UNL     1      -3.735   2.272  12.042  1.00  0.00     0.140 A 
HETATM    5  C10 UNL     1      -4.164   2.790  13.272  1.00  0.00    -0.001 A 
HETATM    6  C11 UNL     1      -3.876   4.149  13.185  1.00  0.00     0.037 A 
HETATM    7  C12 UNL     1      -4.205   5.115  14.282  1.00  0.00     0.059 C 
HETATM    8  C13 UNL     1      -5.677   5.079  14.569  1.00  0.00     0.006 C 
HETATM    9  C14 UNL     1      -6.177   3.823  15.187  1.00  0.00     0.001 C 
HETATM   10  C15 UNL     1      -5.139   2.805  15.524  1.00  0.00     0.005 C 
HETATM   11  C16 UNL     1      -4.772   1.953  14.333  1.00  0.00     0.043 C 
ENDROOT
BRANCH   1  12
HETATM   12  C7  UNL     1      -2.859   5.742  11.592  1.00  0.00     0.252 C 
BRANCH  12  13
HETATM   13  C6  UNL     1      -3.854   6.530  10.866  1.00  0.00     0.242 C 
HETATM   14  N3  UNL     1      -5.012   6.002  10.246  1.00  0.00    -0.321 N 
ATOM     15  H3  UNL     1      -5.193   4.998  10.291  1.00  0.00     0.169 HD
HETATM   16  O1  UNL     1      -3.676   7.789  10.779  1.00  0.00    -0.271 OA
BRANCH  14  17
HETATM   17  C5  UNL     1      -5.936   6.857   9.554  1.00  0.00     0.099 A 
HETATM   18  C2  UNL     1      -6.977   7.537  10.130  1.00  0.00     0.052 A 
HETATM   19  C1  UNL     1      -7.359   7.594  11.568  1.00  0.00     0.072 C 
HETATM   20  N1  UNL     1      -7.616   8.187   9.114  1.00  0.00    -0.300 N 
HETATM   21  N2  UNL     1      -7.005   7.925   7.963  1.00  0.00    -0.283 N 
ATOM     22  H1  UNL     1      -8.437   8.783   9.221  1.00  0.00     0.187 HD
HETATM   23  C3  UNL     1      -7.376   8.417   6.632  1.00  0.00     0.179 C 
HETATM   24  C4  UNL     1      -5.970   7.111   8.207  1.00  0.00     0.148 A 
HETATM   25 CL1  UNL     1      -4.871   6.507   6.966  1.00  0.00    -0.060 Cl
ENDBRANCH  14  17
ENDBRANCH  12  13
ENDBRANCH   1  12
BRANCH   4  26
HETATM   26  C9  UNL     1      -3.852   0.828  11.692  1.00  0.00     0.434 C 
HETATM   27  F1  UNL     1      -3.044   0.534  10.607  1.00  0.00    -0.165 F 
HETATM   28  F2  UNL     1      -3.513  -0.002  12.740  1.00  0.00    -0.165 F 
HETATM   29  F3  UNL     1      -5.138   0.520  11.313  1.00  0.00    -0.165 F 
ENDBRANCH   4  26
TORSDOF 4
ENDMDL
MODEL 4
REMARK VINA RESULT: -7.680623721      3.901      5.313
REMARK  4 active torsions:
REMARK  status: ('A' for Active; 'I' for Inactive)
REMARK    1  A    between atoms: C5_9  and  N3_10 
REMARK       I    between atoms: N3_10  and  C6_12 
REMARK    2  A    between atoms: C6_12  and  C7_14 
REMARK    3  A    between atoms: C7_14  and  N4_15 
REMARK    4  A    between atoms: C8_18  and  C9_19 
ROOT
HETATM    1  N4  UNL     1      -4.763   3.959  13.625  1.00  0.00    -0.287 N 
HETATM    2  N5  UNL     1      -4.873   3.513  14.871  1.00  0.00    -0.293 N 
ATOM      3  H5  UNL     1      -5.090   4.108  15.670  1.00  0.00     0.187 HD
HETATM    4  C8  UNL     1      -4.667   2.206  14.958  1.00  0.00     0.140 A 
HETATM    5  C10 UNL     1      -4.399   1.751  13.660  1.00  0.00    -0.001 A 
HETATM    6  C11 UNL     1      -4.475   2.900  12.878  1.00  0.00     0.037 A 
HETATM    7  C12 UNL     1      -4.218   2.889  11.402  1.00  0.00     0.059 C 
HETATM    8  C13 UNL     1      -2.842   2.359  11.127  1.00  0.00     0.006 C 
HETATM    9  C14 UNL     1      -2.643   0.916  11.423  1.00  0.00     0.001 C 
HETATM   10  C15 UNL     1      -3.857   0.168  11.865  1.00  0.00     0.005 C 
HETATM   11  C16 UNL     1      -4.118   0.332  13.343  1.00  0.00     0.043 C 
ENDROOT
BRANCH   1  12
HETATM   12  C7  UNL     1      -4.953   5.311  13.145  1.00  0.00     0.252 C 
BRANCH  12  13
HETATM   13  C6  UNL     1      -3.713   6.047  12.901  1.00  0.00     0.242 C 
HETATM   14  N3  UNL     1      -2.536   5.933  13.680  1.00  0.00    -0.321 N 
ATOM     15  H3  UNL     1      -2.522   5.298  14.479  1.00  0.00     0.169 HD
HETATM   16  O1  UNL     1      -3.678   6.855  11.916  1.00  0.00    -0.271 OA
BRANCH  14  17
HETATM   17  C5  UNL     1      -1.363   6.698  13.363  1.00  0.00     0.099 A 
HETATM   18  C2  UNL     1      -1.033   7.915  13.902  1.00  0.00     0.052 A 
HETATM   19  C1  UNL     1      -1.760   8.688  14.947  1.00  0.00     0.072 C 
HETATM   20  N1  UNL     1       0.128   8.298  13.297  1.00  0.00    -0.300 N 
HETATM   21  N2  UNL     1       0.504   7.369  12.424  1.00  0.00    -0.283 N 
ATOM     22  H1  UNL     1       0.631   9.166  13.485  1.00  0.00     0.187 HD
HETATM   23  C3  UNL     1       1.689   7.394  11.560  1.00  0.00     0.179 C 
HETATM   24  C4  UNL     1      -0.394   6.376  12.447  1.00  0.00     0.148 A 
HETATM   25 CL1  UNL     1      -0.292   4.925  11.448  1.00  0.00    -0.060 Cl
ENDBRANCH  14  17
ENDBRANCH  12  13
ENDBRANCH   1  12
BRANCH   4  26
HETATM   26  C9  UNL     1      -4.691   1.299  16.141  1.00  0.00     0.434 C 
HETATM   27  F1  UNL     1      -5.833   0.518  16.119  1.00  0.00    -0.165 F 
HETATM   28  F2  UNL     1      -3.587   0.475  16.200  1.00  0.00    -0.165 F 
HETATM   29  F3  UNL     1      -4.737   2.021  17.311  1.00  0.00    -0.165 F 
ENDBRANCH   4  26
TORSDOF 4
ENDMDL
MODEL 5
REMARK VINA RESULT: -7.648040138      4.033      5.511
REMARK  4 active torsions:
REMARK  status: ('A' for Active; 'I' for Inactive)
REMARK    1  A    between atoms: C5_9  and  N3_10 
REMARK       I    between atoms: N3_10  and  C6_12 
REMARK    2  A    between atoms: C6_12  and  C7_14 
REMARK    3  A    between atoms: C7_14  and  N4_15 
REMARK    4  A    between atoms: C8_18  and  C9_19 
ROOT
HETATM    1  N4  UNL     1      -4.819   3.899  13.600  1.00  0.00    -0.287 N 
HETATM    2  N5  UNL     1      -4.921   3.465  14.852  1.00  0.00    -0.293 N 
ATOM      3  H5  UNL     1      -5.151   4.066  15.643  1.00  0.00     0.187 HD
HETATM    4  C8  UNL     1      -4.691   2.164  14.955  1.00  0.00     0.140 A 
HETATM    5  C10 UNL     1      -4.413   1.699  13.661  1.00  0.00    -0.001 A 
HETATM    6  C11 UNL     1      -4.510   2.837  12.866  1.00  0.00     0.037 A 
HETATM    7  C12 UNL     1      -4.253   2.813  11.391  1.00  0.00     0.059 C 
HETATM    8  C13 UNL     1      -2.867   2.306  11.122  1.00  0.00     0.006 C 
HETATM    9  C14 UNL     1      -2.640   0.871  11.436  1.00  0.00     0.001 C 
HETATM   10  C15 UNL     1      -3.839   0.105  11.886  1.00  0.00     0.005 C 
HETATM   11  C16 UNL     1      -4.104   0.281  13.362  1.00  0.00     0.043 C 
ENDROOT
BRANCH   1  12
HETATM   12  C7  UNL     1      -5.034   5.241  13.104  1.00  0.00     0.252 C 
BRANCH  12  13
HETATM   13  C6  UNL     1      -3.809   5.998  12.852  1.00  0.00     0.242 C 
HETATM   14  N3  UNL     1      -2.577   5.790  13.517  1.00  0.00    -0.321 N 
ATOM     15  H3  UNL     1      -2.507   5.065  14.232  1.00  0.00     0.169 HD
HETATM   16  O1  UNL     1      -3.841   6.915  11.968  1.00  0.00    -0.271 OA
BRANCH  14  17
HETATM   17  C5  UNL     1      -1.422   6.584  13.200  1.00  0.00     0.099 A 
HETATM   18  C2  UNL     1      -0.471   6.271  12.264  1.00  0.00     0.052 A 
HETATM   19  C1  UNL     1      -0.432   5.099  11.345  1.00  0.00     0.072 C 
HETATM   20  N1  UNL     1       0.459   7.268  12.317  1.00  0.00    -0.300 N 
HETATM   21  N2  UNL     1       0.107   8.157  13.240  1.00  0.00    -0.283 N 
ATOM     22  H1  UNL     1       1.297   7.322  11.738  1.00  0.00     0.187 HD
HETATM   23  C3  UNL     1       0.834   9.373  13.620  1.00  0.00     0.179 C 
HETATM   24  C4  UNL     1      -1.045   7.760  13.796  1.00  0.00     0.148 A 
HETATM   25 CL1  UNL     1      -1.887   8.644  15.069  1.00  0.00    -0.060 Cl
ENDBRANCH  14  17
ENDBRANCH  12  13
ENDBRANCH   1  12
BRANCH   4  26
HETATM   26  C9  UNL     1      -4.698   1.270  16.148  1.00  0.00     0.434 C 
HETATM   27  F1  UNL     1      -5.851   0.505  16.163  1.00  0.00    -0.165 F 
HETATM   28  F2  UNL     1      -3.604   0.432  16.189  1.00  0.00    -0.165 F 
HETATM   29  F3  UNL     1      -4.706   2.007  17.310  1.00  0.00    -0.165 F 
ENDBRANCH   4  26
TORSDOF 4
ENDMDL
