MODEL 1
REMARK VINA RESULT: -7.955649359      0.000      0.000
REMARK  11 active torsions:
REMARK  status: ('A' for Active; 'I' for Inactive)
REMARK    1  A    between atoms: O1_1  and  C1_3 
REMARK    2  A    between atoms: C1_3  and  C2_4 
REMARK    3  A    between atoms: C1_3  and  N2_27 
REMARK    4  A    between atoms: C4_6  and  C5_7 
REMARK    5  A    between atoms: C11_13  and  O2_14 
REMARK    6  A    between atoms: O2_14  and  C12_15 
REMARK    7  A    between atoms: C12_15  and  C13_16 
REMARK    8  A    between atoms: C18_24  and  O3_25 
REMARK    9  A    between atoms: C23_34  and  N4_35 
REMARK   10  A    between atoms: N4_35  and  C24_36 
REMARK   11  A    between atoms: C24_36  and  C25_37 
ROOT
HETATM    1  C2  UNL     1      12.769  54.010  94.345  1.00  0.00     0.092 C 
HETATM    2  C3  UNL     1      13.189  55.258  95.042  1.00  0.00     0.023 C 
HETATM    3  C4  UNL     1      12.639  55.215  96.440  1.00  0.00     0.022 C 
HETATM    4  C11 UNL     1      11.996  53.908  96.566  1.00  0.00     0.155 C 
HETATM    5  C18 UNL     1      11.626  53.501  95.137  1.00  0.00     0.159 C 
ENDROOT
BRANCH   1   6
HETATM    6  C1  UNL     1      12.612  54.076  92.901  1.00  0.00     0.126 C 
BRANCH   6   7
HETATM    7  O1  UNL     1      11.509  53.603  92.395  1.00  0.00    -0.349 OA
ATOM      8  H1  UNL     1      10.710  54.089  92.557  1.00  0.00     0.219 HD
ENDBRANCH   6   7
BRANCH   6   9
HETATM    9  N2  UNL     1      13.511  54.596  91.952  1.00  0.00    -0.316 N 
HETATM   10  C19 UNL     1      14.727  55.316  92.205  1.00  0.00     0.137 C 
HETATM   11  C20 UNL     1      14.863  56.274  91.038  1.00  0.00     0.064 C 
HETATM   12  C21 UNL     1      14.213  55.490  89.945  1.00  0.00     0.003 A 
HETATM   13  C22 UNL     1      14.314  55.635  88.582  1.00  0.00     0.103 A 
HETATM   14  C29 UNL     1      13.428  54.521  90.516  1.00  0.00     0.120 A 
HETATM   15  N3  UNL     1      13.631  54.811  87.791  1.00  0.00    -0.326 N 
HETATM   16  C23 UNL     1      12.836  53.830  88.317  1.00  0.00     0.259 A 
ATOM     17  H3  UNL     1      13.701  54.913  86.779  1.00  0.00     0.169 HD
HETATM   18  N5  UNL     1      12.761  53.717  89.698  1.00  0.00    -0.301 N 
ATOM     19  H5  UNL     1      12.171  52.988  90.100  1.00  0.00     0.171 HD
BRANCH  16  20
HETATM   20  N4  UNL     1      12.229  53.100  87.581  1.00  0.00    -0.385 NA
BRANCH  20  21
HETATM   21  C24 UNL     1      11.770  52.374  86.562  1.00  0.00     0.191 C 
BRANCH  21  22
HETATM   22  C25 UNL     1      12.452  52.413  85.207  1.00  0.00     0.173 C 
HETATM   23  C26 UNL     1      12.637  51.074  84.575  1.00  0.00     0.040 C 
HETATM   24  C27 UNL     1      13.977  51.191  83.905  1.00  0.00     0.029 C 
HETATM   25  C28 UNL     1      14.352  52.624  84.081  1.00  0.00     0.168 C 
HETATM   26  O4  UNL     1      13.658  53.061  85.191  1.00  0.00    -0.380 OA
ENDBRANCH  21  22
ENDBRANCH  20  21
ENDBRANCH  16  20
ENDBRANCH   6   9
ENDBRANCH   1   6
BRANCH   5  27
HETATM   27  O3  UNL     1      11.648  52.089  95.044  1.00  0.00    -0.392 OA
ATOM     28  H3  UNL     1      11.854  51.869  94.143  1.00  0.00     0.210 HD
ENDBRANCH   5  27
BRANCH   3  29
HETATM   29  C5  UNL     1      11.625  56.320  96.686  1.00  0.00    -0.008 C 
HETATM   30  C6  UNL     1      11.351  56.469  98.163  1.00  0.00     0.005 C 
HETATM   31  C7  UNL     1       9.970  57.087  98.280  1.00  0.00     0.000 C 
HETATM   32  C8  UNL     1       9.786  58.049  97.127  1.00  0.00     0.000 C 
HETATM   33  C9  UNL     1      11.092  58.691  96.706  1.00  0.00     0.000 C 
HETATM   34  C10 UNL     1      12.097  57.662  96.213  1.00  0.00     0.005 C 
ENDBRANCH   3  29
BRANCH   4  35
HETATM   35  O2  UNL     1      12.662  52.875  97.104  1.00  0.00    -0.383 OA
BRANCH  35  36
HETATM   36  C12 UNL     1      13.609  53.030  98.026  1.00  0.00     0.173 C 
BRANCH  36  37
HETATM   37  C13 UNL     1      14.958  52.643  97.411  1.00  0.00     0.013 C 
HETATM   38  C14 UNL     1      14.810  51.567  96.392  1.00  0.00     0.034 C 
HETATM   39  C15 UNL     1      15.740  50.433  96.705  1.00  0.00     0.232 C 
HETATM   40  N1  UNL     1      17.111  50.815  96.855  1.00  0.00    -0.075 N 
HETATM   41  C16 UNL     1      17.237  51.858  97.831  1.00  0.00     0.232 C 
ATOM     42  H12 UNL     1      17.706  50.017  97.075  1.00  0.00     0.277 HD
ATOM     43  H11 UNL     1      17.532  51.077  95.964  1.00  0.00     0.277 HD
HETATM   44  C17 UNL     1      15.937  52.225  98.469  1.00  0.00     0.034 C 
ENDBRANCH  36  37
ENDBRANCH  35  36
ENDBRANCH   4  35
TORSDOF 11
ENDMDL
MODEL 2
REMARK VINA RESULT: -7.661512491      1.381      2.035
REMARK  11 active torsions:
REMARK  status: ('A' for Active; 'I' for Inactive)
REMARK    1  A    between atoms: O1_1  and  C1_3 
REMARK    2  A    between atoms: C1_3  and  C2_4 
REMARK    3  A    between atoms: C1_3  and  N2_27 
REMARK    4  A    between atoms: C4_6  and  C5_7 
REMARK    5  A    between atoms: C11_13  and  O2_14 
REMARK    6  A    between atoms: O2_14  and  C12_15 
REMARK    7  A    between atoms: C12_15  and  C13_16 
REMARK    8  A    between atoms: C18_24  and  O3_25 
REMARK    9  A    between atoms: C23_34  and  N4_35 
REMARK   10  A    between atoms: N4_35  and  C24_36 
REMARK   11  A    between atoms: C24_36  and  C25_37 
ROOT
HETATM    1  C2  UNL     1      13.165  54.164  93.782  1.00  0.00     0.092 C 
HETATM    2  C3  UNL     1      13.516  55.329  94.641  1.00  0.00     0.023 C 
HETATM    3  C4  UNL     1      12.887  55.116  95.990  1.00  0.00     0.022 C 
HETATM    4  C11 UNL     1      12.267  53.793  95.925  1.00  0.00     0.155 C 
HETATM    5  C18 UNL     1      11.989  53.549  94.439  1.00  0.00     0.159 C 
ENDROOT
BRANCH   1   6
HETATM    6  C1  UNL     1      13.091  54.395  92.348  1.00  0.00     0.126 C 
BRANCH   6   7
HETATM    7  O1  UNL     1      14.212  54.583  91.711  1.00  0.00    -0.349 OA
ATOM      8  H1  UNL     1      14.230  54.371  90.785  1.00  0.00     0.219 HD
ENDBRANCH   6   7
BRANCH   6   9
HETATM    9  N2  UNL     1      11.945  54.440  91.534  1.00  0.00    -0.316 N 
HETATM   10  C19 UNL     1      10.600  54.736  91.937  1.00  0.00     0.137 C 
HETATM   11  C20 UNL     1       9.725  53.925  91.001  1.00  0.00     0.064 C 
HETATM   12  C21 UNL     1      10.563  53.909  89.765  1.00  0.00     0.003 A 
HETATM   13  C22 UNL     1      10.203  53.647  88.464  1.00  0.00     0.103 A 
HETATM   14  C29 UNL     1      11.855  54.210  90.114  1.00  0.00     0.120 A 
HETATM   15  N3  UNL     1      11.135  53.688  87.514  1.00  0.00    -0.326 N 
HETATM   16  C23 UNL     1      12.435  53.984  87.817  1.00  0.00     0.259 A 
ATOM     17  H3  UNL     1      10.875  53.495  86.547  1.00  0.00     0.169 HD
HETATM   18  N5  UNL     1      12.757  54.242  89.142  1.00  0.00    -0.301 N 
ATOM     19  H5  UNL     1      13.725  54.464  89.379  1.00  0.00     0.171 HD
BRANCH  16  20
HETATM   20  N4  UNL     1      13.257  54.014  86.941  1.00  0.00    -0.385 NA
BRANCH  20  21
HETATM   21  C24 UNL     1      13.976  54.251  85.844  1.00  0.00     0.191 C 
BRANCH  21  22
HETATM   22  C25 UNL     1      14.642  53.116  85.089  1.00  0.00     0.173 C 
HETATM   23  C26 UNL     1      15.860  53.517  84.327  1.00  0.00     0.040 C 
HETATM   24  C27 UNL     1      15.774  52.691  83.075  1.00  0.00     0.029 C 
HETATM   25  C28 UNL     1      14.611  51.787  83.312  1.00  0.00     0.168 C 
HETATM   26  O4  UNL     1      13.815  52.431  84.238  1.00  0.00    -0.380 OA
ENDBRANCH  21  22
ENDBRANCH  20  21
ENDBRANCH  16  20
ENDBRANCH   6   9
ENDBRANCH   1   6
BRANCH   5  27
HETATM   27  O3  UNL     1      12.048  52.158  94.186  1.00  0.00    -0.392 OA
ATOM     28  H3  UNL     1      12.560  51.767  94.885  1.00  0.00     0.210 HD
ENDBRANCH   5  27
BRANCH   3  29
HETATM   29  C5  UNL     1      11.835  56.169  96.299  1.00  0.00    -0.008 C 
HETATM   30  C6  UNL     1      11.484  56.152  97.767  1.00  0.00     0.005 C 
HETATM   31  C7  UNL     1      10.084  56.729  97.877  1.00  0.00     0.000 C 
HETATM   32  C8  UNL     1       9.936  57.806  96.825  1.00  0.00     0.000 C 
HETATM   33  C9  UNL     1      11.246  58.514  96.545  1.00  0.00     0.000 C 
HETATM   34  C10 UNL     1      12.298  57.563  95.999  1.00  0.00     0.005 C 
ENDBRANCH   3  29
BRANCH   4  35
HETATM   35  O2  UNL     1      12.923  52.716  96.381  1.00  0.00    -0.383 OA
BRANCH  35  36
HETATM   36  C12 UNL     1      13.682  52.743  97.473  1.00  0.00     0.173 C 
BRANCH  36  37
HETATM   37  C13 UNL     1      15.116  52.371  97.081  1.00  0.00     0.013 C 
HETATM   38  C14 UNL     1      15.146  51.271  96.077  1.00  0.00     0.034 C 
HETATM   39  C15 UNL     1      16.036  50.164  96.557  1.00  0.00     0.232 C 
HETATM   40  N1  UNL     1      17.361  50.578  96.905  1.00  0.00    -0.075 N 
HETATM   41  C16 UNL     1      17.317  51.644  97.863  1.00  0.00     0.232 C 
ATOM     42  H12 UNL     1      17.929  49.797  97.233  1.00  0.00     0.277 HD
ATOM     43  H11 UNL     1      17.909  50.830  96.082  1.00  0.00     0.277 HD
HETATM   44  C17 UNL     1      15.929  51.997  98.286  1.00  0.00     0.034 C 
ENDBRANCH  36  37
ENDBRANCH  35  36
ENDBRANCH   4  35
TORSDOF 11
ENDMDL
MODEL 3
REMARK VINA RESULT: -7.659781556      1.098      1.430
REMARK  11 active torsions:
REMARK  status: ('A' for Active; 'I' for Inactive)
REMARK    1  A    between atoms: O1_1  and  C1_3 
REMARK    2  A    between atoms: C1_3  and  C2_4 
REMARK    3  A    between atoms: C1_3  and  N2_27 
REMARK    4  A    between atoms: C4_6  and  C5_7 
REMARK    5  A    between atoms: C11_13  and  O2_14 
REMARK    6  A    between atoms: O2_14  and  C12_15 
REMARK    7  A    between atoms: C12_15  and  C13_16 
REMARK    8  A    between atoms: C18_24  and  O3_25 
REMARK    9  A    between atoms: C23_34  and  N4_35 
REMARK   10  A    between atoms: N4_35  and  C24_36 
REMARK   11  A    between atoms: C24_36  and  C25_37 
ROOT
HETATM    1  C2  UNL     1      12.728  54.128  94.210  1.00  0.00     0.092 C 
HETATM    2  C3  UNL     1      13.149  55.364  94.926  1.00  0.00     0.023 C 
HETATM    3  C4  UNL     1      12.635  55.281  96.336  1.00  0.00     0.022 C 
HETATM    4  C11 UNL     1      12.011  53.963  96.446  1.00  0.00     0.155 C 
HETATM    5  C18 UNL     1      11.610  53.585  95.017  1.00  0.00     0.159 C 
ENDROOT
BRANCH   1   6
HETATM    6  C1  UNL     1      12.534  54.225  92.772  1.00  0.00     0.126 C 
BRANCH   6   7
HETATM    7  O1  UNL     1      11.366  53.895  92.299  1.00  0.00    -0.349 OA
ATOM      8  H1  UNL     1      11.323  53.622  91.391  1.00  0.00     0.219 HD
ENDBRANCH   6   7
BRANCH   6   9
HETATM    9  N2  UNL     1      13.459  54.641  91.798  1.00  0.00    -0.316 N 
HETATM   10  C19 UNL     1      14.725  55.283  92.014  1.00  0.00     0.137 C 
HETATM   11  C20 UNL     1      14.918  56.181  90.806  1.00  0.00     0.064 C 
HETATM   12  C21 UNL     1      14.205  55.401  89.751  1.00  0.00     0.003 A 
HETATM   13  C22 UNL     1      14.304  55.483  88.382  1.00  0.00     0.103 A 
HETATM   14  C29 UNL     1      13.358  54.514  90.366  1.00  0.00     0.120 A 
HETATM   15  N3  UNL     1      13.558  54.678  87.630  1.00  0.00    -0.326 N 
HETATM   16  C23 UNL     1      12.700  53.778  88.201  1.00  0.00     0.259 A 
ATOM     17  H3  UNL     1      13.626  54.733  86.614  1.00  0.00     0.169 HD
HETATM   18  N5  UNL     1      12.629  53.727  89.586  1.00  0.00    -0.301 N 
ATOM     19  H5  UNL     1      11.993  53.059  90.021  1.00  0.00     0.171 HD
BRANCH  16  20
HETATM   20  N4  UNL     1      12.037  53.063  87.499  1.00  0.00    -0.385 NA
BRANCH  20  21
HETATM   21  C24 UNL     1      11.472  52.390  86.497  1.00  0.00     0.191 C 
BRANCH  21  22
HETATM   22  C25 UNL     1      11.044  53.098  85.226  1.00  0.00     0.173 C 
HETATM   23  C26 UNL     1       9.773  53.870  85.352  1.00  0.00     0.040 C 
HETATM   24  C27 UNL     1       9.106  53.658  84.022  1.00  0.00     0.029 C 
HETATM   25  C28 UNL     1      10.125  52.927  83.213  1.00  0.00     0.168 C 
HETATM   26  O4  UNL     1      10.943  52.290  84.125  1.00  0.00    -0.380 OA
ENDBRANCH  21  22
ENDBRANCH  20  21
ENDBRANCH  16  20
ENDBRANCH   6   9
ENDBRANCH   1   6
BRANCH   5  27
HETATM   27  O3  UNL     1      11.648  52.176  94.890  1.00  0.00    -0.392 OA
ATOM     28  H3  UNL     1      11.178  51.814  95.632  1.00  0.00     0.210 HD
ENDBRANCH   5  27
BRANCH   3  29
HETATM   29  C5  UNL     1      11.613  56.366  96.633  1.00  0.00    -0.008 C 
HETATM   30  C6  UNL     1      11.388  56.489  98.121  1.00  0.00     0.005 C 
HETATM   31  C7  UNL     1      10.002  57.084  98.294  1.00  0.00     0.000 C 
HETATM   32  C8  UNL     1       9.764  58.060  97.163  1.00  0.00     0.000 C 
HETATM   33  C9  UNL     1      11.046  58.728  96.707  1.00  0.00     0.000 C 
HETATM   34  C10 UNL     1      12.048  57.722  96.165  1.00  0.00     0.005 C 
ENDBRANCH   3  29
BRANCH   4  35
HETATM   35  O2  UNL     1      12.703  52.926  96.943  1.00  0.00    -0.383 OA
BRANCH  35  36
HETATM   36  C12 UNL     1      13.614  53.062  97.903  1.00  0.00     0.173 C 
BRANCH  36  37
HETATM   37  C13 UNL     1      14.981  52.656  97.342  1.00  0.00     0.013 C 
HETATM   38  C14 UNL     1      14.851  51.647  96.254  1.00  0.00     0.034 C 
HETATM   39  C15 UNL     1      15.717  50.459  96.550  1.00  0.00     0.232 C 
HETATM   40  N1  UNL     1      17.091  50.775  96.798  1.00  0.00    -0.075 N 
HETATM   41  C16 UNL     1      17.200  51.754  97.839  1.00  0.00     0.232 C 
ATOM     42  H12 UNL     1      17.641  49.941  97.003  1.00  0.00     0.277 HD
ATOM     43  H11 UNL     1      17.572  51.070  95.949  1.00  0.00     0.277 HD
HETATM   44  C17 UNL     1      15.881  52.138  98.425  1.00  0.00     0.034 C 
ENDBRANCH  36  37
ENDBRANCH  35  36
ENDBRANCH   4  35
TORSDOF 11
ENDMDL
MODEL 4
REMARK VINA RESULT: -7.603644998      2.529      5.502
REMARK  11 active torsions:
REMARK  status: ('A' for Active; 'I' for Inactive)
REMARK    1  A    between atoms: O1_1  and  C1_3 
REMARK    2  A    between atoms: C1_3  and  C2_4 
REMARK    3  A    between atoms: C1_3  and  N2_27 
REMARK    4  A    between atoms: C4_6  and  C5_7 
REMARK    5  A    between atoms: C11_13  and  O2_14 
REMARK    6  A    between atoms: O2_14  and  C12_15 
REMARK    7  A    between atoms: C12_15  and  C13_16 
REMARK    8  A    between atoms: C18_24  and  O3_25 
REMARK    9  A    between atoms: C23_34  and  N4_35 
REMARK   10  A    between atoms: N4_35  and  C24_36 
REMARK   11  A    between atoms: C24_36  and  C25_37 
ROOT
HETATM    1  C2  UNL     1      13.050  54.685  91.707  1.00  0.00     0.092 C 
HETATM    2  C3  UNL     1      12.261  53.624  92.393  1.00  0.00     0.023 C 
HETATM    3  C4  UNL     1      12.769  53.505  93.802  1.00  0.00     0.022 C 
HETATM    4  C11 UNL     1      13.773  54.560  93.944  1.00  0.00     0.155 C 
HETATM    5  C18 UNL     1      14.277  54.831  92.524  1.00  0.00     0.159 C 
ENDROOT
BRANCH   1   6
HETATM    6  C1  UNL     1      13.210  54.570  90.267  1.00  0.00     0.126 C 
BRANCH   6   7
HETATM    7  O1  UNL     1      14.359  54.914  89.760  1.00  0.00    -0.349 OA
ATOM      8  H1  UNL     1      14.360  55.271  88.880  1.00  0.00     0.219 HD
ENDBRANCH   6   7
BRANCH   6   9
HETATM    9  N2  UNL     1      12.268  54.123  89.322  1.00  0.00    -0.316 N 
HETATM   10  C19 UNL     1      10.851  53.984  89.501  1.00  0.00     0.137 C 
HETATM   11  C20 UNL     1      10.459  52.817  88.614  1.00  0.00     0.064 C 
HETATM   12  C21 UNL     1      11.458  52.945  87.511  1.00  0.00     0.003 A 
HETATM   13  C22 UNL     1      11.431  52.425  86.239  1.00  0.00     0.103 A 
HETATM   14  C29 UNL     1      12.503  53.711  87.961  1.00  0.00     0.120 A 
HETATM   15  N3  UNL     1      12.449  52.672  85.418  1.00  0.00    -0.326 N 
HETATM   16  C23 UNL     1      13.512  53.430  85.825  1.00  0.00     0.259 A 
ATOM     17  H3  UNL     1      12.436  52.289  84.473  1.00  0.00     0.169 HD
HETATM   18  N5  UNL     1      13.500  53.936  87.117  1.00  0.00    -0.301 N 
ATOM     19  H5  UNL     1      14.289  54.504  87.429  1.00  0.00     0.171 HD
BRANCH  16  20
HETATM   20  N4  UNL     1      14.418  53.637  85.064  1.00  0.00    -0.385 NA
BRANCH  20  21
HETATM   21  C24 UNL     1      15.448  53.562  84.220  1.00  0.00     0.191 C 
BRANCH  21  22
HETATM   22  C25 UNL     1      15.599  52.383  83.278  1.00  0.00     0.173 C 
HETATM   23  C26 UNL     1      16.264  52.714  81.984  1.00  0.00     0.040 C 
HETATM   24  C27 UNL     1      15.523  51.866  80.988  1.00  0.00     0.029 C 
HETATM   25  C28 UNL     1      14.623  51.020  81.825  1.00  0.00     0.168 C 
HETATM   26  O4  UNL     1      14.434  51.719  83.000  1.00  0.00    -0.380 OA
ENDBRANCH  21  22
ENDBRANCH  20  21
ENDBRANCH  16  20
ENDBRANCH   6   9
ENDBRANCH   1   6
BRANCH   5  27
HETATM   27  O3  UNL     1      14.682  56.184  92.434  1.00  0.00    -0.392 OA
ATOM     28  H3  UNL     1      14.396  56.616  93.231  1.00  0.00     0.210 HD
ENDBRANCH   5  27
BRANCH   3  29
HETATM   29  C5  UNL     1      13.400  52.148  94.066  1.00  0.00    -0.008 C 
HETATM   30  C6  UNL     1      13.991  52.100  95.455  1.00  0.00     0.005 C 
HETATM   31  C7  UNL     1      15.078  51.041  95.418  1.00  0.00     0.000 C 
HETATM   32  C8  UNL     1      14.631  49.939  94.483  1.00  0.00     0.000 C 
HETATM   33  C9  UNL     1      13.125  49.770  94.481  1.00  0.00     0.000 C 
HETATM   34  C10 UNL     1      12.414  51.021  93.995  1.00  0.00     0.005 C 
ENDBRANCH   3  29
BRANCH   4  35
HETATM   35  O2  UNL     1      13.437  55.747  94.471  1.00  0.00    -0.383 OA
BRANCH  35  36
HETATM   36  C12 UNL     1      13.003  55.883  95.721  1.00  0.00     0.173 C 
BRANCH  36  37
HETATM   37  C13 UNL     1      11.609  56.518  95.689  1.00  0.00     0.013 C 
HETATM   38  C14 UNL     1      11.608  57.876  96.302  1.00  0.00     0.034 C 
HETATM   39  C15 UNL     1      10.545  57.961  97.357  1.00  0.00     0.232 C 
HETATM   40  N1  UNL     1       9.236  57.597  96.909  1.00  0.00    -0.075 N 
HETATM   41  C16 UNL     1       9.254  56.294  96.313  1.00  0.00     0.232 C 
ATOM     42  H12 UNL     1       8.547  57.662  97.659  1.00  0.00     0.277 HD
ATOM     43  H11 UNL     1       8.841  58.297  96.281  1.00  0.00     0.277 HD
HETATM   44  C17 UNL     1      10.596  55.642  96.367  1.00  0.00     0.034 C 
ENDBRANCH  36  37
ENDBRANCH  35  36
ENDBRANCH   4  35
TORSDOF 11
ENDMDL
MODEL 5
REMARK VINA RESULT: -7.435497687      1.548      2.319
REMARK  11 active torsions:
REMARK  status: ('A' for Active; 'I' for Inactive)
REMARK    1  A    between atoms: O1_1  and  C1_3 
REMARK    2  A    between atoms: C1_3  and  C2_4 
REMARK    3  A    between atoms: C1_3  and  N2_27 
REMARK    4  A    between atoms: C4_6  and  C5_7 
REMARK    5  A    between atoms: C11_13  and  O2_14 
REMARK    6  A    between atoms: O2_14  and  C12_15 
REMARK    7  A    between atoms: C12_15  and  C13_16 
REMARK    8  A    between atoms: C18_24  and  O3_25 
REMARK    9  A    between atoms: C23_34  and  N4_35 
REMARK   10  A    between atoms: N4_35  and  C24_36 
REMARK   11  A    between atoms: C24_36  and  C25_37 
ROOT
HETATM    1  C2  UNL     1      12.695  54.129  94.248  1.00  0.00     0.092 C 
HETATM    2  C3  UNL     1      13.124  55.366  94.959  1.00  0.00     0.023 C 
HETATM    3  C4  UNL     1      12.627  55.284  96.374  1.00  0.00     0.022 C 
HETATM    4  C11 UNL     1      12.005  53.965  96.493  1.00  0.00     0.155 C 
HETATM    5  C18 UNL     1      11.588  53.586  95.068  1.00  0.00     0.159 C 
ENDROOT
BRANCH   1   6
HETATM    6  C1  UNL     1      12.484  54.226  92.812  1.00  0.00     0.126 C 
BRANCH   6   7
HETATM    7  O1  UNL     1      11.296  53.948  92.360  1.00  0.00    -0.349 OA
ATOM      8  H1  UNL     1      11.178  53.937  91.417  1.00  0.00     0.219 HD
ENDBRANCH   6   7
BRANCH   6   9
HETATM    9  N2  UNL     1      13.413  54.592  91.822  1.00  0.00    -0.316 N 
HETATM   10  C19 UNL     1      14.698  55.202  92.012  1.00  0.00     0.137 C 
HETATM   11  C20 UNL     1      14.907  56.064  90.782  1.00  0.00     0.064 C 
HETATM   12  C21 UNL     1      14.163  55.280  89.751  1.00  0.00     0.003 A 
HETATM   13  C22 UNL     1      14.254  55.325  88.380  1.00  0.00     0.103 A 
HETATM   14  C29 UNL     1      13.297  54.432  90.394  1.00  0.00     0.120 A 
HETATM   15  N3  UNL     1      13.479  54.524  87.654  1.00  0.00    -0.326 N 
HETATM   16  C23 UNL     1      12.601  53.663  88.253  1.00  0.00     0.259 A 
ATOM     17  H3  UNL     1      13.541  54.552  86.636  1.00  0.00     0.169 HD
HETATM   18  N5  UNL     1      12.540  53.648  89.639  1.00  0.00    -0.301 N 
ATOM     19  H5  UNL     1      11.888  53.009  90.095  1.00  0.00     0.171 HD
BRANCH  16  20
HETATM   20  N4  UNL     1      11.912  52.950  87.574  1.00  0.00    -0.385 NA
BRANCH  20  21
HETATM   21  C24 UNL     1      10.930  52.240  87.018  1.00  0.00     0.191 C 
BRANCH  21  22
HETATM   22  C25 UNL     1       9.530  52.260  87.600  1.00  0.00     0.173 C 
HETATM   23  C26 UNL     1       8.664  53.358  87.080  1.00  0.00     0.040 C 
HETATM   24  C27 UNL     1       7.867  53.771  88.286  1.00  0.00     0.029 C 
HETATM   25  C28 UNL     1       8.235  52.770  89.329  1.00  0.00     0.168 C 
HETATM   26  O4  UNL     1       9.478  52.290  88.969  1.00  0.00    -0.380 OA
ENDBRANCH  21  22
ENDBRANCH  20  21
ENDBRANCH  16  20
ENDBRANCH   6   9
ENDBRANCH   1   6
BRANCH   5  27
HETATM   27  O3  UNL     1      11.625  52.177  94.942  1.00  0.00    -0.392 OA
ATOM     28  H3  UNL     1      10.735  51.885  94.784  1.00  0.00     0.210 HD
ENDBRANCH   5  27
BRANCH   3  29
HETATM   29  C5  UNL     1      11.607  56.368  96.683  1.00  0.00    -0.008 C 
HETATM   30  C6  UNL     1      11.406  56.497  98.174  1.00  0.00     0.005 C 
HETATM   31  C7  UNL     1      10.022  57.091  98.366  1.00  0.00     0.000 C 
HETATM   32  C8  UNL     1       9.764  58.060  97.235  1.00  0.00     0.000 C 
HETATM   33  C9  UNL     1      11.037  58.729  96.756  1.00  0.00     0.000 C 
HETATM   34  C10 UNL     1      12.032  57.723  96.202  1.00  0.00     0.005 C 
ENDBRANCH   3  29
BRANCH   4  35
HETATM   35  O2  UNL     1      12.704  52.929  96.982  1.00  0.00    -0.383 OA
BRANCH  35  36
HETATM   36  C12 UNL     1      13.631  53.067  97.926  1.00  0.00     0.173 C 
BRANCH  36  37
HETATM   37  C13 UNL     1      14.984  52.639  97.350  1.00  0.00     0.013 C 
HETATM   38  C14 UNL     1      14.826  51.631  96.264  1.00  0.00     0.034 C 
HETATM   39  C15 UNL     1      15.677  50.430  96.551  1.00  0.00     0.232 C 
HETATM   40  N1  UNL     1      17.058  50.724  96.784  1.00  0.00    -0.075 N 
HETATM   41  C16 UNL     1      17.194  51.702  97.823  1.00  0.00     0.232 C 
ATOM     42  H12 UNL     1      17.597  49.882  96.982  1.00  0.00     0.277 HD
ATOM     43  H11 UNL     1      17.534  51.011  95.928  1.00  0.00     0.277 HD
HETATM   44  C17 UNL     1      15.888  52.107  98.423  1.00  0.00     0.034 C 
ENDBRANCH  36  37
ENDBRANCH  35  36
ENDBRANCH   4  35
TORSDOF 11
ENDMDL
