MODEL 1
REMARK VINA RESULT: -7.933379053      0.000      0.000
REMARK  13 active torsions:
REMARK  status: ('A' for Active; 'I' for Inactive)
REMARK    1  A    between atoms: C2_2  and  C3_3 
REMARK    2  A    between atoms: C3_3  and  C4_4 
REMARK    3  A    between atoms: C3_3  and  N1_6 
REMARK    4  A    between atoms: C6_7  and  C7_8 
REMARK    5  A    between atoms: C7_8  and  N2_9 
REMARK    6  A    between atoms: N3_15  and  C13_16 
REMARK    7  A    between atoms: C13_16  and  O1_17 
REMARK    8  A    between atoms: C13_16  and  N4_19 
REMARK    9  A    between atoms: N4_19  and  C14_21 
REMARK   10  A    between atoms: C14_21  and  O2_22 
REMARK   11  A    between atoms: C14_21  and  N5_24 
REMARK   12  A    between atoms: N5_24  and  C15_26 
REMARK   13  A    between atoms: C15_26  and  C16_27 
ROOT
HETATM    1  N2  UNL     1      26.984   8.883  13.151  1.00  0.00    -0.386 N 
HETATM    2  C8  UNL     1      26.120   8.575  12.085  1.00  0.00     0.123 C 
HETATM    3  C9  UNL     1      24.798   8.300  12.816  1.00  0.00     0.033 C 
HETATM    4  C10 UNL     1      25.289   7.542  14.017  1.00  0.00    -0.002 C 
HETATM    5  C11 UNL     1      24.367   7.673  15.214  1.00  0.00     0.057 C 
HETATM    6  C12 UNL     1      23.368   6.575  15.001  1.00  0.00     0.068 C 
HETATM    7  N3  UNL     1      23.939   5.571  14.193  1.00  0.00    -0.326 N 
HETATM    8  C17 UNL     1      25.272   6.081  13.767  1.00  0.00     0.143 C 
HETATM    9  C18 UNL     1      26.655   8.097  14.295  1.00  0.00     0.133 C 
ENDROOT
BRANCH   7  10
HETATM   10  C13 UNL     1      23.500   4.311  13.774  1.00  0.00     0.226 C 
BRANCH  10  11
HETATM   11  O1  UNL     1      23.335   3.513  14.858  1.00  0.00    -0.332 OA
ATOM     12  H1  UNL     1      23.961   2.799  14.819  1.00  0.00     0.221 HD
ENDBRANCH  10  11
BRANCH  10  13
HETATM   13  N4  UNL     1      23.206   3.704  12.591  1.00  0.00    -0.288 N 
ATOM     14  H4  UNL     1      22.785   2.791  12.764  1.00  0.00     0.173 HD
BRANCH  13  15
HETATM   15  C14 UNL     1      23.296   3.933  11.235  1.00  0.00     0.220 C 
BRANCH  15  16
HETATM   16  O2  UNL     1      22.077   4.106  10.694  1.00  0.00    -0.332 OA
ATOM     17  H2  UNL     1      21.819   3.345  10.187  1.00  0.00     0.220 HD
ENDBRANCH  15  16
BRANCH  15  18
HETATM   18  N5  UNL     1      24.351   4.022  10.333  1.00  0.00    -0.348 N 
ATOM     19  H5  UNL     1      24.577   4.938   9.945  1.00  0.00     0.163 HD
BRANCH  18  20
HETATM   20  C15 UNL     1      25.150   2.882   9.912  1.00  0.00     0.240 C 
BRANCH  20  21
HETATM   21  C16 UNL     1      24.410   1.732   9.345  1.00  0.00     0.403 C 
HETATM   22  F1  UNL     1      23.189   1.427   9.801  1.00  0.00    -0.169 F 
HETATM   23  F2  UNL     1      25.217   0.582   9.543  1.00  0.00    -0.169 F 
HETATM   24  F3  UNL     1      24.407   1.924   7.949  1.00  0.00    -0.169 F 
ENDBRANCH  20  21
ENDBRANCH  18  20
ENDBRANCH  15  18
ENDBRANCH  13  15
ENDBRANCH  10  13
ENDBRANCH   7  10
BRANCH   1  25
HETATM   25  C7  UNL     1      28.336   9.102  12.888  1.00  0.00     0.136 C 
BRANCH  25  26
HETATM   26  C6  UNL     1      28.732   9.121  11.480  1.00  0.00     0.142 A 
HETATM   27  N1  UNL     1      29.361   8.085  10.871  1.00  0.00    -0.277 N 
HETATM   28  C19 UNL     1      29.593   8.398   9.584  1.00  0.00     0.343 A 
HETATM   29  N7  UNL     1      29.107   9.637   9.388  1.00  0.00    -0.249 N 
HETATM   30  O3  UNL     1      30.161   7.690   8.683  1.00  0.00    -0.245 OA
HETATM   31  N6  UNL     1      28.602  10.048  10.523  1.00  0.00    -0.280 N 
ATOM     32  H7  UNL     1      29.128  10.162   8.513  1.00  0.00     0.192 HD
ATOM     33  H6  UNL     1      28.164  10.959  10.662  1.00  0.00     0.188 HD
BRANCH  27  34
HETATM   34  C3  UNL     1      29.755   6.797  11.461  1.00  0.00     0.095 C 
BRANCH  34  35
HETATM   35  C2  UNL     1      29.093   5.738  10.666  1.00  0.00     0.021 C 
HETATM   36  C1  UNL     1      27.631   5.555  10.850  1.00  0.00     0.007 C 
ENDBRANCH  34  35
BRANCH  34  37
HETATM   37  C4  UNL     1      31.224   6.701  11.644  1.00  0.00     0.021 C 
HETATM   38  C5  UNL     1      31.760   7.118  12.967  1.00  0.00     0.007 C 
ENDBRANCH  34  37
ENDBRANCH  27  34
ENDBRANCH  25  26
ENDBRANCH   1  25
TORSDOF 13
ENDMDL
MODEL 2
REMARK VINA RESULT: -7.920785382      1.570      2.266
REMARK  13 active torsions:
REMARK  status: ('A' for Active; 'I' for Inactive)
REMARK    1  A    between atoms: C2_2  and  C3_3 
REMARK    2  A    between atoms: C3_3  and  C4_4 
REMARK    3  A    between atoms: C3_3  and  N1_6 
REMARK    4  A    between atoms: C6_7  and  C7_8 
REMARK    5  A    between atoms: C7_8  and  N2_9 
REMARK    6  A    between atoms: N3_15  and  C13_16 
REMARK    7  A    between atoms: C13_16  and  O1_17 
REMARK    8  A    between atoms: C13_16  and  N4_19 
REMARK    9  A    between atoms: N4_19  and  C14_21 
REMARK   10  A    between atoms: C14_21  and  O2_22 
REMARK   11  A    between atoms: C14_21  and  N5_24 
REMARK   12  A    between atoms: N5_24  and  C15_26 
REMARK   13  A    between atoms: C15_26  and  C16_27 
ROOT
HETATM    1  N2  UNL     1      27.201   9.770  12.108  1.00  0.00    -0.386 N 
HETATM    2  C8  UNL     1      26.244   9.181  11.262  1.00  0.00     0.123 C 
HETATM    3  C9  UNL     1      25.107   8.861  12.244  1.00  0.00     0.033 C 
HETATM    4  C10 UNL     1      25.886   8.382  13.436  1.00  0.00    -0.002 C 
HETATM    5  C11 UNL     1      25.146   8.587  14.744  1.00  0.00     0.057 C 
HETATM    6  C12 UNL     1      24.310   7.349  14.865  1.00  0.00     0.068 C 
HETATM    7  N3  UNL     1      24.901   6.308  14.120  1.00  0.00    -0.326 N 
HETATM    8  C17 UNL     1      26.058   6.909  13.402  1.00  0.00     0.143 C 
HETATM    9  C18 UNL     1      27.175   9.147  13.392  1.00  0.00     0.133 C 
ENDROOT
BRANCH   7  10
HETATM   10  C13 UNL     1      24.604   4.951  13.966  1.00  0.00     0.226 C 
BRANCH  10  11
HETATM   11  O1  UNL     1      25.538   4.212  14.617  1.00  0.00    -0.332 OA
ATOM     12  H1  UNL     1      25.844   3.519  14.044  1.00  0.00     0.221 HD
ENDBRANCH  10  11
BRANCH  10  13
HETATM   13  N4  UNL     1      23.645   4.207  13.349  1.00  0.00    -0.288 N 
ATOM     14  H4  UNL     1      22.963   3.880  14.034  1.00  0.00     0.173 HD
BRANCH  13  15
HETATM   15  C14 UNL     1      23.304   3.755  12.091  1.00  0.00     0.220 C 
BRANCH  15  16
HETATM   16  O2  UNL     1      22.459   2.712  12.168  1.00  0.00    -0.332 OA
ATOM     17  H2  UNL     1      21.607   2.939  11.812  1.00  0.00     0.220 HD
ENDBRANCH  15  16
BRANCH  15  18
HETATM   18  N5  UNL     1      23.641   4.139  10.797  1.00  0.00    -0.348 N 
ATOM     19  H5  UNL     1      24.076   5.052  10.664  1.00  0.00     0.163 HD
BRANCH  18  20
HETATM   20  C15 UNL     1      23.406   3.313   9.624  1.00  0.00     0.240 C 
BRANCH  20  21
HETATM   21  C16 UNL     1      24.522   2.437   9.201  1.00  0.00     0.403 C 
HETATM   22  F1  UNL     1      25.785   2.876   9.268  1.00  0.00    -0.169 F 
HETATM   23  F2  UNL     1      24.284   2.088   7.847  1.00  0.00    -0.169 F 
HETATM   24  F3  UNL     1      24.357   1.231   9.911  1.00  0.00    -0.169 F 
ENDBRANCH  20  21
ENDBRANCH  18  20
ENDBRANCH  15  18
ENDBRANCH  13  15
ENDBRANCH  10  13
ENDBRANCH   7  10
BRANCH   1  25
HETATM   25  C7  UNL     1      28.447  10.116  11.586  1.00  0.00     0.136 C 
BRANCH  25  26
HETATM   26  C6  UNL     1      29.587   9.314  12.032  1.00  0.00     0.142 A 
HETATM   27  N1  UNL     1      29.911   8.116  11.483  1.00  0.00    -0.277 N 
HETATM   28  C19 UNL     1      31.000   7.624  12.100  1.00  0.00     0.343 A 
HETATM   29  N7  UNL     1      31.358   8.519  13.038  1.00  0.00    -0.249 N 
HETATM   30  O3  UNL     1      31.614   6.525  11.873  1.00  0.00    -0.245 OA
HETATM   31  N6  UNL     1      30.508   9.513  12.982  1.00  0.00    -0.280 N 
ATOM     32  H7  UNL     1      32.149   8.438  13.678  1.00  0.00     0.192 HD
ATOM     33  H6  UNL     1      30.542  10.333  13.586  1.00  0.00     0.188 HD
BRANCH  27  34
HETATM   34  C3  UNL     1      29.228   7.411  10.389  1.00  0.00     0.095 C 
BRANCH  34  35
HETATM   35  C2  UNL     1      30.093   7.528   9.194  1.00  0.00     0.021 C 
HETATM   36  C1  UNL     1      30.491   6.272   8.508  1.00  0.00     0.007 C 
ENDBRANCH  34  35
BRANCH  34  37
HETATM   37  C4  UNL     1      28.798   6.050  10.794  1.00  0.00     0.021 C 
HETATM   38  C5  UNL     1      27.461   5.604  10.321  1.00  0.00     0.007 C 
ENDBRANCH  34  37
ENDBRANCH  27  34
ENDBRANCH  25  26
ENDBRANCH   1  25
TORSDOF 13
ENDMDL
MODEL 3
REMARK VINA RESULT: -7.881783354      1.369      1.503
REMARK  13 active torsions:
REMARK  status: ('A' for Active; 'I' for Inactive)
REMARK    1  A    between atoms: C2_2  and  C3_3 
REMARK    2  A    between atoms: C3_3  and  C4_4 
REMARK    3  A    between atoms: C3_3  and  N1_6 
REMARK    4  A    between atoms: C6_7  and  C7_8 
REMARK    5  A    between atoms: C7_8  and  N2_9 
REMARK    6  A    between atoms: N3_15  and  C13_16 
REMARK    7  A    between atoms: C13_16  and  O1_17 
REMARK    8  A    between atoms: C13_16  and  N4_19 
REMARK    9  A    between atoms: N4_19  and  C14_21 
REMARK   10  A    between atoms: C14_21  and  O2_22 
REMARK   11  A    between atoms: C14_21  and  N5_24 
REMARK   12  A    between atoms: N5_24  and  C15_26 
REMARK   13  A    between atoms: C15_26  and  C16_27 
ROOT
HETATM    1  N2  UNL     1      26.173   9.761  13.048  1.00  0.00    -0.386 N 
HETATM    2  C8  UNL     1      24.999   9.422  12.351  1.00  0.00     0.123 C 
HETATM    3  C9  UNL     1      24.060   9.009  13.494  1.00  0.00     0.033 C 
HETATM    4  C10 UNL     1      25.006   8.251  14.381  1.00  0.00    -0.002 C 
HETATM    5  C11 UNL     1      24.582   8.259  15.837  1.00  0.00     0.057 C 
HETATM    6  C12 UNL     1      23.648   7.090  15.931  1.00  0.00     0.068 C 
HETATM    7  N3  UNL     1      23.946   6.168  14.906  1.00  0.00    -0.326 N 
HETATM    8  C17 UNL     1      24.992   6.804  14.059  1.00  0.00     0.143 C 
HETATM    9  C18 UNL     1      26.339   8.908  14.179  1.00  0.00     0.133 C 
ENDROOT
BRANCH   7  10
HETATM   10  C13 UNL     1      23.465   4.893  14.595  1.00  0.00     0.226 C 
BRANCH  10  11
HETATM   11  O1  UNL     1      22.572   4.508  15.540  1.00  0.00    -0.332 OA
ATOM     12  H1  UNL     1      22.038   3.801  15.197  1.00  0.00     0.221 HD
ENDBRANCH  10  11
BRANCH  10  13
HETATM   13  N4  UNL     1      23.661   3.970  13.613  1.00  0.00    -0.288 N 
ATOM     14  H4  UNL     1      24.286   3.235  13.945  1.00  0.00     0.173 HD
BRANCH  13  15
HETATM   15  C14 UNL     1      23.283   3.713  12.312  1.00  0.00     0.220 C 
BRANCH  15  16
HETATM   16  O2  UNL     1      22.290   2.808  12.269  1.00  0.00    -0.332 OA
ATOM     17  H2  UNL     1      22.442   2.169  11.583  1.00  0.00     0.220 HD
ENDBRANCH  15  16
BRANCH  15  18
HETATM   18  N5  UNL     1      23.699   4.182  11.070  1.00  0.00    -0.348 N 
ATOM     19  H5  UNL     1      24.308   4.999  11.043  1.00  0.00     0.163 HD
BRANCH  18  20
HETATM   20  C15 UNL     1      23.314   3.571   9.807  1.00  0.00     0.240 C 
BRANCH  20  21
HETATM   21  C16 UNL     1      24.152   2.445   9.337  1.00  0.00     0.403 C 
HETATM   22  F1  UNL     1      24.025   1.234   9.893  1.00  0.00    -0.169 F 
HETATM   23  F2  UNL     1      25.505   2.835   9.515  1.00  0.00    -0.169 F 
HETATM   24  F3  UNL     1      23.981   2.392   7.940  1.00  0.00    -0.169 F 
ENDBRANCH  20  21
ENDBRANCH  18  20
ENDBRANCH  15  18
ENDBRANCH  13  15
ENDBRANCH  10  13
ENDBRANCH   7  10
BRANCH   1  25
HETATM   25  C7  UNL     1      27.316  10.102  12.325  1.00  0.00     0.136 C 
BRANCH  25  26
HETATM   26  C6  UNL     1      27.313   9.768  10.901  1.00  0.00     0.142 A 
HETATM   27  N1  UNL     1      27.690   8.556  10.422  1.00  0.00    -0.277 N 
HETATM   28  C19 UNL     1      27.579   8.553   9.082  1.00  0.00     0.343 A 
HETATM   29  N7  UNL     1      27.130   9.769   8.722  1.00  0.00    -0.249 N 
HETATM   30  O3  UNL     1      27.837   7.603   8.264  1.00  0.00    -0.245 OA
HETATM   31  N6  UNL     1      26.980  10.474   9.814  1.00  0.00    -0.280 N 
ATOM     32  H7  UNL     1      26.942  10.085   7.770  1.00  0.00     0.192 HD
ATOM     33  H6  UNL     1      26.651  11.439   9.835  1.00  0.00     0.188 HD
BRANCH  27  34
HETATM   34  C3  UNL     1      28.155   7.389  11.186  1.00  0.00     0.095 C 
BRANCH  34  35
HETATM   35  C2  UNL     1      27.068   6.385  11.143  1.00  0.00     0.021 C 
HETATM   36  C1  UNL     1      27.414   5.018  10.677  1.00  0.00     0.007 C 
ENDBRANCH  34  35
BRANCH  34  37
HETATM   37  C4  UNL     1      29.507   6.954  10.760  1.00  0.00     0.021 C 
HETATM   38  C5  UNL     1      30.538   6.839  11.826  1.00  0.00     0.007 C 
ENDBRANCH  34  37
ENDBRANCH  27  34
ENDBRANCH  25  26
ENDBRANCH   1  25
TORSDOF 13
ENDMDL
MODEL 4
REMARK VINA RESULT: -7.875284924      1.153      1.261
REMARK  13 active torsions:
REMARK  status: ('A' for Active; 'I' for Inactive)
REMARK    1  A    between atoms: C2_2  and  C3_3 
REMARK    2  A    between atoms: C3_3  and  C4_4 
REMARK    3  A    between atoms: C3_3  and  N1_6 
REMARK    4  A    between atoms: C6_7  and  C7_8 
REMARK    5  A    between atoms: C7_8  and  N2_9 
REMARK    6  A    between atoms: N3_15  and  C13_16 
REMARK    7  A    between atoms: C13_16  and  O1_17 
REMARK    8  A    between atoms: C13_16  and  N4_19 
REMARK    9  A    between atoms: N4_19  and  C14_21 
REMARK   10  A    between atoms: C14_21  and  O2_22 
REMARK   11  A    between atoms: C14_21  and  N5_24 
REMARK   12  A    between atoms: N5_24  and  C15_26 
REMARK   13  A    between atoms: C15_26  and  C16_27 
ROOT
HETATM    1  N2  UNL     1      27.608   9.515  12.199  1.00  0.00    -0.386 N 
HETATM    2  C8  UNL     1      26.783   8.897  11.242  1.00  0.00     0.123 C 
HETATM    3  C9  UNL     1      25.485   8.681  12.033  1.00  0.00     0.033 C 
HETATM    4  C10 UNL     1      26.031   8.264  13.369  1.00  0.00    -0.002 C 
HETATM    5  C11 UNL     1      25.092   8.583  14.516  1.00  0.00     0.057 C 
HETATM    6  C12 UNL     1      24.195   7.382  14.572  1.00  0.00     0.068 C 
HETATM    7  N3  UNL     1      24.860   6.274  14.008  1.00  0.00    -0.326 N 
HETATM    8  C17 UNL     1      26.146   6.788  13.460  1.00  0.00     0.143 C 
HETATM    9  C18 UNL     1      27.340   8.985  13.497  1.00  0.00     0.133 C 
ENDROOT
BRANCH   7  10
HETATM   10  C13 UNL     1      24.537   4.919  13.894  1.00  0.00     0.226 C 
BRANCH  10  11
HETATM   11  O1  UNL     1      25.446   4.183  14.581  1.00  0.00    -0.332 OA
ATOM     12  H1  UNL     1      26.069   3.806  13.971  1.00  0.00     0.221 HD
ENDBRANCH  10  11
BRANCH  10  13
HETATM   13  N4  UNL     1      23.571   4.175  13.287  1.00  0.00    -0.288 N 
ATOM     14  H4  UNL     1      22.885   3.866  13.975  1.00  0.00     0.173 HD
BRANCH  13  15
HETATM   15  C14 UNL     1      23.227   3.708  12.036  1.00  0.00     0.220 C 
BRANCH  15  16
HETATM   16  O2  UNL     1      22.390   2.660  12.128  1.00  0.00    -0.332 OA
ATOM     17  H2  UNL     1      22.385   2.157  11.322  1.00  0.00     0.220 HD
ENDBRANCH  15  16
BRANCH  15  18
HETATM   18  N5  UNL     1      23.553   4.081  10.736  1.00  0.00    -0.348 N 
ATOM     19  H5  UNL     1      23.979   4.997  10.591  1.00  0.00     0.163 HD
BRANCH  18  20
HETATM   20  C15 UNL     1      23.321   3.240   9.572  1.00  0.00     0.240 C 
BRANCH  20  21
HETATM   21  C16 UNL     1      24.401   2.291   9.221  1.00  0.00     0.403 C 
HETATM   22  F1  UNL     1      24.463   1.093   9.815  1.00  0.00    -0.169 F 
HETATM   23  F2  UNL     1      25.631   2.943   9.492  1.00  0.00    -0.169 F 
HETATM   24  F3  UNL     1      24.368   2.169   7.818  1.00  0.00    -0.169 F 
ENDBRANCH  20  21
ENDBRANCH  18  20
ENDBRANCH  15  18
ENDBRANCH  13  15
ENDBRANCH  10  13
ENDBRANCH   7  10
BRANCH   1  25
HETATM   25  C7  UNL     1      28.938   9.785  11.876  1.00  0.00     0.136 C 
BRANCH  25  26
HETATM   26  C6  UNL     1      29.437   9.208  10.628  1.00  0.00     0.142 A 
HETATM   27  N1  UNL     1      29.785   7.904  10.500  1.00  0.00    -0.277 N 
HETATM   28  C19 UNL     1      30.203   7.675   9.242  1.00  0.00     0.343 A 
HETATM   29  N7  UNL     1      30.115   8.844   8.581  1.00  0.00    -0.249 N 
HETATM   30  O3  UNL     1      30.614   6.579   8.727  1.00  0.00    -0.245 OA
HETATM   31  N6  UNL     1      29.660   9.739   9.420  1.00  0.00    -0.280 N 
ATOM     32  H7  UNL     1      30.360   9.003   7.603  1.00  0.00     0.192 HD
ATOM     33  H6  UNL     1      29.496  10.718   9.183  1.00  0.00     0.188 HD
BRANCH  27  34
HETATM   34  C3  UNL     1      29.739   6.853  11.527  1.00  0.00     0.095 C 
BRANCH  34  35
HETATM   35  C2  UNL     1      29.301   5.610  10.853  1.00  0.00     0.021 C 
HETATM   36  C1  UNL     1      27.840   5.362  10.751  1.00  0.00     0.007 C 
ENDBRANCH  34  35
BRANCH  34  37
HETATM   37  C4  UNL     1      30.992   6.800  12.318  1.00  0.00     0.021 C 
HETATM   38  C5  UNL     1      30.889   7.162  13.757  1.00  0.00     0.007 C 
ENDBRANCH  34  37
ENDBRANCH  27  34
ENDBRANCH  25  26
ENDBRANCH   1  25
TORSDOF 13
ENDMDL
MODEL 5
REMARK VINA RESULT: -7.853307132      2.058      2.594
REMARK  13 active torsions:
REMARK  status: ('A' for Active; 'I' for Inactive)
REMARK    1  A    between atoms: C2_2  and  C3_3 
REMARK    2  A    between atoms: C3_3  and  C4_4 
REMARK    3  A    between atoms: C3_3  and  N1_6 
REMARK    4  A    between atoms: C6_7  and  C7_8 
REMARK    5  A    between atoms: C7_8  and  N2_9 
REMARK    6  A    between atoms: N3_15  and  C13_16 
REMARK    7  A    between atoms: C13_16  and  O1_17 
REMARK    8  A    between atoms: C13_16  and  N4_19 
REMARK    9  A    between atoms: N4_19  and  C14_21 
REMARK   10  A    between atoms: C14_21  and  O2_22 
REMARK   11  A    between atoms: C14_21  and  N5_24 
REMARK   12  A    between atoms: N5_24  and  C15_26 
REMARK   13  A    between atoms: C15_26  and  C16_27 
ROOT
HETATM    1  N2  UNL     1      25.956  10.138  13.492  1.00  0.00    -0.386 N 
HETATM    2  C8  UNL     1      24.888   9.828  12.631  1.00  0.00     0.123 C 
HETATM    3  C9  UNL     1      23.929   9.082  13.570  1.00  0.00     0.033 C 
HETATM    4  C10 UNL     1      24.898   8.261  14.374  1.00  0.00    -0.002 C 
HETATM    5  C11 UNL     1      24.373   7.914  15.753  1.00  0.00     0.057 C 
HETATM    6  C12 UNL     1      23.591   6.656  15.518  1.00  0.00     0.068 C 
HETATM    7  N3  UNL     1      24.076   6.011  14.362  1.00  0.00    -0.326 N 
HETATM    8  C17 UNL     1      25.092   6.922  13.766  1.00  0.00     0.143 C 
HETATM    9  C18 UNL     1      26.148   9.087  14.438  1.00  0.00     0.133 C 
ENDROOT
BRANCH   7  10
HETATM   10  C13 UNL     1      23.785   4.786  13.754  1.00  0.00     0.226 C 
BRANCH  10  11
HETATM   11  O1  UNL     1      23.375   3.904  14.700  1.00  0.00    -0.332 OA
ATOM     12  H1  UNL     1      23.123   3.090  14.280  1.00  0.00     0.221 HD
ENDBRANCH  10  11
BRANCH  10  13
HETATM   13  N4  UNL     1      23.808   4.272  12.493  1.00  0.00    -0.288 N 
ATOM     14  H4  UNL     1      24.690   4.507  12.038  1.00  0.00     0.173 HD
BRANCH  13  15
HETATM   15  C14 UNL     1      23.017   3.535  11.638  1.00  0.00     0.220 C 
BRANCH  15  16
HETATM   16  O2  UNL     1      22.270   2.648  12.318  1.00  0.00    -0.332 OA
ATOM     17  H2  UNL     1      21.360   2.692  12.047  1.00  0.00     0.220 HD
ENDBRANCH  15  16
BRANCH  15  18
HETATM   18  N5  UNL     1      22.833   3.517  10.259  1.00  0.00    -0.348 N 
ATOM     19  H5  UNL     1      22.466   4.357   9.811  1.00  0.00     0.163 HD
BRANCH  18  20
HETATM   20  C15 UNL     1      23.134   2.367   9.420  1.00  0.00     0.240 C 
BRANCH  20  21
HETATM   21  C16 UNL     1      24.557   2.160   9.073  1.00  0.00     0.403 C 
HETATM   22  F1  UNL     1      25.481   3.048   9.460  1.00  0.00    -0.169 F 
HETATM   23  F2  UNL     1      24.632   2.086   7.658  1.00  0.00    -0.169 F 
HETATM   24  F3  UNL     1      24.877   0.859   9.512  1.00  0.00    -0.169 F 
ENDBRANCH  20  21
ENDBRANCH  18  20
ENDBRANCH  15  18
ENDBRANCH  13  15
ENDBRANCH  10  13
ENDBRANCH   7  10
BRANCH   1  25
HETATM   25  C7  UNL     1      27.096  10.747  12.968  1.00  0.00     0.136 C 
BRANCH  25  26
HETATM   26  C6  UNL     1      26.929  11.470  11.707  1.00  0.00     0.142 A 
HETATM   27  N1  UNL     1      27.359  10.991  10.513  1.00  0.00    -0.277 N 
HETATM   28  C19 UNL     1      27.063  11.877   9.545  1.00  0.00     0.343 A 
HETATM   29  N7  UNL     1      26.445  12.914  10.137  1.00  0.00    -0.249 N 
HETATM   30  O3  UNL     1      27.302  11.794   8.291  1.00  0.00    -0.245 OA
HETATM   31  N6  UNL     1      26.375  12.654  11.419  1.00  0.00    -0.280 N 
ATOM     32  H7  UNL     1      26.093  13.752   9.672  1.00  0.00     0.192 HD
ATOM     33  H6  UNL     1      25.954  13.275  12.109  1.00  0.00     0.188 HD
BRANCH  27  34
HETATM   34  C3  UNL     1      28.045   9.718  10.247  1.00  0.00     0.095 C 
BRANCH  34  35
HETATM   35  C2  UNL     1      27.084   8.853   9.527  1.00  0.00     0.021 C 
HETATM   36  C1  UNL     1      26.626   7.618  10.213  1.00  0.00     0.007 C 
ENDBRANCH  34  35
BRANCH  34  37
HETATM   37  C4  UNL     1      29.376   9.929   9.627  1.00  0.00     0.021 C 
HETATM   38  C5  UNL     1      30.088   8.715   9.146  1.00  0.00     0.007 C 
ENDBRANCH  34  37
ENDBRANCH  27  34
ENDBRANCH  25  26
ENDBRANCH   1  25
TORSDOF 13
ENDMDL
