MODEL 1
REMARK VINA RESULT: -5.566480811      0.000      0.000
REMARK  2 active torsions:
REMARK  status: ('A' for Active; 'I' for Inactive)
REMARK    1  A    between atoms: N1_1  and  N2_4 
REMARK       I    between atoms: N2_4  and  C1_5 
REMARK    2  A    between atoms: C1_5  and  C2_7 
ROOT
HETATM    1  C2  UNL     1       3.731 -14.770   0.129  1.00  0.00     0.157 A 
HETATM    2  C3  UNL     1       3.784 -14.623  -1.222  1.00  0.00     0.141 A 
HETATM    3  N3  UNL     1       2.718 -14.134  -2.016  1.00  0.00    -0.081 NA
HETATM    4  N4  UNL     1       4.954 -14.949  -1.848  1.00  0.00    -0.318 N 
ATOM      5  H4  UNL     1       5.032 -14.851  -2.860  1.00  0.00     0.169 HD
HETATM    6  C4  UNL     1       6.003 -15.398  -1.136  1.00  0.00     0.196 A 
HETATM    7  N5  UNL     1       7.196 -15.712  -1.859  1.00  0.00    -0.063 NA
HETATM    8  N6  UNL     1       5.928 -15.536   0.196  1.00  0.00    -0.296 N 
ATOM      9  H6  UNL     1       6.739 -15.879   0.712  1.00  0.00     0.171 HD
HETATM   10  C5  UNL     1       4.786 -15.225   0.871  1.00  0.00     0.268 A 
HETATM   11  O2  UNL     1       4.760 -15.372   2.139  1.00  0.00    -0.267 OA
ENDROOT
BRANCH   1  12
HETATM   12  C1  UNL     1       2.453 -14.428   0.835  1.00  0.00     0.354 C 
HETATM   13  N2  UNL     1       1.502 -15.351   1.054  1.00  0.00    -0.288 NA
HETATM   14  O1  UNL     1       2.420 -13.185   1.181  1.00  0.00    -0.249 OA
BRANCH  13  15
HETATM   15  N1  UNL     1       0.569 -16.257   1.268  1.00  0.00    -0.276 N 
ATOM     16  H12 UNL     1       1.315 -15.588   1.084  1.00  0.00     0.191 HD
ATOM     17  H11 UNL     1      -0.154 -16.958   1.434  1.00  0.00     0.191 HD
ENDBRANCH  13  15
ENDBRANCH   1  12
TORSDOF 2
ENDMDL
MODEL 2
REMARK VINA RESULT: -5.505140024      1.132      2.294
REMARK  2 active torsions:
REMARK  status: ('A' for Active; 'I' for Inactive)
REMARK    1  A    between atoms: N1_1  and  N2_4 
REMARK       I    between atoms: N2_4  and  C1_5 
REMARK    2  A    between atoms: C1_5  and  C2_7 
ROOT
HETATM    1  C2  UNL     1       3.715 -14.770   0.075  1.00  0.00     0.157 A 
HETATM    2  C3  UNL     1       4.761 -15.258   0.795  1.00  0.00     0.141 A 
HETATM    3  N3  UNL     1       4.732 -15.488   2.193  1.00  0.00    -0.081 NA
HETATM    4  N4  UNL     1       5.906 -15.565   0.117  1.00  0.00    -0.318 N 
ATOM      5  H4  UNL     1       6.712 -15.934   0.623  1.00  0.00     0.169 HD
HETATM    6  C4  UNL     1       5.978 -15.385  -1.213  1.00  0.00     0.196 A 
HETATM    7  N5  UNL     1       7.206 -15.736  -1.855  1.00  0.00    -0.063 NA
HETATM    8  N6  UNL     1       4.934 -14.902  -1.904  1.00  0.00    -0.296 N 
ATOM      9  H6  UNL     1       5.015 -14.774  -2.913  1.00  0.00     0.171 HD
HETATM   10  C5  UNL     1       3.767 -14.579  -1.278  1.00  0.00     0.268 A 
HETATM   11  O2  UNL     1       2.800 -14.123  -1.975  1.00  0.00    -0.267 OA
ENDROOT
BRANCH   1  12
HETATM   12  C1  UNL     1       2.452 -14.416   0.801  1.00  0.00     0.354 C 
HETATM   13  N2  UNL     1       1.486 -15.324   1.017  1.00  0.00    -0.288 NA
HETATM   14  O1  UNL     1       2.446 -13.178   1.168  1.00  0.00    -0.249 OA
BRANCH  13  15
HETATM   15  N1  UNL     1       0.539 -16.216   1.228  1.00  0.00    -0.276 N 
ATOM     16  H12 UNL     1       1.298 -15.559   1.051  1.00  0.00     0.191 HD
ATOM     17  H11 UNL     1      -0.195 -16.906   1.391  1.00  0.00     0.191 HD
ENDBRANCH  13  15
ENDBRANCH   1  12
TORSDOF 2
ENDMDL
MODEL 3
REMARK VINA RESULT: -5.200435409      2.559      3.822
REMARK  2 active torsions:
REMARK  status: ('A' for Active; 'I' for Inactive)
REMARK    1  A    between atoms: N1_1  and  N2_4 
REMARK       I    between atoms: N2_4  and  C1_5 
REMARK    2  A    between atoms: C1_5  and  C2_7 
ROOT
HETATM    1  C2  UNL     1       2.005 -14.544  -0.745  1.00  0.00     0.157 A 
HETATM    2  C3  UNL     1       0.663 -14.715  -0.894  1.00  0.00     0.141 A 
HETATM    3  N3  UNL     1      -0.274 -14.648   0.167  1.00  0.00    -0.081 NA
HETATM    4  N4  UNL     1       0.191 -14.943  -2.155  1.00  0.00    -0.318 N 
ATOM      5  H4  UNL     1      -0.809 -15.075  -2.306  1.00  0.00     0.169 HD
HETATM    6  C4  UNL     1       1.037 -14.994  -3.199  1.00  0.00     0.196 A 
HETATM    7  N5  UNL     1       0.469 -15.230  -4.490  1.00  0.00    -0.063 NA
HETATM    8  N6  UNL     1       2.357 -14.824  -3.030  1.00  0.00    -0.296 N 
ATOM      9  H6  UNL     1       2.977 -14.868  -3.838  1.00  0.00     0.171 HD
HETATM   10  C5  UNL     1       2.882 -14.592  -1.793  1.00  0.00     0.268 A 
HETATM   11  O2  UNL     1       4.144 -14.436  -1.679  1.00  0.00    -0.267 OA
ENDROOT
BRANCH   1  12
HETATM   12  C1  UNL     1       2.546 -14.303   0.632  1.00  0.00     0.354 C 
HETATM   13  N2  UNL     1       2.549 -15.269   1.566  1.00  0.00    -0.288 NA
HETATM   14  O1  UNL     1       2.985 -13.097   0.765  1.00  0.00    -0.249 OA
BRANCH  13  15
HETATM   15  N1  UNL     1       2.551 -16.217   2.481  1.00  0.00    -0.276 N 
ATOM     16  H12 UNL     1       2.592 -15.477   1.782  1.00  0.00     0.191 HD
ATOM     17  H11 UNL     1       2.552 -16.951   3.190  1.00  0.00     0.191 HD
ENDBRANCH  13  15
ENDBRANCH   1  12
TORSDOF 2
ENDMDL
MODEL 4
REMARK VINA RESULT: -5.121490170      2.091      3.802
REMARK  2 active torsions:
REMARK  status: ('A' for Active; 'I' for Inactive)
REMARK    1  A    between atoms: N1_1  and  N2_4 
REMARK       I    between atoms: N2_4  and  C1_5 
REMARK    2  A    between atoms: C1_5  and  C2_7 
ROOT
HETATM    1  C2  UNL     1       2.181 -14.556  -0.750  1.00  0.00     0.157 A 
HETATM    2  C3  UNL     1       3.009 -14.780  -1.806  1.00  0.00     0.141 A 
HETATM    3  N3  UNL     1       4.424 -14.772  -1.729  1.00  0.00    -0.081 NA
HETATM    4  N4  UNL     1       2.433 -15.053  -3.014  1.00  0.00    -0.318 N 
ATOM      5  H4  UNL     1       3.022 -15.227  -3.829  1.00  0.00     0.169 HD
HETATM    6  C4  UNL     1       1.095 -15.093  -3.135  1.00  0.00     0.196 A 
HETATM    7  N5  UNL     1       0.565 -15.392  -4.429  1.00  0.00    -0.063 NA
HETATM    8  N6  UNL     1       0.296 -14.868  -2.081  1.00  0.00    -0.296 N 
ATOM      9  H6  UNL     1      -0.716 -14.904  -2.200  1.00  0.00     0.171 HD
HETATM   10  C5  UNL     1       0.818 -14.592  -0.852  1.00  0.00     0.268 A 
HETATM   11  O2  UNL     1       0.020 -14.384   0.123  1.00  0.00    -0.267 OA
ENDROOT
BRANCH   1  12
HETATM   12  C1  UNL     1       2.792 -14.244   0.583  1.00  0.00     0.354 C 
HETATM   13  N2  UNL     1       2.760 -15.127   1.596  1.00  0.00    -0.288 NA
HETATM   14  O1  UNL     1       3.326 -13.069   0.597  1.00  0.00    -0.249 OA
BRANCH  13  15
HETATM   15  N1  UNL     1       2.727 -15.993   2.588  1.00  0.00    -0.276 N 
ATOM     16  H12 UNL     1       2.734 -15.293   1.847  1.00  0.00     0.191 HD
ATOM     17  H11 UNL     1       2.702 -16.663   3.357  1.00  0.00     0.191 HD
ENDBRANCH  13  15
ENDBRANCH   1  12
TORSDOF 2
ENDMDL
MODEL 5
REMARK VINA RESULT: -5.091821257      2.061      3.217
REMARK  2 active torsions:
REMARK  status: ('A' for Active; 'I' for Inactive)
REMARK    1  A    between atoms: N1_1  and  N2_4 
REMARK       I    between atoms: N2_4  and  C1_5 
REMARK    2  A    between atoms: C1_5  and  C2_7 
ROOT
HETATM    1  C2  UNL     1       3.730 -14.785  -0.014  1.00  0.00     0.157 A 
HETATM    2  C3  UNL     1       2.512 -14.178  -0.053  1.00  0.00     0.141 A 
HETATM    3  N3  UNL     1       1.858 -13.624   1.075  1.00  0.00    -0.081 NA
HETATM    4  N4  UNL     1       1.893 -14.081  -1.266  1.00  0.00    -0.318 N 
ATOM      5  H4  UNL     1       0.979 -13.632  -1.335  1.00  0.00     0.169 HD
HETATM    6  C4  UNL     1       2.482 -14.572  -2.371  1.00  0.00     0.196 A 
HETATM    7  N5  UNL     1       1.777 -14.427  -3.607  1.00  0.00    -0.063 NA
HETATM    8  N6  UNL     1       3.682 -15.167  -2.310  1.00  0.00    -0.296 N 
ATOM      9  H6  UNL     1       4.107 -15.532  -3.163  1.00  0.00     0.171 HD
HETATM   10  C5  UNL     1       4.345 -15.291  -1.125  1.00  0.00     0.268 A 
HETATM   11  O2  UNL     1       5.485 -15.865  -1.114  1.00  0.00    -0.267 OA
ENDROOT
BRANCH   1  12
HETATM   12  C1  UNL     1       4.421 -14.912   1.310  1.00  0.00     0.354 C 
HETATM   13  N2  UNL     1       3.853 -15.560   2.341  1.00  0.00    -0.288 NA
HETATM   14  O1  UNL     1       5.579 -14.342   1.297  1.00  0.00    -0.249 OA
BRANCH  13  15
HETATM   15  N1  UNL     1       3.295 -16.194   3.353  1.00  0.00    -0.276 N 
ATOM     16  H12 UNL     1       3.690 -15.710   2.547  1.00  0.00     0.191 HD
ATOM     17  H11 UNL     1       2.864 -16.686   4.135  1.00  0.00     0.191 HD
ENDBRANCH  13  15
ENDBRANCH   1  12
TORSDOF 2
ENDMDL
