MODEL 1
REMARK VINA RESULT: -6.673650855      0.000      0.000
REMARK  7 active torsions:
REMARK  status: ('A' for Active; 'I' for Inactive)
REMARK    1  A    between atoms: N1_1  and  C1_4 
REMARK    2  A    between atoms: N4_15  and  C6_16 
REMARK    3  A    between atoms: C6_16  and  C7_17 
REMARK    4  A    between atoms: N5_20  and  C8_21 
REMARK    5  A    between atoms: C9_23  and  C10_24 
REMARK    6  A    between atoms: C10_24  and  N6_25 
REMARK       I    between atoms: N6_25  and  C11_27 
REMARK    7  A    between atoms: C12_33  and  O7_34 
ROOT
HETATM    1  C1  UNL     1     -16.590 -21.782  33.326  1.00  0.00     0.684 A 
HETATM    2  N2  UNL     1     -15.500 -22.495  33.607  1.00  0.00    -0.154 N 
ATOM      3  H2  UNL     1     -15.379 -23.427  33.210  1.00  0.00     0.187 HD
HETATM    4  C2  UNL     1     -14.567 -21.985  34.410  1.00  0.00     0.290 A 
HETATM    5  O1  UNL     1     -13.556 -22.684  34.650  1.00  0.00    -0.265 OA
HETATM    6  C3  UNL     1     -14.703 -20.729  34.962  1.00  0.00     0.153 A 
HETATM    7  C4  UNL     1     -15.851 -20.043  34.634  1.00  0.00     0.163 A 
HETATM    8  N3  UNL     1     -15.749 -18.869  35.281  1.00  0.00    -0.292 N 
ATOM      9  H3  UNL     1     -16.438 -18.118  35.254  1.00  0.00     0.172 HD
HETATM   10  C5  UNL     1     -14.593 -18.842  35.969  1.00  0.00     0.329 A 
HETATM   11  O2  UNL     1     -14.147 -17.900  36.701  1.00  0.00    -0.246 OA
HETATM   12  N4  UNL     1     -13.918 -20.012  35.781  1.00  0.00    -0.281 N 
HETATM   13  N5  UNL     1     -16.789 -20.531  33.839  1.00  0.00    -0.134 N 
ENDROOT
BRANCH  13  14
HETATM   14  C8  UNL     1     -17.988 -19.846  33.480  1.00  0.00     0.306 C 
HETATM   15  O5  UNL     1     -17.829 -18.532  33.113  1.00  0.00    -0.327 OA
HETATM   16  C9  UNL     1     -19.124 -18.032  33.059  1.00  0.00     0.344 C 
HETATM   17  N8  UNL     1     -19.903 -18.729  34.030  1.00  0.00    -0.017 N 
HETATM   18  C12 UNL     1     -19.031 -19.793  34.547  1.00  0.00     0.372 C 
ATOM     19  H82 UNL     1     -20.286 -18.125  34.757  1.00  0.00     0.283 HD
ATOM     20  H81 UNL     1     -20.795 -19.069  33.672  1.00  0.00     0.283 HD
BRANCH  16  21
HETATM   21  C10 UNL     1     -19.611 -18.206  31.642  1.00  0.00     0.185 C 
BRANCH  21  22
HETATM   22  N6  UNL     1     -21.035 -18.038  31.525  1.00  0.00    -0.341 N 
HETATM   23  C11 UNL     1     -21.912 -19.148  31.544  1.00  0.00     0.328 C 
HETATM   24  N7  UNL     1     -23.313 -19.019  31.431  1.00  0.00    -0.040 NA
HETATM   25  O6  UNL     1     -21.429 -20.301  31.667  1.00  0.00    -0.251 OA
ATOM     26  H6  UNL     1     -21.420 -17.098  31.425  1.00  0.00     0.163 HD
ENDBRANCH  21  22
ENDBRANCH  16  21
BRANCH  18  27
HETATM   27  O7  UNL     1     -18.566 -19.531  35.809  1.00  0.00    -0.366 OA
ATOM     28  H7  UNL     1     -18.511 -20.283  36.387  1.00  0.00     0.212 HD
ENDBRANCH  18  27
ENDBRANCH  13  14
BRANCH   1  29
HETATM   29  N1  UNL     1     -17.506 -22.267  32.546  1.00  0.00    -0.234 N 
ATOM     30  H12 UNL     1     -17.241 -23.026  31.919  1.00  0.00     0.174 HD
ATOM     31  H11 UNL     1     -18.453 -21.890  32.570  1.00  0.00     0.174 HD
ENDBRANCH   1  29
BRANCH  12  32
HETATM   32  C6  UNL     1     -12.642 -20.357  36.369  1.00  0.00     0.247 C 
BRANCH  32  33
HETATM   33  C7  UNL     1     -11.479 -19.926  35.560  1.00  0.00     0.192 C 
HETATM   34  O3  UNL     1     -10.559 -19.175  35.968  1.00  0.00    -0.647 OA
HETATM   35  O4  UNL     1     -11.341 -20.360  34.226  1.00  0.00    -0.647 OA
ENDBRANCH  32  33
ENDBRANCH  12  32
TORSDOF 7
ENDMDL
MODEL 2
REMARK VINA RESULT: -6.628183693      2.184      7.376
REMARK  7 active torsions:
REMARK  status: ('A' for Active; 'I' for Inactive)
REMARK    1  A    between atoms: N1_1  and  C1_4 
REMARK    2  A    between atoms: N4_15  and  C6_16 
REMARK    3  A    between atoms: C6_16  and  C7_17 
REMARK    4  A    between atoms: N5_20  and  C8_21 
REMARK    5  A    between atoms: C9_23  and  C10_24 
REMARK    6  A    between atoms: C10_24  and  N6_25 
REMARK       I    between atoms: N6_25  and  C11_27 
REMARK    7  A    between atoms: C12_33  and  O7_34 
ROOT
HETATM    1  C1  UNL     1     -15.013 -18.619  36.308  1.00  0.00     0.684 A 
HETATM    2  N2  UNL     1     -16.178 -17.987  36.162  1.00  0.00    -0.154 N 
ATOM      3  H2  UNL     1     -16.348 -17.106  36.647  1.00  0.00     0.187 HD
HETATM    4  C2  UNL     1     -17.120 -18.512  35.379  1.00  0.00     0.290 A 
HETATM    5  O1  UNL     1     -18.200 -17.889  35.265  1.00  0.00    -0.265 OA
HETATM    6  C3  UNL     1     -16.918 -19.702  34.711  1.00  0.00     0.153 A 
HETATM    7  C4  UNL     1     -15.696 -20.305  34.903  1.00  0.00     0.163 A 
HETATM    8  N3  UNL     1     -15.742 -21.424  34.159  1.00  0.00    -0.292 N 
ATOM      9  H3  UNL     1     -14.991 -22.109  34.075  1.00  0.00     0.172 HD
HETATM   10  C5  UNL     1     -16.937 -21.497  33.543  1.00  0.00     0.329 A 
HETATM   11  O2  UNL     1     -17.351 -22.409  32.758  1.00  0.00    -0.246 OA
HETATM   12  N4  UNL     1     -17.695 -20.415  33.882  1.00  0.00    -0.281 N 
HETATM   13  N5  UNL     1     -14.747 -19.802  35.676  1.00  0.00    -0.134 N 
ENDROOT
BRANCH  13  14
HETATM   14  C8  UNL     1     -13.472 -20.402  35.894  1.00  0.00     0.306 C 
HETATM   15  O5  UNL     1     -12.830 -20.851  34.766  1.00  0.00    -0.327 OA
HETATM   16  C9  UNL     1     -11.764 -21.597  35.251  1.00  0.00     0.344 C 
HETATM   17  N8  UNL     1     -12.165 -22.177  36.491  1.00  0.00    -0.017 N 
HETATM   18  C12 UNL     1     -13.478 -21.591  36.796  1.00  0.00     0.372 C 
ATOM     19  H82 UNL     1     -12.164 -23.197  36.485  1.00  0.00     0.283 HD
ATOM     20  H81 UNL     1     -11.481 -22.060  37.239  1.00  0.00     0.283 HD
BRANCH  16  21
HETATM   21  C10 UNL     1     -10.582 -20.667  35.363  1.00  0.00     0.185 C 
BRANCH  21  22
HETATM   22  N6  UNL     1     -10.562 -19.675  34.322  1.00  0.00    -0.341 N 
HETATM   23  C11 UNL     1     -10.856 -18.316  34.592  1.00  0.00     0.328 C 
HETATM   24  N7  UNL     1     -10.844 -17.318  33.595  1.00  0.00    -0.040 NA
HETATM   25  O6  UNL     1     -11.138 -17.980  35.768  1.00  0.00    -0.251 OA
ATOM     26  H6  UNL     1     -10.331 -19.956  33.368  1.00  0.00     0.163 HD
ENDBRANCH  21  22
ENDBRANCH  16  21
BRANCH  18  27
HETATM   27  O7  UNL     1     -14.510 -22.471  36.600  1.00  0.00    -0.366 OA
ATOM     28  H7  UNL     1     -14.873 -22.855  37.390  1.00  0.00     0.212 HD
ENDBRANCH  18  27
ENDBRANCH  13  14
BRANCH   1  29
HETATM   29  N1  UNL     1     -14.089 -18.120  37.067  1.00  0.00    -0.234 N 
ATOM     30  H12 UNL     1     -14.381 -17.649  37.924  1.00  0.00     0.174 HD
ATOM     31  H11 UNL     1     -13.107 -18.200  36.803  1.00  0.00     0.174 HD
ENDBRANCH   1  29
BRANCH  12  32
HETATM   32  C6  UNL     1     -19.043 -20.151  33.427  1.00  0.00     0.247 C 
BRANCH  32  33
HETATM   33  C7  UNL     1     -19.115 -19.171  32.320  1.00  0.00     0.192 C 
HETATM   34  O3  UNL     1     -18.157 -18.464  31.924  1.00  0.00    -0.647 OA
HETATM   35  O4  UNL     1     -20.324 -18.975  31.621  1.00  0.00    -0.647 OA
ENDBRANCH  32  33
ENDBRANCH  12  32
TORSDOF 7
ENDMDL
MODEL 3
REMARK VINA RESULT: -6.442908112      2.472      7.503
REMARK  7 active torsions:
REMARK  status: ('A' for Active; 'I' for Inactive)
REMARK    1  A    between atoms: N1_1  and  C1_4 
REMARK    2  A    between atoms: N4_15  and  C6_16 
REMARK    3  A    between atoms: C6_16  and  C7_17 
REMARK    4  A    between atoms: N5_20  and  C8_21 
REMARK    5  A    between atoms: C9_23  and  C10_24 
REMARK    6  A    between atoms: C10_24  and  N6_25 
REMARK       I    between atoms: N6_25  and  C11_27 
REMARK    7  A    between atoms: C12_33  and  O7_34 
ROOT
HETATM    1  C1  UNL     1     -14.821 -18.812  36.329  1.00  0.00     0.684 A 
HETATM    2  N2  UNL     1     -16.025 -18.266  36.164  1.00  0.00    -0.154 N 
ATOM      3  H2  UNL     1     -16.277 -17.416  36.670  1.00  0.00     0.187 HD
HETATM    4  C2  UNL     1     -16.900 -18.834  35.335  1.00  0.00     0.290 A 
HETATM    5  O1  UNL     1     -18.021 -18.291  35.205  1.00  0.00    -0.265 OA
HETATM    6  C3  UNL     1     -16.588 -19.982  34.639  1.00  0.00     0.153 A 
HETATM    7  C4  UNL     1     -15.330 -20.499  34.852  1.00  0.00     0.163 A 
HETATM    8  N3  UNL     1     -15.268 -21.593  34.073  1.00  0.00    -0.292 N 
ATOM      9  H3  UNL     1     -14.466 -22.217  33.993  1.00  0.00     0.172 HD
HETATM   10  C5  UNL     1     -16.435 -21.735  33.417  1.00  0.00     0.329 A 
HETATM   11  O2  UNL     1     -16.754 -22.649  32.592  1.00  0.00    -0.246 OA
HETATM   12  N4  UNL     1     -17.284 -20.725  33.764  1.00  0.00    -0.281 N 
HETATM   13  N5  UNL     1     -14.447 -19.950  35.671  1.00  0.00    -0.134 N 
ENDROOT
BRANCH  13  14
HETATM   14  C8  UNL     1     -13.136 -20.460  35.912  1.00  0.00     0.306 C 
HETATM   15  O5  UNL     1     -12.453 -20.883  34.799  1.00  0.00    -0.327 OA
HETATM   16  C9  UNL     1     -11.345 -21.548  35.308  1.00  0.00     0.344 C 
HETATM   17  N8  UNL     1     -11.720 -22.134  36.553  1.00  0.00    -0.017 N 
HETATM   18  C12 UNL     1     -13.073 -21.632  36.834  1.00  0.00     0.372 C 
ATOM     19  H82 UNL     1     -11.651 -23.151  36.564  1.00  0.00     0.283 HD
ATOM     20  H81 UNL     1     -11.054 -21.959  37.306  1.00  0.00     0.283 HD
BRANCH  16  21
HETATM   21  C10 UNL     1     -10.229 -20.539  35.416  1.00  0.00     0.185 C 
BRANCH  21  22
HETATM   22  N6  UNL     1     -10.248 -19.579  34.345  1.00  0.00    -0.341 N 
HETATM   23  C11 UNL     1     -10.681 -18.247  34.557  1.00  0.00     0.328 C 
HETATM   24  N7  UNL     1     -10.711 -17.281  33.529  1.00  0.00    -0.040 NA
HETATM   25  O6  UNL     1     -11.052 -17.906  35.706  1.00  0.00    -0.251 OA
ATOM     26  H6  UNL     1      -9.945 -19.864  33.414  1.00  0.00     0.163 HD
ENDBRANCH  21  22
ENDBRANCH  16  21
BRANCH  18  27
HETATM   27  O7  UNL     1     -14.041 -22.583  36.642  1.00  0.00    -0.366 OA
ATOM     28  H7  UNL     1     -13.859 -23.433  37.025  1.00  0.00     0.212 HD
ENDBRANCH  18  27
ENDBRANCH  13  14
BRANCH   1  29
HETATM   29  N1  UNL     1     -13.961 -18.270  37.133  1.00  0.00    -0.234 N 
ATOM     30  H12 UNL     1     -14.294 -17.959  38.045  1.00  0.00     0.174 HD
ATOM     31  H11 UNL     1     -12.987 -18.163  36.849  1.00  0.00     0.174 HD
ENDBRANCH   1  29
BRANCH  12  32
HETATM   32  C6  UNL     1     -18.633 -20.548  33.273  1.00  0.00     0.247 C 
BRANCH  32  33
HETATM   33  C7  UNL     1     -19.647 -21.313  34.035  1.00  0.00     0.192 C 
HETATM   34  O3  UNL     1     -20.093 -20.989  35.162  1.00  0.00    -0.647 OA
HETATM   35  O4  UNL     1     -20.187 -22.503  33.504  1.00  0.00    -0.647 OA
ENDBRANCH  32  33
ENDBRANCH  12  32
TORSDOF 7
ENDMDL
MODEL 4
REMARK VINA RESULT: -6.335274096      5.592     10.028
REMARK  7 active torsions:
REMARK  status: ('A' for Active; 'I' for Inactive)
REMARK    1  A    between atoms: N1_1  and  C1_4 
REMARK    2  A    between atoms: N4_15  and  C6_16 
REMARK    3  A    between atoms: C6_16  and  C7_17 
REMARK    4  A    between atoms: N5_20  and  C8_21 
REMARK    5  A    between atoms: C9_23  and  C10_24 
REMARK    6  A    between atoms: C10_24  and  N6_25 
REMARK       I    between atoms: N6_25  and  C11_27 
REMARK    7  A    between atoms: C12_33  and  O7_34 
ROOT
HETATM    1  C1  UNL     1      -9.694 -22.706  37.228  1.00  0.00     0.684 A 
HETATM    2  N2  UNL     1     -10.267 -22.358  36.076  1.00  0.00    -0.154 N 
ATOM      3  H2  UNL     1      -9.824 -22.599  35.189  1.00  0.00     0.187 HD
HETATM    4  C2  UNL     1     -11.421 -21.692  36.087  1.00  0.00     0.290 A 
HETATM    5  O1  UNL     1     -11.929 -21.383  34.985  1.00  0.00    -0.265 OA
HETATM    6  C3  UNL     1     -12.042 -21.352  37.270  1.00  0.00     0.153 A 
HETATM    7  C4  UNL     1     -11.402 -21.740  38.425  1.00  0.00     0.163 A 
HETATM    8  N3  UNL     1     -12.191 -21.303  39.422  1.00  0.00    -0.292 N 
ATOM      9  H3  UNL     1     -12.007 -21.425  40.418  1.00  0.00     0.172 HD
HETATM   10  C5  UNL     1     -13.262 -20.680  38.897  1.00  0.00     0.329 A 
HETATM   11  O2  UNL     1     -14.228 -20.136  39.523  1.00  0.00    -0.246 OA
HETATM   12  N4  UNL     1     -13.184 -20.700  37.536  1.00  0.00    -0.281 N 
HETATM   13  N5  UNL     1     -10.255 -22.401  38.436  1.00  0.00    -0.134 N 
ENDROOT
BRANCH  13  14
HETATM   14  C8  UNL     1      -9.567 -22.817  39.615  1.00  0.00     0.306 C 
HETATM   15  O5  UNL     1     -10.353 -23.391  40.585  1.00  0.00    -0.327 OA
HETATM   16  C9  UNL     1      -9.522 -23.473  41.695  1.00  0.00     0.344 C 
HETATM   17  N8  UNL     1      -8.611 -22.376  41.642  1.00  0.00    -0.017 N 
HETATM   18  C12 UNL     1      -8.842 -21.733  40.340  1.00  0.00     0.372 C 
ATOM     19  H82 UNL     1      -8.692 -21.738  42.434  1.00  0.00     0.283 HD
ATOM     20  H81 UNL     1      -7.639 -22.642  41.800  1.00  0.00     0.283 HD
BRANCH  16  21
HETATM   21  C10 UNL     1      -8.856 -24.825  41.654  1.00  0.00     0.185 C 
BRANCH  21  22
HETATM   22  N6  UNL     1      -9.804 -25.906  41.622  1.00  0.00    -0.341 N 
HETATM   23  C11 UNL     1     -10.014 -26.668  40.447  1.00  0.00     0.328 C 
HETATM   24  N7  UNL     1     -10.936 -27.734  40.382  1.00  0.00    -0.040 NA
HETATM   25  O6  UNL     1      -9.354 -26.387  39.417  1.00  0.00    -0.251 OA
ATOM     26  H6  UNL     1     -10.337 -26.128  42.464  1.00  0.00     0.163 HD
ENDBRANCH  21  22
ENDBRANCH  16  21
BRANCH  18  27
HETATM   27  O7  UNL     1      -9.518 -20.546  40.449  1.00  0.00    -0.366 OA
ATOM     28  H7  UNL     1     -10.268 -20.556  41.033  1.00  0.00     0.212 HD
ENDBRANCH  18  27
ENDBRANCH  13  14
BRANCH   1  29
HETATM   29  N1  UNL     1      -8.571 -23.353  37.231  1.00  0.00    -0.234 N 
ATOM     30  H12 UNL     1      -8.378 -23.972  36.443  1.00  0.00     0.174 HD
ATOM     31  H11 UNL     1      -7.914 -23.239  38.002  1.00  0.00     0.174 HD
ENDBRANCH   1  29
BRANCH  12  32
HETATM   32  C6  UNL     1     -14.146 -20.118  36.625  1.00  0.00     0.247 C 
BRANCH  32  33
HETATM   33  C7  UNL     1     -13.854 -18.709  36.273  1.00  0.00     0.192 C 
HETATM   34  O3  UNL     1     -12.997 -18.342  35.434  1.00  0.00    -0.647 OA
HETATM   35  O4  UNL     1     -14.561 -17.659  36.895  1.00  0.00    -0.647 OA
ENDBRANCH  32  33
ENDBRANCH  12  32
TORSDOF 7
ENDMDL
MODEL 5
REMARK VINA RESULT: -6.238492005      2.401      6.878
REMARK  7 active torsions:
REMARK  status: ('A' for Active; 'I' for Inactive)
REMARK    1  A    between atoms: N1_1  and  C1_4 
REMARK    2  A    between atoms: N4_15  and  C6_16 
REMARK    3  A    between atoms: C6_16  and  C7_17 
REMARK    4  A    between atoms: N5_20  and  C8_21 
REMARK    5  A    between atoms: C9_23  and  C10_24 
REMARK    6  A    between atoms: C10_24  and  N6_25 
REMARK       I    between atoms: N6_25  and  C11_27 
REMARK    7  A    between atoms: C12_33  and  O7_34 
ROOT
HETATM    1  C1  UNL     1     -15.615 -21.175  33.731  1.00  0.00     0.684 A 
HETATM    2  N2  UNL     1     -16.690 -20.932  32.982  1.00  0.00    -0.154 N 
ATOM      3  H2  UNL     1     -16.864 -21.483  32.141  1.00  0.00     0.187 HD
HETATM    4  C2  UNL     1     -17.537 -19.967  33.336  1.00  0.00     0.290 A 
HETATM    5  O1  UNL     1     -18.537 -19.769  32.608  1.00  0.00    -0.265 OA
HETATM    6  C3  UNL     1     -17.327 -19.206  34.466  1.00  0.00     0.153 A 
HETATM    7  C4  UNL     1     -16.199 -19.504  35.198  1.00  0.00     0.163 A 
HETATM    8  N3  UNL     1     -16.219 -18.644  36.231  1.00  0.00    -0.292 N 
ATOM      9  H3  UNL     1     -15.520 -18.594  36.971  1.00  0.00     0.172 HD
HETATM   10  C5  UNL     1     -17.309 -17.860  36.133  1.00  0.00     0.329 A 
HETATM   11  O2  UNL     1     -17.669 -16.930  36.923  1.00  0.00    -0.246 OA
HETATM   12  N4  UNL     1     -18.021 -18.201  35.021  1.00  0.00    -0.281 N 
HETATM   13  N5  UNL     1     -15.345 -20.458  34.863  1.00  0.00    -0.134 N 
ENDROOT
BRANCH  13  14
HETATM   14  C8  UNL     1     -14.170 -20.792  35.600  1.00  0.00     0.306 C 
HETATM   15  O5  UNL     1     -13.072 -21.120  34.842  1.00  0.00    -0.327 OA
HETATM   16  C9  UNL     1     -12.164 -21.636  35.758  1.00  0.00     0.344 C 
HETATM   17  N8  UNL     1     -12.906 -22.268  36.800  1.00  0.00    -0.017 N 
HETATM   18  C12 UNL     1     -14.315 -21.948  36.533  1.00  0.00     0.372 C 
ATOM     19  H82 UNL     1     -12.722 -23.268  36.885  1.00  0.00     0.283 HD
ATOM     20  H81 UNL     1     -12.598 -22.009  37.738  1.00  0.00     0.283 HD
BRANCH  16  21
HETATM   21  C10 UNL     1     -11.304 -20.489  36.227  1.00  0.00     0.185 C 
BRANCH  21  22
HETATM   22  N6  UNL     1     -10.872 -19.646  35.145  1.00  0.00    -0.341 N 
HETATM   23  C11 UNL     1     -11.290 -18.297  35.050  1.00  0.00     0.328 C 
HETATM   24  N7  UNL     1     -10.885 -17.442  34.002  1.00  0.00    -0.040 NA
HETATM   25  O6  UNL     1     -12.053 -17.835  35.933  1.00  0.00    -0.251 OA
ATOM     26  H6  UNL     1     -10.251 -20.028  34.431  1.00  0.00     0.163 HD
ENDBRANCH  21  22
ENDBRANCH  16  21
BRANCH  18  27
HETATM   27  O7  UNL     1     -15.016 -23.017  36.039  1.00  0.00    -0.366 OA
ATOM     28  H7  UNL     1     -15.929 -23.060  36.299  1.00  0.00     0.212 HD
ENDBRANCH  18  27
ENDBRANCH  13  14
BRANCH   1  29
HETATM   29  N1  UNL     1     -14.782 -22.111  33.397  1.00  0.00    -0.234 N 
ATOM     30  H12 UNL     1     -14.609 -22.260  32.403  1.00  0.00     0.174 HD
ATOM     31  H11 UNL     1     -14.325 -22.673  34.115  1.00  0.00     0.174 HD
ENDBRANCH   1  29
BRANCH  12  32
HETATM   32  C6  UNL     1     -19.247 -17.572  34.576  1.00  0.00     0.247 C 
BRANCH  32  33
HETATM   33  C7  UNL     1     -19.036 -16.506  33.570  1.00  0.00     0.192 C 
HETATM   34  O3  UNL     1     -18.358 -15.467  33.757  1.00  0.00    -0.647 OA
HETATM   35  O4  UNL     1     -19.616 -16.613  32.289  1.00  0.00    -0.647 OA
ENDBRANCH  32  33
ENDBRANCH  12  32
TORSDOF 7
ENDMDL
