MODEL 1
REMARK VINA RESULT: -9.253047420      0.000      0.000
REMARK  9 active torsions:
REMARK  status: ('A' for Active; 'I' for Inactive)
REMARK    1  A    between atoms: O1_2  and  C2_3 
REMARK    2  A    between atoms: C2_3  and  C3_5 
REMARK    3  A    between atoms: C3_5  and  C4_6 
REMARK    4  A    between atoms: C4_6  and  C5_7 
REMARK    5  A    between atoms: C5_7  and  C7_9 
REMARK    6  A    between atoms: C17_20  and  O4_21 
REMARK    7  A    between atoms: C22_27  and  C23_28 
REMARK    8  A    between atoms: C24_29  and  C25_30 
REMARK    9  A    between atoms: C25_30  and  O5_31 
ROOT
HETATM    1  C7  UNL     1       5.676   9.734  24.279  1.00  0.00     0.005 C 
HETATM    2  C8  UNL     1       6.624   8.555  24.377  1.00  0.00     0.006 C 
HETATM    3  C9  UNL     1       5.937   7.482  23.553  1.00  0.00     0.007 C 
HETATM    4  C10 UNL     1       4.469   7.860  23.568  1.00  0.00     0.006 C 
HETATM    5  C11 UNL     1       3.892   7.610  24.945  1.00  0.00     0.001 C 
HETATM    6  C12 UNL     1       3.851   6.111  25.089  1.00  0.00     0.033 C 
HETATM    7  C13 UNL     1       2.981   5.655  26.180  1.00  0.00    -0.015 C 
HETATM    8  C14 UNL     1       1.933   6.320  26.592  1.00  0.00    -0.007 C 
HETATM    9  C15 UNL     1       1.155   5.766  27.675  1.00  0.00     0.158 C 
HETATM   10  O3  UNL     1       1.151   4.538  27.923  1.00  0.00    -0.293 OA
HETATM   11  C16 UNL     1       0.342   6.692  28.510  1.00  0.00     0.115 C 
HETATM   12  C17 UNL     1       1.119   8.004  28.418  1.00  0.00     0.126 C 
HETATM   13  C18 UNL     1       0.932   8.497  27.019  1.00  0.00     0.046 C 
HETATM   14  C19 UNL     1       1.544   7.578  25.951  1.00  0.00    -0.006 C 
HETATM   15  C20 UNL     1       0.374   7.186  25.025  1.00  0.00     0.021 C 
HETATM   16  C21 UNL     1       2.628   8.321  25.234  1.00  0.00     0.026 C 
HETATM   17  C22 UNL     1       2.169   9.074  24.002  1.00  0.00     0.141 C 
HETATM   18  C26 UNL     1       3.291   9.934  23.513  1.00  0.00     0.151 C 
HETATM   19  O6  UNL     1       3.025  11.091  23.289  1.00  0.00    -0.296 OA
HETATM   20  C27 UNL     1       4.630   9.383  23.323  1.00  0.00     0.026 C 
HETATM   21  C28 UNL     1       4.971   9.506  21.862  1.00  0.00     0.024 C 
ENDROOT
BRANCH   1  22
HETATM   22  C5  UNL     1       6.474  10.975  24.104  1.00  0.00    -0.013 C 
HETATM   23  C6  UNL     1       7.958  10.780  23.963  1.00  0.00     0.010 C 
BRANCH  22  24
HETATM   24  C4  UNL     1       6.190  12.128  24.974  1.00  0.00     0.014 C 
BRANCH  24  25
HETATM   25  C3  UNL     1       6.033  13.379  24.090  1.00  0.00     0.111 C 
BRANCH  25  26
HETATM   26  C2  UNL     1       6.861  14.488  24.634  1.00  0.00     0.258 C 
HETATM   27  O2  UNL     1       8.011  14.713  24.180  1.00  0.00    -0.265 OA
BRANCH  26  28
HETATM   28  O1  UNL     1       6.354  15.271  25.653  1.00  0.00    -0.326 OA
HETATM   29  C1  UNL     1       5.013  15.698  25.734  1.00  0.00     0.213 C 
ENDBRANCH  26  28
ENDBRANCH  25  26
ENDBRANCH  24  25
ENDBRANCH  22  24
ENDBRANCH   1  22
BRANCH  17  30
HETATM   30  C23 UNL     1       1.022   9.964  24.281  1.00  0.00    -0.091 C 
HETATM   31  C24 UNL     1       0.054  10.676  24.516  1.00  0.00    -0.080 C 
BRANCH  31  32
HETATM   32  C25 UNL     1      -1.095  11.539  24.773  1.00  0.00     0.257 C 
BRANCH  32  33
HETATM   33  O5  UNL     1      -2.208  10.989  24.192  1.00  0.00    -0.389 OA
ATOM     34  H5  UNL     1      -2.272  10.076  24.445  1.00  0.00     0.210 HD
ENDBRANCH  32  33
ENDBRANCH  31  32
ENDBRANCH  17  30
BRANCH  12  35
HETATM   35  O4  UNL     1       2.454   7.777  28.740  1.00  0.00    -0.395 OA
ATOM     36  H4  UNL     1       2.775   7.029  28.251  1.00  0.00     0.210 HD
ENDBRANCH  12  35
TORSDOF 9
ENDMDL
MODEL 2
REMARK VINA RESULT: -8.960912787      0.866      1.169
REMARK  9 active torsions:
REMARK  status: ('A' for Active; 'I' for Inactive)
REMARK    1  A    between atoms: O1_2  and  C2_3 
REMARK    2  A    between atoms: C2_3  and  C3_5 
REMARK    3  A    between atoms: C3_5  and  C4_6 
REMARK    4  A    between atoms: C4_6  and  C5_7 
REMARK    5  A    between atoms: C5_7  and  C7_9 
REMARK    6  A    between atoms: C17_20  and  O4_21 
REMARK    7  A    between atoms: C22_27  and  C23_28 
REMARK    8  A    between atoms: C24_29  and  C25_30 
REMARK    9  A    between atoms: C25_30  and  O5_31 
ROOT
HETATM    1  C7  UNL     1       5.544   9.849  24.250  1.00  0.00     0.005 C 
HETATM    2  C8  UNL     1       6.535   8.705  24.350  1.00  0.00     0.006 C 
HETATM    3  C9  UNL     1       5.873   7.595  23.557  1.00  0.00     0.007 C 
HETATM    4  C10 UNL     1       4.393   7.922  23.592  1.00  0.00     0.006 C 
HETATM    5  C11 UNL     1       3.848   7.675  24.982  1.00  0.00     0.001 C 
HETATM    6  C12 UNL     1       3.863   6.178  25.151  1.00  0.00     0.033 C 
HETATM    7  C13 UNL     1       3.028   5.711  26.265  1.00  0.00    -0.015 C 
HETATM    8  C14 UNL     1       1.965   6.346  26.685  1.00  0.00    -0.007 C 
HETATM    9  C15 UNL     1       1.225   5.783  27.790  1.00  0.00     0.158 C 
HETATM   10  O3  UNL     1       1.269   4.561  28.059  1.00  0.00    -0.293 OA
HETATM   11  C16 UNL     1       0.394   6.695  28.624  1.00  0.00     0.115 C 
HETATM   12  C17 UNL     1       1.122   8.031  28.497  1.00  0.00     0.126 C 
HETATM   13  C18 UNL     1       0.894   8.493  27.093  1.00  0.00     0.046 C 
HETATM   14  C19 UNL     1       1.520   7.578  26.030  1.00  0.00    -0.006 C 
HETATM   15  C20 UNL     1       0.350   7.130  25.131  1.00  0.00     0.021 C 
HETATM   16  C21 UNL     1       2.565   8.347  25.282  1.00  0.00     0.026 C 
HETATM   17  C22 UNL     1       2.059   9.062  24.046  1.00  0.00     0.141 C 
HETATM   18  C26 UNL     1       3.141   9.952  23.523  1.00  0.00     0.151 C 
HETATM   19  O6  UNL     1       2.831  11.095  23.284  1.00  0.00    -0.296 OA
HETATM   20  C27 UNL     1       4.496   9.445  23.318  1.00  0.00     0.026 C 
HETATM   21  C28 UNL     1       4.806   9.555  21.850  1.00  0.00     0.024 C 
ENDROOT
BRANCH   1  22
HETATM   22  C5  UNL     1       6.295  11.114  24.041  1.00  0.00    -0.013 C 
HETATM   23  C6  UNL     1       7.746  10.958  23.681  1.00  0.00     0.010 C 
BRANCH  22  24
HETATM   24  C4  UNL     1       6.123  12.208  25.010  1.00  0.00     0.014 C 
BRANCH  24  25
HETATM   25  C3  UNL     1       7.503  12.834  25.290  1.00  0.00     0.111 C 
BRANCH  25  26
HETATM   26  C2  UNL     1       7.389  13.836  26.382  1.00  0.00     0.258 C 
HETATM   27  O2  UNL     1       6.501  13.726  27.265  1.00  0.00    -0.265 OA
BRANCH  26  28
HETATM   28  O1  UNL     1       8.270  14.900  26.416  1.00  0.00    -0.326 OA
HETATM   29  C1  UNL     1       9.523  14.913  25.771  1.00  0.00     0.213 C 
ENDBRANCH  26  28
ENDBRANCH  25  26
ENDBRANCH  24  25
ENDBRANCH  22  24
ENDBRANCH   1  22
BRANCH  17  30
HETATM   30  C23 UNL     1       0.886   9.915  24.330  1.00  0.00    -0.091 C 
HETATM   31  C24 UNL     1      -0.067  10.642  24.579  1.00  0.00    -0.080 C 
BRANCH  31  32
HETATM   32  C25 UNL     1      -1.217  11.488  24.888  1.00  0.00     0.257 C 
BRANCH  32  33
HETATM   33  O5  UNL     1      -2.301  11.050  24.172  1.00  0.00    -0.389 OA
ATOM     34  H5  UNL     1      -2.177  11.268  23.256  1.00  0.00     0.210 HD
ENDBRANCH  32  33
ENDBRANCH  31  32
ENDBRANCH  17  30
BRANCH  12  35
HETATM   35  O4  UNL     1       2.470   7.857  28.799  1.00  0.00    -0.395 OA
ATOM     36  H4  UNL     1       2.958   8.624  28.524  1.00  0.00     0.210 HD
ENDBRANCH  12  35
TORSDOF 9
ENDMDL
MODEL 3
REMARK VINA RESULT: -8.665467625      2.189      7.825
REMARK  9 active torsions:
REMARK  status: ('A' for Active; 'I' for Inactive)
REMARK    1  A    between atoms: O1_2  and  C2_3 
REMARK    2  A    between atoms: C2_3  and  C3_5 
REMARK    3  A    between atoms: C3_5  and  C4_6 
REMARK    4  A    between atoms: C4_6  and  C5_7 
REMARK    5  A    between atoms: C5_7  and  C7_9 
REMARK    6  A    between atoms: C17_20  and  O4_21 
REMARK    7  A    between atoms: C22_27  and  C23_28 
REMARK    8  A    between atoms: C24_29  and  C25_30 
REMARK    9  A    between atoms: C25_30  and  O5_31 
ROOT
HETATM    1  C7  UNL     1       1.373   9.472  26.378  1.00  0.00     0.005 C 
HETATM    2  C8  UNL     1       0.230  10.467  26.418  1.00  0.00     0.006 C 
HETATM    3  C9  UNL     1       0.155  10.975  24.991  1.00  0.00     0.007 C 
HETATM    4  C10 UNL     1       1.542  10.747  24.424  1.00  0.00     0.006 C 
HETATM    5  C11 UNL     1       2.516  11.722  25.048  1.00  0.00     0.001 C 
HETATM    6  C12 UNL     1       2.143  13.068  24.483  1.00  0.00     0.033 C 
HETATM    7  C13 UNL     1       3.190  14.082  24.658  1.00  0.00    -0.015 C 
HETATM    8  C14 UNL     1       4.465  13.798  24.723  1.00  0.00    -0.007 C 
HETATM    9  C15 UNL     1       5.399  14.886  24.895  1.00  0.00     0.158 C 
HETATM   10  O3  UNL     1       5.121  16.056  24.545  1.00  0.00    -0.293 OA
HETATM   11  C16 UNL     1       6.724  14.593  25.509  1.00  0.00     0.115 C 
HETATM   12  C17 UNL     1       6.426  13.391  26.403  1.00  0.00     0.126 C 
HETATM   13  C18 UNL     1       6.176  12.242  25.480  1.00  0.00     0.046 C 
HETATM   14  C19 UNL     1       4.933  12.416  24.595  1.00  0.00    -0.006 C 
HETATM   15  C20 UNL     1       5.444  12.321  23.143  1.00  0.00     0.021 C 
HETATM   16  C21 UNL     1       3.942  11.346  24.933  1.00  0.00     0.026 C 
HETATM   17  C22 UNL     1       4.074  10.081  24.110  1.00  0.00     0.141 C 
HETATM   18  C26 UNL     1       3.179   9.031  24.687  1.00  0.00     0.151 C 
HETATM   19  O6  UNL     1       3.677   7.948  24.888  1.00  0.00    -0.296 OA
HETATM   20  C27 UNL     1       1.778   9.320  24.984  1.00  0.00     0.026 C 
HETATM   21  C28 UNL     1       0.935   8.420  24.122  1.00  0.00     0.024 C 
ENDROOT
BRANCH   1  22
HETATM   22  C5  UNL     1       1.002   8.286  27.191  1.00  0.00    -0.013 C 
HETATM   23  C6  UNL     1      -0.271   8.410  27.981  1.00  0.00     0.010 C 
BRANCH  22  24
HETATM   24  C4  UNL     1       2.041   7.626  27.998  1.00  0.00     0.014 C 
BRANCH  24  25
HETATM   25  C3  UNL     1       1.985   8.196  29.428  1.00  0.00     0.111 C 
BRANCH  25  26
HETATM   26  C2  UNL     1       1.992   7.084  30.415  1.00  0.00     0.258 C 
HETATM   27  O2  UNL     1       3.047   6.447  30.657  1.00  0.00    -0.265 OA
BRANCH  26  28
HETATM   28  O1  UNL     1       0.818   6.751  31.064  1.00  0.00    -0.326 OA
HETATM   29  C1  UNL     1       0.570   6.996  32.429  1.00  0.00     0.213 C 
ENDBRANCH  26  28
ENDBRANCH  25  26
ENDBRANCH  24  25
ENDBRANCH  22  24
ENDBRANCH   1  22
BRANCH  17  30
HETATM   30  C23 UNL     1       5.450   9.542  24.124  1.00  0.00    -0.091 C 
HETATM   31  C24 UNL     1       6.584   9.081  24.110  1.00  0.00    -0.080 C 
BRANCH  31  32
HETATM   32  C25 UNL     1       7.934   8.522  24.119  1.00  0.00     0.257 C 
BRANCH  32  33
HETATM   33  O5  UNL     1       7.949   7.400  24.906  1.00  0.00    -0.389 OA
ATOM     34  H5  UNL     1       8.317   6.678  24.410  1.00  0.00     0.210 HD
ENDBRANCH  32  33
ENDBRANCH  31  32
ENDBRANCH  17  30
BRANCH  12  35
HETATM   35  O4  UNL     1       5.337  13.679  27.220  1.00  0.00    -0.395 OA
ATOM     36  H4  UNL     1       5.551  13.466  28.121  1.00  0.00     0.210 HD
ENDBRANCH  12  35
TORSDOF 9
ENDMDL
MODEL 4
REMARK VINA RESULT: -8.527218031      2.178      7.718
REMARK  9 active torsions:
REMARK  status: ('A' for Active; 'I' for Inactive)
REMARK    1  A    between atoms: O1_2  and  C2_3 
REMARK    2  A    between atoms: C2_3  and  C3_5 
REMARK    3  A    between atoms: C3_5  and  C4_6 
REMARK    4  A    between atoms: C4_6  and  C5_7 
REMARK    5  A    between atoms: C5_7  and  C7_9 
REMARK    6  A    between atoms: C17_20  and  O4_21 
REMARK    7  A    between atoms: C22_27  and  C23_28 
REMARK    8  A    between atoms: C24_29  and  C25_30 
REMARK    9  A    between atoms: C25_30  and  O5_31 
ROOT
HETATM    1  C7  UNL     1       1.398   9.416  26.339  1.00  0.00     0.005 C 
HETATM    2  C8  UNL     1       0.244  10.399  26.388  1.00  0.00     0.006 C 
HETATM    3  C9  UNL     1       0.163  10.918  24.965  1.00  0.00     0.007 C 
HETATM    4  C10 UNL     1       1.553  10.711  24.396  1.00  0.00     0.006 C 
HETATM    5  C11 UNL     1       2.516  11.692  25.030  1.00  0.00     0.001 C 
HETATM    6  C12 UNL     1       2.128  13.038  24.477  1.00  0.00     0.033 C 
HETATM    7  C13 UNL     1       3.163  14.063  24.661  1.00  0.00    -0.015 C 
HETATM    8  C14 UNL     1       4.441  13.793  24.724  1.00  0.00    -0.007 C 
HETATM    9  C15 UNL     1       5.363  14.889  24.906  1.00  0.00     0.158 C 
HETATM   10  O3  UNL     1       5.071  16.059  24.566  1.00  0.00    -0.293 OA
HETATM   11  C16 UNL     1       6.691  14.606  25.516  1.00  0.00     0.115 C 
HETATM   12  C17 UNL     1       6.407  13.392  26.400  1.00  0.00     0.126 C 
HETATM   13  C18 UNL     1       6.170  12.249  25.467  1.00  0.00     0.046 C 
HETATM   14  C19 UNL     1       4.924  12.417  24.583  1.00  0.00    -0.006 C 
HETATM   15  C20 UNL     1       5.437  12.341  23.130  1.00  0.00     0.021 C 
HETATM   16  C21 UNL     1       3.946  11.333  24.911  1.00  0.00     0.026 C 
HETATM   17  C22 UNL     1       4.092  10.076  24.077  1.00  0.00     0.141 C 
HETATM   18  C26 UNL     1       3.209   9.011  24.644  1.00  0.00     0.151 C 
HETATM   19  O6  UNL     1       3.719   7.933  24.835  1.00  0.00    -0.296 OA
HETATM   20  C27 UNL     1       1.805   9.282  24.943  1.00  0.00     0.026 C 
HETATM   21  C28 UNL     1       0.972   8.381  24.073  1.00  0.00     0.024 C 
ENDROOT
BRANCH   1  22
HETATM   22  C5  UNL     1       1.040   8.219  27.141  1.00  0.00    -0.013 C 
HETATM   23  C6  UNL     1      -0.182   8.355  28.005  1.00  0.00     0.010 C 
BRANCH  22  24
HETATM   24  C4  UNL     1       2.105   7.510  27.870  1.00  0.00     0.014 C 
BRANCH  24  25
HETATM   25  C3  UNL     1       2.342   8.231  29.210  1.00  0.00     0.111 C 
BRANCH  25  26
HETATM   26  C2  UNL     1       2.682   7.238  30.264  1.00  0.00     0.258 C 
HETATM   27  O2  UNL     1       1.787   6.751  30.999  1.00  0.00    -0.265 OA
BRANCH  26  28
HETATM   28  O1  UNL     1       3.999   6.857  30.432  1.00  0.00    -0.326 OA
HETATM   29  C1  UNL     1       4.475   5.543  30.247  1.00  0.00     0.213 C 
ENDBRANCH  26  28
ENDBRANCH  25  26
ENDBRANCH  24  25
ENDBRANCH  22  24
ENDBRANCH   1  22
BRANCH  17  30
HETATM   30  C23 UNL     1       5.474   9.554  24.086  1.00  0.00    -0.091 C 
HETATM   31  C24 UNL     1       6.613   9.104  24.068  1.00  0.00    -0.080 C 
BRANCH  31  32
HETATM   32  C25 UNL     1       7.969   8.561  24.073  1.00  0.00     0.257 C 
BRANCH  32  33
HETATM   33  O5  UNL     1       8.007   7.445  23.277  1.00  0.00    -0.389 OA
ATOM     34  H5  UNL     1       8.913   7.204  23.124  1.00  0.00     0.210 HD
ENDBRANCH  32  33
ENDBRANCH  31  32
ENDBRANCH  17  30
BRANCH  12  35
HETATM   35  O4  UNL     1       5.314  13.660  27.219  1.00  0.00    -0.395 OA
ATOM     36  H4  UNL     1       4.549  13.205  26.887  1.00  0.00     0.210 HD
ENDBRANCH  12  35
TORSDOF 9
ENDMDL
MODEL 5
REMARK VINA RESULT: -8.371706247      1.183      1.422
REMARK  9 active torsions:
REMARK  status: ('A' for Active; 'I' for Inactive)
REMARK    1  A    between atoms: O1_2  and  C2_3 
REMARK    2  A    between atoms: C2_3  and  C3_5 
REMARK    3  A    between atoms: C3_5  and  C4_6 
REMARK    4  A    between atoms: C4_6  and  C5_7 
REMARK    5  A    between atoms: C5_7  and  C7_9 
REMARK    6  A    between atoms: C17_20  and  O4_21 
REMARK    7  A    between atoms: C22_27  and  C23_28 
REMARK    8  A    between atoms: C24_29  and  C25_30 
REMARK    9  A    between atoms: C25_30  and  O5_31 
ROOT
HETATM    1  C7  UNL     1       4.945  10.733  24.542  1.00  0.00     0.005 C 
HETATM    2  C8  UNL     1       6.103   9.755  24.589  1.00  0.00     0.006 C 
HETATM    3  C9  UNL     1       5.637   8.615  23.704  1.00  0.00     0.007 C 
HETATM    4  C10 UNL     1       4.124   8.701  23.723  1.00  0.00     0.006 C 
HETATM    5  C11 UNL     1       3.605   8.273  25.078  1.00  0.00     0.001 C 
HETATM    6  C12 UNL     1       3.854   6.788  25.145  1.00  0.00     0.033 C 
HETATM    7  C13 UNL     1       3.087   6.117  26.202  1.00  0.00    -0.015 C 
HETATM    8  C14 UNL     1       1.931   6.544  26.636  1.00  0.00    -0.007 C 
HETATM    9  C15 UNL     1       1.273   5.794  27.680  1.00  0.00     0.158 C 
HETATM   10  O3  UNL     1       1.506   4.578  27.865  1.00  0.00    -0.293 OA
HETATM   11  C16 UNL     1       0.296   6.502  28.553  1.00  0.00     0.115 C 
HETATM   12  C17 UNL     1       0.804   7.942  28.537  1.00  0.00     0.126 C 
HETATM   13  C18 UNL     1       0.527   8.462  27.163  1.00  0.00     0.046 C 
HETATM   14  C19 UNL     1       1.306   7.736  26.056  1.00  0.00    -0.006 C 
HETATM   15  C20 UNL     1       0.235   7.174  25.098  1.00  0.00     0.021 C 
HETATM   16  C21 UNL     1       2.227   8.711  25.390  1.00  0.00     0.026 C 
HETATM   17  C22 UNL     1       1.632   9.424  24.193  1.00  0.00     0.141 C 
HETATM   18  C26 UNL     1       2.567  10.509  23.761  1.00  0.00     0.151 C 
HETATM   19  O6  UNL     1       2.083  11.603  23.593  1.00  0.00    -0.296 OA
HETATM   20  C27 UNL     1       3.988  10.237  23.558  1.00  0.00     0.026 C 
HETATM   21  C28 UNL     1       4.299  10.501  22.109  1.00  0.00     0.024 C 
ENDROOT
BRANCH   1  22
HETATM   22  C5  UNL     1       5.488  12.112  24.440  1.00  0.00    -0.013 C 
HETATM   23  C6  UNL     1       4.483  13.187  24.136  1.00  0.00     0.010 C 
BRANCH  22  24
HETATM   24  C4  UNL     1       6.722  12.332  23.668  1.00  0.00     0.014 C 
BRANCH  24  25
HETATM   25  C3  UNL     1       7.514  13.476  24.329  1.00  0.00     0.111 C 
BRANCH  25  26
HETATM   26  C2  UNL     1       8.197  12.975  25.552  1.00  0.00     0.258 C 
HETATM   27  O2  UNL     1       9.202  12.225  25.464  1.00  0.00    -0.265 OA
BRANCH  26  28
HETATM   28  O1  UNL     1       7.712  13.340  26.793  1.00  0.00    -0.326 OA
HETATM   29  C1  UNL     1       6.868  14.445  27.021  1.00  0.00     0.213 C 
ENDBRANCH  26  28
ENDBRANCH  25  26
ENDBRANCH  24  25
ENDBRANCH  22  24
ENDBRANCH   1  22
BRANCH  17  30
HETATM   30  C23 UNL     1       0.335  10.060  24.505  1.00  0.00    -0.091 C 
HETATM   31  C24 UNL     1      -0.726  10.612  24.768  1.00  0.00    -0.080 C 
BRANCH  31  32
HETATM   32  C25 UNL     1      -1.996  11.251  25.100  1.00  0.00     0.257 C 
BRANCH  32  33
HETATM   33  O5  UNL     1      -2.454  11.935  24.004  1.00  0.00    -0.389 OA
ATOM     34  H5  UNL     1      -2.010  11.613  23.228  1.00  0.00     0.210 HD
ENDBRANCH  32  33
ENDBRANCH  31  32
ENDBRANCH  17  30
BRANCH  12  35
HETATM   35  O4  UNL     1       2.158   7.960  28.861  1.00  0.00    -0.395 OA
ATOM     36  H4  UNL     1       2.669   7.698  28.105  1.00  0.00     0.210 HD
ENDBRANCH  12  35
TORSDOF 9
ENDMDL
