MODEL 1
REMARK VINA RESULT: -6.644458972      0.000      0.000
REMARK  12 active torsions:
REMARK  status: ('A' for Active; 'I' for Inactive)
REMARK    1  A    between atoms: N1_1  and  C1_4 
REMARK    2  A    between atoms: C4_10  and  C5_11 
REMARK       I    between atoms: C5_11  and  N3_13 
REMARK    3  A    between atoms: N3_13  and  C6_15 
REMARK    4  A    between atoms: C6_15  and  C7_16 
REMARK    5  A    between atoms: C7_16  and  N4_17 
REMARK    6  A    between atoms: N4_17  and  C8_19 
REMARK    7  A    between atoms: C8_19  and  C9_20 
REMARK    8  A    between atoms: C9_20  and  O3_21 
REMARK    9  A    between atoms: C10_25  and  N6_26 
REMARK   10  A    between atoms: N6_26  and  C11_28 
REMARK   11  A    between atoms: C11_28  and  C12_29 
REMARK   12  A    between atoms: C12_29  and  N7_30 
ROOT
HETATM    1  C1  UNL     1      46.072 -71.808  31.453  1.00  0.00     0.146 C 
HETATM    2  N2  UNL     1      46.216 -71.170  30.258  1.00  0.00    -0.307 N 
ATOM      3  H2  UNL     1      47.051 -71.398  29.719  1.00  0.00     0.170 HD
HETATM    4  C2  UNL     1      45.380 -70.277  29.715  1.00  0.00     0.249 C 
HETATM    5  O1  UNL     1      45.826 -69.527  28.797  1.00  0.00    -0.268 OA
HETATM    6  C3  UNL     1      44.053 -70.052  30.026  1.00  0.00     0.109 C 
HETATM    7  C4  UNL     1      43.424 -70.306  31.224  1.00  0.00     0.107 C 
HETATM    8  N5  UNL     1      43.858 -71.174  32.184  1.00  0.00    -0.335 N 
ATOM      9  H5  UNL     1      43.139 -71.509  32.827  1.00  0.00     0.168 HD
HETATM   10  C10 UNL     1      45.090 -71.649  32.406  1.00  0.00     0.146 C 
ENDROOT
BRANCH   7  11
HETATM   11  C5  UNL     1      42.192 -69.578  31.451  1.00  0.00     0.268 C 
HETATM   12  O2  UNL     1      41.099 -70.204  31.184  1.00  0.00    -0.266 OA
HETATM   13  N3  UNL     1      42.097 -68.250  31.936  1.00  0.00    -0.354 N 
ATOM     14  H3  UNL     1      42.966 -67.758  32.140  1.00  0.00     0.162 HD
BRANCH  13  15
HETATM   15  C6  UNL     1      40.863 -67.547  32.163  1.00  0.00     0.142 C 
BRANCH  15  16
HETATM   16  C7  UNL     1      41.152 -66.122  32.656  1.00  0.00     0.133 C 
BRANCH  16  17
HETATM   17  N4  UNL     1      42.298 -66.080  33.487  1.00  0.00    -0.418 N 
ATOM     18  H4  UNL     1      43.150 -66.579  33.233  1.00  0.00     0.153 HD
BRANCH  17  19
HETATM   19  C8  UNL     1      42.222 -65.326  34.680  1.00  0.00     0.139 C 
BRANCH  19  20
HETATM   20  C9  UNL     1      41.666 -63.950  34.608  1.00  0.00     0.183 C 
BRANCH  20  21
HETATM   21  O3  UNL     1      40.482 -63.850  35.300  1.00  0.00    -0.399 OA
ATOM     22  H3  UNL     1      40.190 -62.948  35.359  1.00  0.00     0.209 HD
ENDBRANCH  20  21
ENDBRANCH  19  20
ENDBRANCH  17  19
ENDBRANCH  16  17
ENDBRANCH  15  16
ENDBRANCH  13  15
ENDBRANCH   7  11
BRANCH  10  23
HETATM   23  N6  UNL     1      45.384 -71.982  33.573  1.00  0.00    -0.372 N 
ATOM     24  H6  UNL     1      45.129 -72.939  33.818  1.00  0.00     0.161 HD
BRANCH  23  25
HETATM   25  C11 UNL     1      46.014 -71.251  34.617  1.00  0.00     0.148 C 
BRANCH  25  26
HETATM   26  C12 UNL     1      46.284 -69.811  34.276  1.00  0.00     0.249 C 
BRANCH  26  27
HETATM   27  N7  UNL     1      47.438 -69.676  33.402  1.00  0.00    -0.078 N 
ATOM     28  H73 UNL     1      47.968 -70.546  33.347  1.00  0.00     0.274 HD
ATOM     29  H72 UNL     1      47.159 -69.599  32.424  1.00  0.00     0.274 HD
ATOM     30  H71 UNL     1      48.032 -68.896  33.683  1.00  0.00     0.274 HD
ENDBRANCH  26  27
ENDBRANCH  25  26
ENDBRANCH  23  25
ENDBRANCH  10  23
BRANCH   1  31
HETATM   31  N1  UNL     1      46.993 -72.674  31.694  1.00  0.00    -0.382 N 
ATOM     32  H12 UNL     1      47.672 -72.851  30.953  1.00  0.00     0.157 HD
ATOM     33  H11 UNL     1      46.935 -73.088  32.624  1.00  0.00     0.157 HD
ENDBRANCH   1  31
TORSDOF 12
ENDMDL
MODEL 2
REMARK VINA RESULT: -6.611566813      1.121      1.121
REMARK  12 active torsions:
REMARK  status: ('A' for Active; 'I' for Inactive)
REMARK    1  A    between atoms: N1_1  and  C1_4 
REMARK    2  A    between atoms: C4_10  and  C5_11 
REMARK       I    between atoms: C5_11  and  N3_13 
REMARK    3  A    between atoms: N3_13  and  C6_15 
REMARK    4  A    between atoms: C6_15  and  C7_16 
REMARK    5  A    between atoms: C7_16  and  N4_17 
REMARK    6  A    between atoms: N4_17  and  C8_19 
REMARK    7  A    between atoms: C8_19  and  C9_20 
REMARK    8  A    between atoms: C9_20  and  O3_21 
REMARK    9  A    between atoms: C10_25  and  N6_26 
REMARK   10  A    between atoms: N6_26  and  C11_28 
REMARK   11  A    between atoms: C11_28  and  C12_29 
REMARK   12  A    between atoms: C12_29  and  N7_30 
ROOT
HETATM    1  C1  UNL     1      46.078 -71.801  31.390  1.00  0.00     0.146 C 
HETATM    2  N2  UNL     1      46.214 -71.166  30.193  1.00  0.00    -0.307 N 
ATOM      3  H2  UNL     1      47.048 -71.389  29.652  1.00  0.00     0.170 HD
HETATM    4  C2  UNL     1      45.369 -70.280  29.650  1.00  0.00     0.249 C 
HETATM    5  O1  UNL     1      45.806 -69.530  28.728  1.00  0.00    -0.268 OA
HETATM    6  C3  UNL     1      44.041 -70.065  29.965  1.00  0.00     0.109 C 
HETATM    7  C4  UNL     1      43.419 -70.319  31.165  1.00  0.00     0.107 C 
HETATM    8  N5  UNL     1      43.862 -71.181  32.127  1.00  0.00    -0.335 N 
ATOM      9  H5  UNL     1      43.148 -71.520  32.773  1.00  0.00     0.168 HD
HETATM   10  C10 UNL     1      45.098 -71.647  32.346  1.00  0.00     0.146 C 
ENDROOT
BRANCH   7  11
HETATM   11  C5  UNL     1      42.182 -69.600  31.395  1.00  0.00     0.268 C 
HETATM   12  O2  UNL     1      41.093 -70.227  31.112  1.00  0.00    -0.266 OA
HETATM   13  N3  UNL     1      42.078 -68.280  31.898  1.00  0.00    -0.354 N 
ATOM     14  H3  UNL     1      42.944 -67.787  32.115  1.00  0.00     0.162 HD
BRANCH  13  15
HETATM   15  C6  UNL     1      40.840 -67.584  32.127  1.00  0.00     0.142 C 
BRANCH  15  16
HETATM   16  C7  UNL     1      41.119 -66.164  32.637  1.00  0.00     0.133 C 
BRANCH  16  17
HETATM   17  N4  UNL     1      42.318 -66.107  33.389  1.00  0.00    -0.418 N 
ATOM     18  H4  UNL     1      42.842 -66.954  33.609  1.00  0.00     0.153 HD
BRANCH  17  19
HETATM   19  C8  UNL     1      42.765 -64.839  33.825  1.00  0.00     0.139 C 
BRANCH  19  20
HETATM   20  C9  UNL     1      42.771 -63.721  32.847  1.00  0.00     0.183 C 
BRANCH  20  21
HETATM   21  O3  UNL     1      43.982 -63.626  32.200  1.00  0.00    -0.399 OA
ATOM     22  H3  UNL     1      44.572 -63.037  32.655  1.00  0.00     0.209 HD
ENDBRANCH  20  21
ENDBRANCH  19  20
ENDBRANCH  17  19
ENDBRANCH  16  17
ENDBRANCH  15  16
ENDBRANCH  13  15
ENDBRANCH   7  11
BRANCH  10  23
HETATM   23  N6  UNL     1      45.398 -71.974  33.513  1.00  0.00    -0.372 N 
ATOM     24  H6  UNL     1      45.163 -72.937  33.758  1.00  0.00     0.161 HD
BRANCH  23  25
HETATM   25  C11 UNL     1      46.012 -71.231  34.558  1.00  0.00     0.148 C 
BRANCH  25  26
HETATM   26  C12 UNL     1      46.289 -69.795  34.203  1.00  0.00     0.249 C 
BRANCH  26  27
HETATM   27  N7  UNL     1      47.507 -69.663  33.420  1.00  0.00    -0.078 N 
ATOM     28  H73 UNL     1      48.099 -70.488  33.511  1.00  0.00     0.274 HD
ATOM     29  H72 UNL     1      47.315 -69.715  32.419  1.00  0.00     0.274 HD
ATOM     30  H71 UNL     1      48.015 -68.811  33.658  1.00  0.00     0.274 HD
ENDBRANCH  26  27
ENDBRANCH  25  26
ENDBRANCH  23  25
ENDBRANCH  10  23
BRANCH   1  31
HETATM   31  N1  UNL     1      47.006 -72.660  31.630  1.00  0.00    -0.382 N 
ATOM     32  H12 UNL     1      47.916 -72.296  31.915  1.00  0.00     0.157 HD
ATOM     33  H11 UNL     1      46.712 -73.628  31.507  1.00  0.00     0.157 HD
ENDBRANCH   1  31
TORSDOF 12
ENDMDL
MODEL 3
REMARK VINA RESULT: -6.594156437      1.836      3.492
REMARK  12 active torsions:
REMARK  status: ('A' for Active; 'I' for Inactive)
REMARK    1  A    between atoms: N1_1  and  C1_4 
REMARK    2  A    between atoms: C4_10  and  C5_11 
REMARK       I    between atoms: C5_11  and  N3_13 
REMARK    3  A    between atoms: N3_13  and  C6_15 
REMARK    4  A    between atoms: C6_15  and  C7_16 
REMARK    5  A    between atoms: C7_16  and  N4_17 
REMARK    6  A    between atoms: N4_17  and  C8_19 
REMARK    7  A    between atoms: C8_19  and  C9_20 
REMARK    8  A    between atoms: C9_20  and  O3_21 
REMARK    9  A    between atoms: C10_25  and  N6_26 
REMARK   10  A    between atoms: N6_26  and  C11_28 
REMARK   11  A    between atoms: C11_28  and  C12_29 
REMARK   12  A    between atoms: C12_29  and  N7_30 
ROOT
HETATM    1  C1  UNL     1      46.311 -71.648  31.496  1.00  0.00     0.146 C 
HETATM    2  N2  UNL     1      45.958 -71.985  32.767  1.00  0.00    -0.307 N 
ATOM      3  H2  UNL     1      46.650 -72.503  33.309  1.00  0.00     0.170 HD
HETATM    4  C2  UNL     1      44.802 -71.710  33.384  1.00  0.00     0.249 C 
HETATM    5  O1  UNL     1      44.499 -72.389  34.409  1.00  0.00    -0.268 OA
HETATM    6  C3  UNL     1      43.863 -70.755  33.046  1.00  0.00     0.109 C 
HETATM    7  C4  UNL     1      43.630 -70.220  31.800  1.00  0.00     0.107 C 
HETATM    8  N5  UNL     1      44.509 -70.217  30.756  1.00  0.00    -0.335 N 
ATOM      9  H5  UNL     1      44.341 -69.504  30.045  1.00  0.00     0.168 HD
HETATM   10  C10 UNL     1      45.562 -71.014  30.529  1.00  0.00     0.146 C 
ENDROOT
BRANCH   7  11
HETATM   11  C5  UNL     1      42.330 -69.607  31.614  1.00  0.00     0.268 C 
HETATM   12  O2  UNL     1      41.444 -70.315  31.005  1.00  0.00    -0.266 OA
HETATM   13  N3  UNL     1      41.962 -68.308  32.044  1.00  0.00    -0.354 N 
ATOM     14  H3  UNL     1      42.671 -67.750  32.521  1.00  0.00     0.162 HD
BRANCH  13  15
HETATM   15  C6  UNL     1      40.664 -67.719  31.858  1.00  0.00     0.142 C 
BRANCH  15  16
HETATM   16  C7  UNL     1      40.688 -66.244  32.281  1.00  0.00     0.133 C 
BRANCH  16  17
HETATM   17  N4  UNL     1      41.974 -65.851  32.725  1.00  0.00    -0.418 N 
ATOM     18  H4  UNL     1      42.798 -65.990  32.140  1.00  0.00     0.153 HD
BRANCH  17  19
HETATM   19  C8  UNL     1      42.080 -65.259  34.004  1.00  0.00     0.139 C 
BRANCH  19  20
HETATM   20  C9  UNL     1      40.891 -65.292  34.895  1.00  0.00     0.183 C 
BRANCH  20  21
HETATM   21  O3  UNL     1      40.531 -64.027  35.299  1.00  0.00    -0.399 OA
ATOM     22  H3  UNL     1      39.619 -63.994  35.563  1.00  0.00     0.209 HD
ENDBRANCH  20  21
ENDBRANCH  19  20
ENDBRANCH  17  19
ENDBRANCH  16  17
ENDBRANCH  15  16
ENDBRANCH  13  15
ENDBRANCH   7  11
BRANCH  10  23
HETATM   23  N6  UNL     1      45.902 -71.204  29.343  1.00  0.00    -0.372 N 
ATOM     24  H6  UNL     1      46.409 -72.075  29.181  1.00  0.00     0.161 HD
BRANCH  23  25
HETATM   25  C11 UNL     1      45.702 -70.411  28.180  1.00  0.00     0.148 C 
BRANCH  25  26
HETATM   26  C12 UNL     1      46.127 -71.083  26.903  1.00  0.00     0.249 C 
BRANCH  26  27
HETATM   27  N7  UNL     1      45.062 -71.072  25.913  1.00  0.00    -0.078 N 
ATOM     28  H73 UNL     1      44.282 -70.488  26.211  1.00  0.00     0.274 HD
ATOM     29  H72 UNL     1      45.335 -70.557  25.076  1.00  0.00     0.274 HD
ATOM     30  H71 UNL     1      44.754 -72.017  25.684  1.00  0.00     0.274 HD
ENDBRANCH  26  27
ENDBRANCH  25  26
ENDBRANCH  23  25
ENDBRANCH  10  23
BRANCH   1  31
HETATM   31  N1  UNL     1      47.516 -71.976  31.187  1.00  0.00    -0.382 N 
ATOM     32  H12 UNL     1      47.994 -72.632  31.804  1.00  0.00     0.157 HD
ATOM     33  H11 UNL     1      47.858 -71.532  30.335  1.00  0.00     0.157 HD
ENDBRANCH   1  31
TORSDOF 12
ENDMDL
MODEL 4
REMARK VINA RESULT: -6.469894147      2.484      7.517
REMARK  12 active torsions:
REMARK  status: ('A' for Active; 'I' for Inactive)
REMARK    1  A    between atoms: N1_1  and  C1_4 
REMARK    2  A    between atoms: C4_10  and  C5_11 
REMARK       I    between atoms: C5_11  and  N3_13 
REMARK    3  A    between atoms: N3_13  and  C6_15 
REMARK    4  A    between atoms: C6_15  and  C7_16 
REMARK    5  A    between atoms: C7_16  and  N4_17 
REMARK    6  A    between atoms: N4_17  and  C8_19 
REMARK    7  A    between atoms: C8_19  and  C9_20 
REMARK    8  A    between atoms: C9_20  and  O3_21 
REMARK    9  A    between atoms: C10_25  and  N6_26 
REMARK   10  A    between atoms: N6_26  and  C11_28 
REMARK   11  A    between atoms: C11_28  and  C12_29 
REMARK   12  A    between atoms: C12_29  and  N7_30 
ROOT
HETATM    1  C1  UNL     1      41.380 -63.535  33.371  1.00  0.00     0.146 C 
HETATM    2  N2  UNL     1      40.617 -64.198  34.283  1.00  0.00    -0.307 N 
ATOM      3  H2  UNL     1      40.206 -63.634  35.027  1.00  0.00     0.170 HD
HETATM    4  C2  UNL     1      40.346 -65.509  34.308  1.00  0.00     0.249 C 
HETATM    5  O1  UNL     1      39.934 -66.010  35.395  1.00  0.00    -0.268 OA
HETATM    6  C3  UNL     1      40.458 -66.422  33.277  1.00  0.00     0.109 C 
HETATM    7  C4  UNL     1      41.290 -66.346  32.184  1.00  0.00     0.107 C 
HETATM    8  N5  UNL     1      41.863 -65.208  31.694  1.00  0.00    -0.335 N 
ATOM      9  H5  UNL     1      42.152 -65.250  30.717  1.00  0.00     0.168 HD
HETATM   10  C10 UNL     1      42.101 -64.043  32.311  1.00  0.00     0.146 C 
ENDROOT
BRANCH   7  11
HETATM   11  C5  UNL     1      41.557 -67.602  31.511  1.00  0.00     0.268 C 
HETATM   12  O2  UNL     1      41.253 -67.658  30.262  1.00  0.00    -0.266 OA
HETATM   13  N3  UNL     1      42.117 -68.756  32.112  1.00  0.00    -0.354 N 
ATOM     14  H3  UNL     1      42.350 -68.707  33.104  1.00  0.00     0.162 HD
BRANCH  13  15
HETATM   15  C6  UNL     1      42.382 -69.992  31.426  1.00  0.00     0.142 C 
BRANCH  15  16
HETATM   16  C7  UNL     1      43.894 -70.255  31.377  1.00  0.00     0.133 C 
BRANCH  16  17
HETATM   17  N4  UNL     1      44.489 -69.657  30.239  1.00  0.00    -0.418 N 
ATOM     18  H4  UNL     1      43.992 -68.952  29.694  1.00  0.00     0.153 HD
BRANCH  17  19
HETATM   19  C8  UNL     1      45.793 -70.069  29.882  1.00  0.00     0.139 C 
BRANCH  19  20
HETATM   20  C9  UNL     1      46.805 -70.212  30.960  1.00  0.00     0.183 C 
BRANCH  20  21
HETATM   21  O3  UNL     1      47.956 -69.519  30.664  1.00  0.00    -0.399 OA
ATOM     22  H3  UNL     1      47.926 -68.634  31.007  1.00  0.00     0.209 HD
ENDBRANCH  20  21
ENDBRANCH  19  20
ENDBRANCH  17  19
ENDBRANCH  16  17
ENDBRANCH  15  16
ENDBRANCH  13  15
ENDBRANCH   7  11
BRANCH  10  23
HETATM   23  N6  UNL     1      43.053 -63.349  31.898  1.00  0.00    -0.372 N 
ATOM     24  H6  UNL     1      42.793 -62.631  31.222  1.00  0.00     0.161 HD
BRANCH  23  25
HETATM   25  C11 UNL     1      44.438 -63.393  32.212  1.00  0.00     0.148 C 
BRANCH  25  26
HETATM   26  C12 UNL     1      44.778 -62.806  33.555  1.00  0.00     0.249 C 
BRANCH  26  27
HETATM   27  N7  UNL     1      46.057 -62.114  33.528  1.00  0.00    -0.078 N 
ATOM     28  H73 UNL     1      46.725 -62.589  32.922  1.00  0.00     0.274 HD
ATOM     29  H72 UNL     1      45.991 -61.227  33.029  1.00  0.00     0.274 HD
ATOM     30  H71 UNL     1      46.434 -61.986  34.468  1.00  0.00     0.274 HD
ENDBRANCH  26  27
ENDBRANCH  25  26
ENDBRANCH  23  25
ENDBRANCH  10  23
BRANCH   1  31
HETATM   31  N1  UNL     1      41.410 -62.261  33.547  1.00  0.00    -0.382 N 
ATOM     32  H12 UNL     1      40.714 -61.704  33.050  1.00  0.00     0.157 HD
ATOM     33  H11 UNL     1      42.145 -61.951  34.183  1.00  0.00     0.157 HD
ENDBRANCH   1  31
TORSDOF 12
ENDMDL
MODEL 5
REMARK VINA RESULT: -6.277458032      0.853      1.097
REMARK  12 active torsions:
REMARK  status: ('A' for Active; 'I' for Inactive)
REMARK    1  A    between atoms: N1_1  and  C1_4 
REMARK    2  A    between atoms: C4_10  and  C5_11 
REMARK       I    between atoms: C5_11  and  N3_13 
REMARK    3  A    between atoms: N3_13  and  C6_15 
REMARK    4  A    between atoms: C6_15  and  C7_16 
REMARK    5  A    between atoms: C7_16  and  N4_17 
REMARK    6  A    between atoms: N4_17  and  C8_19 
REMARK    7  A    between atoms: C8_19  and  C9_20 
REMARK    8  A    between atoms: C9_20  and  O3_21 
REMARK    9  A    between atoms: C10_25  and  N6_26 
REMARK   10  A    between atoms: N6_26  and  C11_28 
REMARK   11  A    between atoms: C11_28  and  C12_29 
REMARK   12  A    between atoms: C12_29  and  N7_30 
ROOT
HETATM    1  C1  UNL     1      46.440 -71.408  31.730  1.00  0.00     0.146 C 
HETATM    2  N2  UNL     1      46.525 -70.976  30.441  1.00  0.00    -0.307 N 
ATOM      3  H2  UNL     1      47.386 -71.200  29.942  1.00  0.00     0.170 HD
HETATM    4  C2  UNL     1      45.600 -70.291  29.757  1.00  0.00     0.249 C 
HETATM    5  O1  UNL     1      45.969 -69.668  28.718  1.00  0.00    -0.268 OA
HETATM    6  C3  UNL     1      44.253 -70.166  30.037  1.00  0.00     0.109 C 
HETATM    7  C4  UNL     1      43.644 -70.275  31.266  1.00  0.00     0.107 C 
HETATM    8  N5  UNL     1      44.162 -70.908  32.360  1.00  0.00    -0.335 N 
ATOM      9  H5  UNL     1      43.478 -71.204  33.057  1.00  0.00     0.168 HD
HETATM   10  C10 UNL     1      45.437 -71.197  32.650  1.00  0.00     0.146 C 
ENDROOT
BRANCH   7  11
HETATM   11  C5  UNL     1      42.335 -69.662  31.374  1.00  0.00     0.268 C 
HETATM   12  O2  UNL     1      41.337 -70.368  30.972  1.00  0.00    -0.266 OA
HETATM   13  N3  UNL     1      42.073 -68.364  31.880  1.00  0.00    -0.354 N 
ATOM     14  H3  UNL     1      42.869 -67.809  32.191  1.00  0.00     0.162 HD
BRANCH  13  15
HETATM   15  C6  UNL     1      40.766 -67.775  31.987  1.00  0.00     0.142 C 
BRANCH  15  16
HETATM   16  C7  UNL     1      40.864 -66.387  32.634  1.00  0.00     0.133 C 
BRANCH  16  17
HETATM   17  N4  UNL     1      42.109 -66.202  33.283  1.00  0.00    -0.418 N 
ATOM     18  H4  UNL     1      42.835 -66.918  33.243  1.00  0.00     0.153 HD
BRANCH  17  19
HETATM   19  C8  UNL     1      42.315 -64.995  33.987  1.00  0.00     0.139 C 
BRANCH  19  20
HETATM   20  C9  UNL     1      41.707 -64.855  35.336  1.00  0.00     0.183 C 
BRANCH  20  21
HETATM   21  O3  UNL     1      40.555 -64.104  35.292  1.00  0.00    -0.399 OA
ATOM     22  H3  UNL     1      40.494 -63.518  36.037  1.00  0.00     0.209 HD
ENDBRANCH  20  21
ENDBRANCH  19  20
ENDBRANCH  17  19
ENDBRANCH  16  17
ENDBRANCH  15  16
ENDBRANCH  13  15
ENDBRANCH   7  11
BRANCH  10  23
HETATM   23  N6  UNL     1      45.754 -71.285  33.854  1.00  0.00    -0.372 N 
ATOM     24  H6  UNL     1      45.680 -72.225  34.244  1.00  0.00     0.161 HD
BRANCH  23  25
HETATM   25  C11 UNL     1      46.199 -70.296  34.773  1.00  0.00     0.148 C 
BRANCH  25  26
HETATM   26  C12 UNL     1      46.561 -70.842  36.128  1.00  0.00     0.249 C 
BRANCH  26  27
HETATM   27  N7  UNL     1      46.382 -72.283  36.189  1.00  0.00    -0.078 N 
ATOM     28  H73 UNL     1      46.773 -72.671  37.047  1.00  0.00     0.274 HD
ATOM     29  H72 UNL     1      45.404 -72.533  36.334  1.00  0.00     0.274 HD
ATOM     30  H71 UNL     1      46.766 -72.744  35.364  1.00  0.00     0.274 HD
ENDBRANCH  26  27
ENDBRANCH  25  26
ENDBRANCH  23  25
ENDBRANCH  10  23
BRANCH   1  31
HETATM   31  N1  UNL     1      47.450 -72.109  32.110  1.00  0.00    -0.382 N 
ATOM     32  H12 UNL     1      47.774 -72.842  31.478  1.00  0.00     0.157 HD
ATOM     33  H11 UNL     1      47.819 -71.839  33.021  1.00  0.00     0.157 HD
ENDBRANCH   1  31
TORSDOF 12
ENDMDL
