MODEL 1
REMARK VINA RESULT: -11.000961281      0.000      0.000
REMARK  3 active torsions:
REMARK  status: ('A' for Active; 'I' for Inactive)
REMARK    1  A    between atoms: C13_16  and  C14_17 
REMARK    2  A    between atoms: C17_20  and  O2_21 
REMARK    3  A    between atoms: C26_31  and  C27_32 
ROOT
HETATM    1  C1  UNL     1      11.920  25.297   8.184  1.00  0.00     0.049 C 
HETATM    2  C2  UNL     1      11.327  24.117   8.842  1.00  0.00    -0.049 A 
HETATM    3  C3  UNL     1       9.941  24.038   9.000  1.00  0.00     0.007 A 
HETATM    4  C4  UNL     1       9.410  22.931   9.615  1.00  0.00     0.003 A 
HETATM    5  C5  UNL     1      10.231  21.919  10.066  1.00  0.00     0.030 A 
HETATM    6  C6  UNL     1      11.597  21.993   9.913  1.00  0.00     0.044 A 
HETATM    7  N1  UNL     1      12.584  21.120  10.277  1.00  0.00    -0.354 N 
ATOM      8  H1  UNL     1      12.455  20.225  10.749  1.00  0.00     0.166 HD
HETATM    9  C7  UNL     1      13.751  21.656   9.903  1.00  0.00     0.056 A 
HETATM   10  C8  UNL     1      13.514  22.864   9.302  1.00  0.00     0.055 A 
HETATM   11  C9  UNL     1      12.137  23.099   9.297  1.00  0.00     0.013 A 
HETATM   12  C10 UNL     1      14.780  23.411   8.920  1.00  0.00     0.193 A 
HETATM   13  O1  UNL     1      14.974  24.512   8.341  1.00  0.00    -0.287 OA
HETATM   14  C11 UNL     1      15.816  22.438   9.335  1.00  0.00     0.015 A 
HETATM   15  C12 UNL     1      15.219  21.415   9.908  1.00  0.00    -0.006 A 
HETATM   16  C13 UNL     1      16.011  20.305  10.429  1.00  0.00     0.088 C 
HETATM   17  C20 UNL     1      17.224  20.103   9.589  1.00  0.00    -0.038 A 
HETATM   18  C21 UNL     1      17.730  18.813   9.413  1.00  0.00     0.009 A 
HETATM   19  C22 UNL     1      18.851  18.648   8.636  1.00  0.00     0.001 A 
HETATM   20  C23 UNL     1      19.461  19.733   8.042  1.00  0.00     0.001 A 
HETATM   21  C24 UNL     1      18.981  20.986   8.205  1.00  0.00     0.009 A 
HETATM   22  C25 UNL     1      17.836  21.171   8.997  1.00  0.00    -0.038 A 
HETATM   23  C26 UNL     1      17.285  22.525   9.194  1.00  0.00     0.089 C 
ENDROOT
BRANCH  16  24
HETATM   24  C14 UNL     1      15.287  19.036  10.628  1.00  0.00    -0.045 A 
HETATM   25  C15 UNL     1      14.346  18.557   9.734  1.00  0.00     0.011 A 
HETATM   26  C16 UNL     1      13.721  17.360  10.007  1.00  0.00     0.037 A 
HETATM   27  C17 UNL     1      13.984  16.603  11.130  1.00  0.00     0.065 A 
HETATM   28  C18 UNL     1      14.917  17.085  12.009  1.00  0.00     0.037 A 
HETATM   29  C19 UNL     1      15.557  18.291  11.752  1.00  0.00     0.011 A 
BRANCH  27  30
HETATM   30  O2  UNL     1      13.331  15.397  11.371  1.00  0.00    -0.361 OA
ATOM     31  H2  UNL     1      13.131  14.787  10.670  1.00  0.00     0.217 HD
ENDBRANCH  27  30
ENDBRANCH  16  24
BRANCH  23  32
HETATM   32  C27 UNL     1      17.733  23.478   8.173  1.00  0.00    -0.045 A 
HETATM   33  C28 UNL     1      18.485  24.575   8.554  1.00  0.00     0.008 A 
HETATM   34  C29 UNL     1      18.953  25.494   7.640  1.00  0.00     0.001 A 
HETATM   35  C30 UNL     1      18.684  25.350   6.296  1.00  0.00     0.000 A 
HETATM   36  C31 UNL     1      17.938  24.264   5.897  1.00  0.00     0.001 A 
HETATM   37  C32 UNL     1      17.482  23.360   6.827  1.00  0.00     0.008 A 
ENDBRANCH  23  32
TORSDOF 3
ENDMDL
MODEL 2
REMARK VINA RESULT: -10.322810928      4.152      7.857
REMARK  3 active torsions:
REMARK  status: ('A' for Active; 'I' for Inactive)
REMARK    1  A    between atoms: C13_16  and  C14_17 
REMARK    2  A    between atoms: C17_20  and  O2_21 
REMARK    3  A    between atoms: C26_31  and  C27_32 
ROOT
HETATM    1  C1  UNL     1      20.531  18.111  14.747  1.00  0.00     0.049 C 
HETATM    2  C2  UNL     1      19.624  17.343  15.621  1.00  0.00    -0.049 A 
HETATM    3  C3  UNL     1      19.977  17.118  16.955  1.00  0.00     0.007 A 
HETATM    4  C4  UNL     1      19.118  16.401  17.751  1.00  0.00     0.003 A 
HETATM    5  C5  UNL     1      17.932  15.914  17.243  1.00  0.00     0.030 A 
HETATM    6  C6  UNL     1      17.582  16.133  15.929  1.00  0.00     0.044 A 
HETATM    7  N1  UNL     1      16.473  15.750  15.226  1.00  0.00    -0.354 N 
ATOM      8  H1  UNL     1      15.687  15.209  15.586  1.00  0.00     0.166 HD
HETATM    9  C7  UNL     1      16.609  16.214  13.979  1.00  0.00     0.056 A 
HETATM   10  C8  UNL     1      17.797  16.891  13.883  1.00  0.00     0.055 A 
HETATM   11  C9  UNL     1      18.436  16.851  15.124  1.00  0.00     0.013 A 
HETATM   12  C10 UNL     1      17.913  17.367  12.539  1.00  0.00     0.193 A 
HETATM   13  O1  UNL     1      18.870  18.033  12.062  1.00  0.00    -0.287 OA
HETATM   14  C11 UNL     1      16.698  16.928  11.816  1.00  0.00     0.015 A 
HETATM   15  C12 UNL     1      15.937  16.257  12.653  1.00  0.00    -0.006 A 
HETATM   16  C13 UNL     1      14.671  15.691  12.197  1.00  0.00     0.088 C 
HETATM   17  C20 UNL     1      14.065  16.567  11.156  1.00  0.00    -0.038 A 
HETATM   18  C21 UNL     1      12.675  16.671  11.070  1.00  0.00     0.009 A 
HETATM   19  C22 UNL     1      12.135  17.483  10.102  1.00  0.00     0.001 A 
HETATM   20  C23 UNL     1      12.950  18.180   9.236  1.00  0.00     0.001 A 
HETATM   21  C24 UNL     1      14.296  18.089   9.309  1.00  0.00     0.009 A 
HETATM   22  C25 UNL     1      14.863  17.262  10.292  1.00  0.00    -0.038 A 
HETATM   23  C26 UNL     1      16.329  17.141  10.400  1.00  0.00     0.089 C 
ENDROOT
BRANCH  16  24
HETATM   24  C14 UNL     1      13.693  15.368  13.252  1.00  0.00    -0.045 A 
HETATM   25  C15 UNL     1      13.350  16.253  14.258  1.00  0.00     0.011 A 
HETATM   26  C16 UNL     1      12.426  15.861  15.201  1.00  0.00     0.037 A 
HETATM   27  C17 UNL     1      11.816  14.623  15.198  1.00  0.00     0.065 A 
HETATM   28  C18 UNL     1      12.161  13.754  14.198  1.00  0.00     0.037 A 
HETATM   29  C19 UNL     1      13.092  14.131  13.239  1.00  0.00     0.011 A 
BRANCH  27  30
HETATM   30  O2  UNL     1      10.885  14.263  16.170  1.00  0.00    -0.361 OA
ATOM     31  H2  UNL     1       9.950  14.332  16.017  1.00  0.00     0.217 HD
ENDBRANCH  27  30
ENDBRANCH  16  24
BRANCH  23  32
HETATM   32  C27 UNL     1      17.043  18.247   9.755  1.00  0.00    -0.045 A 
HETATM   33  C28 UNL     1      18.056  17.967   8.855  1.00  0.00     0.008 A 
HETATM   34  C29 UNL     1      18.749  18.962   8.200  1.00  0.00     0.001 A 
HETATM   35  C30 UNL     1      18.453  20.290   8.423  1.00  0.00     0.000 A 
HETATM   36  C31 UNL     1      17.448  20.589   9.314  1.00  0.00     0.001 A 
HETATM   37  C32 UNL     1      16.769  19.579   9.956  1.00  0.00     0.008 A 
ENDBRANCH  23  32
TORSDOF 3
ENDMDL
MODEL 3
REMARK VINA RESULT: -9.636748135      4.064      7.784
REMARK  3 active torsions:
REMARK  status: ('A' for Active; 'I' for Inactive)
REMARK    1  A    between atoms: C13_16  and  C14_17 
REMARK    2  A    between atoms: C17_20  and  O2_21 
REMARK    3  A    between atoms: C26_31  and  C27_32 
ROOT
HETATM    1  C1  UNL     1      20.620  18.117  14.533  1.00  0.00     0.049 C 
HETATM    2  C2  UNL     1      19.744  17.320  15.413  1.00  0.00    -0.049 A 
HETATM    3  C3  UNL     1      20.133  17.070  16.732  1.00  0.00     0.007 A 
HETATM    4  C4  UNL     1      19.303  16.325  17.534  1.00  0.00     0.003 A 
HETATM    5  C5  UNL     1      18.110  15.836  17.045  1.00  0.00     0.030 A 
HETATM    6  C6  UNL     1      17.723  16.080  15.746  1.00  0.00     0.044 A 
HETATM    7  N1  UNL     1      16.601  15.700  15.063  1.00  0.00    -0.354 N 
ATOM      8  H1  UNL     1      15.831  15.142  15.431  1.00  0.00     0.166 HD
HETATM    9  C7  UNL     1      16.700  16.193  13.824  1.00  0.00     0.056 A 
HETATM   10  C8  UNL     1      17.878  16.885  13.713  1.00  0.00     0.055 A 
HETATM   11  C9  UNL     1      18.549  16.826  14.936  1.00  0.00     0.013 A 
HETATM   12  C10 UNL     1      17.954  17.392  12.377  1.00  0.00     0.193 A 
HETATM   13  O1  UNL     1      18.891  18.080  11.891  1.00  0.00    -0.287 OA
HETATM   14  C11 UNL     1      16.726  16.956  11.676  1.00  0.00     0.015 A 
HETATM   15  C12 UNL     1      15.994  16.257  12.516  1.00  0.00    -0.006 A 
HETATM   16  C13 UNL     1      14.722  15.688  12.080  1.00  0.00     0.088 C 
HETATM   17  C20 UNL     1      14.081  16.579  11.075  1.00  0.00    -0.038 A 
HETATM   18  C21 UNL     1      12.687  16.669  11.027  1.00  0.00     0.009 A 
HETATM   19  C22 UNL     1      12.114  17.496  10.092  1.00  0.00     0.001 A 
HETATM   20  C23 UNL     1      12.899  18.221   9.221  1.00  0.00     0.001 A 
HETATM   21  C24 UNL     1      14.247  18.144   9.257  1.00  0.00     0.009 A 
HETATM   22  C25 UNL     1      14.848  17.303  10.207  1.00  0.00    -0.038 A 
HETATM   23  C26 UNL     1      16.317  17.195  10.275  1.00  0.00     0.089 C 
ENDROOT
BRANCH  16  24
HETATM   24  C14 UNL     1      13.776  15.330  13.153  1.00  0.00    -0.045 A 
HETATM   25  C15 UNL     1      13.100  14.124  13.190  1.00  0.00     0.011 A 
HETATM   26  C16 UNL     1      12.234  13.881  14.234  1.00  0.00     0.037 A 
HETATM   27  C17 UNL     1      12.001  14.780  15.254  1.00  0.00     0.065 A 
HETATM   28  C18 UNL     1      12.675  15.971  15.209  1.00  0.00     0.037 A 
HETATM   29  C19 UNL     1      13.551  16.235  14.164  1.00  0.00     0.011 A 
BRANCH  27  30
HETATM   30  O2  UNL     1      11.118  14.497  16.293  1.00  0.00    -0.361 OA
ATOM     31  H2  UNL     1      11.416  14.394  17.189  1.00  0.00     0.217 HD
ENDBRANCH  27  30
ENDBRANCH  16  24
BRANCH  23  32
HETATM   32  C27 UNL     1      17.002  18.324   9.636  1.00  0.00    -0.045 A 
HETATM   33  C28 UNL     1      16.631  19.615   9.963  1.00  0.00     0.008 A 
HETATM   34  C29 UNL     1      17.251  20.716   9.413  1.00  0.00     0.001 A 
HETATM   35  C30 UNL     1      18.277  20.566   8.504  1.00  0.00     0.000 A 
HETATM   36  C31 UNL     1      18.661  19.289   8.166  1.00  0.00     0.001 A 
HETATM   37  C32 UNL     1      18.028  18.205   8.728  1.00  0.00     0.008 A 
ENDBRANCH  23  32
TORSDOF 3
ENDMDL
MODEL 4
REMARK VINA RESULT: -9.483899044      2.035      5.808
REMARK  3 active torsions:
REMARK  status: ('A' for Active; 'I' for Inactive)
REMARK    1  A    between atoms: C13_16  and  C14_17 
REMARK    2  A    between atoms: C17_20  and  O2_21 
REMARK    3  A    between atoms: C26_31  and  C27_32 
ROOT
HETATM    1  C1  UNL     1      18.411  18.895   8.901  1.00  0.00     0.049 C 
HETATM    2  C2  UNL     1      17.101  18.491   9.449  1.00  0.00    -0.049 A 
HETATM    3  C3  UNL     1      16.966  17.245  10.065  1.00  0.00     0.007 A 
HETATM    4  C4  UNL     1      15.738  16.889  10.568  1.00  0.00     0.003 A 
HETATM    5  C5  UNL     1      14.663  17.746  10.465  1.00  0.00     0.030 A 
HETATM    6  C6  UNL     1      14.793  18.975   9.858  1.00  0.00     0.044 A 
HETATM    7  N1  UNL     1      13.876  19.968   9.649  1.00  0.00    -0.354 N 
ATOM      8  H1  UNL     1      12.895  19.952   9.927  1.00  0.00     0.166 HD
HETATM    9  C7  UNL     1      14.503  20.965   9.014  1.00  0.00     0.056 A 
HETATM   10  C8  UNL     1      15.813  20.613   8.817  1.00  0.00     0.055 A 
HETATM   11  C9  UNL     1      16.020  19.340   9.352  1.00  0.00     0.013 A 
HETATM   12  C10 UNL     1      16.450  21.696   8.132  1.00  0.00     0.193 A 
HETATM   13  O1  UNL     1      17.656  21.747   7.773  1.00  0.00    -0.287 OA
HETATM   14  C11 UNL     1      15.424  22.743   7.925  1.00  0.00     0.015 A 
HETATM   15  C12 UNL     1      14.289  22.320   8.438  1.00  0.00    -0.006 A 
HETATM   16  C13 UNL     1      13.095  23.156   8.361  1.00  0.00     0.088 C 
HETATM   17  C20 UNL     1      13.472  24.595   8.436  1.00  0.00    -0.038 A 
HETATM   18  C21 UNL     1      12.607  25.499   9.057  1.00  0.00     0.009 A 
HETATM   19  C22 UNL     1      12.972  26.822   9.115  1.00  0.00     0.001 A 
HETATM   20  C23 UNL     1      14.167  27.246   8.573  1.00  0.00     0.001 A 
HETATM   21  C24 UNL     1      15.013  26.381   7.970  1.00  0.00     0.009 A 
HETATM   22  C25 UNL     1      14.653  25.025   7.903  1.00  0.00    -0.038 A 
HETATM   23  C26 UNL     1      15.553  24.054   7.253  1.00  0.00     0.089 C 
ENDROOT
BRANCH  16  24
HETATM   24  C14 UNL     1      12.024  22.838   9.323  1.00  0.00    -0.045 A 
HETATM   25  C15 UNL     1      12.253  22.664  10.676  1.00  0.00     0.011 A 
HETATM   26  C16 UNL     1      11.187  22.368  11.497  1.00  0.00     0.037 A 
HETATM   27  C17 UNL     1       9.891  22.235  11.042  1.00  0.00     0.065 A 
HETATM   28  C18 UNL     1       9.674  22.409   9.701  1.00  0.00     0.037 A 
HETATM   29  C19 UNL     1      10.736  22.706   8.857  1.00  0.00     0.011 A 
BRANCH  27  30
HETATM   30  O2  UNL     1       8.839  21.935  11.904  1.00  0.00    -0.361 OA
ATOM     31  H2  UNL     1       8.988  21.567  12.767  1.00  0.00     0.217 HD
ENDBRANCH  27  30
ENDBRANCH  16  24
BRANCH  23  32
HETATM   32  C27 UNL     1      16.933  24.538   7.145  1.00  0.00    -0.045 A 
HETATM   33  C28 UNL     1      17.607  24.402   5.944  1.00  0.00     0.008 A 
HETATM   34  C29 UNL     1      18.897  24.856   5.774  1.00  0.00     0.001 A 
HETATM   35  C30 UNL     1      19.570  25.469   6.808  1.00  0.00     0.000 A 
HETATM   36  C31 UNL     1      18.917  25.614   8.011  1.00  0.00     0.001 A 
HETATM   37  C32 UNL     1      17.629  25.154   8.158  1.00  0.00     0.008 A 
ENDBRANCH  23  32
TORSDOF 3
ENDMDL
MODEL 5
REMARK VINA RESULT: -9.377185072      1.938      7.864
REMARK  3 active torsions:
REMARK  status: ('A' for Active; 'I' for Inactive)
REMARK    1  A    between atoms: C13_16  and  C14_17 
REMARK    2  A    between atoms: C17_20  and  O2_21 
REMARK    3  A    between atoms: C26_31  and  C27_32 
ROOT
HETATM    1  C1  UNL     1      15.920  17.093  10.040  1.00  0.00     0.049 C 
HETATM    2  C2  UNL     1      17.118  17.788   9.529  1.00  0.00    -0.049 A 
HETATM    3  C3  UNL     1      18.284  17.060   9.280  1.00  0.00     0.007 A 
HETATM    4  C4  UNL     1      19.387  17.727   8.805  1.00  0.00     0.003 A 
HETATM    5  C5  UNL     1      19.341  19.086   8.578  1.00  0.00     0.030 A 
HETATM    6  C6  UNL     1      18.193  19.806   8.823  1.00  0.00     0.044 A 
HETATM    7  N1  UNL     1      17.927  21.139   8.672  1.00  0.00    -0.354 N 
ATOM      8  H1  UNL     1      18.577  21.850   8.335  1.00  0.00     0.166 HD
HETATM    9  C7  UNL     1      16.659  21.340   9.047  1.00  0.00     0.056 A 
HETATM   10  C8  UNL     1      16.115  20.144   9.436  1.00  0.00     0.055 A 
HETATM   11  C9  UNL     1      17.083  19.146   9.299  1.00  0.00     0.013 A 
HETATM   12  C10 UNL     1      14.765  20.395   9.836  1.00  0.00     0.193 A 
HETATM   13  O1  UNL     1      13.939  19.542  10.258  1.00  0.00    -0.287 OA
HETATM   14  C11 UNL     1      14.522  21.845   9.660  1.00  0.00     0.015 A 
HETATM   15  C12 UNL     1      15.624  22.397   9.200  1.00  0.00    -0.006 A 
HETATM   16  C13 UNL     1      15.671  23.834   8.946  1.00  0.00     0.088 C 
HETATM   17  C20 UNL     1      14.335  24.318   8.499  1.00  0.00    -0.038 A 
HETATM   18  C21 UNL     1      14.258  25.371   7.583  1.00  0.00     0.009 A 
HETATM   19  C22 UNL     1      13.017  25.803   7.184  1.00  0.00     0.001 A 
HETATM   20  C23 UNL     1      11.874  25.210   7.675  1.00  0.00     0.001 A 
HETATM   21  C24 UNL     1      11.935  24.191   8.560  1.00  0.00     0.009 A 
HETATM   22  C25 UNL     1      13.197  23.737   8.979  1.00  0.00    -0.038 A 
HETATM   23  C26 UNL     1      13.299  22.626   9.943  1.00  0.00     0.089 C 
ENDROOT
BRANCH  16  24
HETATM   24  C14 UNL     1      16.734  24.292   8.033  1.00  0.00    -0.045 A 
HETATM   25  C15 UNL     1      16.796  23.921   6.702  1.00  0.00     0.011 A 
HETATM   26  C16 UNL     1      17.828  24.400   5.927  1.00  0.00     0.037 A 
HETATM   27  C17 UNL     1      18.814  25.238   6.407  1.00  0.00     0.065 A 
HETATM   28  C18 UNL     1      18.745  25.599   7.726  1.00  0.00     0.037 A 
HETATM   29  C19 UNL     1      17.712  25.126   8.524  1.00  0.00     0.011 A 
BRANCH  27  30
HETATM   30  O2  UNL     1      19.843  25.701   5.591  1.00  0.00    -0.361 OA
ATOM     31  H2  UNL     1      20.533  26.262   5.926  1.00  0.00     0.217 HD
ENDBRANCH  27  30
ENDBRANCH  16  24
BRANCH  23  32
HETATM   32  C27 UNL     1      12.077  21.819  10.018  1.00  0.00    -0.045 A 
HETATM   33  C28 UNL     1      10.947  22.353  10.611  1.00  0.00     0.008 A 
HETATM   34  C29 UNL     1       9.763  21.653  10.692  1.00  0.00     0.001 A 
HETATM   35  C30 UNL     1       9.662  20.378  10.178  1.00  0.00     0.000 A 
HETATM   36  C31 UNL     1      10.775  19.829   9.583  1.00  0.00     0.001 A 
HETATM   37  C32 UNL     1      11.946  20.547   9.514  1.00  0.00     0.008 A 
ENDBRANCH  23  32
TORSDOF 3
ENDMDL
