MODEL 1
REMARK VINA RESULT: -4.152738661      0.000      0.000
REMARK  4 active torsions:
REMARK  status: ('A' for Active; 'I' for Inactive)
REMARK    1  A    between atoms: S1_2  and  C2_3 
REMARK    2  A    between atoms: C2_3  and  C3_4 
REMARK    3  A    between atoms: C3_4  and  C4_5 
REMARK    4  A    between atoms: C4_5  and  N1_6 
ROOT
HETATM    1  N1  UNL     1     -35.555 -16.128   4.961  1.00  0.00    -0.370 N 
HETATM    2  C5  UNL     1     -34.589 -17.153   5.024  1.00  0.00     0.096 C 
HETATM    3  C6  UNL     1     -35.257 -18.520   5.052  1.00  0.00     0.227 C 
HETATM    4  C7  UNL     1     -35.973 -18.585   6.391  1.00  0.00     0.077 C 
HETATM    5  C8  UNL     1     -37.063 -17.869   5.661  1.00  0.00     0.227 C 
HETATM    6  C9  UNL     1     -36.812 -16.377   5.522  1.00  0.00     0.096 C 
HETATM    7  N2  UNL     1     -36.564 -18.482   4.432  1.00  0.00    -0.058 N 
ATOM      8  H21 UNL     1     -36.992 -19.328   4.056  1.00  0.00     0.278 HD
ATOM      9  H22 UNL     1     -36.703 -18.033   3.527  1.00  0.00     0.278 HD
ENDROOT
BRANCH   1  10
HETATM   10  C4  UNL     1     -35.204 -14.870   4.477  1.00  0.00     0.128 C 
BRANCH  10  11
HETATM   11  C3  UNL     1     -34.484 -15.058   3.131  1.00  0.00     0.030 C 
BRANCH  11  12
HETATM   12  C2  UNL     1     -35.071 -14.097   2.114  1.00  0.00     0.075 C 
BRANCH  12  13
HETATM   13  S1  UNL     1     -36.138 -14.918   0.921  1.00  0.00    -0.173 SA
HETATM   14  C1  UNL     1     -36.902 -16.420   1.556  1.00  0.00     0.089 C 
ENDBRANCH  12  13
ENDBRANCH  11  12
ENDBRANCH  10  11
ENDBRANCH   1  10
TORSDOF 4
ENDMDL
MODEL 2
REMARK VINA RESULT: -3.921145352      1.469      2.103
REMARK  4 active torsions:
REMARK  status: ('A' for Active; 'I' for Inactive)
REMARK    1  A    between atoms: S1_2  and  C2_3 
REMARK    2  A    between atoms: C2_3  and  C3_4 
REMARK    3  A    between atoms: C3_4  and  C4_5 
REMARK    4  A    between atoms: C4_5  and  N1_6 
ROOT
HETATM    1  N1  UNL     1     -35.165 -16.226   4.192  1.00  0.00    -0.370 N 
HETATM    2  C5  UNL     1     -34.405 -17.303   4.692  1.00  0.00     0.096 C 
HETATM    3  C6  UNL     1     -35.310 -18.466   5.075  1.00  0.00     0.227 C 
HETATM    4  C7  UNL     1     -36.108 -17.972   6.270  1.00  0.00     0.077 C 
HETATM    5  C8  UNL     1     -37.003 -17.386   5.225  1.00  0.00     0.227 C 
HETATM    6  C9  UNL     1     -36.479 -16.081   4.649  1.00  0.00     0.096 C 
HETATM    7  N2  UNL     1     -36.547 -18.442   4.325  1.00  0.00    -0.058 N 
ATOM      8  H21 UNL     1     -37.096 -19.291   4.190  1.00  0.00     0.278 HD
ATOM      9  H22 UNL     1     -36.546 -18.306   3.314  1.00  0.00     0.278 HD
ENDROOT
BRANCH   1  10
HETATM   10  C4  UNL     1     -34.563 -15.269   3.377  1.00  0.00     0.128 C 
BRANCH  10  11
HETATM   11  C3  UNL     1     -35.428 -15.102   2.115  1.00  0.00     0.030 C 
BRANCH  11  12
HETATM   12  C2  UNL     1     -35.361 -13.658   1.654  1.00  0.00     0.075 C 
BRANCH  12  13
HETATM   13  S1  UNL     1     -34.138 -12.698   2.559  1.00  0.00    -0.173 SA
HETATM   14  C1  UNL     1     -34.819 -11.227   3.346  1.00  0.00     0.089 C 
ENDBRANCH  12  13
ENDBRANCH  11  12
ENDBRANCH  10  11
ENDBRANCH   1  10
TORSDOF 4
ENDMDL
MODEL 3
REMARK VINA RESULT: -3.831186416      3.306      5.399
REMARK  4 active torsions:
REMARK  status: ('A' for Active; 'I' for Inactive)
REMARK    1  A    between atoms: S1_2  and  C2_3 
REMARK    2  A    between atoms: C2_3  and  C3_4 
REMARK    3  A    between atoms: C3_4  and  C4_5 
REMARK    4  A    between atoms: C4_5  and  N1_6 
ROOT
HETATM    1  N1  UNL     1     -34.804 -12.504   4.004  1.00  0.00    -0.370 N 
HETATM    2  C5  UNL     1     -35.244 -12.335   5.332  1.00  0.00     0.096 C 
HETATM    3  C6  UNL     1     -36.097 -11.080   5.460  1.00  0.00     0.227 C 
HETATM    4  C7  UNL     1     -35.140  -9.924   5.222  1.00  0.00     0.077 C 
HETATM    5  C8  UNL     1     -35.429 -10.191   3.780  1.00  0.00     0.227 C 
HETATM    6  C9  UNL     1     -34.639 -11.360   3.216  1.00  0.00     0.096 C 
HETATM    7  N2  UNL     1     -36.718 -10.735   4.199  1.00  0.00    -0.058 N 
ATOM      8  H21 UNL     1     -37.564 -10.165   4.170  1.00  0.00     0.278 HD
ATOM      9  H22 UNL     1     -37.198 -11.439   3.640  1.00  0.00     0.278 HD
ENDROOT
BRANCH   1  10
HETATM   10  C4  UNL     1     -34.417 -13.765   3.555  1.00  0.00     0.128 C 
BRANCH  10  11
HETATM   11  C3  UNL     1     -35.162 -14.821   4.391  1.00  0.00     0.030 C 
BRANCH  11  12
HETATM   12  C2  UNL     1     -35.157 -16.141   3.643  1.00  0.00     0.075 C 
BRANCH  12  13
HETATM   13  S1  UNL     1     -36.621 -16.365   2.623  1.00  0.00    -0.173 SA
HETATM   14  C1  UNL     1     -36.495 -15.582   1.006  1.00  0.00     0.089 C 
ENDBRANCH  12  13
ENDBRANCH  11  12
ENDBRANCH  10  11
ENDBRANCH   1  10
TORSDOF 4
ENDMDL
MODEL 4
REMARK VINA RESULT: -3.803199878      3.194      5.136
REMARK  4 active torsions:
REMARK  status: ('A' for Active; 'I' for Inactive)
REMARK    1  A    between atoms: S1_2  and  C2_3 
REMARK    2  A    between atoms: C2_3  and  C3_4 
REMARK    3  A    between atoms: C3_4  and  C4_5 
REMARK    4  A    between atoms: C4_5  and  N1_6 
ROOT
HETATM    1  N1  UNL     1     -34.904 -11.997   3.338  1.00  0.00    -0.370 N 
HETATM    2  C5  UNL     1     -34.599 -12.634   4.558  1.00  0.00     0.096 C 
HETATM    3  C6  UNL     1     -35.416 -12.037   5.695  1.00  0.00     0.227 C 
HETATM    4  C7  UNL     1     -34.893 -10.620   5.860  1.00  0.00     0.077 C 
HETATM    5  C8  UNL     1     -35.858 -10.307   4.762  1.00  0.00     0.227 C 
HETATM    6  C9  UNL     1     -35.334 -10.667   3.382  1.00  0.00     0.096 C 
HETATM    7  N2  UNL     1     -36.647 -11.452   5.209  1.00  0.00    -0.058 N 
ATOM      8  H21 UNL     1     -37.450 -11.328   5.827  1.00  0.00     0.278 HD
ATOM      9  H22 UNL     1     -37.250 -11.959   4.562  1.00  0.00     0.278 HD
ENDROOT
BRANCH   1  10
HETATM   10  C4  UNL     1     -34.647 -12.645   2.132  1.00  0.00     0.128 C 
BRANCH  10  11
HETATM   11  C3  UNL     1     -34.967 -14.139   2.312  1.00  0.00     0.030 C 
BRANCH  11  12
HETATM   12  C2  UNL     1     -35.887 -14.589   1.193  1.00  0.00     0.075 C 
BRANCH  12  13
HETATM   13  S1  UNL     1     -36.664 -16.176   1.531  1.00  0.00    -0.173 SA
HETATM   14  C1  UNL     1     -36.590 -16.657   3.265  1.00  0.00     0.089 C 
ENDBRANCH  12  13
ENDBRANCH  11  12
ENDBRANCH  10  11
ENDBRANCH   1  10
TORSDOF 4
ENDMDL
MODEL 5
REMARK VINA RESULT: -3.796610643      2.032      2.543
REMARK  4 active torsions:
REMARK  status: ('A' for Active; 'I' for Inactive)
REMARK    1  A    between atoms: S1_2  and  C2_3 
REMARK    2  A    between atoms: C2_3  and  C3_4 
REMARK    3  A    between atoms: C3_4  and  C4_5 
REMARK    4  A    between atoms: C4_5  and  N1_6 
ROOT
HETATM    1  N1  UNL     1     -35.458 -16.070   3.603  1.00  0.00    -0.370 N 
HETATM    2  C5  UNL     1     -34.319 -16.641   4.206  1.00  0.00     0.096 C 
HETATM    3  C6  UNL     1     -34.690 -17.911   4.960  1.00  0.00     0.227 C 
HETATM    4  C7  UNL     1     -35.548 -17.444   6.125  1.00  0.00     0.077 C 
HETATM    5  C8  UNL     1     -36.656 -17.501   5.123  1.00  0.00     0.227 C 
HETATM    6  C9  UNL     1     -36.700 -16.289   4.207  1.00  0.00     0.096 C 
HETATM    7  N2  UNL     1     -35.884 -18.519   4.414  1.00  0.00    -0.058 N 
ATOM      8  H21 UNL     1     -36.076 -19.512   4.548  1.00  0.00     0.278 HD
ATOM      9  H22 UNL     1     -35.992 -18.655   3.409  1.00  0.00     0.278 HD
ENDROOT
BRANCH   1  10
HETATM   10  C4  UNL     1     -35.311 -15.204   2.521  1.00  0.00     0.128 C 
BRANCH  10  11
HETATM   11  C3  UNL     1     -34.242 -14.160   2.884  1.00  0.00     0.030 C 
BRANCH  11  12
HETATM   12  C2  UNL     1     -34.648 -12.813   2.316  1.00  0.00     0.075 C 
BRANCH  12  13
HETATM   13  S1  UNL     1     -34.551 -11.491   3.532  1.00  0.00    -0.173 SA
HETATM   14  C1  UNL     1     -35.902 -10.305   3.412  1.00  0.00     0.089 C 
ENDBRANCH  12  13
ENDBRANCH  11  12
ENDBRANCH  10  11
ENDBRANCH   1  10
TORSDOF 4
ENDMDL
