MODEL 1
REMARK VINA RESULT: -6.752818393      0.000      0.000
REMARK  4 active torsions:
REMARK  status: ('A' for Active; 'I' for Inactive)
REMARK    1  A    between atoms: N2_6  and  C4_8 
REMARK    2  A    between atoms: C4_8  and  C5_9 
REMARK    3  A    between atoms: C5_9  and  C6_10 
REMARK    4  A    between atoms: N3_14  and  O1_15 
ROOT
HETATM    1  C1  UNL     1      20.531  -0.113  58.685  1.00  0.00     0.070 C 
HETATM    2  C2  UNL     1      20.849   0.131  57.231  1.00  0.00     0.033 A 
HETATM    3  N1  UNL     1      21.330   1.349  56.955  1.00  0.00    -0.338 N 
ATOM      4  H1  UNL     1      21.437   1.992  57.739  1.00  0.00     0.168 HD
HETATM    5  C3  UNL     1      21.682   1.798  55.760  1.00  0.00     0.163 A 
HETATM    6  N2  UNL     1      22.140   2.952  55.477  1.00  0.00    -0.369 N 
ATOM      7  H2  UNL     1      22.359   3.130  54.497  1.00  0.00     0.161 HD
HETATM    8  S1  UNL     1      21.475   0.663  54.500  1.00  0.00     0.053 SA
HETATM    9  N3  UNL     1      20.856  -0.835  55.021  1.00  0.00    -0.193 N 
HETATM   10  C9  UNL     1      20.629  -0.876  56.349  1.00  0.00     0.066 A 
HETATM   11  C10 UNL     1      20.079  -2.185  56.858  1.00  0.00     0.074 C 
ENDROOT
BRANCH   6  12
HETATM   12  C4  UNL     1      22.378   4.020  56.392  1.00  0.00     0.122 C 
BRANCH  12  13
HETATM   13  C5  UNL     1      21.130   4.638  56.951  1.00  0.00     0.023 C 
BRANCH  13  14
HETATM   14  C6  UNL     1      20.958   5.998  56.294  1.00  0.00    -0.021 C 
HETATM   15  C7  UNL     1      19.989   5.958  55.153  1.00  0.00     0.009 C 
HETATM   16  C8  UNL     1      20.478   7.031  57.289  1.00  0.00     0.009 C 
ENDBRANCH  13  14
ENDBRANCH  12  13
ENDBRANCH   6  12
BRANCH   9  17
HETATM   17  O1  UNL     1      20.606  -1.902  54.187  1.00  0.00    -0.276 OA
ATOM     18  H1  UNL     1      20.374  -2.772  54.488  1.00  0.00     0.246 HD
ENDBRANCH   9  17
TORSDOF 4
ENDMDL
MODEL 2
REMARK VINA RESULT: -6.439641407      1.072      1.445
REMARK  4 active torsions:
REMARK  status: ('A' for Active; 'I' for Inactive)
REMARK    1  A    between atoms: N2_6  and  C4_8 
REMARK    2  A    between atoms: C4_8  and  C5_9 
REMARK    3  A    between atoms: C5_9  and  C6_10 
REMARK    4  A    between atoms: N3_14  and  O1_15 
ROOT
HETATM    1  C1  UNL     1      20.870  -0.782  58.532  1.00  0.00     0.070 C 
HETATM    2  C2  UNL     1      20.906  -0.564  57.039  1.00  0.00     0.033 A 
HETATM    3  N1  UNL     1      21.444   0.599  56.651  1.00  0.00    -0.338 N 
ATOM      4  H1  UNL     1      21.776   1.222  57.387  1.00  0.00     0.168 HD
HETATM    5  C3  UNL     1      21.586   1.016  55.402  1.00  0.00     0.163 A 
HETATM    6  N2  UNL     1      22.094   2.116  55.013  1.00  0.00    -0.369 N 
ATOM      7  H2  UNL     1      22.124   2.277  54.006  1.00  0.00     0.161 HD
HETATM    8  S1  UNL     1      21.007  -0.085  54.230  1.00  0.00     0.053 SA
HETATM    9  N3  UNL     1      20.356  -1.512  54.891  1.00  0.00    -0.193 N 
HETATM   10  C9  UNL     1      20.406  -1.537  56.238  1.00  0.00     0.066 A 
HETATM   11  C10 UNL     1      19.839  -2.783  56.870  1.00  0.00     0.074 C 
ENDROOT
BRANCH   6  12
HETATM   12  C4  UNL     1      22.625   3.149  55.842  1.00  0.00     0.122 C 
BRANCH  12  13
HETATM   13  C5  UNL     1      21.863   4.440  55.777  1.00  0.00     0.023 C 
BRANCH  13  14
HETATM   14  C6  UNL     1      21.172   4.632  57.117  1.00  0.00    -0.021 C 
HETATM   15  C7  UNL     1      21.776   3.784  58.192  1.00  0.00     0.009 C 
HETATM   16  C8  UNL     1      21.229   6.077  57.562  1.00  0.00     0.009 C 
ENDBRANCH  13  14
ENDBRANCH  12  13
ENDBRANCH   6  12
BRANCH   9  17
HETATM   17  O1  UNL     1      19.830  -2.541  54.143  1.00  0.00    -0.276 OA
ATOM     18  H1  UNL     1      19.298  -2.419  53.366  1.00  0.00     0.246 HD
ENDBRANCH   9  17
TORSDOF 4
ENDMDL
MODEL 3
REMARK VINA RESULT: -6.230982647      3.584      4.873
REMARK  4 active torsions:
REMARK  status: ('A' for Active; 'I' for Inactive)
REMARK    1  A    between atoms: N2_6  and  C4_8 
REMARK    2  A    between atoms: C4_8  and  C5_9 
REMARK    3  A    between atoms: C5_9  and  C6_10 
REMARK    4  A    between atoms: N3_14  and  O1_15 
ROOT
HETATM    1  C1  UNL     1      19.714  -1.700  56.677  1.00  0.00     0.070 C 
HETATM    2  C2  UNL     1      20.556  -0.507  56.298  1.00  0.00     0.033 A 
HETATM    3  N1  UNL     1      20.846  -0.412  54.995  1.00  0.00    -0.338 N 
ATOM      4  H1  UNL     1      20.478  -1.142  54.385  1.00  0.00     0.168 HD
HETATM    5  C3  UNL     1      21.565   0.541  54.422  1.00  0.00     0.163 A 
HETATM    6  N2  UNL     1      21.852   0.649  53.186  1.00  0.00    -0.369 N 
ATOM      7  H2  UNL     1      22.421   1.451  52.916  1.00  0.00     0.161 HD
HETATM    8  S1  UNL     1      22.144   1.727  55.508  1.00  0.00     0.053 SA
HETATM    9  N3  UNL     1      21.685   1.457  57.125  1.00  0.00    -0.193 N 
HETATM   10  C9  UNL     1      20.937   0.346  57.281  1.00  0.00     0.066 A 
HETATM   11  C10 UNL     1      20.506   0.066  58.699  1.00  0.00     0.074 C 
ENDROOT
BRANCH   6  12
HETATM   12  C4  UNL     1      21.459  -0.238  52.141  1.00  0.00     0.122 C 
BRANCH  12  13
HETATM   13  C5  UNL     1      20.877   0.450  50.940  1.00  0.00     0.023 C 
BRANCH  13  14
HETATM   14  C6  UNL     1      19.549   1.059  51.360  1.00  0.00    -0.021 C 
HETATM   15  C7  UNL     1      19.086   2.117  50.407  1.00  0.00     0.009 C 
HETATM   16  C8  UNL     1      18.470   0.004  51.462  1.00  0.00     0.009 C 
ENDBRANCH  13  14
ENDBRANCH  12  13
ENDBRANCH   6  12
BRANCH   9  17
HETATM   17  O1  UNL     1      22.033   2.277  58.175  1.00  0.00    -0.276 OA
ATOM     18  H1  UNL     1      21.469   2.950  58.536  1.00  0.00     0.246 HD
ENDBRANCH   9  17
TORSDOF 4
ENDMDL
MODEL 4
REMARK VINA RESULT: -6.088176998      1.949      2.399
REMARK  4 active torsions:
REMARK  status: ('A' for Active; 'I' for Inactive)
REMARK    1  A    between atoms: N2_6  and  C4_8 
REMARK    2  A    between atoms: C4_8  and  C5_9 
REMARK    3  A    between atoms: C5_9  and  C6_10 
REMARK    4  A    between atoms: N3_14  and  O1_15 
ROOT
HETATM    1  C1  UNL     1      20.781  -0.439  53.734  1.00  0.00     0.070 C 
HETATM    2  C2  UNL     1      20.824  -0.534  55.239  1.00  0.00     0.033 A 
HETATM    3  N1  UNL     1      21.216   0.583  55.864  1.00  0.00    -0.338 N 
ATOM      4  H1  UNL     1      21.446   1.385  55.277  1.00  0.00     0.168 HD
HETATM    5  C3  UNL     1      21.332   0.746  57.174  1.00  0.00     0.163 A 
HETATM    6  N2  UNL     1      21.703   1.798  57.787  1.00  0.00    -0.369 N 
ATOM      7  H2  UNL     1      21.737   1.748  58.805  1.00  0.00     0.161 HD
HETATM    8  S1  UNL     1      20.928  -0.640  58.087  1.00  0.00     0.053 SA
HETATM    9  N3  UNL     1      20.451  -1.971  57.139  1.00  0.00    -0.193 N 
HETATM   10  C9  UNL     1      20.471  -1.709  55.817  1.00  0.00     0.066 A 
HETATM   11  C10 UNL     1      20.056  -2.860  54.936  1.00  0.00     0.074 C 
ENDROOT
BRANCH   6  12
HETATM   12  C4  UNL     1      22.076   3.041  57.194  1.00  0.00     0.122 C 
BRANCH  12  13
HETATM   13  C5  UNL     1      21.426   4.239  57.824  1.00  0.00     0.023 C 
BRANCH  13  14
HETATM   14  C6  UNL     1      21.457   5.366  56.804  1.00  0.00    -0.021 C 
HETATM   15  C7  UNL     1      20.623   5.061  55.599  1.00  0.00     0.009 C 
HETATM   16  C8  UNL     1      20.968   6.664  57.406  1.00  0.00     0.009 C 
ENDBRANCH  13  14
ENDBRANCH  12  13
ENDBRANCH   6  12
BRANCH   9  17
HETATM   17  O1  UNL     1      20.080  -3.194  57.653  1.00  0.00    -0.276 OA
ATOM     18  H1  UNL     1      19.796  -3.931  57.125  1.00  0.00     0.246 HD
ENDBRANCH   9  17
TORSDOF 4
ENDMDL
MODEL 5
REMARK VINA RESULT: -6.083772513      0.653      1.105
REMARK  4 active torsions:
REMARK  status: ('A' for Active; 'I' for Inactive)
REMARK    1  A    between atoms: N2_6  and  C4_8 
REMARK    2  A    between atoms: C4_8  and  C5_9 
REMARK    3  A    between atoms: C5_9  and  C6_10 
REMARK    4  A    between atoms: N3_14  and  O1_15 
ROOT
HETATM    1  C1  UNL     1      20.805  -1.057  58.544  1.00  0.00     0.070 C 
HETATM    2  C2  UNL     1      20.877  -0.528  57.133  1.00  0.00     0.033 A 
HETATM    3  N1  UNL     1      21.149   0.778  57.033  1.00  0.00    -0.338 N 
ATOM      4  H1  UNL     1      21.280   1.291  57.905  1.00  0.00     0.168 HD
HETATM    5  C3  UNL     1      21.264   1.469  55.909  1.00  0.00     0.163 A 
HETATM    6  N2  UNL     1      21.520   2.711  55.793  1.00  0.00    -0.369 N 
ATOM      7  H2  UNL     1      21.572   3.081  54.845  1.00  0.00     0.161 HD
HETATM    8  S1  UNL     1      21.031   0.541  54.493  1.00  0.00     0.053 SA
HETATM    9  N3  UNL     1      20.696  -1.100  54.798  1.00  0.00    -0.193 N 
HETATM   10  C9  UNL     1      20.669  -1.397  56.112  1.00  0.00     0.066 A 
HETATM   11  C10 UNL     1      20.375  -2.841  56.430  1.00  0.00     0.074 C 
ENDROOT
BRANCH   6  12
HETATM   12  C4  UNL     1      21.743   3.636  56.856  1.00  0.00     0.122 C 
BRANCH  12  13
HETATM   13  C5  UNL     1      21.855   5.065  56.410  1.00  0.00     0.023 C 
BRANCH  13  14
HETATM   14  C6  UNL     1      20.459   5.666  56.444  1.00  0.00    -0.021 C 
HETATM   15  C7  UNL     1      20.424   6.974  57.172  1.00  0.00     0.009 C 
HETATM   16  C8  UNL     1      19.921   5.883  55.048  1.00  0.00     0.009 C 
ENDBRANCH  13  14
ENDBRANCH  12  13
ENDBRANCH   6  12
BRANCH   9  17
HETATM   17  O1  UNL     1      20.473  -2.040  53.815  1.00  0.00    -0.276 OA
ATOM     18  H1  UNL     1      19.709  -2.603  53.779  1.00  0.00     0.246 HD
ENDBRANCH   9  17
TORSDOF 4
ENDMDL
