MODEL 1
REMARK VINA RESULT: -6.582948249      0.000      0.000
REMARK  15 active torsions:
REMARK  status: ('A' for Active; 'I' for Inactive)
REMARK    1  A    between atoms: O1_1  and  C1_3 
REMARK    2  A    between atoms: C1_3  and  C2_4 
REMARK    3  A    between atoms: C2_4  and  N1_5 
REMARK    4  A    between atoms: N1_5  and  C3_8 
REMARK    5  A    between atoms: C3_8  and  C4_9 
REMARK    6  A    between atoms: C4_9  and  N2_10 
REMARK    7  A    between atoms: N2_10  and  C5_12 
REMARK    8  A    between atoms: C5_12  and  C6_13 
REMARK    9  A    between atoms: C6_13  and  C7_14 
REMARK   10  A    between atoms: C7_14  and  O2_15 
REMARK   11  A    between atoms: O2_15  and  C8_16 
REMARK   12  A    between atoms: C9_18  and  C10_19 
REMARK   13  A    between atoms: C20_29  and  C21_30 
REMARK   14  A    between atoms: C21_30  and  O4_31 
REMARK   15  A    between atoms: C22_33  and  O5_34 
ROOT
HETATM    1  C8  UNL     1      11.315  41.991  -6.811  1.00  0.00     0.289 C 
HETATM    2  O3  UNL     1      11.615  42.040  -8.141  1.00  0.00    -0.352 OA
HETATM    3  C9  UNL     1      11.916  40.758  -8.625  1.00  0.00     0.142 C 
HETATM    4  C20 UNL     1      11.786  39.869  -7.509  1.00  0.00     0.073 C 
HETATM    5  C22 UNL     1      12.097  40.786  -6.339  1.00  0.00     0.181 C 
ENDROOT
BRANCH   1   6
HETATM    6  O2  UNL     1       9.949  41.874  -6.678  1.00  0.00    -0.358 OA
BRANCH   6   7
HETATM    7  C7  UNL     1       9.311  43.032  -6.285  1.00  0.00     0.176 C 
BRANCH   7   8
HETATM    8  C6  UNL     1       8.227  42.916  -5.306  1.00  0.00     0.070 C 
BRANCH   8   9
HETATM    9  C5  UNL     1       8.441  42.200  -4.021  1.00  0.00     0.057 C 
BRANCH   9  10
HETATM   10  N2  UNL     1       9.032  40.942  -3.980  1.00  0.00    -0.401 N 
ATOM     11  H2  UNL     1       9.999  40.854  -4.289  1.00  0.00     0.158 HD
BRANCH  10  12
HETATM   12  C4  UNL     1       8.372  39.792  -3.539  1.00  0.00     0.146 C 
BRANCH  12  13
HETATM   13  C3  UNL     1       8.969  38.514  -4.147  1.00  0.00     0.251 C 
BRANCH  13  14
HETATM   14  N1  UNL     1      10.149  38.072  -3.487  1.00  0.00    -0.072 N 
ATOM     15  H12 UNL     1      10.945  38.670  -3.710  1.00  0.00     0.277 HD
ATOM     16  H11 UNL     1      10.491  37.197  -3.883  1.00  0.00     0.277 HD
BRANCH  14  17
HETATM   17  C2  UNL     1       9.957  37.965  -2.072  1.00  0.00     0.258 C 
BRANCH  17  18
HETATM   18  C1  UNL     1      10.946  38.821  -1.280  1.00  0.00     0.191 C 
BRANCH  18  19
HETATM   19  O1  UNL     1      11.840  39.432  -2.159  1.00  0.00    -0.399 OA
ATOM     20  H1  UNL     1      11.969  40.337  -1.901  1.00  0.00     0.209 HD
ENDBRANCH  18  19
ENDBRANCH  17  18
ENDBRANCH  14  17
ENDBRANCH  13  14
ENDBRANCH  12  13
ENDBRANCH  10  12
ENDBRANCH   9  10
ENDBRANCH   8   9
ENDBRANCH   7   8
ENDBRANCH   6   7
ENDBRANCH   1   6
BRANCH   5  21
HETATM   21  O5  UNL     1      11.612  40.279  -5.142  1.00  0.00    -0.390 OA
ATOM     22  H5  UNL     1      11.903  39.388  -4.983  1.00  0.00     0.210 HD
ENDBRANCH   5  21
BRANCH   3  23
HETATM   23  C10 UNL     1      13.144  40.935  -9.429  1.00  0.00    -0.013 C 
HETATM   24  C11 UNL     1      14.301  41.608  -8.777  1.00  0.00     0.017 C 
HETATM   25  C12 UNL     1      15.424  41.818  -9.757  1.00  0.00    -0.013 C 
HETATM   26  C13 UNL     1      14.996  42.872 -10.745  1.00  0.00     0.009 C 
HETATM   27  C17 UNL     1      15.786  40.571 -10.513  1.00  0.00     0.009 C 
HETATM   28  C14 UNL     1      13.751  42.363 -11.426  1.00  0.00    -0.013 C 
HETATM   29  C15 UNL     1      14.147  41.166 -12.268  1.00  0.00     0.009 C 
HETATM   30  C19 UNL     1      12.674  41.992 -10.471  1.00  0.00     0.017 C 
HETATM   31  C16 UNL     1      14.571  40.097 -11.319  1.00  0.00    -0.013 C 
HETATM   32  C18 UNL     1      13.508  39.759 -10.281  1.00  0.00     0.017 C 
ENDBRANCH   3  23
BRANCH   4  33
HETATM   33  C21 UNL     1      12.299  38.513  -7.420  1.00  0.00     0.174 C 
BRANCH  33  34
HETATM   34  O4  UNL     1      11.660  37.837  -6.378  1.00  0.00    -0.400 OA
ATOM     35  H4  UNL     1      12.097  37.008  -6.220  1.00  0.00     0.209 HD
ENDBRANCH  33  34
ENDBRANCH   4  33
TORSDOF 15
ENDMDL
MODEL 2
REMARK VINA RESULT: -6.555862103      4.635      6.458
REMARK  15 active torsions:
REMARK  status: ('A' for Active; 'I' for Inactive)
REMARK    1  A    between atoms: O1_1  and  C1_3 
REMARK    2  A    between atoms: C1_3  and  C2_4 
REMARK    3  A    between atoms: C2_4  and  N1_5 
REMARK    4  A    between atoms: N1_5  and  C3_8 
REMARK    5  A    between atoms: C3_8  and  C4_9 
REMARK    6  A    between atoms: C4_9  and  N2_10 
REMARK    7  A    between atoms: N2_10  and  C5_12 
REMARK    8  A    between atoms: C5_12  and  C6_13 
REMARK    9  A    between atoms: C6_13  and  C7_14 
REMARK   10  A    between atoms: C7_14  and  O2_15 
REMARK   11  A    between atoms: O2_15  and  C8_16 
REMARK   12  A    between atoms: C9_18  and  C10_19 
REMARK   13  A    between atoms: C20_29  and  C21_30 
REMARK   14  A    between atoms: C21_30  and  O4_31 
REMARK   15  A    between atoms: C22_33  and  O5_34 
ROOT
HETATM    1  C8  UNL     1      15.000  38.698 -11.955  1.00  0.00     0.289 C 
HETATM    2  O3  UNL     1      14.697  38.703 -13.285  1.00  0.00    -0.352 OA
HETATM    3  C9  UNL     1      13.839  37.639 -13.600  1.00  0.00     0.142 C 
HETATM    4  C20 UNL     1      13.603  36.940 -12.371  1.00  0.00     0.073 C 
HETATM    5  C22 UNL     1      14.874  37.235 -11.592  1.00  0.00     0.181 C 
ENDROOT
BRANCH   1   6
HETATM    6  O2  UNL     1      14.113  39.527 -11.305  1.00  0.00    -0.358 OA
BRANCH   6   7
HETATM    7  C7  UNL     1      14.704  40.522 -10.554  1.00  0.00     0.176 C 
BRANCH   7   8
HETATM    8  C6  UNL     1      14.000  40.983  -9.355  1.00  0.00     0.070 C 
BRANCH   8   9
HETATM    9  C5  UNL     1      12.744  40.321  -8.913  1.00  0.00     0.057 C 
BRANCH   9  10
HETATM   10  N2  UNL     1      12.698  38.959  -8.641  1.00  0.00    -0.401 N 
ATOM     11  H2  UNL     1      12.623  38.313  -9.426  1.00  0.00     0.158 HD
BRANCH  10  12
HETATM   12  C4  UNL     1      12.747  38.426  -7.350  1.00  0.00     0.146 C 
BRANCH  12  13
HETATM   13  C3  UNL     1      11.637  38.990  -6.449  1.00  0.00     0.251 C 
BRANCH  13  14
HETATM   14  N1  UNL     1      11.646  38.445  -5.135  1.00  0.00    -0.072 N 
ATOM     15  H12 UNL     1      12.356  38.891  -4.553  1.00  0.00     0.277 HD
ATOM     16  H11 UNL     1      12.011  37.493  -5.130  1.00  0.00     0.277 HD
BRANCH  14  17
HETATM   17  C2  UNL     1      10.354  38.512  -4.523  1.00  0.00     0.258 C 
BRANCH  17  18
HETATM   18  C1  UNL     1      10.427  38.859  -3.036  1.00  0.00     0.191 C 
BRANCH  18  19
HETATM   19  O1  UNL     1      11.735  39.206  -2.703  1.00  0.00    -0.399 OA
ATOM     20  H1  UNL     1      12.069  38.598  -2.053  1.00  0.00     0.209 HD
ENDBRANCH  18  19
ENDBRANCH  17  18
ENDBRANCH  14  17
ENDBRANCH  13  14
ENDBRANCH  12  13
ENDBRANCH  10  12
ENDBRANCH   9  10
ENDBRANCH   8   9
ENDBRANCH   7   8
ENDBRANCH   6   7
ENDBRANCH   1   6
BRANCH   5  21
HETATM   21  O5  UNL     1      14.700  37.044 -10.230  1.00  0.00    -0.390 OA
ATOM     22  H5  UNL     1      15.486  36.713  -9.808  1.00  0.00     0.210 HD
ENDBRANCH   5  21
BRANCH   3  23
HETATM   23  C10 UNL     1      14.415  37.035 -14.820  1.00  0.00    -0.013 C 
HETATM   24  C11 UNL     1      15.833  36.586 -14.761  1.00  0.00     0.017 C 
HETATM   25  C12 UNL     1      16.303  36.106 -16.108  1.00  0.00    -0.013 C 
HETATM   26  C13 UNL     1      16.418  37.302 -17.018  1.00  0.00     0.009 C 
HETATM   27  C17 UNL     1      15.370  35.112 -16.738  1.00  0.00     0.009 C 
HETATM   28  C14 UNL     1      15.050  37.932 -17.097  1.00  0.00    -0.013 C 
HETATM   29  C15 UNL     1      14.142  36.963 -17.826  1.00  0.00     0.009 C 
HETATM   30  C19 UNL     1      14.487  38.270 -15.765  1.00  0.00     0.017 C 
HETATM   31  C16 UNL     1      13.999  35.766 -16.948  1.00  0.00    -0.013 C 
HETATM   32  C18 UNL     1      13.498  36.104 -15.550  1.00  0.00     0.017 C 
ENDBRANCH   3  23
BRANCH   4  33
HETATM   33  C21 UNL     1      13.054  35.603 -12.229  1.00  0.00     0.174 C 
BRANCH  33  34
HETATM   34  O4  UNL     1      14.095  34.678 -12.119  1.00  0.00    -0.400 OA
ATOM     35  H4  UNL     1      14.275  34.299 -12.972  1.00  0.00     0.209 HD
ENDBRANCH  33  34
ENDBRANCH   4  33
TORSDOF 15
ENDMDL
MODEL 3
REMARK VINA RESULT: -6.497066246      2.999      4.482
REMARK  15 active torsions:
REMARK  status: ('A' for Active; 'I' for Inactive)
REMARK    1  A    between atoms: O1_1  and  C1_3 
REMARK    2  A    between atoms: C1_3  and  C2_4 
REMARK    3  A    between atoms: C2_4  and  N1_5 
REMARK    4  A    between atoms: N1_5  and  C3_8 
REMARK    5  A    between atoms: C3_8  and  C4_9 
REMARK    6  A    between atoms: C4_9  and  N2_10 
REMARK    7  A    between atoms: N2_10  and  C5_12 
REMARK    8  A    between atoms: C5_12  and  C6_13 
REMARK    9  A    between atoms: C6_13  and  C7_14 
REMARK   10  A    between atoms: C7_14  and  O2_15 
REMARK   11  A    between atoms: O2_15  and  C8_16 
REMARK   12  A    between atoms: C9_18  and  C10_19 
REMARK   13  A    between atoms: C20_29  and  C21_30 
REMARK   14  A    between atoms: C21_30  and  O4_31 
REMARK   15  A    between atoms: C22_33  and  O5_34 
ROOT
HETATM    1  C8  UNL     1      13.977  39.064 -10.010  1.00  0.00     0.289 C 
HETATM    2  O3  UNL     1      13.752  39.446 -11.300  1.00  0.00    -0.352 OA
HETATM    3  C9  UNL     1      13.643  38.323 -12.135  1.00  0.00     0.142 C 
HETATM    4  C20 UNL     1      13.811  37.179 -11.289  1.00  0.00     0.073 C 
HETATM    5  C22 UNL     1      14.683  37.736 -10.176  1.00  0.00     0.181 C 
ENDROOT
BRANCH   1   6
HETATM    6  O2  UNL     1      12.765  38.989  -9.361  1.00  0.00    -0.358 OA
BRANCH   6   7
HETATM    7  C7  UNL     1      12.666  39.786  -8.239  1.00  0.00     0.176 C 
BRANCH   7   8
HETATM    8  C6  UNL     1      11.654  39.436  -7.240  1.00  0.00     0.070 C 
BRANCH   8   9
HETATM    9  C5  UNL     1      11.936  38.406  -6.206  1.00  0.00     0.057 C 
BRANCH   9  10
HETATM   10  N2  UNL     1      11.307  38.430  -4.966  1.00  0.00    -0.401 N 
ATOM     11  H2  UNL     1      11.780  37.991  -4.177  1.00  0.00     0.158 HD
BRANCH  10  12
HETATM   12  C4  UNL     1      10.061  39.022  -4.743  1.00  0.00     0.146 C 
BRANCH  12  13
HETATM   13  C3  UNL     1       9.220  38.235  -3.726  1.00  0.00     0.251 C 
BRANCH  13  14
HETATM   14  N1  UNL     1      10.000  37.599  -2.721  1.00  0.00    -0.072 N 
ATOM     15  H12 UNL     1      10.985  37.559  -2.984  1.00  0.00     0.277 HD
ATOM     16  H11 UNL     1       9.806  36.599  -2.677  1.00  0.00     0.277 HD
BRANCH  14  17
HETATM   17  C2  UNL     1       9.827  38.221  -1.442  1.00  0.00     0.258 C 
BRANCH  17  18
HETATM   18  C1  UNL     1      11.114  38.868  -0.927  1.00  0.00     0.191 C 
BRANCH  18  19
HETATM   19  O1  UNL     1      11.888  39.288  -2.007  1.00  0.00    -0.399 OA
ATOM     20  H1  UNL     1      12.702  39.659  -1.688  1.00  0.00     0.209 HD
ENDBRANCH  18  19
ENDBRANCH  17  18
ENDBRANCH  14  17
ENDBRANCH  13  14
ENDBRANCH  12  13
ENDBRANCH  10  12
ENDBRANCH   9  10
ENDBRANCH   8   9
ENDBRANCH   7   8
ENDBRANCH   6   7
ENDBRANCH   1   6
BRANCH   5  21
HETATM   21  O5  UNL     1      14.617  36.958  -9.030  1.00  0.00    -0.390 OA
ATOM     22  H5  UNL     1      13.730  36.679  -8.833  1.00  0.00     0.210 HD
ENDBRANCH   5  21
BRANCH   3  23
HETATM   23  C10 UNL     1      14.484  38.640 -13.309  1.00  0.00    -0.013 C 
HETATM   24  C11 UNL     1      15.951  38.762 -13.090  1.00  0.00     0.017 C 
HETATM   25  C12 UNL     1      16.649  39.202 -14.349  1.00  0.00    -0.013 C 
HETATM   26  C13 UNL     1      16.277  40.638 -14.615  1.00  0.00     0.009 C 
HETATM   27  C17 UNL     1      16.274  38.379 -15.549  1.00  0.00     0.009 C 
HETATM   28  C14 UNL     1      14.777  40.688 -14.763  1.00  0.00    -0.013 C 
HETATM   29  C15 UNL     1      14.418  39.941 -16.032  1.00  0.00     0.009 C 
HETATM   30  C19 UNL     1      14.057  40.109 -13.599  1.00  0.00     0.017 C 
HETATM   31  C16 UNL     1      14.767  38.510 -15.802  1.00  0.00    -0.013 C 
HETATM   32  C18 UNL     1      14.100  37.922 -14.565  1.00  0.00     0.017 C 
ENDBRANCH   3  23
BRANCH   4  33
HETATM   33  C21 UNL     1      14.101  35.822 -11.718  1.00  0.00     0.174 C 
BRANCH  33  34
HETATM   34  O4  UNL     1      12.947  35.240 -12.247  1.00  0.00    -0.400 OA
ATOM     35  H4  UNL     1      13.187  34.582 -12.889  1.00  0.00     0.209 HD
ENDBRANCH  33  34
ENDBRANCH   4  33
TORSDOF 15
ENDMDL
MODEL 4
REMARK VINA RESULT: -6.292011874      3.464      5.071
REMARK  15 active torsions:
REMARK  status: ('A' for Active; 'I' for Inactive)
REMARK    1  A    between atoms: O1_1  and  C1_3 
REMARK    2  A    between atoms: C1_3  and  C2_4 
REMARK    3  A    between atoms: C2_4  and  N1_5 
REMARK    4  A    between atoms: N1_5  and  C3_8 
REMARK    5  A    between atoms: C3_8  and  C4_9 
REMARK    6  A    between atoms: C4_9  and  N2_10 
REMARK    7  A    between atoms: N2_10  and  C5_12 
REMARK    8  A    between atoms: C5_12  and  C6_13 
REMARK    9  A    between atoms: C6_13  and  C7_14 
REMARK   10  A    between atoms: C7_14  and  O2_15 
REMARK   11  A    between atoms: O2_15  and  C8_16 
REMARK   12  A    between atoms: C9_18  and  C10_19 
REMARK   13  A    between atoms: C20_29  and  C21_30 
REMARK   14  A    between atoms: C21_30  and  O4_31 
REMARK   15  A    between atoms: C22_33  and  O5_34 
ROOT
HETATM    1  C8  UNL     1      14.057  39.011 -10.295  1.00  0.00     0.289 C 
HETATM    2  O3  UNL     1      13.820  39.352 -11.595  1.00  0.00    -0.352 OA
HETATM    3  C9  UNL     1      13.636  38.204 -12.380  1.00  0.00     0.142 C 
HETATM    4  C20 UNL     1      13.767  37.088 -11.491  1.00  0.00     0.073 C 
HETATM    5  C22 UNL     1      14.692  37.644 -10.422  1.00  0.00     0.181 C 
ENDROOT
BRANCH   1   6
HETATM    6  O2  UNL     1      12.858  39.024  -9.618  1.00  0.00    -0.358 OA
BRANCH   6   7
HETATM    7  C7  UNL     1      12.791  39.942  -8.590  1.00  0.00     0.176 C 
BRANCH   7   8
HETATM    8  C6  UNL     1      11.964  39.608  -7.428  1.00  0.00     0.070 C 
BRANCH   8   9
HETATM    9  C5  UNL     1      12.241  38.385  -6.629  1.00  0.00     0.057 C 
BRANCH   9  10
HETATM   10  N2  UNL     1      11.723  38.221  -5.349  1.00  0.00    -0.401 N 
ATOM     11  H2  UNL     1      12.255  37.664  -4.682  1.00  0.00     0.158 HD
BRANCH  10  12
HETATM   12  C4  UNL     1      10.512  38.777  -4.928  1.00  0.00     0.146 C 
BRANCH  12  13
HETATM   13  C3  UNL     1      10.337  38.695  -3.404  1.00  0.00     0.251 C 
BRANCH  13  14
HETATM   14  N1  UNL     1      11.478  39.138  -2.680  1.00  0.00    -0.072 N 
ATOM     15  H12 UNL     1      11.792  40.053  -3.005  1.00  0.00     0.277 HD
ATOM     16  H11 UNL     1      12.305  38.591  -2.919  1.00  0.00     0.277 HD
BRANCH  14  17
HETATM   17  C2  UNL     1      11.244  39.140  -1.267  1.00  0.00     0.258 C 
BRANCH  17  18
HETATM   18  C1  UNL     1      10.135  38.170  -0.857  1.00  0.00     0.191 C 
BRANCH  18  19
HETATM   19  O1  UNL     1       9.697  38.482   0.429  1.00  0.00    -0.399 OA
ATOM     20  H1  UNL     1       8.863  38.935   0.379  1.00  0.00     0.209 HD
ENDBRANCH  18  19
ENDBRANCH  17  18
ENDBRANCH  14  17
ENDBRANCH  13  14
ENDBRANCH  12  13
ENDBRANCH  10  12
ENDBRANCH   9  10
ENDBRANCH   8   9
ENDBRANCH   7   8
ENDBRANCH   6   7
ENDBRANCH   1   6
BRANCH   5  21
HETATM   21  O5  UNL     1      14.615  36.917  -9.244  1.00  0.00    -0.390 OA
ATOM     22  H5  UNL     1      15.449  36.527  -9.005  1.00  0.00     0.210 HD
ENDBRANCH   5  21
BRANCH   3  23
HETATM   23  C10 UNL     1      14.463  38.431 -13.584  1.00  0.00    -0.013 C 
HETATM   24  C11 UNL     1      14.204  39.667 -14.373  1.00  0.00     0.017 C 
HETATM   25  C12 UNL     1      15.040  39.692 -15.624  1.00  0.00    -0.013 C 
HETATM   26  C13 UNL     1      14.515  38.636 -16.562  1.00  0.00     0.009 C 
HETATM   27  C17 UNL     1      16.496  39.424 -15.365  1.00  0.00     0.009 C 
HETATM   28  C14 UNL     1      14.624  37.313 -15.846  1.00  0.00    -0.013 C 
HETATM   29  C15 UNL     1      16.098  37.003 -15.682  1.00  0.00     0.009 C 
HETATM   30  C19 UNL     1      13.942  37.307 -14.526  1.00  0.00     0.017 C 
HETATM   31  C16 UNL     1      16.651  38.028 -14.750  1.00  0.00    -0.013 C 
HETATM   32  C18 UNL     1      15.911  38.091 -13.420  1.00  0.00     0.017 C 
ENDBRANCH   3  23
BRANCH   4  33
HETATM   33  C21 UNL     1      13.979  35.702 -11.871  1.00  0.00     0.174 C 
BRANCH  33  34
HETATM   34  O4  UNL     1      12.755  35.110 -12.190  1.00  0.00    -0.400 OA
ATOM     35  H4  UNL     1      12.367  35.559 -12.932  1.00  0.00     0.209 HD
ENDBRANCH  33  34
ENDBRANCH   4  33
TORSDOF 15
ENDMDL
MODEL 5
REMARK VINA RESULT: -6.246465691      4.087      9.379
REMARK  15 active torsions:
REMARK  status: ('A' for Active; 'I' for Inactive)
REMARK    1  A    between atoms: O1_1  and  C1_3 
REMARK    2  A    between atoms: C1_3  and  C2_4 
REMARK    3  A    between atoms: C2_4  and  N1_5 
REMARK    4  A    between atoms: N1_5  and  C3_8 
REMARK    5  A    between atoms: C3_8  and  C4_9 
REMARK    6  A    between atoms: C4_9  and  N2_10 
REMARK    7  A    between atoms: N2_10  and  C5_12 
REMARK    8  A    between atoms: C5_12  and  C6_13 
REMARK    9  A    between atoms: C6_13  and  C7_14 
REMARK   10  A    between atoms: C7_14  and  O2_15 
REMARK   11  A    between atoms: O2_15  and  C8_16 
REMARK   12  A    between atoms: C9_18  and  C10_19 
REMARK   13  A    between atoms: C20_29  and  C21_30 
REMARK   14  A    between atoms: C21_30  and  O4_31 
REMARK   15  A    between atoms: C22_33  and  O5_34 
ROOT
HETATM    1  C8  UNL     1       7.216  42.124  -3.317  1.00  0.00     0.289 C 
HETATM    2  O3  UNL     1       5.893  41.809  -3.427  1.00  0.00    -0.352 OA
HETATM    3  C9  UNL     1       5.338  42.405  -4.568  1.00  0.00     0.142 C 
HETATM    4  C20 UNL     1       6.401  43.131  -5.197  1.00  0.00     0.073 C 
HETATM    5  C22 UNL     1       7.297  43.462  -4.015  1.00  0.00     0.181 C 
ENDROOT
BRANCH   1   6
HETATM    6  O2  UNL     1       7.951  41.123  -3.913  1.00  0.00    -0.358 OA
BRANCH   6   7
HETATM    7  C7  UNL     1       8.249  40.061  -3.084  1.00  0.00     0.176 C 
BRANCH   7   8
HETATM    8  C6  UNL     1       8.981  38.930  -3.659  1.00  0.00     0.070 C 
BRANCH   8   9
HETATM    9  C5  UNL     1      10.451  38.806  -3.472  1.00  0.00     0.057 C 
BRANCH   9  10
HETATM   10  N2  UNL     1      11.337  39.018  -4.522  1.00  0.00    -0.401 N 
ATOM     11  H2  UNL     1      12.095  39.685  -4.386  1.00  0.00     0.158 HD
BRANCH  10  12
HETATM   12  C4  UNL     1      11.244  38.367  -5.755  1.00  0.00     0.146 C 
BRANCH  12  13
HETATM   13  C3  UNL     1      12.212  38.954  -6.794  1.00  0.00     0.251 C 
BRANCH  13  14
HETATM   14  N1  UNL     1      11.611  39.927  -7.639  1.00  0.00    -0.072 N 
ATOM     15  H12 UNL     1      10.601  39.794  -7.700  1.00  0.00     0.277 HD
ATOM     16  H11 UNL     1      11.852  39.770  -8.617  1.00  0.00     0.277 HD
BRANCH  14  17
HETATM   17  C2  UNL     1      11.936  41.260  -7.229  1.00  0.00     0.258 C 
BRANCH  17  18
HETATM   18  C1  UNL     1      10.695  42.094  -6.908  1.00  0.00     0.191 C 
BRANCH  18  19
HETATM   19  O1  UNL     1      10.137  41.655  -5.709  1.00  0.00    -0.399 OA
ATOM     20  H1  UNL     1       9.333  42.132  -5.540  1.00  0.00     0.209 HD
ENDBRANCH  18  19
ENDBRANCH  17  18
ENDBRANCH  14  17
ENDBRANCH  13  14
ENDBRANCH  12  13
ENDBRANCH  10  12
ENDBRANCH   9  10
ENDBRANCH   8   9
ENDBRANCH   7   8
ENDBRANCH   6   7
ENDBRANCH   1   6
BRANCH   5  21
HETATM   21  O5  UNL     1       8.588  43.770  -4.417  1.00  0.00    -0.390 OA
ATOM     22  H5  UNL     1       8.844  43.299  -5.202  1.00  0.00     0.210 HD
ENDBRANCH   5  21
BRANCH   3  23
HETATM   23  C10 UNL     1       4.065  42.998  -4.105  1.00  0.00    -0.013 C 
HETATM   24  C11 UNL     1       4.142  44.081  -3.087  1.00  0.00     0.017 C 
HETATM   25  C12 UNL     1       2.767  44.494  -2.635  1.00  0.00    -0.013 C 
HETATM   26  C13 UNL     1       2.184  43.371  -1.817  1.00  0.00     0.009 C 
HETATM   27  C17 UNL     1       1.836  44.791  -3.776  1.00  0.00     0.009 C 
HETATM   28  C14 UNL     1       2.135  42.154  -2.706  1.00  0.00    -0.013 C 
HETATM   29  C15 UNL     1       1.117  42.424  -3.796  1.00  0.00     0.009 C 
HETATM   30  C19 UNL     1       3.454  41.814  -3.301  1.00  0.00     0.017 C 
HETATM   31  C16 UNL     1       1.667  43.530  -4.632  1.00  0.00    -0.013 C 
HETATM   32  C18 UNL     1       3.054  43.231  -5.185  1.00  0.00     0.017 C 
ENDBRANCH   3  23
BRANCH   4  33
HETATM   33  C21 UNL     1       6.263  44.162  -6.211  1.00  0.00     0.174 C 
BRANCH  33  34
HETATM   34  O4  UNL     1       7.183  43.937  -7.238  1.00  0.00    -0.400 OA
ATOM     35  H4  UNL     1       7.076  44.598  -7.912  1.00  0.00     0.209 HD
ENDBRANCH  33  34
ENDBRANCH   4  33
TORSDOF 15
ENDMDL
