MODEL 1
REMARK VINA RESULT: -9.560675558      0.000      0.000
REMARK  6 active torsions:
REMARK  status: ('A' for Active; 'I' for Inactive)
REMARK    1  A    between atoms: O1_2  and  C2_3 
REMARK    2  A    between atoms: C5_6  and  C6_7 
REMARK    3  A    between atoms: N1_8  and  N2_10 
REMARK    4  A    between atoms: N2_10  and  C7_12 
REMARK    5  A    between atoms: C11_21  and  O4_22 
REMARK    6  A    between atoms: O4_22  and  C12_23 
ROOT
HETATM    1  C7  UNL     1      36.843  26.245  51.042  1.00  0.00     0.129 C 
HETATM    2  N3  UNL     1      36.526  27.464  50.878  1.00  0.00    -0.265 N 
ATOM      3  H3  UNL     1      37.258  28.025  50.442  1.00  0.00     0.180 HD
HETATM    4  S1  UNL     1      35.103  28.350  51.249  1.00  0.00     0.265 S 
HETATM    5  O2  UNL     1      34.236  28.405  50.020  1.00  0.00    -0.200 OA
HETATM    6  O3  UNL     1      35.432  29.755  51.670  1.00  0.00    -0.200 OA
HETATM    7  C8  UNL     1      34.192  27.613  52.543  1.00  0.00     0.090 A 
HETATM    8  C9  UNL     1      33.403  28.541  53.166  1.00  0.00     0.029 A 
HETATM    9  C10 UNL     1      32.612  28.121  54.219  1.00  0.00     0.039 A 
HETATM   10  C11 UNL     1      32.629  26.810  54.616  1.00  0.00     0.076 A 
HETATM   11  C18 UNL     1      33.439  25.899  53.961  1.00  0.00     0.050 A 
HETATM   12  C19 UNL     1      34.240  26.286  52.907  1.00  0.00    -0.010 A 
HETATM   13  C20 UNL     1      34.996  25.172  52.381  1.00  0.00     0.017 C 
HETATM   14  C21 UNL     1      36.056  25.190  51.621  1.00  0.00     0.051 C 
ENDROOT
BRANCH   1  15
HETATM   15  N2  UNL     1      38.170  25.920  50.574  1.00  0.00    -0.285 N 
ATOM     16  H2  UNL     1      38.318  25.331  49.754  1.00  0.00     0.188 HD
BRANCH  15  17
HETATM   17  N1  UNL     1      39.217  26.439  51.280  1.00  0.00    -0.309 N 
HETATM   18  C6  UNL     1      39.838  26.096  52.302  1.00  0.00     0.118 C 
ATOM     19  H1  UNL     1      39.571  27.306  50.877  1.00  0.00     0.186 HD
BRANCH  18  20
HETATM   20  C5  UNL     1      39.653  24.941  53.164  1.00  0.00    -0.019 A 
HETATM   21  C4  UNL     1      38.554  24.892  54.033  1.00  0.00     0.015 A 
HETATM   22  C3  UNL     1      38.320  23.829  54.874  1.00  0.00     0.037 A 
HETATM   23  C2  UNL     1      39.160  22.742  54.911  1.00  0.00     0.068 A 
HETATM   24  C23 UNL     1      40.244  22.772  54.066  1.00  0.00     0.037 A 
HETATM   25  C22 UNL     1      40.489  23.850  53.207  1.00  0.00     0.015 A 
BRANCH  23  26
HETATM   26  O1  UNL     1      38.920  21.666  55.765  1.00  0.00    -0.356 OA
HETATM   27  C1  UNL     1      37.607  21.434  56.238  1.00  0.00     0.210 C 
ENDBRANCH  23  26
ENDBRANCH  18  20
ENDBRANCH  15  17
ENDBRANCH   1  15
BRANCH  10  28
HETATM   28  O4  UNL     1      31.835  26.394  55.670  1.00  0.00    -0.311 OA
BRANCH  28  29
HETATM   29  C12 UNL     1      31.114  27.317  56.411  1.00  0.00     0.076 A 
HETATM   30  C13 UNL     1      31.603  27.792  57.604  1.00  0.00     0.037 A 
HETATM   31  C14 UNL     1      30.920  28.705  58.367  1.00  0.00     0.003 A 
HETATM   32  C15 UNL     1      29.697  29.165  57.925  1.00  0.00     0.000 A 
HETATM   33  C16 UNL     1      29.187  28.705  56.736  1.00  0.00     0.003 A 
HETATM   34  C17 UNL     1      29.884  27.794  55.991  1.00  0.00     0.037 A 
ENDBRANCH  28  29
ENDBRANCH  10  28
TORSDOF 6
ENDMDL
MODEL 2
REMARK VINA RESULT: -9.507733496      2.690      3.657
REMARK  6 active torsions:
REMARK  status: ('A' for Active; 'I' for Inactive)
REMARK    1  A    between atoms: O1_2  and  C2_3 
REMARK    2  A    between atoms: C5_6  and  C6_7 
REMARK    3  A    between atoms: N1_8  and  N2_10 
REMARK    4  A    between atoms: N2_10  and  C7_12 
REMARK    5  A    between atoms: C11_21  and  O4_22 
REMARK    6  A    between atoms: O4_22  and  C12_23 
ROOT
HETATM    1  C7  UNL     1      34.907  23.496  54.803  1.00  0.00     0.129 C 
HETATM    2  N3  UNL     1      35.225  24.152  53.762  1.00  0.00    -0.265 N 
ATOM      3  H3  UNL     1      36.054  23.797  53.288  1.00  0.00     0.180 HD
HETATM    4  S1  UNL     1      34.525  25.524  53.002  1.00  0.00     0.265 S 
HETATM    5  O2  UNL     1      33.613  25.050  51.902  1.00  0.00    -0.200 OA
HETATM    6  O3  UNL     1      35.580  26.411  52.403  1.00  0.00    -0.200 OA
HETATM    7  C8  UNL     1      33.598  26.491  54.120  1.00  0.00     0.090 A 
HETATM    8  C9  UNL     1      33.499  27.781  53.674  1.00  0.00     0.029 A 
HETATM    9  C10 UNL     1      32.792  28.684  54.447  1.00  0.00     0.039 A 
HETATM   10  C11 UNL     1      32.213  28.283  55.623  1.00  0.00     0.076 A 
HETATM   11  C18 UNL     1      32.333  26.970  56.041  1.00  0.00     0.050 A 
HETATM   12  C19 UNL     1      33.031  26.045  55.293  1.00  0.00    -0.010 A 
HETATM   13  C20 UNL     1      33.025  24.743  55.923  1.00  0.00     0.017 C 
HETATM   14  C21 UNL     1      33.806  23.723  55.699  1.00  0.00     0.051 C 
ENDROOT
BRANCH   1  15
HETATM   15  N2  UNL     1      35.791  22.389  55.085  1.00  0.00    -0.285 N 
ATOM     16  H2  UNL     1      35.756  21.526  54.543  1.00  0.00     0.188 HD
BRANCH  15  17
HETATM   17  N1  UNL     1      36.677  22.554  56.110  1.00  0.00    -0.309 N 
HETATM   18  C6  UNL     1      37.850  22.963  56.196  1.00  0.00     0.118 C 
ATOM     19  H1  UNL     1      36.290  22.278  57.012  1.00  0.00     0.186 HD
BRANCH  18  20
HETATM   20  C5  UNL     1      38.749  23.443  55.161  1.00  0.00    -0.019 A 
HETATM   21  C4  UNL     1      39.928  22.738  54.884  1.00  0.00     0.015 A 
HETATM   22  C3  UNL     1      40.822  23.138  53.918  1.00  0.00     0.037 A 
HETATM   23  C2  UNL     1      40.607  24.264  53.160  1.00  0.00     0.068 A 
HETATM   24  C23 UNL     1      39.455  24.970  53.417  1.00  0.00     0.037 A 
HETATM   25  C22 UNL     1      38.541  24.569  54.399  1.00  0.00     0.015 A 
BRANCH  23  26
HETATM   26  O1  UNL     1      41.515  24.667  52.181  1.00  0.00    -0.356 OA
HETATM   27  C1  UNL     1      41.460  25.990  51.684  1.00  0.00     0.210 C 
ENDBRANCH  23  26
ENDBRANCH  18  20
ENDBRANCH  15  17
ENDBRANCH   1  15
BRANCH  10  28
HETATM   28  O4  UNL     1      31.507  29.191  56.391  1.00  0.00    -0.311 OA
BRANCH  28  29
HETATM   29  C12 UNL     1      30.285  28.842  56.944  1.00  0.00     0.076 A 
HETATM   30  C13 UNL     1      29.970  29.206  58.232  1.00  0.00     0.037 A 
HETATM   31  C14 UNL     1      28.772  28.879  58.816  1.00  0.00     0.003 A 
HETATM   32  C15 UNL     1      27.848  28.159  58.089  1.00  0.00     0.000 A 
HETATM   33  C16 UNL     1      28.140  27.783  56.800  1.00  0.00     0.003 A 
HETATM   34  C17 UNL     1      29.340  28.119  56.237  1.00  0.00     0.037 A 
ENDBRANCH  28  29
ENDBRANCH  10  28
TORSDOF 6
ENDMDL
MODEL 3
REMARK VINA RESULT: -9.498264382      2.745      3.713
REMARK  6 active torsions:
REMARK  status: ('A' for Active; 'I' for Inactive)
REMARK    1  A    between atoms: O1_2  and  C2_3 
REMARK    2  A    between atoms: C5_6  and  C6_7 
REMARK    3  A    between atoms: N1_8  and  N2_10 
REMARK    4  A    between atoms: N2_10  and  C7_12 
REMARK    5  A    between atoms: C11_21  and  O4_22 
REMARK    6  A    between atoms: O4_22  and  C12_23 
ROOT
HETATM    1  C7  UNL     1      34.856  23.404  54.966  1.00  0.00     0.129 C 
HETATM    2  N3  UNL     1      35.260  24.021  53.931  1.00  0.00    -0.265 N 
ATOM      3  H3  UNL     1      36.111  23.631  53.525  1.00  0.00     0.180 HD
HETATM    4  S1  UNL     1      34.650  25.384  53.086  1.00  0.00     0.265 S 
HETATM    5  O2  UNL     1      33.802  24.900  51.940  1.00  0.00    -0.200 OA
HETATM    6  O3  UNL     1      35.766  26.227  52.535  1.00  0.00    -0.200 OA
HETATM    7  C8  UNL     1      33.674  26.407  54.110  1.00  0.00     0.090 A 
HETATM    8  C9  UNL     1      33.639  27.685  53.621  1.00  0.00     0.029 A 
HETATM    9  C10 UNL     1      32.906  28.628  54.318  1.00  0.00     0.039 A 
HETATM   10  C11 UNL     1      32.239  28.277  55.462  1.00  0.00     0.076 A 
HETATM   11  C18 UNL     1      32.296  26.975  55.925  1.00  0.00     0.050 A 
HETATM   12  C19 UNL     1      33.019  26.011  55.254  1.00  0.00    -0.010 A 
HETATM   13  C20 UNL     1      32.936  24.729  55.919  1.00  0.00     0.017 C 
HETATM   14  C21 UNL     1      33.704  23.684  55.777  1.00  0.00     0.051 C 
ENDROOT
BRANCH   1  15
HETATM   15  N2  UNL     1      35.690  22.285  55.339  1.00  0.00    -0.285 N 
ATOM     16  H2  UNL     1      35.603  21.378  54.882  1.00  0.00     0.188 HD
BRANCH  15  17
HETATM   17  N1  UNL     1      36.602  22.500  56.332  1.00  0.00    -0.309 N 
HETATM   18  C6  UNL     1      37.786  22.882  56.365  1.00  0.00     0.118 C 
ATOM     19  H1  UNL     1      36.227  22.303  57.259  1.00  0.00     0.186 HD
BRANCH  18  20
HETATM   20  C5  UNL     1      38.676  23.258  55.280  1.00  0.00    -0.019 A 
HETATM   21  C4  UNL     1      38.455  24.454  54.584  1.00  0.00     0.015 A 
HETATM   22  C3  UNL     1      39.259  24.869  53.548  1.00  0.00     0.037 A 
HETATM   23  C2  UNL     1      40.337  24.126  53.130  1.00  0.00     0.068 A 
HETATM   24  C23 UNL     1      40.570  22.948  53.801  1.00  0.00     0.037 A 
HETATM   25  C22 UNL     1      39.757  22.520  54.857  1.00  0.00     0.015 A 
BRANCH  23  26
HETATM   26  O1  UNL     1      41.150  24.549  52.079  1.00  0.00    -0.356 OA
HETATM   27  C1  UNL     1      41.210  25.926  51.759  1.00  0.00     0.210 C 
ENDBRANCH  23  26
ENDBRANCH  18  20
ENDBRANCH  15  17
ENDBRANCH   1  15
BRANCH  10  28
HETATM   28  O4  UNL     1      31.506  29.225  56.154  1.00  0.00    -0.311 OA
BRANCH  28  29
HETATM   29  C12 UNL     1      30.293  28.888  56.734  1.00  0.00     0.076 A 
HETATM   30  C13 UNL     1      29.285  28.338  55.978  1.00  0.00     0.037 A 
HETATM   31  C14 UNL     1      28.071  27.990  56.514  1.00  0.00     0.003 A 
HETATM   32  C15 UNL     1      27.848  28.201  57.859  1.00  0.00     0.000 A 
HETATM   33  C16 UNL     1      28.840  28.749  58.635  1.00  0.00     0.003 A 
HETATM   34  C17 UNL     1      30.044  29.088  58.081  1.00  0.00     0.037 A 
ENDBRANCH  28  29
ENDBRANCH  10  28
TORSDOF 6
ENDMDL
MODEL 4
REMARK VINA RESULT: -9.377966103      0.993      1.339
REMARK  6 active torsions:
REMARK  status: ('A' for Active; 'I' for Inactive)
REMARK    1  A    between atoms: O1_2  and  C2_3 
REMARK    2  A    between atoms: C5_6  and  C6_7 
REMARK    3  A    between atoms: N1_8  and  N2_10 
REMARK    4  A    between atoms: N2_10  and  C7_12 
REMARK    5  A    between atoms: C11_21  and  O4_22 
REMARK    6  A    between atoms: O4_22  and  C12_23 
ROOT
HETATM    1  C7  UNL     1      37.442  26.051  50.809  1.00  0.00     0.129 C 
HETATM    2  N3  UNL     1      37.329  27.277  50.491  1.00  0.00    -0.265 N 
ATOM      3  H3  UNL     1      38.206  27.709  50.201  1.00  0.00     0.180 HD
HETATM    4  S1  UNL     1      35.985  28.344  50.458  1.00  0.00     0.265 S 
HETATM    5  O2  UNL     1      35.430  28.374  49.058  1.00  0.00    -0.200 OA
HETATM    6  O3  UNL     1      36.388  29.739  50.846  1.00  0.00    -0.200 OA
HETATM    7  C8  UNL     1      34.720  27.839  51.549  1.00  0.00     0.090 A 
HETATM    8  C9  UNL     1      33.937  28.903  51.904  1.00  0.00     0.029 A 
HETATM    9  C10 UNL     1      32.883  28.675  52.770  1.00  0.00     0.039 A 
HETATM   10  C11 UNL     1      32.642  27.414  53.249  1.00  0.00     0.076 A 
HETATM   11  C18 UNL     1      33.454  26.362  52.866  1.00  0.00     0.050 A 
HETATM   12  C19 UNL     1      34.514  26.556  52.005  1.00  0.00    -0.010 A 
HETATM   13  C20 UNL     1      35.220  25.320  51.749  1.00  0.00     0.017 C 
HETATM   14  C21 UNL     1      36.417  25.150  51.258  1.00  0.00     0.051 C 
ENDROOT
BRANCH   1  15
HETATM   15  N2  UNL     1      38.787  25.540  50.688  1.00  0.00    -0.285 N 
ATOM     16  H2  UNL     1      39.030  24.836  49.991  1.00  0.00     0.188 HD
BRANCH  15  17
HETATM   17  N1  UNL     1      39.718  26.045  51.549  1.00  0.00    -0.309 N 
HETATM   18  C6  UNL     1      40.127  25.726  52.681  1.00  0.00     0.118 C 
ATOM     19  H1  UNL     1      40.186  26.873  51.182  1.00  0.00     0.186 HD
BRANCH  18  20
HETATM   20  C5  UNL     1      39.727  24.626  53.542  1.00  0.00    -0.019 A 
HETATM   21  C4  UNL     1      38.477  24.659  54.175  1.00  0.00     0.015 A 
HETATM   22  C3  UNL     1      38.038  23.652  55.002  1.00  0.00     0.037 A 
HETATM   23  C2  UNL     1      38.808  22.543  55.258  1.00  0.00     0.068 A 
HETATM   24  C23 UNL     1      40.038  22.492  54.646  1.00  0.00     0.037 A 
HETATM   25  C22 UNL     1      40.492  23.514  53.803  1.00  0.00     0.015 A 
BRANCH  23  26
HETATM   26  O1  UNL     1      38.360  21.523  56.097  1.00  0.00    -0.356 OA
HETATM   27  C1  UNL     1      36.977  21.227  56.153  1.00  0.00     0.210 C 
ENDBRANCH  23  26
ENDBRANCH  18  20
ENDBRANCH  15  17
ENDBRANCH   1  15
BRANCH  10  28
HETATM   28  O4  UNL     1      31.585  27.192  54.114  1.00  0.00    -0.311 OA
BRANCH  28  29
HETATM   29  C12 UNL     1      31.602  27.722  55.393  1.00  0.00     0.076 A 
HETATM   30  C13 UNL     1      30.494  27.636  56.202  1.00  0.00     0.037 A 
HETATM   31  C14 UNL     1      30.470  28.148  57.475  1.00  0.00     0.003 A 
HETATM   32  C15 UNL     1      31.597  28.775  57.964  1.00  0.00     0.000 A 
HETATM   33  C16 UNL     1      32.717  28.874  57.175  1.00  0.00     0.003 A 
HETATM   34  C17 UNL     1      32.720  28.356  55.909  1.00  0.00     0.037 A 
ENDBRANCH  28  29
ENDBRANCH  10  28
TORSDOF 6
ENDMDL
MODEL 5
REMARK VINA RESULT: -9.127409748      3.451      6.502
REMARK  6 active torsions:
REMARK  status: ('A' for Active; 'I' for Inactive)
REMARK    1  A    between atoms: O1_2  and  C2_3 
REMARK    2  A    between atoms: C5_6  and  C6_7 
REMARK    3  A    between atoms: N1_8  and  N2_10 
REMARK    4  A    between atoms: N2_10  and  C7_12 
REMARK    5  A    between atoms: C11_21  and  O4_22 
REMARK    6  A    between atoms: O4_22  and  C12_23 
ROOT
HETATM    1  C7  UNL     1      31.929  29.271  51.691  1.00  0.00     0.129 C 
HETATM    2  N3  UNL     1      31.820  29.518  52.933  1.00  0.00    -0.265 N 
ATOM      3  H3  UNL     1      31.746  30.511  53.151  1.00  0.00     0.180 HD
HETATM    4  S1  UNL     1      31.773  28.500  54.314  1.00  0.00     0.265 S 
HETATM    5  O2  UNL     1      30.334  28.245  54.676  1.00  0.00    -0.200 OA
HETATM    6  O3  UNL     1      32.458  29.143  55.487  1.00  0.00    -0.200 OA
HETATM    7  C8  UNL     1      32.555  26.966  54.024  1.00  0.00     0.090 A 
HETATM    8  C9  UNL     1      32.971  26.407  55.202  1.00  0.00     0.029 A 
HETATM    9  C10 UNL     1      33.614  25.184  55.150  1.00  0.00     0.039 A 
HETATM   10  C11 UNL     1      33.820  24.562  53.947  1.00  0.00     0.076 A 
HETATM   11  C18 UNL     1      33.385  25.157  52.777  1.00  0.00     0.050 A 
HETATM   12  C19 UNL     1      32.741  26.377  52.794  1.00  0.00    -0.010 A 
HETATM   13  C20 UNL     1      32.379  26.802  51.460  1.00  0.00     0.017 C 
HETATM   14  C21 UNL     1      32.052  27.994  51.043  1.00  0.00     0.051 C 
ENDROOT
BRANCH   1  15
HETATM   15  N2  UNL     1      31.923  30.453  50.861  1.00  0.00    -0.285 N 
ATOM     16  H2  UNL     1      31.130  30.681  50.261  1.00  0.00     0.188 HD
BRANCH  15  17
HETATM   17  N1  UNL     1      33.029  31.251  50.917  1.00  0.00    -0.309 N 
HETATM   18  C6  UNL     1      34.256  31.052  50.852  1.00  0.00     0.118 C 
ATOM     19  H1  UNL     1      32.797  32.237  51.040  1.00  0.00     0.186 HD
BRANCH  18  20
HETATM   20  C5  UNL     1      34.992  29.811  50.683  1.00  0.00    -0.019 A 
HETATM   21  C4  UNL     1      35.336  29.048  51.807  1.00  0.00     0.015 A 
HETATM   22  C3  UNL     1      36.031  27.865  51.717  1.00  0.00     0.037 A 
HETATM   23  C2  UNL     1      36.434  27.357  50.504  1.00  0.00     0.068 A 
HETATM   24  C23 UNL     1      36.107  28.092  49.389  1.00  0.00     0.037 A 
HETATM   25  C22 UNL     1      35.399  29.297  49.473  1.00  0.00     0.015 A 
BRANCH  23  26
HETATM   26  O1  UNL     1      37.140  26.158  50.416  1.00  0.00    -0.356 OA
HETATM   27  C1  UNL     1      38.495  26.118  50.818  1.00  0.00     0.210 C 
ENDBRANCH  23  26
ENDBRANCH  18  20
ENDBRANCH  15  17
ENDBRANCH   1  15
BRANCH  10  28
HETATM   28  O4  UNL     1      34.463  23.338  53.901  1.00  0.00    -0.311 OA
BRANCH  28  29
HETATM   29  C12 UNL     1      35.767  23.213  54.352  1.00  0.00     0.076 A 
HETATM   30  C13 UNL     1      36.789  23.899  53.740  1.00  0.00     0.037 A 
HETATM   31  C14 UNL     1      38.093  23.803  54.156  1.00  0.00     0.003 A 
HETATM   32  C15 UNL     1      38.394  22.987  55.226  1.00  0.00     0.000 A 
HETATM   33  C16 UNL     1      37.391  22.290  55.854  1.00  0.00     0.003 A 
HETATM   34  C17 UNL     1      36.098  22.401  55.424  1.00  0.00     0.037 A 
ENDBRANCH  28  29
ENDBRANCH  10  28
TORSDOF 6
ENDMDL
