MODEL 1
REMARK VINA RESULT: -7.834358066      0.000      0.000
REMARK  5 active torsions:
REMARK  status: ('A' for Active; 'I' for Inactive)
REMARK    1  A    between atoms: N1_6  and  C6_7 
REMARK    2  A    between atoms: C6_7  and  C7_8 
REMARK    3  A    between atoms: C7_8  and  C8_9 
REMARK    4  A    between atoms: C8_9  and  N2_11 
REMARK    5  A    between atoms: N3_15  and  C12_16 
ROOT
HETATM    1  N2  UNL     1      23.096   8.063  -3.736  1.00  0.00    -0.394 N 
HETATM    2  C9  UNL     1      22.386   9.150  -3.242  1.00  0.00     0.123 C 
HETATM    3  C10 UNL     1      21.742   9.900  -4.422  1.00  0.00     0.064 C 
HETATM    4  C11 UNL     1      21.295   8.885  -5.466  1.00  0.00     0.060 C 
HETATM    5  N3  UNL     1      20.345   8.013  -4.901  1.00  0.00    -0.387 N 
HETATM    6  C17 UNL     1      20.852   7.035  -3.995  1.00  0.00     0.141 C 
HETATM    7  C18 UNL     1      22.330   6.891  -4.011  1.00  0.00     0.138 C 
ENDROOT
BRANCH   1   8
HETATM    8  C8  UNL     1      24.396   7.742  -3.421  1.00  0.00     0.178 C 
HETATM    9 CL1  UNL     1      24.761   8.539  -1.823  1.00  0.00    -0.103 Cl
BRANCH   8  10
HETATM   10  C7  UNL     1      24.937   6.386  -3.356  1.00  0.00     0.071 C 
BRANCH  10  11
HETATM   11  C6  UNL     1      26.057   6.216  -2.409  1.00  0.00     0.276 C 
BRANCH  11  12
HETATM   12  N1  UNL     1      26.387   4.824  -2.145  1.00  0.00     0.092 N 
HETATM   13  C2  UNL     1      25.662   3.935  -3.002  1.00  0.00     0.219 C 
HETATM   14  C1  UNL     1      24.698   3.044  -2.211  1.00  0.00     0.043 C 
HETATM   15  C3  UNL     1      26.609   3.076  -3.767  1.00  0.00     0.037 C 
HETATM   16  C4  UNL     1      27.869   3.156  -2.927  1.00  0.00     0.032 C 
HETATM   17  C5  UNL     1      27.762   4.512  -2.256  1.00  0.00     0.273 C 
ENDBRANCH  11  12
ENDBRANCH  10  11
ENDBRANCH   8  10
ENDBRANCH   1   8
BRANCH   5  18
HETATM   18  C12 UNL     1      19.227   7.636  -5.672  1.00  0.00     0.083 C 
HETATM   19  C13 UNL     1      19.135   8.559  -6.880  1.00  0.00     0.025 C 
HETATM   20  C14 UNL     1      17.668   8.648  -7.217  1.00  0.00     0.002 C 
HETATM   21  C15 UNL     1      16.916   8.319  -5.952  1.00  0.00     0.002 C 
HETATM   22  C16 UNL     1      17.905   7.673  -4.998  1.00  0.00     0.025 C 
ENDBRANCH   5  18
TORSDOF 5
ENDMDL
MODEL 2
REMARK VINA RESULT: -7.638389435      1.005      1.670
REMARK  5 active torsions:
REMARK  status: ('A' for Active; 'I' for Inactive)
REMARK    1  A    between atoms: N1_6  and  C6_7 
REMARK    2  A    between atoms: C6_7  and  C7_8 
REMARK    3  A    between atoms: C7_8  and  C8_9 
REMARK    4  A    between atoms: C8_9  and  N2_11 
REMARK    5  A    between atoms: N3_15  and  C12_16 
ROOT
HETATM    1  N2  UNL     1      22.568   7.253  -4.318  1.00  0.00    -0.394 N 
HETATM    2  C9  UNL     1      21.745   6.157  -4.099  1.00  0.00     0.123 C 
HETATM    3  C10 UNL     1      20.486   6.623  -3.345  1.00  0.00     0.064 C 
HETATM    4  C11 UNL     1      20.093   8.004  -3.851  1.00  0.00     0.060 C 
HETATM    5  N3  UNL     1      19.805   7.939  -5.228  1.00  0.00    -0.387 N 
HETATM    6  C17 UNL     1      20.929   7.811  -6.097  1.00  0.00     0.141 C 
HETATM    7  C18 UNL     1      22.240   8.063  -5.446  1.00  0.00     0.138 C 
ENDROOT
BRANCH   1   8
HETATM    8  C8  UNL     1      23.913   7.318  -4.037  1.00  0.00     0.178 C 
HETATM    9 CL1  UNL     1      24.104   8.481  -2.646  1.00  0.00    -0.103 Cl
BRANCH   8  10
HETATM   10  C7  UNL     1      24.771   6.170  -3.755  1.00  0.00     0.071 C 
BRANCH  10  11
HETATM   11  C6  UNL     1      25.613   6.312  -2.550  1.00  0.00     0.276 C 
BRANCH  11  12
HETATM   12  N1  UNL     1      26.217   5.063  -2.114  1.00  0.00     0.092 N 
HETATM   13  C2  UNL     1      25.794   3.958  -2.920  1.00  0.00     0.219 C 
HETATM   14  C1  UNL     1      24.981   2.943  -2.110  1.00  0.00     0.043 C 
HETATM   15  C3  UNL     1      26.977   3.277  -3.517  1.00  0.00     0.037 C 
HETATM   16  C4  UNL     1      28.102   3.719  -2.601  1.00  0.00     0.032 C 
HETATM   17  C5  UNL     1      27.632   5.068  -2.090  1.00  0.00     0.273 C 
ENDBRANCH  11  12
ENDBRANCH  10  11
ENDBRANCH   8  10
ENDBRANCH   1   8
BRANCH   5  18
HETATM   18  C12 UNL     1      18.704   8.663  -5.726  1.00  0.00     0.083 C 
HETATM   19  C13 UNL     1      17.424   8.009  -5.224  1.00  0.00     0.025 C 
HETATM   20  C14 UNL     1      16.384   8.276  -6.284  1.00  0.00     0.002 C 
HETATM   21  C15 UNL     1      17.135   8.515  -7.570  1.00  0.00     0.002 C 
HETATM   22  C16 UNL     1      18.586   8.770  -7.203  1.00  0.00     0.025 C 
ENDBRANCH   5  18
TORSDOF 5
ENDMDL
MODEL 3
REMARK VINA RESULT: -7.089715087      1.099      1.675
REMARK  5 active torsions:
REMARK  status: ('A' for Active; 'I' for Inactive)
REMARK    1  A    between atoms: N1_6  and  C6_7 
REMARK    2  A    between atoms: C6_7  and  C7_8 
REMARK    3  A    between atoms: C7_8  and  C8_9 
REMARK    4  A    between atoms: C8_9  and  N2_11 
REMARK    5  A    between atoms: N3_15  and  C12_16 
ROOT
HETATM    1  N2  UNL     1      23.464   7.193  -3.978  1.00  0.00    -0.394 N 
HETATM    2  C9  UNL     1      23.106   8.516  -3.756  1.00  0.00     0.123 C 
HETATM    3  C10 UNL     1      22.605   9.123  -5.080  1.00  0.00     0.064 C 
HETATM    4  C11 UNL     1      21.834   8.060  -5.848  1.00  0.00     0.060 C 
HETATM    5  N3  UNL     1      20.726   7.637  -5.089  1.00  0.00    -0.387 N 
HETATM    6  C17 UNL     1      21.015   6.792  -3.977  1.00  0.00     0.141 C 
HETATM    7  C18 UNL     1      22.396   6.247  -3.962  1.00  0.00     0.138 C 
ENDROOT
BRANCH   1   8
HETATM    8  C8  UNL     1      24.650   6.607  -3.599  1.00  0.00     0.178 C 
HETATM    9 CL1  UNL     1      25.329   7.623  -2.246  1.00  0.00    -0.103 Cl
BRANCH   8  10
HETATM   10  C7  UNL     1      24.811   5.209  -3.207  1.00  0.00     0.071 C 
BRANCH  10  11
HETATM   11  C6  UNL     1      26.148   4.869  -2.679  1.00  0.00     0.276 C 
BRANCH  11  12
HETATM   12  N1  UNL     1      26.592   3.532  -3.042  1.00  0.00     0.092 N 
HETATM   13  C2  UNL     1      27.529   3.009  -2.094  1.00  0.00     0.219 C 
HETATM   14  C1  UNL     1      28.911   2.793  -2.722  1.00  0.00     0.043 C 
HETATM   15  C3  UNL     1      27.032   1.717  -1.542  1.00  0.00     0.037 C 
HETATM   16  C4  UNL     1      26.034   1.277  -2.596  1.00  0.00     0.032 C 
HETATM   17  C5  UNL     1      25.552   2.585  -3.194  1.00  0.00     0.273 C 
ENDBRANCH  11  12
ENDBRANCH  10  11
ENDBRANCH   8  10
ENDBRANCH   1   8
BRANCH   5  18
HETATM   18  C12 UNL     1      19.498   7.416  -5.744  1.00  0.00     0.083 C 
HETATM   19  C13 UNL     1      19.359   8.431  -6.871  1.00  0.00     0.025 C 
HETATM   20  C14 UNL     1      17.877   8.671  -7.025  1.00  0.00     0.002 C 
HETATM   21  C15 UNL     1      17.245   8.315  -5.703  1.00  0.00     0.002 C 
HETATM   22  C16 UNL     1      18.269   7.516  -4.917  1.00  0.00     0.025 C 
ENDBRANCH   5  18
TORSDOF 5
ENDMDL
MODEL 4
REMARK VINA RESULT: -7.076223916      2.022      8.736
REMARK  5 active torsions:
REMARK  status: ('A' for Active; 'I' for Inactive)
REMARK    1  A    between atoms: N1_6  and  C6_7 
REMARK    2  A    between atoms: C6_7  and  C7_8 
REMARK    3  A    between atoms: C7_8  and  C8_9 
REMARK    4  A    between atoms: C8_9  and  N2_11 
REMARK    5  A    between atoms: N3_15  and  C12_16 
ROOT
HETATM    1  N2  UNL     1      25.731   4.535  -2.687  1.00  0.00    -0.394 N 
HETATM    2  C9  UNL     1      24.936   3.442  -2.370  1.00  0.00     0.123 C 
HETATM    3  C10 UNL     1      25.149   2.348  -3.433  1.00  0.00     0.064 C 
HETATM    4  C11 UNL     1      26.611   2.353  -3.857  1.00  0.00     0.060 C 
HETATM    5  N3  UNL     1      27.427   2.076  -2.744  1.00  0.00    -0.387 N 
HETATM    6  C17 UNL     1      27.576   3.134  -1.798  1.00  0.00     0.141 C 
HETATM    7  C18 UNL     1      27.094   4.455  -2.274  1.00  0.00     0.138 C 
ENDROOT
BRANCH   1   8
HETATM    8  C8  UNL     1      25.309   5.843  -2.752  1.00  0.00     0.178 C 
HETATM    9 CL1  UNL     1      26.747   6.880  -2.325  1.00  0.00    -0.103 Cl
BRANCH   8  10
HETATM   10  C7  UNL     1      24.662   6.464  -3.905  1.00  0.00     0.071 C 
BRANCH  10  11
HETATM   11  C6  UNL     1      24.359   7.900  -3.741  1.00  0.00     0.276 C 
BRANCH  11  12
HETATM   12  N1  UNL     1      22.949   8.172  -3.507  1.00  0.00     0.092 N 
HETATM   13  C2  UNL     1      22.571   9.465  -3.991  1.00  0.00     0.219 C 
HETATM   14  C1  UNL     1      22.137  10.393  -2.850  1.00  0.00     0.043 C 
HETATM   15  C3  UNL     1      21.458   9.339  -4.973  1.00  0.00     0.037 C 
HETATM   16  C4  UNL     1      20.878   7.980  -4.632  1.00  0.00     0.032 C 
HETATM   17  C5  UNL     1      22.063   7.222  -4.067  1.00  0.00     0.273 C 
ENDBRANCH  11  12
ENDBRANCH  10  11
ENDBRANCH   8  10
ENDBRANCH   1   8
BRANCH   5  18
HETATM   18  C12 UNL     1      28.535   1.221  -2.910  1.00  0.00     0.083 C 
HETATM   19  C13 UNL     1      28.370   0.459  -4.218  1.00  0.00     0.025 C 
HETATM   20  C14 UNL     1      29.064  -0.864  -4.012  1.00  0.00     0.002 C 
HETATM   21  C15 UNL     1      29.086  -1.110  -2.524  1.00  0.00     0.002 C 
HETATM   22  C16 UNL     1      28.766   0.210  -1.846  1.00  0.00     0.025 C 
ENDBRANCH   5  18
TORSDOF 5
ENDMDL
MODEL 5
REMARK VINA RESULT: -6.830523532      2.883      8.400
REMARK  5 active torsions:
REMARK  status: ('A' for Active; 'I' for Inactive)
REMARK    1  A    between atoms: N1_6  and  C6_7 
REMARK    2  A    between atoms: C6_7  and  C7_8 
REMARK    3  A    between atoms: C7_8  and  C8_9 
REMARK    4  A    between atoms: C8_9  and  N2_11 
REMARK    5  A    between atoms: N3_15  and  C12_16 
ROOT
HETATM    1  N2  UNL     1      23.244   3.156  -3.169  1.00  0.00    -0.394 N 
HETATM    2  C9  UNL     1      23.057   2.405  -2.017  1.00  0.00     0.123 C 
HETATM    3  C10 UNL     1      23.892   1.115  -2.124  1.00  0.00     0.064 C 
HETATM    4  C11 UNL     1      25.201   1.435  -2.833  1.00  0.00     0.060 C 
HETATM    5  N3  UNL     1      25.922   2.388  -2.089  1.00  0.00    -0.387 N 
HETATM    6  C17 UNL     1      25.430   3.726  -2.142  1.00  0.00     0.141 C 
HETATM    7  C18 UNL     1      24.417   3.967  -3.201  1.00  0.00     0.138 C 
ENDROOT
BRANCH   1   8
HETATM    8  C8  UNL     1      22.246   3.700  -3.945  1.00  0.00     0.178 C 
HETATM    9 CL1  UNL     1      21.127   2.333  -4.396  1.00  0.00    -0.103 Cl
BRANCH   8  10
HETATM   10  C7  UNL     1      21.405   4.832  -3.564  1.00  0.00     0.071 C 
BRANCH  10  11
HETATM   11  C6  UNL     1      21.443   5.970  -4.505  1.00  0.00     0.276 C 
BRANCH  11  12
HETATM   12  N1  UNL     1      22.094   7.151  -3.960  1.00  0.00     0.092 N 
HETATM   13  C2  UNL     1      23.161   7.604  -4.800  1.00  0.00     0.219 C 
HETATM   14  C1  UNL     1      24.521   7.489  -4.103  1.00  0.00     0.043 C 
HETATM   15  C3  UNL     1      22.932   9.020  -5.202  1.00  0.00     0.037 C 
HETATM   16  C4  UNL     1      21.969   9.506  -4.136  1.00  0.00     0.032 C 
HETATM   17  C5  UNL     1      21.231   8.247  -3.726  1.00  0.00     0.273 C 
ENDBRANCH  11  12
ENDBRANCH  10  11
ENDBRANCH   8  10
ENDBRANCH   1   8
BRANCH   5  18
HETATM   18  C12 UNL     1      27.316   2.235  -1.960  1.00  0.00     0.083 C 
HETATM   19  C13 UNL     1      27.940   2.263  -3.350  1.00  0.00     0.025 C 
HETATM   20  C14 UNL     1      29.176   1.403  -3.262  1.00  0.00     0.002 C 
HETATM   21  C15 UNL     1      28.957   0.454  -2.110  1.00  0.00     0.002 C 
HETATM   22  C16 UNL     1      27.797   0.997  -1.296  1.00  0.00     0.025 C 
ENDBRANCH   5  18
TORSDOF 5
ENDMDL
