MODEL 1
REMARK VINA RESULT: -6.964514859      0.000      0.000
REMARK  9 active torsions:
REMARK  status: ('A' for Active; 'I' for Inactive)
REMARK    1  A    between atoms: N1_1  and  C1_4 
REMARK    2  A    between atoms: C2_7  and  N3_8 
REMARK    3  A    between atoms: N4_10  and  O1_11 
REMARK    4  A    between atoms: N4_10  and  N5_13 
REMARK    5  A    between atoms: N5_13  and  N6_15 
REMARK    6  A    between atoms: C3_18  and  N7_19 
REMARK    7  A    between atoms: N7_19  and  C4_21 
REMARK    8  A    between atoms: C4_21  and  C5_22 
REMARK    9  A    between atoms: N9_24  and  N10_26 
ROOT
HETATM    1  C1  UNL     1      79.039  12.699  19.036  1.00  0.00     0.680 A 
HETATM    2  N2  UNL     1      78.330  12.566  17.901  1.00  0.00    -0.173 N 
ATOM      3  H2  UNL     1      77.743  11.740  17.792  1.00  0.00     0.186 HD
HETATM    4  C2  UNL     1      78.357  13.464  16.907  1.00  0.00     0.171 A 
HETATM    5  C3  UNL     1      79.143  14.591  17.030  1.00  0.00     0.144 A 
HETATM    6  C6  UNL     1      79.880  14.730  18.211  1.00  0.00     0.290 A 
HETATM    7  O4  UNL     1      80.610  15.746  18.357  1.00  0.00    -0.265 OA
HETATM    8  N11 UNL     1      79.809  13.793  19.168  1.00  0.00    -0.154 N 
ATOM      9  H11 UNL     1      80.355  13.914  20.021  1.00  0.00     0.187 HD
ENDROOT
BRANCH   4  10
HETATM   10  N3  UNL     1      77.594  13.294  15.717  1.00  0.00    -0.239 N 
HETATM   11  N4  UNL     1      76.347  13.073  15.743  1.00  0.00    -0.073 N 
ATOM     12  H3  UNL     1      78.068  13.352  14.815  1.00  0.00     0.193 HD
BRANCH  11  13
HETATM   13  O1  UNL     1      75.698  12.991  16.950  1.00  0.00    -0.252 OA
ATOM     14  H1  UNL     1      75.123  12.255  17.124  1.00  0.00     0.248 HD
ENDBRANCH  11  13
BRANCH  11  15
HETATM   15  N5  UNL     1      75.595  12.907  14.587  1.00  0.00    -0.140 N 
ATOM     16  H5  UNL     1      75.728  13.569  13.822  1.00  0.00     0.219 HD
BRANCH  15  17
HETATM   17  N6  UNL     1      74.671  11.882  14.421  1.00  0.00    -0.020 N 
HETATM   18  O2  UNL     1      74.884  10.740  14.869  1.00  0.00    -0.515 OA
HETATM   19  O3  UNL     1      73.468  12.059  13.756  1.00  0.00    -0.515 OA
ENDBRANCH  15  17
ENDBRANCH  11  15
ENDBRANCH   4  10
BRANCH   5  20
HETATM   20  N7  UNL     1      79.217  15.583  16.013  1.00  0.00    -0.376 N 
ATOM     21  H7  UNL     1      78.420  16.199  15.851  1.00  0.00     0.160 HD
BRANCH  20  22
HETATM   22  C4  UNL     1      80.414  15.732  15.202  1.00  0.00     0.194 C 
BRANCH  22  23
HETATM   23  C5  UNL     1      80.928  14.406  14.802  1.00  0.00     0.124 C 
HETATM   24  N8  UNL     1      80.262  13.600  13.854  1.00  0.00    -0.084 NA
HETATM   25  N9  UNL     1      82.018  13.960  15.327  1.00  0.00    -0.296 N 
ATOM     26  H9  UNL     1      82.507  14.534  16.013  1.00  0.00     0.187 HD
BRANCH  25  27
HETATM   27  N10 UNL     1      82.548  12.716  14.986  1.00  0.00    -0.344 N 
ATOM     28 2H10 UNL     1      82.026  12.137  14.328  1.00  0.00     0.176 HD
ATOM     29 1H10 UNL     1      83.430  12.379  15.372  1.00  0.00     0.176 HD
ENDBRANCH  25  27
ENDBRANCH  22  23
ENDBRANCH  20  22
ENDBRANCH   5  20
BRANCH   1  30
HETATM   30  N1  UNL     1      78.996  11.816  19.984  1.00  0.00    -0.234 N 
ATOM     31  H12 UNL     1      79.390  12.027  20.900  1.00  0.00     0.174 HD
ATOM     32  H11 UNL     1      78.574  10.897  19.849  1.00  0.00     0.174 HD
ENDBRANCH   1  30
TORSDOF 9
ENDMDL
MODEL 2
REMARK VINA RESULT: -6.915654082      3.141      5.566
REMARK  9 active torsions:
REMARK  status: ('A' for Active; 'I' for Inactive)
REMARK    1  A    between atoms: N1_1  and  C1_4 
REMARK    2  A    between atoms: C2_7  and  N3_8 
REMARK    3  A    between atoms: N4_10  and  O1_11 
REMARK    4  A    between atoms: N4_10  and  N5_13 
REMARK    5  A    between atoms: N5_13  and  N6_15 
REMARK    6  A    between atoms: C3_18  and  N7_19 
REMARK    7  A    between atoms: N7_19  and  C4_21 
REMARK    8  A    between atoms: C4_21  and  C5_22 
REMARK    9  A    between atoms: N9_24  and  N10_26 
ROOT
HETATM    1  C1  UNL     1      73.446  12.800  13.219  1.00  0.00     0.680 A 
HETATM    2  N2  UNL     1      73.874  13.025  14.473  1.00  0.00    -0.173 N 
ATOM      3  H2  UNL     1      73.518  12.431  15.220  1.00  0.00     0.186 HD
HETATM    4  C2  UNL     1      74.747  13.992  14.791  1.00  0.00     0.171 A 
HETATM    5  C3  UNL     1      75.244  14.811  13.798  1.00  0.00     0.144 A 
HETATM    6  C6  UNL     1      74.798  14.577  12.493  1.00  0.00     0.290 A 
HETATM    7  O4  UNL     1      75.231  15.305  11.561  1.00  0.00    -0.265 OA
HETATM    8  N11 UNL     1      73.923  13.591  12.243  1.00  0.00    -0.154 N 
ATOM      9  H11 UNL     1      73.611  13.438  11.284  1.00  0.00     0.187 HD
ENDROOT
BRANCH   4  10
HETATM   10  N3  UNL     1      75.182  14.206  16.128  1.00  0.00    -0.239 N 
HETATM   11  N4  UNL     1      75.986  13.417  16.708  1.00  0.00    -0.073 N 
ATOM     12  H3  UNL     1      74.835  15.019  16.636  1.00  0.00     0.193 HD
BRANCH  11  13
HETATM   13  O1  UNL     1      76.459  12.317  16.037  1.00  0.00    -0.252 OA
ATOM     14  H1  UNL     1      76.838  11.596  16.526  1.00  0.00     0.248 HD
ENDBRANCH  11  13
BRANCH  11  15
HETATM   15  N5  UNL     1      76.416  13.618  18.014  1.00  0.00    -0.140 N 
ATOM     16  H5  UNL     1      75.713  13.717  18.747  1.00  0.00     0.219 HD
BRANCH  15  17
HETATM   17  N6  UNL     1      77.757  13.691  18.370  1.00  0.00    -0.020 N 
HETATM   18  O2  UNL     1      78.181  14.596  19.113  1.00  0.00    -0.515 OA
HETATM   19  O3  UNL     1      78.701  12.777  17.927  1.00  0.00    -0.515 OA
ENDBRANCH  15  17
ENDBRANCH  11  15
ENDBRANCH   4  10
BRANCH   5  20
HETATM   20  N7  UNL     1      76.172  15.855  14.065  1.00  0.00    -0.376 N 
ATOM     21  H7  UNL     1      75.876  16.665  14.610  1.00  0.00     0.160 HD
BRANCH  20  22
HETATM   22  C4  UNL     1      77.538  15.784  13.572  1.00  0.00     0.194 C 
BRANCH  22  23
HETATM   23  C5  UNL     1      78.383  15.029  14.520  1.00  0.00     0.124 C 
HETATM   24  N8  UNL     1      78.961  15.635  15.657  1.00  0.00    -0.084 NA
HETATM   25  N9  UNL     1      78.608  13.775  14.315  1.00  0.00    -0.296 N 
ATOM     26  H9  UNL     1      78.196  13.327  13.497  1.00  0.00     0.187 HD
BRANCH  25  27
HETATM   27  N10 UNL     1      79.398  13.014  15.176  1.00  0.00    -0.344 N 
ATOM     28 2H10 UNL     1      79.849  13.490  15.958  1.00  0.00     0.176 HD
ATOM     29 1H10 UNL     1      79.533  12.012  15.044  1.00  0.00     0.176 HD
ENDBRANCH  25  27
ENDBRANCH  22  23
ENDBRANCH  20  22
ENDBRANCH   5  20
BRANCH   1  30
HETATM   30  N1  UNL     1      72.601  11.857  12.938  1.00  0.00    -0.234 N 
ATOM     31  H12 UNL     1      72.067  11.410  13.682  1.00  0.00     0.174 HD
ATOM     32  H11 UNL     1      72.444  11.537  11.982  1.00  0.00     0.174 HD
ENDBRANCH   1  30
TORSDOF 9
ENDMDL
MODEL 3
REMARK VINA RESULT: -6.905283030      3.014      5.137
REMARK  9 active torsions:
REMARK  status: ('A' for Active; 'I' for Inactive)
REMARK    1  A    between atoms: N1_1  and  C1_4 
REMARK    2  A    between atoms: C2_7  and  N3_8 
REMARK    3  A    between atoms: N4_10  and  O1_11 
REMARK    4  A    between atoms: N4_10  and  N5_13 
REMARK    5  A    between atoms: N5_13  and  N6_15 
REMARK    6  A    between atoms: C3_18  and  N7_19 
REMARK    7  A    between atoms: N7_19  and  C4_21 
REMARK    8  A    between atoms: C4_21  and  C5_22 
REMARK    9  A    between atoms: N9_24  and  N10_26 
ROOT
HETATM    1  C1  UNL     1      74.223  15.208  13.455  1.00  0.00     0.680 A 
HETATM    2  N2  UNL     1      74.499  14.944  14.744  1.00  0.00    -0.173 N 
ATOM      3  H2  UNL     1      73.730  14.689  15.362  1.00  0.00     0.186 HD
HETATM    4  C2  UNL     1      75.736  14.999  15.258  1.00  0.00     0.171 A 
HETATM    5  C3  UNL     1      76.795  15.342  14.444  1.00  0.00     0.144 A 
HETATM    6  C6  UNL     1      76.508  15.617  13.103  1.00  0.00     0.290 A 
HETATM    7  O4  UNL     1      77.451  15.933  12.330  1.00  0.00    -0.265 OA
HETATM    8  N11 UNL     1      75.247  15.543  12.651  1.00  0.00    -0.154 N 
ATOM      9  H11 UNL     1      75.060  15.747  11.670  1.00  0.00     0.187 HD
ENDROOT
BRANCH   4  10
HETATM   10  N3  UNL     1      75.996  14.715  16.628  1.00  0.00    -0.239 N 
HETATM   11  N4  UNL     1      76.121  13.529  17.057  1.00  0.00    -0.073 N 
ATOM     12  H3  UNL     1      76.085  15.490  17.285  1.00  0.00     0.193 HD
BRANCH  11  13
HETATM   13  O1  UNL     1      76.002  12.476  16.183  1.00  0.00    -0.252 OA
ATOM     14  H1  UNL     1      76.771  11.965  15.958  1.00  0.00     0.248 HD
ENDBRANCH  11  13
BRANCH  11  15
HETATM   15  N5  UNL     1      76.375  13.242  18.392  1.00  0.00    -0.140 N 
ATOM     16  H5  UNL     1      75.689  12.692  18.910  1.00  0.00     0.219 HD
BRANCH  15  17
HETATM   17  N6  UNL     1      77.520  13.668  19.057  1.00  0.00    -0.020 N 
HETATM   18  O2  UNL     1      78.196  12.884  19.748  1.00  0.00    -0.515 OA
HETATM   19  O3  UNL     1      77.978  14.975  18.997  1.00  0.00    -0.515 OA
ENDBRANCH  15  17
ENDBRANCH  11  15
ENDBRANCH   4  10
BRANCH   5  20
HETATM   20  N7  UNL     1      78.132  15.420  14.925  1.00  0.00    -0.376 N 
ATOM     21  H7  UNL     1      78.441  16.255  15.422  1.00  0.00     0.160 HD
BRANCH  20  22
HETATM   22  C4  UNL     1      79.063  14.323  14.718  1.00  0.00     0.194 C 
BRANCH  22  23
HETATM   23  C5  UNL     1      79.504  13.775  16.018  1.00  0.00     0.124 C 
HETATM   24  N8  UNL     1      79.144  12.479  16.445  1.00  0.00    -0.084 NA
HETATM   25  N9  UNL     1      80.240  14.494  16.796  1.00  0.00    -0.296 N 
ATOM     26  H9  UNL     1      80.506  15.432  16.497  1.00  0.00     0.187 HD
BRANCH  25  27
HETATM   27  N10 UNL     1      80.685  14.028  18.033  1.00  0.00    -0.344 N 
ATOM     28 2H10 UNL     1      80.041  13.468  18.593  1.00  0.00     0.176 HD
ATOM     29 1H10 UNL     1      81.620  14.230  18.384  1.00  0.00     0.176 HD
ENDBRANCH  25  27
ENDBRANCH  22  23
ENDBRANCH  20  22
ENDBRANCH   5  20
BRANCH   1  30
HETATM   30  N1  UNL     1      73.018  15.147  12.982  1.00  0.00    -0.234 N 
ATOM     31  H12 UNL     1      72.271  14.728  13.536  1.00  0.00     0.174 HD
ATOM     32  H11 UNL     1      72.779  15.508  12.058  1.00  0.00     0.174 HD
ENDBRANCH   1  30
TORSDOF 9
ENDMDL
MODEL 4
REMARK VINA RESULT: -6.808845056      1.333      1.532
REMARK  9 active torsions:
REMARK  status: ('A' for Active; 'I' for Inactive)
REMARK    1  A    between atoms: N1_1  and  C1_4 
REMARK    2  A    between atoms: C2_7  and  N3_8 
REMARK    3  A    between atoms: N4_10  and  O1_11 
REMARK    4  A    between atoms: N4_10  and  N5_13 
REMARK    5  A    between atoms: N5_13  and  N6_15 
REMARK    6  A    between atoms: C3_18  and  N7_19 
REMARK    7  A    between atoms: N7_19  and  C4_21 
REMARK    8  A    between atoms: C4_21  and  C5_22 
REMARK    9  A    between atoms: N9_24  and  N10_26 
ROOT
HETATM    1  C1  UNL     1      77.774  13.350  18.827  1.00  0.00     0.680 A 
HETATM    2  N2  UNL     1      76.921  13.431  17.790  1.00  0.00    -0.173 N 
ATOM      3  H2  UNL     1      75.951  13.155  17.938  1.00  0.00     0.186 HD
HETATM    4  C2  UNL     1      77.282  13.856  16.571  1.00  0.00     0.171 A 
HETATM    5  C3  UNL     1      78.589  14.235  16.344  1.00  0.00     0.144 A 
HETATM    6  C6  UNL     1      79.476  14.151  17.423  1.00  0.00     0.290 A 
HETATM    7  O4  UNL     1      80.677  14.489  17.251  1.00  0.00    -0.265 OA
HETATM    8  N11 UNL     1      79.050  13.717  18.618  1.00  0.00    -0.154 N 
ATOM      9  H11 UNL     1      79.713  13.664  19.391  1.00  0.00     0.187 HD
ENDROOT
BRANCH   4  10
HETATM   10  N3  UNL     1      76.356  13.930  15.494  1.00  0.00    -0.239 N 
HETATM   11  N4  UNL     1      75.599  12.961  15.189  1.00  0.00    -0.073 N 
ATOM     12  H3  UNL     1      76.300  14.791  14.949  1.00  0.00     0.193 HD
BRANCH  11  13
HETATM   13  O1  UNL     1      75.665  11.796  15.913  1.00  0.00    -0.252 OA
ATOM     14  H1  UNL     1      75.427  10.974  15.500  1.00  0.00     0.248 HD
ENDBRANCH  11  13
BRANCH  11  15
HETATM   15  N5  UNL     1      74.691  13.026  14.140  1.00  0.00    -0.140 N 
ATOM     16  H5  UNL     1      74.682  13.862  13.556  1.00  0.00     0.219 HD
BRANCH  15  17
HETATM   17  N6  UNL     1      73.794  12.005  13.847  1.00  0.00    -0.020 N 
HETATM   18  O2  UNL     1      72.655  12.251  13.408  1.00  0.00    -0.515 OA
HETATM   19  O3  UNL     1      74.101  10.665  14.022  1.00  0.00    -0.515 OA
ENDBRANCH  15  17
ENDBRANCH  11  15
ENDBRANCH   4  10
BRANCH   5  20
HETATM   20  N7  UNL     1      79.039  14.696  15.075  1.00  0.00    -0.376 N 
ATOM     21  H7  UNL     1      79.048  15.696  14.877  1.00  0.00     0.160 HD
BRANCH  20  22
HETATM   22  C4  UNL     1      79.487  13.760  14.058  1.00  0.00     0.194 C 
BRANCH  22  23
HETATM   23  C5  UNL     1      80.960  13.644  14.083  1.00  0.00     0.124 C 
HETATM   24  N8  UNL     1      81.788  14.444  13.267  1.00  0.00    -0.084 NA
HETATM   25  N9  UNL     1      81.519  12.790  14.872  1.00  0.00    -0.296 N 
ATOM     26  H9  UNL     1      80.930  12.207  15.466  1.00  0.00     0.187 HD
BRANCH  25  27
HETATM   27  N10 UNL     1      82.904  12.639  14.937  1.00  0.00    -0.344 N 
ATOM     28 2H10 UNL     1      83.476  13.483  14.967  1.00  0.00     0.176 HD
ATOM     29 1H10 UNL     1      83.349  11.722  14.954  1.00  0.00     0.176 HD
ENDBRANCH  25  27
ENDBRANCH  22  23
ENDBRANCH  20  22
ENDBRANCH   5  20
BRANCH   1  30
HETATM   30  N1  UNL     1      77.399  12.936  19.997  1.00  0.00    -0.234 N 
ATOM     31  H12 UNL     1      76.533  13.283  20.410  1.00  0.00     0.174 HD
ATOM     32  H11 UNL     1      77.944  12.262  20.533  1.00  0.00     0.174 HD
ENDBRANCH   1  30
TORSDOF 9
ENDMDL
MODEL 5
REMARK VINA RESULT: -6.776164212      3.738      6.748
REMARK  9 active torsions:
REMARK  status: ('A' for Active; 'I' for Inactive)
REMARK    1  A    between atoms: N1_1  and  C1_4 
REMARK    2  A    between atoms: C2_7  and  N3_8 
REMARK    3  A    between atoms: N4_10  and  O1_11 
REMARK    4  A    between atoms: N4_10  and  N5_13 
REMARK    5  A    between atoms: N5_13  and  N6_15 
REMARK    6  A    between atoms: C3_18  and  N7_19 
REMARK    7  A    between atoms: N7_19  and  C4_21 
REMARK    8  A    between atoms: C4_21  and  C5_22 
REMARK    9  A    between atoms: N9_24  and  N10_26 
ROOT
HETATM    1  C1  UNL     1      73.330  13.742  11.314  1.00  0.00     0.680 A 
HETATM    2  N2  UNL     1      74.543  14.166  11.710  1.00  0.00    -0.173 N 
ATOM      3  H2  UNL     1      75.053  14.808  11.103  1.00  0.00     0.186 HD
HETATM    4  C2  UNL     1      75.116  13.789  12.861  1.00  0.00     0.171 A 
HETATM    5  C3  UNL     1      74.446  12.922  13.700  1.00  0.00     0.144 A 
HETATM    6  C6  UNL     1      73.184  12.481  13.289  1.00  0.00     0.290 A 
HETATM    7  O4  UNL     1      72.544  11.689  14.030  1.00  0.00    -0.265 OA
HETATM    8  N11 UNL     1      72.668  12.898  12.123  1.00  0.00    -0.154 N 
ATOM      9  H11 UNL     1      71.746  12.564  11.842  1.00  0.00     0.187 HD
ENDROOT
BRANCH   4  10
HETATM   10  N3  UNL     1      76.402  14.256  13.252  1.00  0.00    -0.239 N 
HETATM   11  N4  UNL     1      76.588  15.433  13.681  1.00  0.00    -0.073 N 
ATOM     12  H3  UNL     1      77.198  13.622  13.184  1.00  0.00     0.193 HD
BRANCH  11  13
HETATM   13  O1  UNL     1      75.526  16.297  13.776  1.00  0.00    -0.252 OA
ATOM     14  H1  UNL     1      75.680  17.234  13.757  1.00  0.00     0.248 HD
ENDBRANCH  11  13
BRANCH  11  15
HETATM   15  N5  UNL     1      77.841  15.896  14.065  1.00  0.00    -0.140 N 
ATOM     16  H5  UNL     1      78.094  16.858  13.836  1.00  0.00     0.219 HD
BRANCH  15  17
HETATM   17  N6  UNL     1      78.765  15.114  14.747  1.00  0.00    -0.020 N 
HETATM   18  O2  UNL     1      79.316  15.520  15.787  1.00  0.00    -0.515 OA
HETATM   19  O3  UNL     1      79.132  13.846  14.321  1.00  0.00    -0.515 OA
ENDBRANCH  15  17
ENDBRANCH  11  15
ENDBRANCH   4  10
BRANCH   5  20
HETATM   20  N7  UNL     1      74.996  12.482  14.936  1.00  0.00    -0.376 N 
ATOM     21  H7  UNL     1      75.439  11.565  14.993  1.00  0.00     0.160 HD
BRANCH  20  22
HETATM   22  C4  UNL     1      74.934  13.322  16.121  1.00  0.00     0.194 C 
BRANCH  22  23
HETATM   23  C5  UNL     1      76.252  13.361  16.788  1.00  0.00     0.124 C 
HETATM   24  N8  UNL     1      76.518  14.226  17.871  1.00  0.00    -0.084 NA
HETATM   25  N9  UNL     1      77.197  12.584  16.379  1.00  0.00    -0.296 N 
ATOM     26  H9  UNL     1      77.015  11.954  15.598  1.00  0.00     0.187 HD
BRANCH  25  27
HETATM   27  N10 UNL     1      78.459  12.578  16.973  1.00  0.00    -0.344 N 
ATOM     28 2H10 UNL     1      78.703  13.355  17.587  1.00  0.00     0.176 HD
ATOM     29 1H10 UNL     1      79.131  11.828  16.809  1.00  0.00     0.176 HD
ENDBRANCH  25  27
ENDBRANCH  22  23
ENDBRANCH  20  22
ENDBRANCH   5  20
BRANCH   1  30
HETATM   30  N1  UNL     1      72.798  14.123  10.195  1.00  0.00    -0.234 N 
ATOM     31  H12 UNL     1      73.285  14.790   9.597  1.00  0.00     0.174 HD
ATOM     32  H11 UNL     1      71.893  13.775   9.879  1.00  0.00     0.174 HD
ENDBRANCH   1  30
TORSDOF 9
ENDMDL
