MODEL 1
REMARK VINA RESULT: -7.518282524      0.000      0.000
REMARK  8 active torsions:
REMARK  status: ('A' for Active; 'I' for Inactive)
REMARK    1  A    between atoms: N1_2  and  C2_4 
REMARK    2  A    between atoms: C2_4  and  C3_5 
REMARK    3  A    between atoms: C2_4  and  C8_23 
REMARK    4  A    between atoms: C3_5  and  S1_6 
REMARK    5  A    between atoms: S1_6  and  C4_7 
REMARK    6  A    between atoms: C6_14  and  N5_15 
REMARK       I    between atoms: C8_23  and  N8_25 
REMARK    7  A    between atoms: N8_25  and  N9_27 
REMARK    8  A    between atoms: N9_27  and  N10_29 
ROOT
HETATM    1  C4  UNL     1      77.502  14.055  16.170  1.00  0.00     0.119 A 
HETATM    2  N2  UNL     1      78.484  13.917  15.273  1.00  0.00    -0.343 N 
ATOM      3  H2  UNL     1      78.341  14.255  14.321  1.00  0.00     0.167 HD
HETATM    4  C5  UNL     1      79.638  13.350  15.595  1.00  0.00     0.199 A 
HETATM    5  N3  UNL     1      79.846  12.900  16.842  1.00  0.00    -0.273 N 
ATOM      6  H3  UNL     1      80.738  12.466  17.080  1.00  0.00     0.189 HD
HETATM    7  N4  UNL     1      78.908  13.014  17.764  1.00  0.00    -0.064 N 
HETATM    8  C6  UNL     1      78.909  12.631  19.065  1.00  0.00     0.713 A 
HETATM    9  N6  UNL     1      77.720  12.968  19.566  1.00  0.00    -0.129 N 
ATOM     10  H6  UNL     1      77.406  12.813  20.524  1.00  0.00     0.205 HD
HETATM   11  N7  UNL     1      77.015  13.542  18.594  1.00  0.00    -0.267 N 
ATOM     12  H7  UNL     1      76.065  13.902  18.687  1.00  0.00     0.189 HD
HETATM   13  C7  UNL     1      77.745  13.571  17.482  1.00  0.00     0.194 A 
ENDROOT
BRANCH   1  14
HETATM   14  S1  UNL     1      75.914  14.785  15.933  1.00  0.00    -0.106 SA
BRANCH  14  15
HETATM   15  C3  UNL     1      75.379  15.165  14.325  1.00  0.00     0.115 C 
BRANCH  15  16
HETATM   16  C2  UNL     1      73.975  15.185  13.938  1.00  0.00     0.180 C 
BRANCH  16  17
HETATM   17  N1  UNL     1      73.086  16.043  14.572  1.00  0.00    -0.413 N 
HETATM   18  C1  UNL     1      72.761  17.299  14.012  1.00  0.00     0.140 C 
ATOM     19  H1  UNL     1      72.661  15.762  15.455  1.00  0.00     0.153 HD
ENDBRANCH  16  17
BRANCH  16  20
HETATM   20  C8  UNL     1      73.393  13.772  13.943  1.00  0.00     0.260 C 
HETATM   21  O1  UNL     1      73.156  13.230  15.039  1.00  0.00    -0.269 OA
HETATM   22  N8  UNL     1      73.123  13.104  12.744  1.00  0.00    -0.254 N 
ATOM     23  H8  UNL     1      73.332  13.593  11.873  1.00  0.00     0.191 HD
BRANCH  22  24
HETATM   24  N9  UNL     1      72.596  11.833  12.649  1.00  0.00    -0.247 N 
ATOM     25  H9  UNL     1      71.675  11.667  12.244  1.00  0.00     0.207 HD
BRANCH  24  26
HETATM   26  N10 UNL     1      73.365  10.805  13.125  1.00  0.00    -0.331 N 
ATOM     27 2H10 UNL     1      73.112  10.323  13.988  1.00  0.00     0.178 HD
ATOM     28 1H10 UNL     1      74.189  10.554  12.579  1.00  0.00     0.178 HD
ENDBRANCH  24  26
ENDBRANCH  22  24
ENDBRANCH  16  20
ENDBRANCH  15  16
ENDBRANCH  14  15
ENDBRANCH   1  14
BRANCH   8  29
HETATM   29  N5  UNL     1      79.894  12.066  19.649  1.00  0.00    -0.231 N 
ATOM     30  H52 UNL     1      80.554  12.460  20.318  1.00  0.00     0.174 HD
ATOM     31  H51 UNL     1      80.165  11.092  19.509  1.00  0.00     0.174 HD
ENDBRANCH   8  29
TORSDOF 8
ENDMDL
MODEL 2
REMARK VINA RESULT: -7.390629748      2.100      6.884
REMARK  8 active torsions:
REMARK  status: ('A' for Active; 'I' for Inactive)
REMARK    1  A    between atoms: N1_2  and  C2_4 
REMARK    2  A    between atoms: C2_4  and  C3_5 
REMARK    3  A    between atoms: C2_4  and  C8_23 
REMARK    4  A    between atoms: C3_5  and  S1_6 
REMARK    5  A    between atoms: S1_6  and  C4_7 
REMARK    6  A    between atoms: C6_14  and  N5_15 
REMARK       I    between atoms: C8_23  and  N8_25 
REMARK    7  A    between atoms: N8_25  and  N9_27 
REMARK    8  A    between atoms: N9_27  and  N10_29 
ROOT
HETATM    1  C4  UNL     1      75.491  14.553  14.869  1.00  0.00     0.119 A 
HETATM    2  N2  UNL     1      74.900  15.701  14.524  1.00  0.00    -0.343 N 
ATOM      3  H2  UNL     1      75.288  16.583  14.859  1.00  0.00     0.167 HD
HETATM    4  C5  UNL     1      73.821  15.717  13.753  1.00  0.00     0.199 A 
HETATM    5  N3  UNL     1      73.296  14.568  13.299  1.00  0.00    -0.273 N 
ATOM      6  H3  UNL     1      72.466  14.592  12.707  1.00  0.00     0.189 HD
HETATM    7  N4  UNL     1      73.843  13.408  13.613  1.00  0.00    -0.064 N 
HETATM    8  C6  UNL     1      73.479  12.148  13.268  1.00  0.00     0.713 A 
HETATM    9  N6  UNL     1      74.356  11.325  13.843  1.00  0.00    -0.129 N 
ATOM     10  H6  UNL     1      74.355  10.307  13.778  1.00  0.00     0.205 HD
HETATM   11  N7  UNL     1      75.231  12.065  14.519  1.00  0.00    -0.267 N 
ATOM     12  H7  UNL     1      76.018  11.705  15.058  1.00  0.00     0.189 HD
HETATM   13  C7  UNL     1      74.917  13.350  14.378  1.00  0.00     0.194 A 
ENDROOT
BRANCH   1  14
HETATM   14  S1  UNL     1      76.926  14.332  15.870  1.00  0.00    -0.106 SA
BRANCH  14  15
HETATM   15  C3  UNL     1      78.461  14.038  15.110  1.00  0.00     0.115 C 
BRANCH  15  16
HETATM   16  C2  UNL     1      79.652  13.646  15.851  1.00  0.00     0.180 C 
BRANCH  16  17
HETATM   17  N1  UNL     1      80.360  12.509  15.488  1.00  0.00    -0.413 N 
HETATM   18  C1  UNL     1      81.476  12.590  14.625  1.00  0.00     0.140 C 
ATOM     19  H1  UNL     1      80.071  11.600  15.850  1.00  0.00     0.153 HD
ENDBRANCH  16  17
BRANCH  16  20
HETATM   20  C8  UNL     1      79.364  13.596  17.352  1.00  0.00     0.260 C 
HETATM   21  O1  UNL     1      79.427  14.654  18.005  1.00  0.00    -0.269 OA
HETATM   22  N8  UNL     1      79.030  12.390  17.978  1.00  0.00    -0.254 N 
ATOM     23  H8  UNL     1      78.990  11.552  17.397  1.00  0.00     0.191 HD
BRANCH  22  24
HETATM   24  N9  UNL     1      78.752  12.248  19.321  1.00  0.00    -0.247 N 
ATOM     25  H9  UNL     1      79.340  11.682  19.931  1.00  0.00     0.207 HD
BRANCH  24  26
HETATM   26  N10 UNL     1      77.648  12.904  19.797  1.00  0.00    -0.331 N 
ATOM     27 2H10 UNL     1      77.635  13.276  20.748  1.00  0.00     0.178 HD
ATOM     28 1H10 UNL     1      76.856  12.997  19.162  1.00  0.00     0.178 HD
ENDBRANCH  24  26
ENDBRANCH  22  24
ENDBRANCH  16  20
ENDBRANCH  15  16
ENDBRANCH  14  15
ENDBRANCH   1  14
BRANCH   8  29
HETATM   29  N5  UNL     1      72.480  11.864  12.526  1.00  0.00    -0.231 N 
ATOM     30  H52 UNL     1      72.243  12.230  11.604  1.00  0.00     0.174 HD
ATOM     31  H51 UNL     1      71.747  11.201  12.775  1.00  0.00     0.174 HD
ENDBRANCH   8  29
TORSDOF 8
ENDMDL
MODEL 3
REMARK VINA RESULT: -7.301661945      1.216      2.879
REMARK  8 active torsions:
REMARK  status: ('A' for Active; 'I' for Inactive)
REMARK    1  A    between atoms: N1_2  and  C2_4 
REMARK    2  A    between atoms: C2_4  and  C3_5 
REMARK    3  A    between atoms: C2_4  and  C8_23 
REMARK    4  A    between atoms: C3_5  and  S1_6 
REMARK    5  A    between atoms: S1_6  and  C4_7 
REMARK    6  A    between atoms: C6_14  and  N5_15 
REMARK       I    between atoms: C8_23  and  N8_25 
REMARK    7  A    between atoms: N8_25  and  N9_27 
REMARK    8  A    between atoms: N9_27  and  N10_29 
ROOT
HETATM    1  C4  UNL     1      77.499  13.846  16.179  1.00  0.00     0.119 A 
HETATM    2  N2  UNL     1      78.484  13.765  15.279  1.00  0.00    -0.343 N 
ATOM      3  H2  UNL     1      78.307  14.053  14.317  1.00  0.00     0.167 HD
HETATM    4  C5  UNL     1      79.687  13.317  15.612  1.00  0.00     0.199 A 
HETATM    5  N3  UNL     1      79.942  12.934  16.873  1.00  0.00    -0.273 N 
ATOM      6  H3  UNL     1      80.871  12.592  17.119  1.00  0.00     0.189 HD
HETATM    7  N4  UNL     1      79.002  12.996  17.798  1.00  0.00    -0.064 N 
HETATM    8  C6  UNL     1      79.045  12.663  19.112  1.00  0.00     0.713 A 
HETATM    9  N6  UNL     1      77.833  12.909  19.610  1.00  0.00    -0.129 N 
ATOM     10  H6  UNL     1      77.539  12.761  20.576  1.00  0.00     0.205 HD
HETATM   11  N7  UNL     1      77.073  13.380  18.624  1.00  0.00    -0.267 N 
ATOM     12  H7  UNL     1      76.095  13.656  18.712  1.00  0.00     0.189 HD
HETATM   13  C7  UNL     1      77.792  13.435  17.506  1.00  0.00     0.194 A 
ENDROOT
BRANCH   1  14
HETATM   14  S1  UNL     1      75.850  14.419  15.930  1.00  0.00    -0.106 SA
BRANCH  14  15
HETATM   15  C3  UNL     1      74.998  13.969  14.484  1.00  0.00     0.115 C 
BRANCH  15  16
HETATM   16  C2  UNL     1      73.548  14.029  14.365  1.00  0.00     0.180 C 
BRANCH  16  17
HETATM   17  N1  UNL     1      72.864  13.066  13.636  1.00  0.00    -0.413 N 
HETATM   18  C1  UNL     1      73.511  11.888  13.198  1.00  0.00     0.140 C 
ATOM     19  H1  UNL     1      71.880  13.210  13.412  1.00  0.00     0.153 HD
ENDBRANCH  16  17
BRANCH  16  20
HETATM   20  C8  UNL     1      73.100  15.415  13.902  1.00  0.00     0.260 C 
HETATM   21  O1  UNL     1      72.884  15.595  12.688  1.00  0.00    -0.269 OA
HETATM   22  N8  UNL     1      72.928  16.457  14.819  1.00  0.00    -0.254 N 
ATOM     23  H8  UNL     1      73.115  16.257  15.802  1.00  0.00     0.191 HD
BRANCH  22  24
HETATM   24  N9  UNL     1      72.525  17.735  14.496  1.00  0.00    -0.247 N 
ATOM     25  H9  UNL     1      73.048  18.554  14.804  1.00  0.00     0.207 HD
BRANCH  24  26
HETATM   26  N10 UNL     1      71.389  17.855  13.741  1.00  0.00    -0.331 N 
ATOM     27 2H10 UNL     1      71.389  17.588  12.756  1.00  0.00     0.178 HD
ATOM     28 1H10 UNL     1      70.559  18.218  14.209  1.00  0.00     0.178 HD
ENDBRANCH  24  26
ENDBRANCH  22  24
ENDBRANCH  16  20
ENDBRANCH  15  16
ENDBRANCH  14  15
ENDBRANCH   1  14
BRANCH   8  29
HETATM   29  N5  UNL     1      80.080  12.212  19.708  1.00  0.00    -0.231 N 
ATOM     30  H52 UNL     1      81.011  12.623  19.775  1.00  0.00     0.174 HD
ATOM     31  H51 UNL     1      80.112  11.329  20.218  1.00  0.00     0.174 HD
ENDBRANCH   8  29
TORSDOF 8
ENDMDL
MODEL 4
REMARK VINA RESULT: -7.301057786      1.608      2.471
REMARK  8 active torsions:
REMARK  status: ('A' for Active; 'I' for Inactive)
REMARK    1  A    between atoms: N1_2  and  C2_4 
REMARK    2  A    between atoms: C2_4  and  C3_5 
REMARK    3  A    between atoms: C2_4  and  C8_23 
REMARK    4  A    between atoms: C3_5  and  S1_6 
REMARK    5  A    between atoms: S1_6  and  C4_7 
REMARK    6  A    between atoms: C6_14  and  N5_15 
REMARK       I    between atoms: C8_23  and  N8_25 
REMARK    7  A    between atoms: N8_25  and  N9_27 
REMARK    8  A    between atoms: N9_27  and  N10_29 
ROOT
HETATM    1  C4  UNL     1      77.362  13.812  15.787  1.00  0.00     0.119 A 
HETATM    2  N2  UNL     1      78.400  13.821  14.945  1.00  0.00    -0.343 N 
ATOM      3  H2  UNL     1      78.250  14.080  13.970  1.00  0.00     0.167 HD
HETATM    4  C5  UNL     1      79.621  13.499  15.351  1.00  0.00     0.199 A 
HETATM    5  N3  UNL     1      79.840  13.157  16.630  1.00  0.00    -0.273 N 
ATOM      6  H3  UNL     1      80.783  12.912  16.933  1.00  0.00     0.189 HD
HETATM    7  N4  UNL     1      78.848  13.133  17.500  1.00  0.00    -0.064 N 
HETATM    8  C6  UNL     1      78.848  12.819  18.820  1.00  0.00     0.713 A 
HETATM    9  N6  UNL     1      77.591  12.946  19.245  1.00  0.00    -0.129 N 
ATOM     10  H6  UNL     1      77.259  12.780  20.195  1.00  0.00     0.205 HD
HETATM   11  N7  UNL     1      76.846  13.329  18.211  1.00  0.00    -0.267 N 
ATOM     12  H7  UNL     1      75.842  13.506  18.240  1.00  0.00     0.189 HD
HETATM   13  C7  UNL     1      77.618  13.445  17.134  1.00  0.00     0.194 A 
ENDROOT
BRANCH   1  14
HETATM   14  S1  UNL     1      75.681  14.213  15.437  1.00  0.00    -0.106 SA
BRANCH  14  15
HETATM   15  C3  UNL     1      74.979  13.716  13.928  1.00  0.00     0.115 C 
BRANCH  15  16
HETATM   16  C2  UNL     1      73.548  13.518  13.743  1.00  0.00     0.180 C 
BRANCH  16  17
HETATM   17  N1  UNL     1      73.024  12.235  13.661  1.00  0.00    -0.413 N 
HETATM   18  C1  UNL     1      73.863  11.117  13.453  1.00  0.00     0.140 C 
ATOM     19  H1  UNL     1      72.017  12.097  13.751  1.00  0.00     0.153 HD
ENDBRANCH  16  17
BRANCH  16  20
HETATM   20  C8  UNL     1      73.035  14.343  12.564  1.00  0.00     0.260 C 
HETATM   21  O1  UNL     1      72.851  15.564  12.727  1.00  0.00    -0.269 OA
HETATM   22  N8  UNL     1      72.783  13.743  11.325  1.00  0.00    -0.254 N 
ATOM     23  H8  UNL     1      72.952  12.741  11.243  1.00  0.00     0.191 HD
BRANCH  22  24
HETATM   24  N9  UNL     1      72.323  14.405  10.206  1.00  0.00    -0.247 N 
ATOM     25  H9  UNL     1      72.829  14.373   9.322  1.00  0.00     0.207 HD
BRANCH  24  26
HETATM   26  N10 UNL     1      71.156  15.109  10.338  1.00  0.00    -0.331 N 
ATOM     27 2H10 UNL     1      70.331  14.853   9.795  1.00  0.00     0.178 HD
ATOM     28 1H10 UNL     1      71.159  15.889  10.996  1.00  0.00     0.178 HD
ENDBRANCH  24  26
ENDBRANCH  22  24
ENDBRANCH  16  20
ENDBRANCH  15  16
ENDBRANCH  14  15
ENDBRANCH   1  14
BRANCH   8  29
HETATM   29  N5  UNL     1      79.887  12.480  19.479  1.00  0.00    -0.231 N 
ATOM     30  H52 UNL     1      80.148  11.560  19.836  1.00  0.00     0.174 HD
ATOM     31  H51 UNL     1      80.631  13.122  19.753  1.00  0.00     0.174 HD
ENDBRANCH   8  29
TORSDOF 8
ENDMDL
MODEL 5
REMARK VINA RESULT: -7.285032866      2.324      7.369
REMARK  8 active torsions:
REMARK  status: ('A' for Active; 'I' for Inactive)
REMARK    1  A    between atoms: N1_2  and  C2_4 
REMARK    2  A    between atoms: C2_4  and  C3_5 
REMARK    3  A    between atoms: C2_4  and  C8_23 
REMARK    4  A    between atoms: C3_5  and  S1_6 
REMARK    5  A    between atoms: S1_6  and  C4_7 
REMARK    6  A    between atoms: C6_14  and  N5_15 
REMARK       I    between atoms: C8_23  and  N8_25 
REMARK    7  A    between atoms: N8_25  and  N9_27 
REMARK    8  A    between atoms: N9_27  and  N10_29 
ROOT
HETATM    1  C4  UNL     1      73.682  14.106  14.004  1.00  0.00     0.119 A 
HETATM    2  N2  UNL     1      73.466  12.789  14.067  1.00  0.00    -0.343 N 
ATOM      3  H2  UNL     1      73.714  12.282  14.916  1.00  0.00     0.167 HD
HETATM    4  C5  UNL     1      72.934  12.128  13.047  1.00  0.00     0.199 A 
HETATM    5  N3  UNL     1      72.598  12.777  11.922  1.00  0.00    -0.273 N 
ATOM      6  H3  UNL     1      72.189  12.259  11.143  1.00  0.00     0.189 HD
HETATM    7  N4  UNL     1      72.792  14.078  11.811  1.00  0.00    -0.064 N 
HETATM    8  C6  UNL     1      72.530  14.917  10.778  1.00  0.00     0.713 A 
HETATM    9  N6  UNL     1      72.912  16.134  11.166  1.00  0.00    -0.129 N 
ATOM     10  H6  UNL     1      72.847  16.988  10.612  1.00  0.00     0.205 HD
HETATM   11  N7  UNL     1      73.392  16.038  12.403  1.00  0.00    -0.267 N 
ATOM     12  H7  UNL     1      73.758  16.812  12.957  1.00  0.00     0.189 HD
HETATM   13  C7  UNL     1      73.319  14.771  12.803  1.00  0.00     0.194 A 
ENDROOT
BRANCH   1  14
HETATM   14  S1  UNL     1      74.365  15.151  15.250  1.00  0.00    -0.106 SA
BRANCH  14  15
HETATM   15  C3  UNL     1      75.490  14.491  16.397  1.00  0.00     0.115 C 
BRANCH  15  16
HETATM   16  C2  UNL     1      76.922  14.404  16.146  1.00  0.00     0.180 C 
BRANCH  16  17
HETATM   17  N1  UNL     1      77.403  13.648  15.085  1.00  0.00    -0.413 N 
HETATM   18  C1  UNL     1      77.923  14.266  13.926  1.00  0.00     0.140 C 
ATOM     19  H1  UNL     1      77.380  12.630  15.144  1.00  0.00     0.153 HD
ENDBRANCH  16  17
BRANCH  16  20
HETATM   20  C8  UNL     1      77.672  14.011  17.418  1.00  0.00     0.260 C 
HETATM   21  O1  UNL     1      78.890  14.264  17.493  1.00  0.00    -0.269 OA
HETATM   22  N8  UNL     1      77.007  13.386  18.479  1.00  0.00    -0.254 N 
ATOM     23  H8  UNL     1      76.010  13.204  18.368  1.00  0.00     0.191 HD
BRANCH  22  24
HETATM   24  N9  UNL     1      77.598  13.000  19.663  1.00  0.00    -0.247 N 
ATOM     25  H9  UNL     1      77.231  13.300  20.566  1.00  0.00     0.207 HD
BRANCH  24  26
HETATM   26  N10 UNL     1      78.701  12.194  19.572  1.00  0.00    -0.331 N 
ATOM     27 2H10 UNL     1      79.419  12.212  20.296  1.00  0.00     0.178 HD
ATOM     28 1H10 UNL     1      78.764  11.587  18.754  1.00  0.00     0.178 HD
ENDBRANCH  24  26
ENDBRANCH  22  24
ENDBRANCH  16  20
ENDBRANCH  15  16
ENDBRANCH  14  15
ENDBRANCH   1  14
BRANCH   8  29
HETATM   29  N5  UNL     1      72.009  14.555   9.671  1.00  0.00    -0.231 N 
ATOM     30  H52 UNL     1      71.036  14.327   9.464  1.00  0.00     0.174 HD
ATOM     31  H51 UNL     1      72.528  14.436   8.801  1.00  0.00     0.174 HD
ENDBRANCH   8  29
TORSDOF 8
ENDMDL
