MODEL 1
REMARK VINA RESULT: -9.129982168      0.000      0.000
REMARK  11 active torsions:
REMARK  status: ('A' for Active; 'I' for Inactive)
REMARK    1  A    between atoms: C9_15  and  C10_16 
REMARK    2  A    between atoms: C10_16  and  O2_17 
REMARK    3  A    between atoms: O2_17  and  C11_18 
REMARK    4  A    between atoms: C14_21  and  O3_22 
REMARK    5  A    between atoms: C15_24  and  C16_25 
REMARK    6  A    between atoms: C16_25  and  N4_26 
REMARK    7  A    between atoms: N4_26  and  C17_28 
REMARK    8  A    between atoms: C17_28  and  O4_32 
REMARK    9  A    between atoms: O4_32  and  C18_33 
REMARK   10  A    between atoms: C18_33  and  C19_34 
REMARK   11  A    between atoms: N6_35  and  O5_37 
ROOT
HETATM    1  C11 UNL     1      42.658  38.684   6.391  1.00  0.00     0.153 C 
HETATM    2  C12 UNL     1      41.880  37.368   6.351  1.00  0.00     0.043 C 
HETATM    3  C13 UNL     1      40.685  38.166   5.875  1.00  0.00     0.052 C 
HETATM    4  C14 UNL     1      39.431  37.967   6.668  1.00  0.00     0.156 C 
HETATM    5  C15 UNL     1      39.766  38.539   8.008  1.00  0.00     0.233 C 
HETATM    6  N7  UNL     1      40.891  39.433   7.862  1.00  0.00    -0.060 N 
ATOM      7  H71 UNL     1      41.643  39.230   8.521  1.00  0.00     0.278 HD
ATOM      8  H72 UNL     1      40.684  40.381   8.178  1.00  0.00     0.278 HD
HETATM    9  C20 UNL     1      41.325  39.388   6.500  1.00  0.00     0.221 C 
ENDROOT
BRANCH   1  10
HETATM   10  O2  UNL     1      43.322  38.861   5.178  1.00  0.00    -0.383 OA
BRANCH  10  11
HETATM   11  C10 UNL     1      43.655  40.200   5.089  1.00  0.00     0.175 C 
BRANCH  11  12
HETATM   12  C9  UNL     1      45.118  40.466   5.367  1.00  0.00     0.040 C 
HETATM   13  C3  UNL     1      45.211  41.990   5.537  1.00  0.00     0.091 C 
HETATM   14  N3  UNL     1      46.824  42.282   5.369  1.00  0.00    -0.350 N 
HETATM   15  C4  UNL     1      44.988  42.202   6.971  1.00  0.00     0.028 C 
HETATM   16  C2  UNL     1      47.337  41.029   5.657  1.00  0.00     0.234 C 
ATOM     17  H3  UNL     1      47.309  43.145   5.122  1.00  0.00     0.163 HD
HETATM   18  N2  UNL     1      47.159  41.221   6.978  1.00  0.00    -0.264 N 
HETATM   19  O1  UNL     1      47.826  39.894   5.169  1.00  0.00    -0.321 OA
HETATM   20  N1  UNL     1      47.304  40.511   8.014  1.00  0.00    -0.305 N 
ATOM     21  H2  UNL     1      46.827  42.161   7.194  1.00  0.00     0.190 HD
HETATM   22  C1  UNL     1      47.890  40.028   9.119  1.00  0.00     0.143 C 
HETATM   23  C6  UNL     1      45.760  39.846   7.792  1.00  0.00     0.113 C 
HETATM   24  C5  UNL     1      44.941  41.115   7.979  1.00  0.00     0.030 C 
HETATM   25  C7  UNL     1      45.681  39.506   6.338  1.00  0.00     0.043 C 
HETATM   26  C8  UNL     1      46.875  38.761   5.703  1.00  0.00     0.186 C 
ENDBRANCH  11  12
ENDBRANCH  10  11
ENDBRANCH   1  10
BRANCH   4  27
HETATM   27  O3  UNL     1      39.061  36.616   6.719  1.00  0.00    -0.393 OA
ATOM     28  H3  UNL     1      38.595  36.411   7.521  1.00  0.00     0.210 HD
ENDBRANCH   4  27
BRANCH   5  29
HETATM   29  C16 UNL     1      38.631  39.337   8.600  1.00  0.00     0.159 C 
BRANCH  29  30
HETATM   30  N4  UNL     1      39.107  40.662   8.911  1.00  0.00    -0.354 N 
ATOM     31  H4  UNL     1      39.323  41.312   8.155  1.00  0.00     0.163 HD
BRANCH  30  32
HETATM   32  C17 UNL     1      39.277  41.070  10.267  1.00  0.00     0.212 C 
HETATM   33  N5  UNL     1      40.324  40.725  10.917  1.00  0.00    -0.365 N 
ATOM     34  H52 UNL     1      41.040  40.156  10.465  1.00  0.00     0.159 HD
ATOM     35  H51 UNL     1      40.446  41.017  11.887  1.00  0.00     0.159 HD
BRANCH  32  36
HETATM   36  O4  UNL     1      38.317  41.834  10.871  1.00  0.00    -0.317 OA
BRANCH  36  37
HETATM   37  C18 UNL     1      38.657  42.810  11.821  1.00  0.00     0.225 C 
BRANCH  37  38
HETATM   38  C19 UNL     1      38.553  44.154  11.200  1.00  0.00     0.113 C 
HETATM   39  N6  UNL     1      37.429  44.759  11.230  1.00  0.00    -0.282 N 
ATOM     40  H6  UNL     1      37.352  45.683  10.806  1.00  0.00     0.192 HD
BRANCH  39  41
HETATM   41  O5  UNL     1      36.325  44.200  11.816  1.00  0.00    -0.290 OA
ATOM     42  H5  UNL     1      35.451  44.340  11.471  1.00  0.00     0.244 HD
ENDBRANCH  39  41
ENDBRANCH  37  38
ENDBRANCH  36  37
ENDBRANCH  32  36
ENDBRANCH  30  32
ENDBRANCH  29  30
ENDBRANCH   5  29
TORSDOF 11
ENDMDL
MODEL 2
REMARK VINA RESULT: -8.678644412      1.880      2.248
REMARK  11 active torsions:
REMARK  status: ('A' for Active; 'I' for Inactive)
REMARK    1  A    between atoms: C9_15  and  C10_16 
REMARK    2  A    between atoms: C10_16  and  O2_17 
REMARK    3  A    between atoms: O2_17  and  C11_18 
REMARK    4  A    between atoms: C14_21  and  O3_22 
REMARK    5  A    between atoms: C15_24  and  C16_25 
REMARK    6  A    between atoms: C16_25  and  N4_26 
REMARK    7  A    between atoms: N4_26  and  C17_28 
REMARK    8  A    between atoms: C17_28  and  O4_32 
REMARK    9  A    between atoms: O4_32  and  C18_33 
REMARK   10  A    between atoms: C18_33  and  C19_34 
REMARK   11  A    between atoms: N6_35  and  O5_37 
ROOT
HETATM    1  C11 UNL     1      42.484  38.558   6.990  1.00  0.00     0.153 C 
HETATM    2  C12 UNL     1      41.086  37.938   7.017  1.00  0.00     0.043 C 
HETATM    3  C13 UNL     1      40.534  39.346   6.957  1.00  0.00     0.052 C 
HETATM    4  C14 UNL     1      39.542  39.686   8.025  1.00  0.00     0.156 C 
HETATM    5  C15 UNL     1      40.349  39.644   9.283  1.00  0.00     0.233 C 
HETATM    6  N7  UNL     1      41.746  39.778   8.942  1.00  0.00    -0.060 N 
ATOM      7  H71 UNL     1      42.323  39.046   9.357  1.00  0.00     0.278 HD
ATOM      8  H72 UNL     1      42.187  40.576   9.399  1.00  0.00     0.278 HD
HETATM    9  C20 UNL     1      41.856  39.827   7.518  1.00  0.00     0.221 C 
ENDROOT
BRANCH   1  10
HETATM   10  O2  UNL     1      42.931  38.623   5.671  1.00  0.00    -0.383 OA
BRANCH  10  11
HETATM   11  C10 UNL     1      43.413  39.903   5.469  1.00  0.00     0.175 C 
BRANCH  11  12
HETATM   12  C9  UNL     1      44.924  39.967   5.433  1.00  0.00     0.040 C 
HETATM   13  C3  UNL     1      45.241  41.344   4.829  1.00  0.00     0.091 C 
HETATM   14  N3  UNL     1      46.819  41.194   4.379  1.00  0.00    -0.350 N 
HETATM   15  C4  UNL     1      45.317  42.233   5.993  1.00  0.00     0.028 C 
HETATM   16  C2  UNL     1      47.213  40.141   5.187  1.00  0.00     0.234 C 
ATOM     17  H3  UNL     1      47.356  41.728   3.695  1.00  0.00     0.163 HD
HETATM   18  N2  UNL     1      47.307  40.952   6.257  1.00  0.00    -0.264 N 
HETATM   19  O1  UNL     1      47.453  38.837   5.267  1.00  0.00    -0.321 OA
HETATM   20  N1  UNL     1      47.550  40.789   7.488  1.00  0.00    -0.305 N 
ATOM     21  H2  UNL     1      47.145  41.931   6.020  1.00  0.00     0.190 HD
HETATM   22  C1  UNL     1      48.264  40.764   8.623  1.00  0.00     0.143 C 
HETATM   23  C6  UNL     1      45.920  40.422   7.774  1.00  0.00     0.113 C 
HETATM   24  C5  UNL     1      45.318  41.770   7.401  1.00  0.00     0.030 C 
HETATM   25  C7  UNL     1      45.530  39.473   6.686  1.00  0.00     0.043 C 
HETATM   26  C8  UNL     1      46.480  38.296   6.378  1.00  0.00     0.186 C 
ENDBRANCH  11  12
ENDBRANCH  10  11
ENDBRANCH   1  10
BRANCH   4  27
HETATM   27  O3  UNL     1      38.461  38.794   8.029  1.00  0.00    -0.393 OA
ATOM     28  H3  UNL     1      38.612  38.064   8.618  1.00  0.00     0.210 HD
ENDBRANCH   4  27
BRANCH   5  29
HETATM   29  C16 UNL     1      40.007  40.765  10.232  1.00  0.00     0.159 C 
BRANCH  29  30
HETATM   30  N4  UNL     1      39.193  41.731   9.537  1.00  0.00    -0.354 N 
ATOM     31  H4  UNL     1      38.470  41.413   8.891  1.00  0.00     0.163 HD
BRANCH  30  32
HETATM   32  C17 UNL     1      39.392  43.128   9.745  1.00  0.00     0.212 C 
HETATM   33  N5  UNL     1      39.123  43.963   8.813  1.00  0.00    -0.365 N 
ATOM     34  H52 UNL     1      38.765  43.630   7.918  1.00  0.00     0.159 HD
ATOM     35  H51 UNL     1      39.266  44.962   8.961  1.00  0.00     0.159 HD
BRANCH  32  36
HETATM   36  O4  UNL     1      39.872  43.574  10.946  1.00  0.00    -0.317 OA
BRANCH  36  37
HETATM   37  C18 UNL     1      40.612  44.763  11.035  1.00  0.00     0.225 C 
BRANCH  37  38
HETATM   38  C19 UNL     1      42.061  44.437  11.039  1.00  0.00     0.113 C 
HETATM   39  N6  UNL     1      42.693  44.437   9.930  1.00  0.00    -0.282 N 
ATOM     40  H6  UNL     1      43.688  44.215   9.926  1.00  0.00     0.192 HD
BRANCH  39  41
HETATM   41  O5  UNL     1      42.071  44.727   8.746  1.00  0.00    -0.290 OA
ATOM     42  H5  UNL     1      41.404  44.158   8.379  1.00  0.00     0.244 HD
ENDBRANCH  39  41
ENDBRANCH  37  38
ENDBRANCH  36  37
ENDBRANCH  32  36
ENDBRANCH  30  32
ENDBRANCH  29  30
ENDBRANCH   5  29
TORSDOF 11
ENDMDL
MODEL 3
REMARK VINA RESULT: -8.657912005      2.272      3.053
REMARK  11 active torsions:
REMARK  status: ('A' for Active; 'I' for Inactive)
REMARK    1  A    between atoms: C9_15  and  C10_16 
REMARK    2  A    between atoms: C10_16  and  O2_17 
REMARK    3  A    between atoms: O2_17  and  C11_18 
REMARK    4  A    between atoms: C14_21  and  O3_22 
REMARK    5  A    between atoms: C15_24  and  C16_25 
REMARK    6  A    between atoms: C16_25  and  N4_26 
REMARK    7  A    between atoms: N4_26  and  C17_28 
REMARK    8  A    between atoms: C17_28  and  O4_32 
REMARK    9  A    between atoms: O4_32  and  C18_33 
REMARK   10  A    between atoms: C18_33  and  C19_34 
REMARK   11  A    between atoms: N6_35  and  O5_37 
ROOT
HETATM    1  C11 UNL     1      42.218  38.358   7.054  1.00  0.00     0.153 C 
HETATM    2  C12 UNL     1      40.869  37.673   7.276  1.00  0.00     0.043 C 
HETATM    3  C13 UNL     1      40.225  39.031   7.094  1.00  0.00     0.052 C 
HETATM    4  C14 UNL     1      39.301  39.450   8.193  1.00  0.00     0.156 C 
HETATM    5  C15 UNL     1      40.205  39.609   9.373  1.00  0.00     0.233 C 
HETATM    6  N7  UNL     1      41.560  39.773   8.901  1.00  0.00    -0.060 N 
ATOM      7  H71 UNL     1      42.214  39.131   9.349  1.00  0.00     0.278 HD
ATOM      8  H72 UNL     1      41.984  40.645   9.218  1.00  0.00     0.278 HD
HETATM    9  C20 UNL     1      41.555  39.649   7.476  1.00  0.00     0.221 C 
ENDROOT
BRANCH   1  10
HETATM   10  O2  UNL     1      42.555  38.280   5.703  1.00  0.00    -0.383 OA
BRANCH  10  11
HETATM   11  C10 UNL     1      43.075  39.510   5.344  1.00  0.00     0.175 C 
BRANCH  11  12
HETATM   12  C9  UNL     1      44.448  39.765   5.926  1.00  0.00     0.040 C 
HETATM   13  C3  UNL     1      45.426  39.297   4.839  1.00  0.00     0.091 C 
HETATM   14  N3  UNL     1      46.847  39.149   5.660  1.00  0.00    -0.350 N 
HETATM   15  C4  UNL     1      45.646  40.493   4.019  1.00  0.00     0.028 C 
HETATM   16  C2  UNL     1      46.596  39.968   6.747  1.00  0.00     0.234 C 
ATOM     17  H3  UNL     1      47.679  38.605   5.432  1.00  0.00     0.163 HD
HETATM   18  N2  UNL     1      46.817  41.073   6.010  1.00  0.00    -0.264 N 
HETATM   19  O1  UNL     1      46.242  40.033   8.026  1.00  0.00    -0.321 OA
HETATM   20  N1  UNL     1      46.727  42.318   6.212  1.00  0.00    -0.305 N 
ATOM     21  H2  UNL     1      47.132  40.854   5.065  1.00  0.00     0.190 HD
HETATM   22  C1  UNL     1      47.130  43.566   6.491  1.00  0.00     0.143 C 
HETATM   23  C6  UNL     1      45.073  42.272   5.842  1.00  0.00     0.113 C 
HETATM   24  C5  UNL     1      45.181  41.852   4.383  1.00  0.00     0.030 C 
HETATM   25  C7  UNL     1      44.535  41.087   6.580  1.00  0.00     0.043 C 
HETATM   26  C8  UNL     1      44.939  40.912   8.060  1.00  0.00     0.186 C 
ENDBRANCH  11  12
ENDBRANCH  10  11
ENDBRANCH   1  10
BRANCH   4  27
HETATM   27  O3  UNL     1      38.283  38.508   8.399  1.00  0.00    -0.393 OA
ATOM     28  H3  UNL     1      37.516  38.903   8.796  1.00  0.00     0.210 HD
ENDBRANCH   4  27
BRANCH   5  29
HETATM   29  C16 UNL     1      39.868  40.821  10.206  1.00  0.00     0.159 C 
BRANCH  29  30
HETATM   30  N4  UNL     1      39.371  41.858   9.337  1.00  0.00    -0.354 N 
ATOM     31  H4  UNL     1      38.413  41.811   8.990  1.00  0.00     0.163 HD
BRANCH  30  32
HETATM   32  C17 UNL     1      40.208  42.948   8.959  1.00  0.00     0.212 C 
HETATM   33  N5  UNL     1      39.756  44.146   8.980  1.00  0.00    -0.365 N 
ATOM     34  H52 UNL     1      38.794  44.322   9.269  1.00  0.00     0.159 HD
ATOM     35  H51 UNL     1      40.355  44.926   8.709  1.00  0.00     0.159 HD
BRANCH  32  36
HETATM   36  O4  UNL     1      41.499  42.711   8.572  1.00  0.00    -0.317 OA
BRANCH  36  37
HETATM   37  C18 UNL     1      42.490  43.696   8.708  1.00  0.00     0.225 C 
BRANCH  37  38
HETATM   38  C19 UNL     1      43.072  43.619  10.072  1.00  0.00     0.113 C 
HETATM   39  N6  UNL     1      42.843  44.572  10.891  1.00  0.00    -0.282 N 
ATOM     40  H6  UNL     1      43.239  44.524  11.829  1.00  0.00     0.192 HD
BRANCH  39  41
HETATM   41  O5  UNL     1      42.081  45.654  10.543  1.00  0.00    -0.290 OA
ATOM     42  H5  UNL     1      42.472  46.468  10.249  1.00  0.00     0.244 HD
ENDBRANCH  39  41
ENDBRANCH  37  38
ENDBRANCH  36  37
ENDBRANCH  32  36
ENDBRANCH  30  32
ENDBRANCH  29  30
ENDBRANCH   5  29
TORSDOF 11
ENDMDL
MODEL 4
REMARK VINA RESULT: -8.557473632      1.142      2.007
REMARK  11 active torsions:
REMARK  status: ('A' for Active; 'I' for Inactive)
REMARK    1  A    between atoms: C9_15  and  C10_16 
REMARK    2  A    between atoms: C10_16  and  O2_17 
REMARK    3  A    between atoms: O2_17  and  C11_18 
REMARK    4  A    between atoms: C14_21  and  O3_22 
REMARK    5  A    between atoms: C15_24  and  C16_25 
REMARK    6  A    between atoms: C16_25  and  N4_26 
REMARK    7  A    between atoms: N4_26  and  C17_28 
REMARK    8  A    between atoms: C17_28  and  O4_32 
REMARK    9  A    between atoms: O4_32  and  C18_33 
REMARK   10  A    between atoms: C18_33  and  C19_34 
REMARK   11  A    between atoms: N6_35  and  O5_37 
ROOT
HETATM    1  C11 UNL     1      42.728  38.592   6.582  1.00  0.00     0.153 C 
HETATM    2  C12 UNL     1      41.801  37.376   6.590  1.00  0.00     0.043 C 
HETATM    3  C13 UNL     1      40.697  38.297   6.117  1.00  0.00     0.052 C 
HETATM    4  C14 UNL     1      39.446  38.266   6.938  1.00  0.00     0.156 C 
HETATM    5  C15 UNL     1      39.875  38.825   8.256  1.00  0.00     0.233 C 
HETATM    6  N7  UNL     1      41.094  39.577   8.067  1.00  0.00    -0.060 N 
ATOM      7  H71 UNL     1      41.830  39.301   8.717  1.00  0.00     0.278 HD
ATOM      8  H72 UNL     1      41.006  40.549   8.363  1.00  0.00     0.278 HD
HETATM    9  C20 UNL     1      41.489  39.450   6.699  1.00  0.00     0.221 C 
ENDROOT
BRANCH   1  10
HETATM   10  O2  UNL     1      43.382  38.662   5.353  1.00  0.00    -0.383 OA
BRANCH  10  11
HETATM   11  C10 UNL     1      43.621  39.999   5.096  1.00  0.00     0.175 C 
BRANCH  11  12
HETATM   12  C9  UNL     1      45.076  40.381   5.254  1.00  0.00     0.040 C 
HETATM   13  C3  UNL     1      45.069  41.915   5.338  1.00  0.00     0.091 C 
HETATM   14  N3  UNL     1      46.641  42.308   5.040  1.00  0.00    -0.350 N 
HETATM   15  C4  UNL     1      44.929  42.192   6.771  1.00  0.00     0.028 C 
HETATM   16  C2  UNL     1      47.263  41.112   5.354  1.00  0.00     0.234 C 
ATOM     17  H3  UNL     1      47.043  43.187   4.714  1.00  0.00     0.163 HD
HETATM   18  N2  UNL     1      47.161  41.366   6.673  1.00  0.00    -0.264 N 
HETATM   19  O1  UNL     1      47.799  39.988   4.892  1.00  0.00    -0.321 OA
HETATM   20  N1  UNL     1      47.428  40.727   7.732  1.00  0.00    -0.305 N 
ATOM     21  H2  UNL     1      46.777  42.291   6.863  1.00  0.00     0.190 HD
HETATM   22  C1  UNL     1      48.121  40.350   8.815  1.00  0.00     0.143 C 
HETATM   23  C6  UNL     1      45.926  39.946   7.656  1.00  0.00     0.113 C 
HETATM   24  C5  UNL     1      45.030  41.164   7.835  1.00  0.00     0.030 C 
HETATM   25  C7  UNL     1      45.772  39.519   6.230  1.00  0.00     0.043 C 
HETATM   26  C8  UNL     1      46.972  38.824   5.551  1.00  0.00     0.186 C 
ENDBRANCH  11  12
ENDBRANCH  10  11
ENDBRANCH   1  10
BRANCH   4  27
HETATM   27  O3  UNL     1      38.922  36.969   7.030  1.00  0.00    -0.393 OA
ATOM     28  H3  UNL     1      38.277  36.901   7.724  1.00  0.00     0.210 HD
ENDBRANCH   4  27
BRANCH   5  29
HETATM   29  C16 UNL     1      38.854  39.764   8.850  1.00  0.00     0.159 C 
BRANCH  29  30
HETATM   30  N4  UNL     1      39.408  41.095   8.879  1.00  0.00    -0.354 N 
ATOM     31  H4  UNL     1      40.007  41.410   8.115  1.00  0.00     0.163 HD
BRANCH  30  32
HETATM   32  C17 UNL     1      39.126  41.973   9.967  1.00  0.00     0.212 C 
HETATM   33  N5  UNL     1      38.861  43.206   9.748  1.00  0.00    -0.365 N 
ATOM     34  H52 UNL     1      38.852  43.563   8.792  1.00  0.00     0.159 HD
ATOM     35  H51 UNL     1      38.659  43.834  10.526  1.00  0.00     0.159 HD
BRANCH  32  36
HETATM   36  O4  UNL     1      39.138  41.492  11.248  1.00  0.00    -0.317 OA
BRANCH  36  37
HETATM   37  C18 UNL     1      40.262  41.653  12.072  1.00  0.00     0.225 C 
BRANCH  37  38
HETATM   38  C19 UNL     1      40.974  40.355  12.187  1.00  0.00     0.113 C 
HETATM   39  N6  UNL     1      41.890  40.080  11.340  1.00  0.00    -0.282 N 
ATOM     40  H6  UNL     1      42.383  39.191  11.415  1.00  0.00     0.192 HD
BRANCH  39  41
HETATM   41  O5  UNL     1      42.227  40.948  10.337  1.00  0.00    -0.290 OA
ATOM     42  H5  UNL     1      42.640  40.649   9.535  1.00  0.00     0.244 HD
ENDBRANCH  39  41
ENDBRANCH  37  38
ENDBRANCH  36  37
ENDBRANCH  32  36
ENDBRANCH  30  32
ENDBRANCH  29  30
ENDBRANCH   5  29
TORSDOF 11
ENDMDL
MODEL 5
REMARK VINA RESULT: -8.538486385      2.755      8.153
REMARK  11 active torsions:
REMARK  status: ('A' for Active; 'I' for Inactive)
REMARK    1  A    between atoms: C9_15  and  C10_16 
REMARK    2  A    between atoms: C10_16  and  O2_17 
REMARK    3  A    between atoms: O2_17  and  C11_18 
REMARK    4  A    between atoms: C14_21  and  O3_22 
REMARK    5  A    between atoms: C15_24  and  C16_25 
REMARK    6  A    between atoms: C16_25  and  N4_26 
REMARK    7  A    between atoms: N4_26  and  C17_28 
REMARK    8  A    between atoms: C17_28  and  O4_32 
REMARK    9  A    between atoms: O4_32  and  C18_33 
REMARK   10  A    between atoms: C18_33  and  C19_34 
REMARK   11  A    between atoms: N6_35  and  O5_37 
ROOT
HETATM    1  C11 UNL     1      41.132  40.408   8.341  1.00  0.00     0.153 C 
HETATM    2  C12 UNL     1      40.520  39.701   7.131  1.00  0.00     0.043 C 
HETATM    3  C13 UNL     1      41.694  38.746   7.180  1.00  0.00     0.052 C 
HETATM    4  C14 UNL     1      42.443  38.594   5.894  1.00  0.00     0.156 C 
HETATM    5  C15 UNL     1      43.054  39.942   5.679  1.00  0.00     0.233 C 
HETATM    6  N7  UNL     1      43.091  40.640   6.943  1.00  0.00    -0.060 N 
ATOM      7  H71 UNL     1      42.682  41.573   6.889  1.00  0.00     0.278 HD
ATOM      8  H72 UNL     1      44.035  40.920   7.210  1.00  0.00     0.278 HD
HETATM    9  C20 UNL     1      42.461  39.817   7.927  1.00  0.00     0.221 C 
ENDROOT
BRANCH   1  10
HETATM   10  O2  UNL     1      40.586  39.875   9.508  1.00  0.00    -0.383 OA
BRANCH  10  11
HETATM   11  C10 UNL     1      40.846  40.774  10.526  1.00  0.00     0.175 C 
BRANCH  11  12
HETATM   12  C9  UNL     1      40.700  42.216  10.094  1.00  0.00     0.040 C 
HETATM   13  C3  UNL     1      39.191  42.494  10.167  1.00  0.00     0.091 C 
HETATM   14  N3  UNL     1      39.025  43.866   9.269  1.00  0.00    -0.350 N 
HETATM   15  C4  UNL     1      38.983  42.972  11.537  1.00  0.00     0.028 C 
HETATM   16  C2  UNL     1      40.318  44.357   9.318  1.00  0.00     0.234 C 
ATOM     17  H3  UNL     1      38.199  44.247   8.806  1.00  0.00     0.163 HD
HETATM   18  N2  UNL     1      40.132  44.821  10.569  1.00  0.00    -0.264 N 
HETATM   19  O1  UNL     1      41.481  44.477   8.688  1.00  0.00    -0.321 OA
HETATM   20  N1  UNL     1      40.865  45.372  11.439  1.00  0.00    -0.305 N 
ATOM     21  H2  UNL     1      39.172  44.699  10.891  1.00  0.00     0.190 HD
HETATM   22  C1  UNL     1      41.408  46.361  12.162  1.00  0.00     0.143 C 
HETATM   23  C6  UNL     1      41.403  43.853  11.967  1.00  0.00     0.113 C 
HETATM   24  C5  UNL     1      40.076  43.311  12.479  1.00  0.00     0.030 C 
HETATM   25  C7  UNL     1      41.715  43.088  10.720  1.00  0.00     0.043 C 
HETATM   26  C8  UNL     1      42.543  43.795   9.626  1.00  0.00     0.186 C 
ENDBRANCH  11  12
ENDBRANCH  10  11
ENDBRANCH   1  10
BRANCH   4  27
HETATM   27  O3  UNL     1      41.600  38.195   4.848  1.00  0.00    -0.393 OA
ATOM     28  H3  UNL     1      41.423  38.910   4.248  1.00  0.00     0.210 HD
ENDBRANCH   4  27
BRANCH   5  29
HETATM   29  C16 UNL     1      44.470  39.864   5.166  1.00  0.00     0.159 C 
BRANCH  29  30
HETATM   30  N4  UNL     1      44.969  38.528   5.375  1.00  0.00    -0.354 N 
ATOM     31  H4  UNL     1      44.367  37.727   5.180  1.00  0.00     0.163 HD
BRANCH  30  32
HETATM   32  C17 UNL     1      46.295  38.317   5.855  1.00  0.00     0.212 C 
HETATM   33  N5  UNL     1      47.269  38.998   5.378  1.00  0.00    -0.365 N 
ATOM     34  H52 UNL     1      47.097  39.694   4.652  1.00  0.00     0.159 HD
ATOM     35  H51 UNL     1      48.218  38.847   5.721  1.00  0.00     0.159 HD
BRANCH  32  36
HETATM   36  O4  UNL     1      46.525  37.384   6.828  1.00  0.00    -0.317 OA
BRANCH  36  37
HETATM   37  C18 UNL     1      47.669  37.447   7.639  1.00  0.00     0.225 C 
BRANCH  37  38
HETATM   38  C19 UNL     1      48.305  36.106   7.693  1.00  0.00     0.113 C 
HETATM   39  N6  UNL     1      48.839  35.637   6.633  1.00  0.00    -0.282 N 
ATOM     40  H6  UNL     1      49.278  34.717   6.664  1.00  0.00     0.192 HD
BRANCH  39  41
HETATM   41  O5  UNL     1      48.838  36.335   5.456  1.00  0.00    -0.290 OA
ATOM     42  H5  UNL     1      49.632  36.462   4.949  1.00  0.00     0.244 HD
ENDBRANCH  39  41
ENDBRANCH  37  38
ENDBRANCH  36  37
ENDBRANCH  32  36
ENDBRANCH  30  32
ENDBRANCH  29  30
ENDBRANCH   5  29
TORSDOF 11
ENDMDL
