MODEL 1
REMARK VINA RESULT: -7.544722616      0.000      0.000
REMARK  11 active torsions:
REMARK  status: ('A' for Active; 'I' for Inactive)
REMARK    1  A    between atoms: O1_2  and  C2_3 
REMARK    2  A    between atoms: C3_4  and  N1_5 
REMARK    3  A    between atoms: C5_10  and  N2_11 
REMARK    4  A    between atoms: C6_15  and  O2_16 
REMARK    5  A    between atoms: O2_16  and  C7_17 
REMARK    6  A    between atoms: C9_19  and  N3_20 
REMARK       I    between atoms: N3_20  and  C10_22 
REMARK    7  A    between atoms: C10_22  and  C11_24 
REMARK    8  A    between atoms: C11_24  and  C12_26 
REMARK    9  A    between atoms: C17_33  and  N5_34 
REMARK   10  A    between atoms: C19_39  and  N6_40 
REMARK   11  A    between atoms: C20_44  and  O5_45 
ROOT
HETATM    1  C7  UNL     1      46.955  40.614   7.167  1.00  0.00     0.154 C 
HETATM    2  C8  UNL     1      45.452  40.377   7.111  1.00  0.00     0.061 C 
HETATM    3  C9  UNL     1      44.996  39.776   5.827  1.00  0.00     0.117 C 
HETATM    4  C17 UNL     1      45.425  40.665   4.648  1.00  0.00     0.208 C 
HETATM    5  C18 UNL     1      46.942  40.581   4.665  1.00  0.00     0.070 C 
HETATM    6  C19 UNL     1      47.365  41.331   5.919  1.00  0.00     0.214 C 
ENDROOT
BRANCH   1   7
HETATM    7  O2  UNL     1      47.687  39.508   7.345  1.00  0.00    -0.374 OA
BRANCH   7   8
HETATM    8  C6  UNL     1      47.661  38.833   8.542  1.00  0.00     0.183 C 
HETATM    9  C5  UNL     1      48.943  38.388   9.118  1.00  0.00     0.217 C 
HETATM   10  C4  UNL     1      48.776  37.093   9.891  1.00  0.00     0.071 C 
HETATM   11  C3  UNL     1      48.492  35.908   9.003  1.00  0.00     0.216 C 
HETATM   12  C2  UNL     1      47.681  36.403   7.825  1.00  0.00     0.182 C 
HETATM   13  C20 UNL     1      46.828  37.585   8.204  1.00  0.00     0.182 C 
BRANCH   9  14
HETATM   14  N2  UNL     1      49.528  39.297  10.102  1.00  0.00    -0.072 N 
ATOM     15  H23 UNL     1      49.230  40.268  10.010  1.00  0.00     0.274 HD
ATOM     16  H22 UNL     1      49.182  39.170  11.053  1.00  0.00     0.274 HD
ATOM     17  H21 UNL     1      50.531  39.150   9.994  1.00  0.00     0.274 HD
ENDBRANCH   9  14
BRANCH  11  18
HETATM   18  N1  UNL     1      47.830  34.827   9.660  1.00  0.00    -0.072 N 
ATOM     19  H13 UNL     1      46.900  35.095   9.982  1.00  0.00     0.274 HD
ATOM     20  H12 UNL     1      47.562  34.094   9.003  1.00  0.00     0.274 HD
ATOM     21  H11 UNL     1      48.401  34.458  10.421  1.00  0.00     0.274 HD
ENDBRANCH  11  18
BRANCH  12  22
HETATM   22  O1  UNL     1      48.458  36.714   6.719  1.00  0.00    -0.386 OA
HETATM   23  C1  UNL     1      49.270  35.655   6.342  1.00  0.00     0.202 C 
ENDBRANCH  12  22
BRANCH  13  24
HETATM   24  O5  UNL     1      45.966  37.280   9.246  1.00  0.00    -0.385 OA
HETATM   25  C21 UNL     1      45.338  38.451   9.732  1.00  0.00     0.202 C 
ENDBRANCH  13  24
ENDBRANCH   7   8
ENDBRANCH   1   7
BRANCH   6  26
HETATM   26  N6  UNL     1      48.800  41.454   5.838  1.00  0.00    -0.072 N 
ATOM     27  H63 UNL     1      49.216  41.610   6.757  1.00  0.00     0.274 HD
ATOM     28  H62 UNL     1      49.242  40.562   5.616  1.00  0.00     0.274 HD
ATOM     29  H61 UNL     1      49.070  42.182   5.176  1.00  0.00     0.274 HD
ENDBRANCH   6  26
BRANCH   3  30
HETATM   30  N3  UNL     1      43.581  39.638   5.797  1.00  0.00    -0.347 N 
HETATM   31  C10 UNL     1      42.862  38.497   6.267  1.00  0.00     0.292 C 
HETATM   32  O3  UNL     1      43.535  37.572   6.724  1.00  0.00    -0.264 OA
ATOM     33  H3  UNL     1      43.039  40.411   5.412  1.00  0.00     0.163 HD
BRANCH  31  34
HETATM   34  C11 UNL     1      41.425  38.458   6.198  1.00  0.00     0.250 C 
HETATM   35  O4  UNL     1      40.875  37.901   5.170  1.00  0.00    -0.281 OA
BRANCH  34  36
HETATM   36  C12 UNL     1      40.481  38.978   7.164  1.00  0.00     0.035 A 
HETATM   37  C13 UNL     1      40.732  40.071   7.948  1.00  0.00     0.018 A 
HETATM   38  C14 UNL     1      39.790  40.525   8.859  1.00  0.00     0.018 A 
HETATM   39  C15 UNL     1      38.577  39.911   9.017  1.00  0.00     0.087 A 
HETATM   40  N4  UNL     1      38.356  38.835   8.227  1.00  0.00    -0.374 N 
HETATM   41  C16 UNL     1      39.234  38.367   7.341  1.00  0.00     0.103 A 
ATOM     42  H4  UNL     1      37.462  38.353   8.315  1.00  0.00     0.164 HD
ENDBRANCH  34  36
ENDBRANCH  31  34
ENDBRANCH   3  30
BRANCH   4  43
HETATM   43  N5  UNL     1      45.067  42.038   4.882  1.00  0.00    -0.073 N 
ATOM     44  H53 UNL     1      44.200  42.116   5.414  1.00  0.00     0.274 HD
ATOM     45  H52 UNL     1      45.698  42.483   5.549  1.00  0.00     0.274 HD
ATOM     46  H51 UNL     1      45.018  42.557   4.006  1.00  0.00     0.274 HD
ENDBRANCH   4  43
TORSDOF 11
ENDMDL
MODEL 2
REMARK VINA RESULT: -7.384866360      5.864      9.590
REMARK  11 active torsions:
REMARK  status: ('A' for Active; 'I' for Inactive)
REMARK    1  A    between atoms: O1_2  and  C2_3 
REMARK    2  A    between atoms: C3_4  and  N1_5 
REMARK    3  A    between atoms: C5_10  and  N2_11 
REMARK    4  A    between atoms: C6_15  and  O2_16 
REMARK    5  A    between atoms: O2_16  and  C7_17 
REMARK    6  A    between atoms: C9_19  and  N3_20 
REMARK       I    between atoms: N3_20  and  C10_22 
REMARK    7  A    between atoms: C10_22  and  C11_24 
REMARK    8  A    between atoms: C11_24  and  C12_26 
REMARK    9  A    between atoms: C17_33  and  N5_34 
REMARK   10  A    between atoms: C19_39  and  N6_40 
REMARK   11  A    between atoms: C20_44  and  O5_45 
ROOT
HETATM    1  C7  UNL     1      40.115  44.808  10.810  1.00  0.00     0.154 C 
HETATM    2  C8  UNL     1      39.553  43.672   9.965  1.00  0.00     0.061 C 
HETATM    3  C9  UNL     1      40.357  42.421  10.048  1.00  0.00     0.117 C 
HETATM    4  C17 UNL     1      41.811  42.701   9.638  1.00  0.00     0.208 C 
HETATM    5  C18 UNL     1      42.321  43.631  10.727  1.00  0.00     0.070 C 
HETATM    6  C19 UNL     1      41.576  44.939  10.511  1.00  0.00     0.214 C 
ENDROOT
BRANCH   1   7
HETATM    7  O2  UNL     1      39.907  44.678  12.126  1.00  0.00    -0.374 OA
BRANCH   7   8
HETATM    8  C6  UNL     1      38.824  43.976  12.600  1.00  0.00     0.183 C 
HETATM    9  C5  UNL     1      37.600  44.727  12.936  1.00  0.00     0.217 C 
HETATM   10  C4  UNL     1      36.861  44.080  14.091  1.00  0.00     0.071 C 
HETATM   11  C3  UNL     1      37.587  44.213  15.406  1.00  0.00     0.216 C 
HETATM   12  C2  UNL     1      39.072  44.180  15.113  1.00  0.00     0.182 C 
HETATM   13  C20 UNL     1      39.373  43.350  13.893  1.00  0.00     0.182 C 
BRANCH   9  14
HETATM   14  N2  UNL     1      36.595  44.778  11.875  1.00  0.00    -0.072 N 
ATOM     15  H23 UNL     1      36.624  43.990  11.228  1.00  0.00     0.274 HD
ATOM     16  H22 UNL     1      35.639  44.621  12.192  1.00  0.00     0.274 HD
ATOM     17  H21 UNL     1      36.754  45.688  11.443  1.00  0.00     0.274 HD
ENDBRANCH   9  14
BRANCH  11  18
HETATM   18  N1  UNL     1      37.236  43.223  16.374  1.00  0.00    -0.072 N 
ATOM     19  H13 UNL     1      36.377  42.736  16.119  1.00  0.00     0.274 HD
ATOM     20  H12 UNL     1      37.877  42.429  16.350  1.00  0.00     0.274 HD
ATOM     21  H11 UNL     1      37.176  43.630  17.307  1.00  0.00     0.274 HD
ENDBRANCH  11  18
BRANCH  12  22
HETATM   22  O1  UNL     1      39.629  45.443  14.977  1.00  0.00    -0.386 OA
HETATM   23  C1  UNL     1      39.216  46.303  15.984  1.00  0.00     0.202 C 
ENDBRANCH  12  22
BRANCH  13  24
HETATM   24  O5  UNL     1      38.916  42.049  14.034  1.00  0.00    -0.385 OA
HETATM   25  C21 UNL     1      39.862  41.261  14.730  1.00  0.00     0.202 C 
ENDBRANCH  13  24
ENDBRANCH   7   8
ENDBRANCH   1   7
BRANCH   6  26
HETATM   26  N6  UNL     1      42.201  45.898  11.388  1.00  0.00    -0.072 N 
ATOM     27  H63 UNL     1      41.561  46.218  12.114  1.00  0.00     0.274 HD
ATOM     28  H62 UNL     1      42.905  45.460  11.983  1.00  0.00     0.274 HD
ATOM     29  H61 UNL     1      42.590  46.680  10.860  1.00  0.00     0.274 HD
ENDBRANCH   6  26
BRANCH   3  30
HETATM   30  N3  UNL     1      39.832  41.415   9.191  1.00  0.00    -0.347 N 
HETATM   31  C10 UNL     1      39.940  40.010   9.421  1.00  0.00     0.292 C 
HETATM   32  O3  UNL     1      40.538  39.662  10.439  1.00  0.00    -0.264 OA
ATOM     33  H3  UNL     1      39.343  41.719   8.350  1.00  0.00     0.163 HD
BRANCH  31  34
HETATM   34  C11 UNL     1      39.367  39.070   8.492  1.00  0.00     0.250 C 
HETATM   35  O4  UNL     1      38.187  38.607   8.737  1.00  0.00    -0.281 OA
BRANCH  34  36
HETATM   36  C12 UNL     1      39.962  38.559   7.275  1.00  0.00     0.035 A 
HETATM   37  C13 UNL     1      39.405  37.554   6.532  1.00  0.00     0.018 A 
HETATM   38  C14 UNL     1      40.020  37.102   5.373  1.00  0.00     0.018 A 
HETATM   39  C15 UNL     1      41.198  37.632   4.922  1.00  0.00     0.087 A 
HETATM   40  N4  UNL     1      41.723  38.625   5.676  1.00  0.00    -0.374 N 
HETATM   41  C16 UNL     1      41.165  39.087   6.794  1.00  0.00     0.103 A 
ATOM     42  H4  UNL     1      42.600  39.045   5.369  1.00  0.00     0.164 HD
ENDBRANCH  34  36
ENDBRANCH  31  34
ENDBRANCH   3  30
BRANCH   4  43
HETATM   43  N5  UNL     1      41.866  43.424   8.395  1.00  0.00    -0.073 N 
ATOM     44  H53 UNL     1      40.935  43.693   8.075  1.00  0.00     0.274 HD
ATOM     45  H52 UNL     1      42.263  44.355   8.518  1.00  0.00     0.274 HD
ATOM     46  H51 UNL     1      42.368  42.891   7.685  1.00  0.00     0.274 HD
ENDBRANCH   4  43
TORSDOF 11
ENDMDL
MODEL 3
REMARK VINA RESULT: -7.320323759      1.341      2.074
REMARK  11 active torsions:
REMARK  status: ('A' for Active; 'I' for Inactive)
REMARK    1  A    between atoms: O1_2  and  C2_3 
REMARK    2  A    between atoms: C3_4  and  N1_5 
REMARK    3  A    between atoms: C5_10  and  N2_11 
REMARK    4  A    between atoms: C6_15  and  O2_16 
REMARK    5  A    between atoms: O2_16  and  C7_17 
REMARK    6  A    between atoms: C9_19  and  N3_20 
REMARK       I    between atoms: N3_20  and  C10_22 
REMARK    7  A    between atoms: C10_22  and  C11_24 
REMARK    8  A    between atoms: C11_24  and  C12_26 
REMARK    9  A    between atoms: C17_33  and  N5_34 
REMARK   10  A    between atoms: C19_39  and  N6_40 
REMARK   11  A    between atoms: C20_44  and  O5_45 
ROOT
HETATM    1  C7  UNL     1      46.867  40.786   7.291  1.00  0.00     0.154 C 
HETATM    2  C8  UNL     1      45.376  40.481   7.230  1.00  0.00     0.061 C 
HETATM    3  C9  UNL     1      44.985  39.681   6.036  1.00  0.00     0.117 C 
HETATM    4  C17 UNL     1      45.418  40.407   4.752  1.00  0.00     0.208 C 
HETATM    5  C18 UNL     1      46.936  40.389   4.822  1.00  0.00     0.070 C 
HETATM    6  C19 UNL     1      47.291  41.331   5.963  1.00  0.00     0.214 C 
ENDROOT
BRANCH   1   7
HETATM    7  O2  UNL     1      47.633  39.748   7.648  1.00  0.00    -0.374 OA
BRANCH   7   8
HETATM    8  C6  UNL     1      47.384  39.058   8.811  1.00  0.00     0.183 C 
HETATM    9  C5  UNL     1      47.460  39.793  10.087  1.00  0.00     0.217 C 
HETATM   10  C4  UNL     1      47.945  38.894  11.208  1.00  0.00     0.071 C 
HETATM   11  C3  UNL     1      49.397  38.509  11.070  1.00  0.00     0.216 C 
HETATM   12  C2  UNL     1      49.704  38.405   9.592  1.00  0.00     0.182 C 
HETATM   13  C20 UNL     1      48.488  37.988   8.806  1.00  0.00     0.182 C 
BRANCH   9  14
HETATM   14  N2  UNL     1      46.183  40.299  10.586  1.00  0.00    -0.072 N 
ATOM     15  H23 UNL     1      46.194  40.580  11.566  1.00  0.00     0.274 HD
ATOM     16  H22 UNL     1      45.915  41.211  10.216  1.00  0.00     0.274 HD
ATOM     17  H21 UNL     1      45.530  39.546  10.369  1.00  0.00     0.274 HD
ENDBRANCH   9  14
BRANCH  11  18
HETATM   18  N1  UNL     1      49.753  37.305  11.751  1.00  0.00    -0.072 N 
ATOM     19  H13 UNL     1      49.839  37.453  12.757  1.00  0.00     0.274 HD
ATOM     20  H12 UNL     1      48.983  36.635  11.759  1.00  0.00     0.274 HD
ATOM     21  H11 UNL     1      50.601  36.900  11.356  1.00  0.00     0.274 HD
ENDBRANCH  11  18
BRANCH  12  22
HETATM   22  O1  UNL     1      50.234  39.572   9.061  1.00  0.00    -0.386 OA
HETATM   23  C1  UNL     1      51.275  40.066   9.833  1.00  0.00     0.202 C 
ENDBRANCH  12  22
BRANCH  13  24
HETATM   24  O5  UNL     1      47.988  36.772   9.247  1.00  0.00    -0.385 OA
HETATM   25  C21 UNL     1      47.886  35.857   8.173  1.00  0.00     0.202 C 
ENDBRANCH  13  24
ENDBRANCH   7   8
ENDBRANCH   1   7
BRANCH   6  26
HETATM   26  N6  UNL     1      48.722  41.500   5.903  1.00  0.00    -0.072 N 
ATOM     27  H63 UNL     1      49.159  41.325   6.808  1.00  0.00     0.274 HD
ATOM     28  H62 UNL     1      49.166  40.753   5.369  1.00  0.00     0.274 HD
ATOM     29  H61 UNL     1      48.968  42.420   5.539  1.00  0.00     0.274 HD
ENDBRANCH   6  26
BRANCH   3  30
HETATM   30  N3  UNL     1      43.577  39.482   5.990  1.00  0.00    -0.347 N 
HETATM   31  C10 UNL     1      42.899  38.331   6.493  1.00  0.00     0.292 C 
HETATM   32  O3  UNL     1      43.602  37.454   6.997  1.00  0.00    -0.264 OA
ATOM     33  H3  UNL     1      43.010  40.216   5.566  1.00  0.00     0.163 HD
BRANCH  31  34
HETATM   34  C11 UNL     1      41.466  38.228   6.403  1.00  0.00     0.250 C 
HETATM   35  O4  UNL     1      40.960  37.536   5.436  1.00  0.00    -0.281 OA
BRANCH  34  36
HETATM   36  C12 UNL     1      40.481  38.818   7.285  1.00  0.00     0.035 A 
HETATM   37  C13 UNL     1      40.732  39.913   8.066  1.00  0.00     0.018 A 
HETATM   38  C14 UNL     1      39.751  40.436   8.895  1.00  0.00     0.018 A 
HETATM   39  C15 UNL     1      38.498  39.890   8.970  1.00  0.00     0.087 A 
HETATM   40  N4  UNL     1      38.278  38.810   8.186  1.00  0.00    -0.374 N 
HETATM   41  C16 UNL     1      39.194  38.277   7.378  1.00  0.00     0.103 A 
ATOM     42  H4  UNL     1      37.356  38.378   8.214  1.00  0.00     0.164 HD
ENDBRANCH  34  36
ENDBRANCH  31  34
ENDBRANCH   3  30
BRANCH   4  43
HETATM   43  N5  UNL     1      45.002  41.784   4.773  1.00  0.00    -0.073 N 
ATOM     44  H53 UNL     1      44.080  41.892   5.195  1.00  0.00     0.274 HD
ATOM     45  H52 UNL     1      45.544  42.330   5.443  1.00  0.00     0.274 HD
ATOM     46  H51 UNL     1      45.038  42.190   3.839  1.00  0.00     0.274 HD
ENDBRANCH   4  43
TORSDOF 11
ENDMDL
MODEL 4
REMARK VINA RESULT: -7.193466726      3.280      6.045
REMARK  11 active torsions:
REMARK  status: ('A' for Active; 'I' for Inactive)
REMARK    1  A    between atoms: O1_2  and  C2_3 
REMARK    2  A    between atoms: C3_4  and  N1_5 
REMARK    3  A    between atoms: C5_10  and  N2_11 
REMARK    4  A    between atoms: C6_15  and  O2_16 
REMARK    5  A    between atoms: O2_16  and  C7_17 
REMARK    6  A    between atoms: C9_19  and  N3_20 
REMARK       I    between atoms: N3_20  and  C10_22 
REMARK    7  A    between atoms: C10_22  and  C11_24 
REMARK    8  A    between atoms: C11_24  and  C12_26 
REMARK    9  A    between atoms: C17_33  and  N5_34 
REMARK   10  A    between atoms: C19_39  and  N6_40 
REMARK   11  A    between atoms: C20_44  and  O5_45 
ROOT
HETATM    1  C7  UNL     1      41.628  40.030   6.575  1.00  0.00     0.154 C 
HETATM    2  C8  UNL     1      40.964  40.612   7.816  1.00  0.00     0.061 C 
HETATM    3  C9  UNL     1      40.724  39.604   8.886  1.00  0.00     0.117 C 
HETATM    4  C17 UNL     1      39.874  38.447   8.338  1.00  0.00     0.208 C 
HETATM    5  C18 UNL     1      40.777  37.793   7.304  1.00  0.00     0.070 C 
HETATM    6  C19 UNL     1      40.875  38.802   6.170  1.00  0.00     0.214 C 
ENDROOT
BRANCH   1   7
HETATM    7  O2  UNL     1      42.933  39.765   6.715  1.00  0.00    -0.374 OA
BRANCH   7   8
HETATM    8  C6  UNL     1      43.881  40.689   6.343  1.00  0.00     0.183 C 
HETATM    9  C5  UNL     1      44.794  40.342   5.239  1.00  0.00     0.217 C 
HETATM   10  C4  UNL     1      46.159  40.975   5.438  1.00  0.00     0.071 C 
HETATM   11  C3  UNL     1      46.930  40.366   6.582  1.00  0.00     0.216 C 
HETATM   12  C2  UNL     1      45.929  39.952   7.639  1.00  0.00     0.182 C 
HETATM   13  C20 UNL     1      44.716  40.844   7.625  1.00  0.00     0.182 C 
BRANCH   9  14
HETATM   14  N2  UNL     1      44.384  40.829   3.922  1.00  0.00    -0.072 N 
ATOM     15  H23 UNL     1      44.820  40.344   3.138  1.00  0.00     0.274 HD
ATOM     16  H22 UNL     1      43.423  40.602   3.667  1.00  0.00     0.274 HD
ATOM     17  H21 UNL     1      44.585  41.828   3.966  1.00  0.00     0.274 HD
ENDBRANCH   9  14
BRANCH  11  18
HETATM   18  N1  UNL     1      47.933  41.219   7.134  1.00  0.00    -0.072 N 
ATOM     19  H13 UNL     1      47.536  42.093   7.478  1.00  0.00     0.274 HD
ATOM     20  H12 UNL     1      48.294  40.854   8.016  1.00  0.00     0.274 HD
ATOM     21  H11 UNL     1      48.682  41.384   6.461  1.00  0.00     0.274 HD
ENDBRANCH  11  18
BRANCH  12  22
HETATM   22  O1  UNL     1      45.543  38.624   7.536  1.00  0.00    -0.386 OA
HETATM   23  C1  UNL     1      46.630  37.781   7.359  1.00  0.00     0.202 C 
ENDBRANCH  12  22
BRANCH  13  24
HETATM   24  O5  UNL     1      45.055  42.173   7.825  1.00  0.00    -0.385 OA
HETATM   25  C21 UNL     1      43.895  42.978   7.903  1.00  0.00     0.202 C 
ENDBRANCH  13  24
ENDBRANCH   7   8
ENDBRANCH   1   7
BRANCH   6  26
HETATM   26  N6  UNL     1      41.540  38.116   5.090  1.00  0.00    -0.072 N 
ATOM     27  H63 UNL     1      41.173  38.399   4.181  1.00  0.00     0.274 HD
ATOM     28  H62 UNL     1      42.502  38.438   4.976  1.00  0.00     0.274 HD
ATOM     29  H61 UNL     1      41.496  37.104   5.214  1.00  0.00     0.274 HD
ENDBRANCH   6  26
BRANCH   3  30
HETATM   30  N3  UNL     1      40.041  40.181   9.992  1.00  0.00    -0.347 N 
HETATM   31  C10 UNL     1      40.646  41.024  10.973  1.00  0.00     0.292 C 
HETATM   32  O3  UNL     1      41.848  41.253  10.838  1.00  0.00    -0.264 OA
ATOM     33  H3  UNL     1      39.047  39.978  10.092  1.00  0.00     0.163 HD
BRANCH  31  34
HETATM   34  C11 UNL     1      39.864  41.565  12.055  1.00  0.00     0.250 C 
HETATM   35  O4  UNL     1      40.014  41.058  13.234  1.00  0.00    -0.281 OA
BRANCH  34  36
HETATM   36  C12 UNL     1      38.898  42.641  11.993  1.00  0.00     0.035 A 
HETATM   37  C13 UNL     1      38.077  42.974  13.035  1.00  0.00     0.018 A 
HETATM   38  C14 UNL     1      37.167  44.015  12.920  1.00  0.00     0.018 A 
HETATM   39  C15 UNL     1      37.048  44.752  11.774  1.00  0.00     0.087 A 
HETATM   40  N4  UNL     1      37.874  44.401  10.761  1.00  0.00    -0.374 N 
HETATM   41  C16 UNL     1      38.759  43.408  10.831  1.00  0.00     0.103 A 
ATOM     42  H4  UNL     1      37.814  44.929   9.890  1.00  0.00     0.164 HD
ENDBRANCH  34  36
ENDBRANCH  31  34
ENDBRANCH   3  30
BRANCH   4  43
HETATM   43  N5  UNL     1      38.715  38.942   7.645  1.00  0.00    -0.073 N 
ATOM     44  H53 UNL     1      38.441  39.865   7.981  1.00  0.00     0.274 HD
ATOM     45  H52 UNL     1      38.931  39.187   6.678  1.00  0.00     0.274 HD
ATOM     46  H51 UNL     1      37.944  38.277   7.701  1.00  0.00     0.274 HD
ENDBRANCH   4  43
TORSDOF 11
ENDMDL
MODEL 5
REMARK VINA RESULT: -7.180500792      3.995      6.351
REMARK  11 active torsions:
REMARK  status: ('A' for Active; 'I' for Inactive)
REMARK    1  A    between atoms: O1_2  and  C2_3 
REMARK    2  A    between atoms: C3_4  and  N1_5 
REMARK    3  A    between atoms: C5_10  and  N2_11 
REMARK    4  A    between atoms: C6_15  and  O2_16 
REMARK    5  A    between atoms: O2_16  and  C7_17 
REMARK    6  A    between atoms: C9_19  and  N3_20 
REMARK       I    between atoms: N3_20  and  C10_22 
REMARK    7  A    between atoms: C10_22  and  C11_24 
REMARK    8  A    between atoms: C11_24  and  C12_26 
REMARK    9  A    between atoms: C17_33  and  N5_34 
REMARK   10  A    between atoms: C19_39  and  N6_40 
REMARK   11  A    between atoms: C20_44  and  O5_45 
ROOT
HETATM    1  C7  UNL     1      42.766  40.472   7.271  1.00  0.00     0.154 C 
HETATM    2  C8  UNL     1      41.621  41.376   7.706  1.00  0.00     0.061 C 
HETATM    3  C9  UNL     1      41.498  41.504   9.185  1.00  0.00     0.117 C 
HETATM    4  C17 UNL     1      41.332  40.114   9.821  1.00  0.00     0.208 C 
HETATM    5  C18 UNL     1      42.660  39.429   9.543  1.00  0.00     0.070 C 
HETATM    6  C19 UNL     1      42.674  39.191   8.040  1.00  0.00     0.214 C 
ENDROOT
BRANCH   1   7
HETATM    7  O2  UNL     1      43.983  41.017   7.395  1.00  0.00    -0.374 OA
BRANCH   7   8
HETATM    8  C6  UNL     1      44.672  41.455   6.289  1.00  0.00     0.183 C 
HETATM    9  C5  UNL     1      44.727  40.574   5.109  1.00  0.00     0.217 C 
HETATM   10  C4  UNL     1      46.036  40.741   4.360  1.00  0.00     0.071 C 
HETATM   11  C3  UNL     1      47.222  40.197   5.116  1.00  0.00     0.216 C 
HETATM   12  C2  UNL     1      46.957  40.404   6.593  1.00  0.00     0.182 C 
HETATM   13  C20 UNL     1      46.102  41.620   6.832  1.00  0.00     0.182 C 
BRANCH   9  14
HETATM   14  N2  UNL     1      43.716  40.844   4.088  1.00  0.00    -0.072 N 
ATOM     15  H23 UNL     1      43.637  40.125   3.370  1.00  0.00     0.274 HD
ATOM     16  H22 UNL     1      42.753  40.772   4.417  1.00  0.00     0.274 HD
ATOM     17  H21 UNL     1      43.975  41.766   3.738  1.00  0.00     0.274 HD
ENDBRANCH   9  14
BRANCH  11  18
HETATM   18  N1  UNL     1      48.473  40.770   4.737  1.00  0.00    -0.072 N 
ATOM     19  H13 UNL     1      48.638  41.659   5.209  1.00  0.00     0.274 HD
ATOM     20  H12 UNL     1      49.260  40.244   5.119  1.00  0.00     0.274 HD
ATOM     21  H11 UNL     1      48.539  40.863   3.723  1.00  0.00     0.274 HD
ENDBRANCH  11  18
BRANCH  12  22
HETATM   22  O1  UNL     1      46.390  39.297   7.205  1.00  0.00    -0.386 OA
HETATM   23  C1  UNL     1      47.036  38.121   6.853  1.00  0.00     0.202 C 
ENDBRANCH  12  22
BRANCH  13  24
HETATM   24  O5  UNL     1      46.687  42.766   6.317  1.00  0.00    -0.385 OA
HETATM   25  C21 UNL     1      45.792  43.859   6.390  1.00  0.00     0.202 C 
ENDBRANCH  13  24
ENDBRANCH   7   8
ENDBRANCH   1   7
BRANCH   6  26
HETATM   26  N6  UNL     1      43.817  38.349   7.786  1.00  0.00    -0.072 N 
ATOM     27  H63 UNL     1      43.602  37.620   7.106  1.00  0.00     0.274 HD
ATOM     28  H62 UNL     1      44.539  38.843   7.261  1.00  0.00     0.274 HD
ATOM     29  H61 UNL     1      44.185  37.958   8.653  1.00  0.00     0.274 HD
ENDBRANCH   6  26
BRANCH   3  30
HETATM   30  N3  UNL     1      40.374  42.300   9.541  1.00  0.00    -0.347 N 
HETATM   31  C10 UNL     1      40.317  43.723   9.435  1.00  0.00     0.292 C 
HETATM   32  O3  UNL     1      41.325  44.285   9.007  1.00  0.00    -0.264 OA
ATOM     33  H3  UNL     1      39.549  41.819   9.898  1.00  0.00     0.163 HD
BRANCH  31  34
HETATM   34  C11 UNL     1      39.127  44.437   9.817  1.00  0.00     0.250 C 
HETATM   35  O4  UNL     1      38.322  44.832   8.886  1.00  0.00    -0.281 OA
BRANCH  34  36
HETATM   36  C12 UNL     1      38.696  44.783  11.155  1.00  0.00     0.035 A 
HETATM   37  C13 UNL     1      37.429  44.558  11.619  1.00  0.00     0.018 A 
HETATM   38  C14 UNL     1      37.071  44.913  12.911  1.00  0.00     0.018 A 
HETATM   39  C15 UNL     1      37.956  45.496  13.776  1.00  0.00     0.087 A 
HETATM   40  N4  UNL     1      39.202  45.705  13.291  1.00  0.00    -0.374 N 
HETATM   41  C16 UNL     1      39.585  45.381  12.057  1.00  0.00     0.103 A 
ATOM     42  H4  UNL     1      39.889  46.137  13.907  1.00  0.00     0.164 HD
ENDBRANCH  34  36
ENDBRANCH  31  34
ENDBRANCH   3  30
BRANCH   4  43
HETATM   43  N5  UNL     1      40.308  39.359   9.150  1.00  0.00    -0.073 N 
ATOM     44  H53 UNL     1      40.703  38.721   8.459  1.00  0.00     0.274 HD
ATOM     45  H52 UNL     1      39.881  38.671   9.771  1.00  0.00     0.274 HD
ATOM     46  H51 UNL     1      39.611  39.977   8.736  1.00  0.00     0.274 HD
ENDBRANCH   4  43
TORSDOF 11
ENDMDL
