MODEL 1
REMARK VINA RESULT: -7.975128078      0.000      0.000
REMARK  11 active torsions:
REMARK  status: ('A' for Active; 'I' for Inactive)
REMARK    1  A    between atoms: C1_4  and  C2_6 
REMARK    2  A    between atoms: C5_9  and  S1_10 
REMARK    3  A    between atoms: S1_10  and  O3_13 
REMARK    4  A    between atoms: O3_13  and  N3_14 
REMARK    5  A    between atoms: N3_14  and  C6_15 
REMARK    6  A    between atoms: C7_17  and  C8_18 
REMARK    7  A    between atoms: C8_18  and  O5_19 
REMARK    8  A    between atoms: C8_18  and  C9_21 
REMARK    9  A    between atoms: C9_21  and  N4_22 
REMARK   10  A    between atoms: C9_21  and  C10_26 
REMARK       I    between atoms: C10_26  and  N5_28 
REMARK   11  A    between atoms: N5_28  and  N6_30 
REMARK       I    between atoms: N6_30  and  C11_32 
ROOT
HETATM    1  C6  UNL     1       4.755 -29.830  -5.277  1.00  0.00     0.389 C 
HETATM    2  O4  UNL     1       4.431 -31.126  -4.815  1.00  0.00    -0.325 OA
HETATM    3  C7  UNL     1       5.195 -31.322  -3.661  1.00  0.00     0.265 C 
HETATM    4  N8  UNL     1       4.650 -30.378  -2.680  1.00  0.00    -0.286 N 
ATOM      5  H8  UNL     1       4.346 -30.508  -1.715  1.00  0.00     0.175 HD
HETATM    6  S2  UNL     1       4.692 -28.951  -3.703  1.00  0.00     0.273 S 
HETATM    7  O8  UNL     1       5.953 -28.196  -3.459  1.00  0.00    -0.202 OA
HETATM    8  O9  UNL     1       3.462 -28.136  -3.571  1.00  0.00    -0.202 OA
ENDROOT
BRANCH   1   9
HETATM    9  N3  UNL     1       3.679 -29.306  -6.093  1.00  0.00    -0.031 NA
BRANCH   9  10
HETATM   10  O3  UNL     1       4.038 -29.465  -7.388  1.00  0.00    -0.152 OA
BRANCH  10  11
HETATM   11  S1  UNL     1       2.788 -30.167  -8.277  1.00  0.00     0.317 S 
HETATM   12  O1  UNL     1       2.403 -31.428  -7.536  1.00  0.00    -0.192 OA
HETATM   13  O2  UNL     1       1.587 -29.280  -8.347  1.00  0.00    -0.192 OA
BRANCH  11  14
HETATM   14  C5  UNL     1       3.406 -30.533  -9.870  1.00  0.00     0.112 A 
HETATM   15  C4  UNL     1       2.714 -30.205 -11.016  1.00  0.00     0.029 A 
HETATM   16  C3  UNL     1       3.207 -30.497 -12.262  1.00  0.00     0.016 A 
HETATM   17  C2  UNL     1       4.421 -31.133 -12.434  1.00  0.00     0.006 A 
HETATM   18  C13 UNL     1       5.107 -31.458 -11.285  1.00  0.00     0.043 A 
HETATM   19  C12 UNL     1       4.602 -31.159 -10.019  1.00  0.00     0.071 A 
HETATM   20  N9  UNL     1       5.385 -31.535  -8.897  1.00  0.00    -0.101 NA
BRANCH  17  21
HETATM   21  C1  UNL     1       4.926 -31.432 -13.749  1.00  0.00     0.120 C 
HETATM   22  N1  UNL     1       4.262 -31.361 -14.846  1.00  0.00    -0.387 N 
ATOM     23  H12 UNL     1       4.619 -31.573 -15.777  1.00  0.00     0.157 HD
ATOM     24  H11 UNL     1       3.288 -31.066 -14.771  1.00  0.00     0.157 HD
HETATM   25  N2  UNL     1       6.304 -31.850 -13.854  1.00  0.00    -0.082 NA
ENDBRANCH  17  21
ENDBRANCH  11  14
ENDBRANCH  10  11
ENDBRANCH   9  10
ENDBRANCH   1   9
BRANCH   3  26
HETATM   26  C8  UNL     1       5.052 -32.748  -3.261  1.00  0.00     0.207 C 
BRANCH  26  27
HETATM   27  O5  UNL     1       3.724 -33.125  -3.558  1.00  0.00    -0.389 OA
ATOM     28  H5  UNL     1       3.530 -33.891  -3.029  1.00  0.00     0.210 HD
ENDBRANCH  26  27
BRANCH  26  29
HETATM   29  C9  UNL     1       5.953 -33.690  -4.030  1.00  0.00     0.309 C 
BRANCH  29  30
HETATM   30  N4  UNL     1       5.789 -33.565  -5.452  1.00  0.00    -0.064 N 
ATOM     31  H43 UNL     1       4.812 -33.679  -5.721  1.00  0.00     0.275 HD
ATOM     32  H42 UNL     1       5.930 -32.602  -5.756  1.00  0.00     0.275 HD
ATOM     33  H41 UNL     1       6.390 -34.207  -5.970  1.00  0.00     0.275 HD
ENDBRANCH  29  30
BRANCH  29  34
HETATM   34  C10 UNL     1       5.678 -35.082  -3.599  1.00  0.00     0.269 C 
HETATM   35  O6  UNL     1       6.392 -35.575  -2.697  1.00  0.00    -0.269 OA
HETATM   36  N5  UNL     1       4.635 -35.852  -4.184  1.00  0.00    -0.265 N 
ATOM     37  H5  UNL     1       4.054 -35.449  -4.919  1.00  0.00     0.190 HD
BRANCH  36  38
HETATM   38  N6  UNL     1       4.410 -37.149  -3.756  1.00  0.00    -0.251 N 
HETATM   39  C11 UNL     1       5.109 -38.233  -4.341  1.00  0.00     0.347 C 
HETATM   40  N7  UNL     1       4.883 -39.554  -3.911  1.00  0.00    -0.038 NA
HETATM   41  O7  UNL     1       5.947 -38.016  -5.264  1.00  0.00    -0.249 OA
ATOM     42  H6  UNL     1       3.735 -37.326  -3.012  1.00  0.00     0.191 HD
ENDBRANCH  36  38
ENDBRANCH  29  34
ENDBRANCH  26  29
ENDBRANCH   3  26
TORSDOF 11
ENDMDL
MODEL 2
REMARK VINA RESULT: -7.919604004      3.036      8.006
REMARK  11 active torsions:
REMARK  status: ('A' for Active; 'I' for Inactive)
REMARK    1  A    between atoms: C1_4  and  C2_6 
REMARK    2  A    between atoms: C5_9  and  S1_10 
REMARK    3  A    between atoms: S1_10  and  O3_13 
REMARK    4  A    between atoms: O3_13  and  N3_14 
REMARK    5  A    between atoms: N3_14  and  C6_15 
REMARK    6  A    between atoms: C7_17  and  C8_18 
REMARK    7  A    between atoms: C8_18  and  O5_19 
REMARK    8  A    between atoms: C8_18  and  C9_21 
REMARK    9  A    between atoms: C9_21  and  N4_22 
REMARK   10  A    between atoms: C9_21  and  C10_26 
REMARK       I    between atoms: C10_26  and  N5_28 
REMARK   11  A    between atoms: N5_28  and  N6_30 
REMARK       I    between atoms: N6_30  and  C11_32 
ROOT
HETATM    1  C6  UNL     1       2.055 -30.477  -8.121  1.00  0.00     0.389 C 
HETATM    2  O4  UNL     1       3.073 -31.105  -8.875  1.00  0.00    -0.325 OA
HETATM    3  C7  UNL     1       2.832 -30.756 -10.207  1.00  0.00     0.265 C 
HETATM    4  N8  UNL     1       3.089 -29.313 -10.273  1.00  0.00    -0.286 N 
ATOM      5  H8  UNL     1       3.659 -28.758 -10.912  1.00  0.00     0.175 HD
HETATM    6  S2  UNL     1       2.097 -28.850  -8.899  1.00  0.00     0.273 S 
HETATM    7  O8  UNL     1       0.742 -28.448  -9.373  1.00  0.00    -0.202 OA
HETATM    8  O9  UNL     1       2.765 -27.843  -8.045  1.00  0.00    -0.202 OA
ENDROOT
BRANCH   1   9
HETATM    9  N3  UNL     1       2.487 -30.297  -6.750  1.00  0.00    -0.031 NA
BRANCH   9  10
HETATM   10  O3  UNL     1       3.771 -30.719  -6.671  1.00  0.00    -0.152 OA
BRANCH  10  11
HETATM   11  S1  UNL     1       3.988 -31.735  -5.341  1.00  0.00     0.317 S 
HETATM   12  O1  UNL     1       2.629 -32.323  -5.036  1.00  0.00    -0.192 OA
HETATM   13  O2  UNL     1       4.925 -32.860  -5.647  1.00  0.00    -0.192 OA
BRANCH  11  14
HETATM   14  C5  UNL     1       4.570 -30.760  -4.014  1.00  0.00     0.112 A 
HETATM   15  C4  UNL     1       4.332 -29.404  -3.943  1.00  0.00     0.029 A 
HETATM   16  C3  UNL     1       4.793 -28.647  -2.897  1.00  0.00     0.016 A 
HETATM   17  C2  UNL     1       5.519 -29.203  -1.861  1.00  0.00     0.006 A 
HETATM   18  C13 UNL     1       5.753 -30.558  -1.938  1.00  0.00     0.043 A 
HETATM   19  C12 UNL     1       5.282 -31.324  -3.004  1.00  0.00     0.071 A 
HETATM   20  N9  UNL     1       5.575 -32.713  -2.991  1.00  0.00    -0.101 NA
BRANCH  17  21
HETATM   21  C1  UNL     1       5.996 -28.395  -0.768  1.00  0.00     0.120 C 
HETATM   22  N1  UNL     1       7.201 -27.976  -0.610  1.00  0.00    -0.387 N 
ATOM     23  H12 UNL     1       7.539 -27.404   0.163  1.00  0.00     0.157 HD
ATOM     24  H11 UNL     1       7.875 -28.245  -1.327  1.00  0.00     0.157 HD
HETATM   25  N2  UNL     1       5.042 -28.015   0.246  1.00  0.00    -0.082 NA
ENDBRANCH  17  21
ENDBRANCH  11  14
ENDBRANCH  10  11
ENDBRANCH   9  10
ENDBRANCH   1   9
BRANCH   3  26
HETATM   26  C8  UNL     1       3.744 -31.565 -11.059  1.00  0.00     0.207 C 
BRANCH  26  27
HETATM   27  O5  UNL     1       3.218 -31.532 -12.369  1.00  0.00    -0.389 OA
ATOM     28  H5  UNL     1       2.459 -32.104 -12.376  1.00  0.00     0.210 HD
ENDBRANCH  26  27
BRANCH  26  29
HETATM   29  C9  UNL     1       5.151 -31.012 -11.141  1.00  0.00     0.309 C 
BRANCH  29  30
HETATM   30  N4  UNL     1       5.792 -31.332 -12.387  1.00  0.00    -0.064 N 
ATOM     31  H43 UNL     1       5.184 -31.897 -12.979  1.00  0.00     0.275 HD
ATOM     32  H42 UNL     1       5.875 -30.506 -12.980  1.00  0.00     0.275 HD
ATOM     33  H41 UNL     1       6.697 -31.783 -12.253  1.00  0.00     0.275 HD
ENDBRANCH  29  30
BRANCH  29  34
HETATM   34  C10 UNL     1       5.944 -31.538 -10.003  1.00  0.00     0.269 C 
HETATM   35  O6  UNL     1       6.534 -32.633 -10.148  1.00  0.00    -0.269 OA
HETATM   36  N5  UNL     1       6.045 -30.831  -8.774  1.00  0.00    -0.265 N 
ATOM     37  H5  UNL     1       5.564 -29.938  -8.657  1.00  0.00     0.190 HD
BRANCH  36  38
HETATM   38  N6  UNL     1       6.795 -31.355  -7.734  1.00  0.00    -0.251 N 
HETATM   39  C11 UNL     1       7.177 -30.541  -6.640  1.00  0.00     0.347 C 
HETATM   40  N7  UNL     1       7.939 -31.067  -5.581  1.00  0.00    -0.038 NA
HETATM   41  O7  UNL     1       6.831 -29.324  -6.610  1.00  0.00    -0.249 OA
ATOM     42  H6  UNL     1       7.073 -32.335  -7.756  1.00  0.00     0.191 HD
ENDBRANCH  36  38
ENDBRANCH  29  34
ENDBRANCH  26  29
ENDBRANCH   3  26
TORSDOF 11
ENDMDL
MODEL 3
REMARK VINA RESULT: -7.748013039      2.736      9.263
REMARK  11 active torsions:
REMARK  status: ('A' for Active; 'I' for Inactive)
REMARK    1  A    between atoms: C1_4  and  C2_6 
REMARK    2  A    between atoms: C5_9  and  S1_10 
REMARK    3  A    between atoms: S1_10  and  O3_13 
REMARK    4  A    between atoms: O3_13  and  N3_14 
REMARK    5  A    between atoms: N3_14  and  C6_15 
REMARK    6  A    between atoms: C7_17  and  C8_18 
REMARK    7  A    between atoms: C8_18  and  O5_19 
REMARK    8  A    between atoms: C8_18  and  C9_21 
REMARK    9  A    between atoms: C9_21  and  N4_22 
REMARK   10  A    between atoms: C9_21  and  C10_26 
REMARK       I    between atoms: C10_26  and  N5_28 
REMARK   11  A    between atoms: N5_28  and  N6_30 
REMARK       I    between atoms: N6_30  and  C11_32 
ROOT
HETATM    1  C6  UNL     1       4.445 -31.389  -7.196  1.00  0.00     0.389 C 
HETATM    2  O4  UNL     1       5.124 -31.222  -8.425  1.00  0.00    -0.325 OA
HETATM    3  C7  UNL     1       4.160 -30.781  -9.336  1.00  0.00     0.265 C 
HETATM    4  N8  UNL     1       3.789 -29.439  -8.875  1.00  0.00    -0.286 N 
ATOM      5  H8  UNL     1       3.724 -28.549  -9.370  1.00  0.00     0.175 HD
HETATM    6  S2  UNL     1       3.491 -29.858  -7.195  1.00  0.00     0.273 S 
HETATM    7  O8  UNL     1       2.040 -30.131  -6.997  1.00  0.00    -0.202 OA
HETATM    8  O9  UNL     1       4.053 -28.855  -6.264  1.00  0.00    -0.202 OA
ENDROOT
BRANCH   1   9
HETATM    9  N3  UNL     1       5.379 -31.301  -6.092  1.00  0.00    -0.031 NA
BRANCH   9  10
HETATM   10  O3  UNL     1       4.736 -31.731  -4.981  1.00  0.00    -0.152 OA
BRANCH  10  11
HETATM   11  S1  UNL     1       5.821 -32.407  -3.881  1.00  0.00     0.317 S 
HETATM   12  O1  UNL     1       7.203 -32.079  -4.399  1.00  0.00    -0.192 OA
HETATM   13  O2  UNL     1       5.679 -31.808  -2.518  1.00  0.00    -0.192 OA
BRANCH  11  14
HETATM   14  C5  UNL     1       5.548 -34.132  -3.853  1.00  0.00     0.112 A 
HETATM   15  C4  UNL     1       4.404 -34.700  -4.372  1.00  0.00     0.029 A 
HETATM   16  C3  UNL     1       4.199 -36.055  -4.345  1.00  0.00     0.016 A 
HETATM   17  C2  UNL     1       5.126 -36.922  -3.799  1.00  0.00     0.006 A 
HETATM   18  C13 UNL     1       6.267 -36.348  -3.282  1.00  0.00     0.043 A 
HETATM   19  C12 UNL     1       6.472 -34.968  -3.312  1.00  0.00     0.071 A 
HETATM   20  N9  UNL     1       7.680 -34.474  -2.755  1.00  0.00    -0.101 NA
BRANCH  17  21
HETATM   21  C1  UNL     1       4.897 -38.343  -3.779  1.00  0.00     0.120 C 
HETATM   22  N1  UNL     1       4.549 -39.036  -2.754  1.00  0.00    -0.387 N 
ATOM     23  H12 UNL     1       4.386 -40.043  -2.739  1.00  0.00     0.157 HD
ATOM     24  H11 UNL     1       4.427 -38.527  -1.879  1.00  0.00     0.157 HD
HETATM   25  N2  UNL     1       5.070 -39.063  -5.017  1.00  0.00    -0.082 NA
ENDBRANCH  17  21
ENDBRANCH  11  14
ENDBRANCH  10  11
ENDBRANCH   9  10
ENDBRANCH   1   9
BRANCH   3  26
HETATM   26  C8  UNL     1       4.777 -30.798 -10.690  1.00  0.00     0.207 C 
BRANCH  26  27
HETATM   27  O5  UNL     1       5.266 -32.106 -10.900  1.00  0.00    -0.389 OA
ATOM     28  H5  UNL     1       5.959 -32.247 -10.265  1.00  0.00     0.210 HD
ENDBRANCH  26  27
BRANCH  26  29
HETATM   29  C9  UNL     1       3.798 -30.514 -11.808  1.00  0.00     0.309 C 
BRANCH  29  30
HETATM   30  N4  UNL     1       2.722 -31.466 -11.847  1.00  0.00    -0.064 N 
ATOM     31  H43 UNL     1       2.017 -31.254 -11.141  1.00  0.00     0.275 HD
ATOM     32  H42 UNL     1       2.153 -31.344 -12.686  1.00  0.00     0.275 HD
ATOM     33  H41 UNL     1       3.051 -32.428 -11.762  1.00  0.00     0.275 HD
ENDBRANCH  29  30
BRANCH  29  34
HETATM   34  C10 UNL     1       4.528 -30.508 -13.100  1.00  0.00     0.269 C 
HETATM   35  O6  UNL     1       5.772 -30.371 -13.076  1.00  0.00    -0.269 OA
HETATM   36  N5  UNL     1       3.850 -30.654 -14.341  1.00  0.00    -0.265 N 
ATOM     37  H5  UNL     1       2.836 -30.766 -14.358  1.00  0.00     0.190 HD
BRANCH  36  38
HETATM   38  N6  UNL     1       4.566 -30.642 -15.526  1.00  0.00    -0.251 N 
HETATM   39  C11 UNL     1       4.382 -29.601 -16.469  1.00  0.00     0.347 C 
HETATM   40  N7  UNL     1       5.107 -29.584 -17.675  1.00  0.00    -0.038 NA
HETATM   41  O7  UNL     1       3.557 -28.672 -16.228  1.00  0.00    -0.249 OA
ATOM     42  H6  UNL     1       5.231 -31.389 -15.721  1.00  0.00     0.191 HD
ENDBRANCH  36  38
ENDBRANCH  29  34
ENDBRANCH  26  29
ENDBRANCH   3  26
TORSDOF 11
ENDMDL
MODEL 4
REMARK VINA RESULT: -7.677959865      2.695      9.137
REMARK  11 active torsions:
REMARK  status: ('A' for Active; 'I' for Inactive)
REMARK    1  A    between atoms: C1_4  and  C2_6 
REMARK    2  A    between atoms: C5_9  and  S1_10 
REMARK    3  A    between atoms: S1_10  and  O3_13 
REMARK    4  A    between atoms: O3_13  and  N3_14 
REMARK    5  A    between atoms: N3_14  and  C6_15 
REMARK    6  A    between atoms: C7_17  and  C8_18 
REMARK    7  A    between atoms: C8_18  and  O5_19 
REMARK    8  A    between atoms: C8_18  and  C9_21 
REMARK    9  A    between atoms: C9_21  and  N4_22 
REMARK   10  A    between atoms: C9_21  and  C10_26 
REMARK       I    between atoms: C10_26  and  N5_28 
REMARK   11  A    between atoms: N5_28  and  N6_30 
REMARK       I    between atoms: N6_30  and  C11_32 
ROOT
HETATM    1  C6  UNL     1       4.570 -31.202  -7.205  1.00  0.00     0.389 C 
HETATM    2  O4  UNL     1       5.212 -31.044  -8.455  1.00  0.00    -0.325 OA
HETATM    3  C7  UNL     1       4.201 -30.730  -9.367  1.00  0.00     0.265 C 
HETATM    4  N8  UNL     1       3.728 -29.400  -8.966  1.00  0.00    -0.286 N 
ATOM      5  H8  UNL     1       3.582 -28.546  -9.504  1.00  0.00     0.175 HD
HETATM    6  S2  UNL     1       3.493 -29.756  -7.262  1.00  0.00     0.273 S 
HETATM    7  O8  UNL     1       2.072 -30.135  -7.021  1.00  0.00    -0.202 OA
HETATM    8  O9  UNL     1       3.986 -28.663  -6.393  1.00  0.00    -0.202 OA
ENDROOT
BRANCH   1   9
HETATM    9  N3  UNL     1       5.511 -30.982  -6.127  1.00  0.00    -0.031 NA
BRANCH   9  10
HETATM   10  O3  UNL     1       4.827 -31.090  -4.964  1.00  0.00    -0.152 OA
BRANCH  10  11
HETATM   11  S1  UNL     1       5.803 -31.742  -3.751  1.00  0.00     0.317 S 
HETATM   12  O1  UNL     1       7.217 -31.318  -4.077  1.00  0.00    -0.192 OA
HETATM   13  O2  UNL     1       5.452 -31.201  -2.402  1.00  0.00    -0.192 OA
BRANCH  11  14
HETATM   14  C5  UNL     1       5.634 -33.480  -3.807  1.00  0.00     0.112 A 
HETATM   15  C4  UNL     1       6.686 -34.327  -3.530  1.00  0.00     0.029 A 
HETATM   16  C3  UNL     1       6.544 -35.689  -3.577  1.00  0.00     0.016 A 
HETATM   17  C2  UNL     1       5.341 -36.285  -3.902  1.00  0.00     0.006 A 
HETATM   18  C13 UNL     1       4.293 -35.434  -4.176  1.00  0.00     0.043 A 
HETATM   19  C12 UNL     1       4.442 -34.048  -4.127  1.00  0.00     0.071 A 
HETATM   20  N9  UNL     1       3.303 -33.256  -4.426  1.00  0.00    -0.101 NA
BRANCH  17  21
HETATM   21  C1  UNL     1       5.206 -37.718  -3.946  1.00  0.00     0.120 C 
HETATM   22  N1  UNL     1       4.614 -38.448  -3.069  1.00  0.00    -0.387 N 
ATOM     23  H12 UNL     1       4.519 -39.462  -3.100  1.00  0.00     0.157 HD
ATOM     24  H11 UNL     1       4.206 -37.960  -2.271  1.00  0.00     0.157 HD
HETATM   25  N2  UNL     1       5.784 -38.407  -5.075  1.00  0.00    -0.082 NA
ENDBRANCH  17  21
ENDBRANCH  11  14
ENDBRANCH  10  11
ENDBRANCH   9  10
ENDBRANCH   1   9
BRANCH   3  26
HETATM   26  C8  UNL     1       4.794 -30.767 -10.730  1.00  0.00     0.207 C 
BRANCH  26  27
HETATM   27  O5  UNL     1       5.289 -32.075 -10.927  1.00  0.00    -0.389 OA
ATOM     28  H5  UNL     1       6.016 -32.006 -11.536  1.00  0.00     0.210 HD
ENDBRANCH  26  27
BRANCH  26  29
HETATM   29  C9  UNL     1       3.795 -30.509 -11.837  1.00  0.00     0.309 C 
BRANCH  29  30
HETATM   30  N4  UNL     1       2.710 -31.452 -11.824  1.00  0.00    -0.064 N 
ATOM     31  H43 UNL     1       2.770 -32.093 -12.615  1.00  0.00     0.275 HD
ATOM     32  H42 UNL     1       2.815 -32.123 -11.062  1.00  0.00     0.275 HD
ATOM     33  H41 UNL     1       1.799 -30.994 -11.790  1.00  0.00     0.275 HD
ENDBRANCH  29  30
BRANCH  29  34
HETATM   34  C10 UNL     1       4.497 -30.550 -13.143  1.00  0.00     0.269 C 
HETATM   35  O6  UNL     1       5.747 -30.479 -13.145  1.00  0.00    -0.269 OA
HETATM   36  N5  UNL     1       3.787 -30.666 -14.369  1.00  0.00    -0.265 N 
ATOM     37  H5  UNL     1       2.769 -30.724 -14.365  1.00  0.00     0.190 HD
BRANCH  36  38
HETATM   38  N6  UNL     1       4.479 -30.700 -15.568  1.00  0.00    -0.251 N 
HETATM   39  C11 UNL     1       4.333 -29.655 -16.514  1.00  0.00     0.347 C 
HETATM   40  N7  UNL     1       5.033 -29.684 -17.734  1.00  0.00    -0.038 NA
HETATM   41  O7  UNL     1       3.564 -28.681 -16.262  1.00  0.00    -0.249 OA
ATOM     42  H6  UNL     1       5.099 -31.483 -15.772  1.00  0.00     0.191 HD
ENDBRANCH  36  38
ENDBRANCH  29  34
ENDBRANCH  26  29
ENDBRANCH   3  26
TORSDOF 11
ENDMDL
MODEL 5
REMARK VINA RESULT: -7.551938186      3.214      9.132
REMARK  11 active torsions:
REMARK  status: ('A' for Active; 'I' for Inactive)
REMARK    1  A    between atoms: C1_4  and  C2_6 
REMARK    2  A    between atoms: C5_9  and  S1_10 
REMARK    3  A    between atoms: S1_10  and  O3_13 
REMARK    4  A    between atoms: O3_13  and  N3_14 
REMARK    5  A    between atoms: N3_14  and  C6_15 
REMARK    6  A    between atoms: C7_17  and  C8_18 
REMARK    7  A    between atoms: C8_18  and  O5_19 
REMARK    8  A    between atoms: C8_18  and  C9_21 
REMARK    9  A    between atoms: C9_21  and  N4_22 
REMARK   10  A    between atoms: C9_21  and  C10_26 
REMARK       I    between atoms: C10_26  and  N5_28 
REMARK   11  A    between atoms: N5_28  and  N6_30 
REMARK       I    between atoms: N6_30  and  C11_32 
ROOT
HETATM    1  C6  UNL     1       2.411 -30.306  -7.863  1.00  0.00     0.389 C 
HETATM    2  O4  UNL     1       3.218 -30.830  -8.898  1.00  0.00    -0.325 OA
HETATM    3  C7  UNL     1       2.504 -30.623 -10.081  1.00  0.00     0.265 C 
HETATM    4  N8  UNL     1       2.482 -29.167 -10.261  1.00  0.00    -0.286 N 
ATOM      5  H8  UNL     1       2.713 -28.583 -11.065  1.00  0.00     0.175 HD
HETATM    6  S2  UNL     1       1.927 -28.755  -8.647  1.00  0.00     0.273 S 
HETATM    7  O8  UNL     1       0.445 -28.596  -8.652  1.00  0.00    -0.202 OA
HETATM    8  O9  UNL     1       2.659 -27.597  -8.086  1.00  0.00    -0.202 OA
ENDROOT
BRANCH   1   9
HETATM    9  N3  UNL     1       3.228 -29.959  -6.718  1.00  0.00    -0.031 NA
BRANCH   9  10
HETATM   10  O3  UNL     1       2.717 -30.607  -5.644  1.00  0.00    -0.152 OA
BRANCH  10  11
HETATM   11  S1  UNL     1       3.901 -31.538  -4.885  1.00  0.00     0.317 S 
HETATM   12  O1  UNL     1       3.184 -32.735  -4.303  1.00  0.00    -0.192 OA
HETATM   13  O2  UNL     1       4.927 -32.033  -5.853  1.00  0.00    -0.192 OA
BRANCH  11  14
HETATM   14  C5  UNL     1       4.624 -30.562  -3.629  1.00  0.00     0.112 A 
HETATM   15  C4  UNL     1       4.343 -29.219  -3.493  1.00  0.00     0.029 A 
HETATM   16  C3  UNL     1       4.916 -28.461  -2.505  1.00  0.00     0.016 A 
HETATM   17  C2  UNL     1       5.802 -29.002  -1.594  1.00  0.00     0.006 A 
HETATM   18  C13 UNL     1       6.079 -30.344  -1.735  1.00  0.00     0.043 A 
HETATM   19  C12 UNL     1       5.494 -31.111  -2.742  1.00  0.00     0.071 A 
HETATM   20  N9  UNL     1       5.842 -32.486  -2.804  1.00  0.00    -0.101 NA
BRANCH  17  21
HETATM   21  C1  UNL     1       6.396 -28.193  -0.561  1.00  0.00     0.120 C 
HETATM   22  N1  UNL     1       7.607 -27.765  -0.540  1.00  0.00    -0.387 N 
ATOM     23  H12 UNL     1       8.027 -27.192   0.191  1.00  0.00     0.157 HD
ATOM     24  H11 UNL     1       8.197 -28.026  -1.331  1.00  0.00     0.157 HD
HETATM   25  N2  UNL     1       5.561 -27.824   0.557  1.00  0.00    -0.082 NA
ENDBRANCH  17  21
ENDBRANCH  11  14
ENDBRANCH  10  11
ENDBRANCH   9  10
ENDBRANCH   1   9
BRANCH   3  26
HETATM   26  C8  UNL     1       3.212 -31.349 -11.169  1.00  0.00     0.207 C 
BRANCH  26  27
HETATM   27  O5  UNL     1       2.242 -32.121 -11.846  1.00  0.00    -0.389 OA
ATOM     28  H5  UNL     1       2.672 -32.505 -12.601  1.00  0.00     0.210 HD
ENDBRANCH  26  27
BRANCH  26  29
HETATM   29  C9  UNL     1       3.839 -30.437 -12.202  1.00  0.00     0.309 C 
BRANCH  29  30
HETATM   30  N4  UNL     1       3.578 -30.873 -13.546  1.00  0.00    -0.064 N 
ATOM     31  H43 UNL     1       4.341 -30.615 -14.172  1.00  0.00     0.275 HD
ATOM     32  H42 UNL     1       3.641 -31.888 -13.623  1.00  0.00     0.275 HD
ATOM     33  H41 UNL     1       2.683 -30.532 -13.897  1.00  0.00     0.275 HD
ENDBRANCH  29  30
BRANCH  29  34
HETATM   34  C10 UNL     1       5.301 -30.365 -11.958  1.00  0.00     0.269 C 
HETATM   35  O6  UNL     1       5.817 -31.213 -11.196  1.00  0.00    -0.269 OA
HETATM   36  N5  UNL     1       6.109 -29.365 -12.565  1.00  0.00    -0.265 N 
ATOM     37  H5  UNL     1       5.687 -28.675 -13.187  1.00  0.00     0.190 HD
BRANCH  36  38
HETATM   38  N6  UNL     1       7.471 -29.329 -12.313  1.00  0.00    -0.251 N 
HETATM   39  C11 UNL     1       8.403 -29.421 -13.374  1.00  0.00     0.347 C 
HETATM   40  N7  UNL     1       9.787 -29.385 -13.124  1.00  0.00    -0.038 NA
HETATM   41  O7  UNL     1       7.992 -29.537 -14.566  1.00  0.00    -0.249 OA
ATOM     42  H6  UNL     1       7.804 -29.235 -11.354  1.00  0.00     0.191 HD
ENDBRANCH  36  38
ENDBRANCH  29  34
ENDBRANCH  26  29
ENDBRANCH   3  26
TORSDOF 11
ENDMDL
