MODEL 1
REMARK VINA RESULT: -8.491485125      0.000      0.000
REMARK  11 active torsions:
REMARK  status: ('A' for Active; 'I' for Inactive)
REMARK    1  A    between atoms: N1_1  and  C1_4 
REMARK    2  A    between atoms: C4_12  and  C5_13 
REMARK    3  A    between atoms: C5_13  and  C6_14 
REMARK    4  A    between atoms: C6_14  and  N4_15 
REMARK    5  A    between atoms: C6_14  and  C7_19 
REMARK       I    between atoms: C7_19  and  N5_21 
REMARK    6  A    between atoms: N5_21  and  O3_22 
REMARK    7  A    between atoms: N5_21  and  N6_24 
REMARK    8  A    between atoms: C8_25  and  O4_26 
REMARK    9  A    between atoms: C10_32  and  C11_33 
REMARK   10  A    between atoms: C11_33  and  N8_34 
REMARK   11  A    between atoms: N8_34  and  C12_36 
ROOT
HETATM    1  C7  UNL     1       5.573 -29.160  -3.611  1.00  0.00     0.289 C 
HETATM    2  O2  UNL     1       6.303 -28.166  -3.878  1.00  0.00    -0.267 OA
HETATM    3  N5  UNL     1       5.781 -29.863  -2.401  1.00  0.00    -0.141 N 
ENDROOT
BRANCH   1   4
HETATM    4  C6  UNL     1       4.529 -29.559  -4.559  1.00  0.00     0.284 C 
BRANCH   4   5
HETATM    5  C5  UNL     1       4.293 -28.518  -5.660  1.00  0.00     0.101 C 
BRANCH   5   6
HETATM    6  C4  UNL     1       4.212 -29.186  -6.988  1.00  0.00     0.028 A 
HETATM    7  N3  UNL     1       3.198 -28.980  -7.849  1.00  0.00    -0.351 N 
HETATM    8  C3  UNL     1       3.188 -29.622  -9.044  1.00  0.00     0.147 A 
ATOM      9  H3  UNL     1       2.440 -28.342  -7.604  1.00  0.00     0.166 HD
HETATM   10  C2  UNL     1       2.150 -29.413  -9.929  1.00  0.00     0.290 A 
HETATM   11  C17 UNL     1       4.183 -30.494  -9.431  1.00  0.00     0.153 A 
HETATM   12  N2  UNL     1       2.155 -30.064 -11.121  1.00  0.00    -0.154 N 
HETATM   13  O1  UNL     1       1.229 -28.621  -9.598  1.00  0.00    -0.265 OA
HETATM   14  C1  UNL     1       3.132 -30.912 -11.484  1.00  0.00     0.680 A 
ATOM     15  H2  UNL     1       1.383 -29.902 -11.768  1.00  0.00     0.187 HD
HETATM   16  N13 UNL     1       4.150 -31.126 -10.633  1.00  0.00    -0.174 N 
ATOM     17  H13 UNL     1       4.902 -31.765 -10.892  1.00  0.00     0.186 HD
HETATM   18  N12 UNL     1       5.198 -30.697  -8.564  1.00  0.00    -0.348 N 
HETATM   19  C16 UNL     1       5.222 -30.068  -7.377  1.00  0.00     0.114 A 
ATOM     20  H12 UNL     1       5.954 -31.335  -8.813  1.00  0.00     0.167 HD
BRANCH  14  21
HETATM   21  N1  UNL     1       3.097 -31.520 -12.643  1.00  0.00    -0.234 N 
ATOM     22  H12 UNL     1       3.957 -31.688 -13.165  1.00  0.00     0.174 HD
ATOM     23  H11 UNL     1       2.211 -31.833 -13.043  1.00  0.00     0.174 HD
ENDBRANCH  14  21
ENDBRANCH   5   6
ENDBRANCH   4   5
BRANCH   4  24
HETATM   24  N4  UNL     1       3.259 -29.793  -3.864  1.00  0.00    -0.066 N 
ATOM     25  H43 UNL     1       2.616 -30.372  -4.404  1.00  0.00     0.275 HD
ATOM     26  H42 UNL     1       3.360 -30.410  -3.059  1.00  0.00     0.275 HD
ATOM     27  H41 UNL     1       2.858 -28.888  -3.616  1.00  0.00     0.275 HD
ENDBRANCH   4  24
ENDBRANCH   1   4
BRANCH   3  28
HETATM   28  O3  UNL     1       5.028 -30.929  -2.064  1.00  0.00    -0.269 OA
ATOM     29  H3  UNL     1       4.988 -31.249  -1.170  1.00  0.00     0.246 HD
ENDBRANCH   3  28
BRANCH   3  30
HETATM   30  N6  UNL     1       6.803 -29.451  -1.504  1.00  0.00    -0.139 NA
HETATM   31  C8  UNL     1       6.855 -30.470  -0.465  1.00  0.00     0.324 C 
HETATM   32  N7  UNL     1       5.738 -30.114   0.426  1.00  0.00    -0.320 N 
HETATM   33  C9  UNL     1       5.363 -28.799   0.132  1.00  0.00     0.242 C 
ATOM     34  H7  UNL     1       5.315 -30.718   1.131  1.00  0.00     0.166 HD
HETATM   35  O5  UNL     1       4.347 -28.230   0.644  1.00  0.00    -0.272 OA
HETATM   36  C10 UNL     1       6.328 -28.251  -0.832  1.00  0.00     0.197 C 
BRANCH  31  37
HETATM   37  O4  UNL     1       6.610 -31.745  -0.933  1.00  0.00    -0.362 OA
ATOM     38  H4  UNL     1       7.317 -32.355  -0.756  1.00  0.00     0.213 HD
ENDBRANCH  31  37
BRANCH  36  39
HETATM   39  C11 UNL     1       7.421 -27.535  -0.090  1.00  0.00     0.169 C 
BRANCH  39  40
HETATM   40  N8  UNL     1       6.919 -26.771   1.004  1.00  0.00    -0.224 N 
ATOM     41  H8  UNL     1       6.467 -27.252   1.782  1.00  0.00     0.177 HD
BRANCH  40  42
HETATM   42  C12 UNL     1       7.023 -25.491   1.033  1.00  0.00     0.682 A 
HETATM   43  N9  UNL     1       6.155 -24.746   1.774  1.00  0.00    -0.179 N 
HETATM   44  C13 UNL     1       6.270 -23.419   1.798  1.00  0.00     0.137 A 
ATOM     45  H9  UNL     1       5.418 -25.205   2.311  1.00  0.00     0.185 HD
HETATM   46  N10 UNL     1       5.389 -22.609   2.555  1.00  0.00    -0.082 NA
HETATM   47  C14 UNL     1       7.272 -22.810   1.066  1.00  0.00     0.120 A 
HETATM   48  C15 UNL     1       8.140 -23.588   0.322  1.00  0.00     0.262 A 
HETATM   49  O6  UNL     1       9.053 -23.040  -0.344  1.00  0.00    -0.268 OA
HETATM   50  N11 UNL     1       7.997 -24.912   0.320  1.00  0.00    -0.156 N 
ATOM     51  H11 UNL     1       8.636 -25.490  -0.227  1.00  0.00     0.187 HD
ENDBRANCH  40  42
ENDBRANCH  39  40
ENDBRANCH  36  39
ENDBRANCH   3  30
TORSDOF 11
ENDMDL
MODEL 2
REMARK VINA RESULT: -8.490005710      1.481     10.330
REMARK  11 active torsions:
REMARK  status: ('A' for Active; 'I' for Inactive)
REMARK    1  A    between atoms: N1_1  and  C1_4 
REMARK    2  A    between atoms: C4_12  and  C5_13 
REMARK    3  A    between atoms: C5_13  and  C6_14 
REMARK    4  A    between atoms: C6_14  and  N4_15 
REMARK    5  A    between atoms: C6_14  and  C7_19 
REMARK       I    between atoms: C7_19  and  N5_21 
REMARK    6  A    between atoms: N5_21  and  O3_22 
REMARK    7  A    between atoms: N5_21  and  N6_24 
REMARK    8  A    between atoms: C8_25  and  O4_26 
REMARK    9  A    between atoms: C10_32  and  C11_33 
REMARK   10  A    between atoms: C11_33  and  N8_34 
REMARK   11  A    between atoms: N8_34  and  C12_36 
ROOT
HETATM    1  C7  UNL     1       6.891 -28.725  -1.986  1.00  0.00     0.289 C 
HETATM    2  O2  UNL     1       7.600 -27.932  -2.665  1.00  0.00    -0.267 OA
HETATM    3  N5  UNL     1       5.724 -29.277  -2.568  1.00  0.00    -0.141 N 
ENDROOT
BRANCH   1   4
HETATM    4  C6  UNL     1       7.293 -29.054  -0.616  1.00  0.00     0.284 C 
BRANCH   4   5
HETATM    5  C5  UNL     1       8.307 -28.060  -0.036  1.00  0.00     0.101 C 
BRANCH   5   6
HETATM    6  C4  UNL     1       7.597 -26.902   0.574  1.00  0.00     0.028 A 
HETATM    7  N3  UNL     1       7.908 -25.623   0.290  1.00  0.00    -0.351 N 
HETATM    8  C3  UNL     1       7.219 -24.616   0.884  1.00  0.00     0.147 A 
ATOM      9  H3  UNL     1       8.658 -25.412  -0.368  1.00  0.00     0.166 HD
HETATM   10  C2  UNL     1       7.535 -23.304   0.595  1.00  0.00     0.290 A 
HETATM   11  C17 UNL     1       6.196 -24.838   1.780  1.00  0.00     0.153 A 
HETATM   12  N2  UNL     1       6.835 -22.307   1.198  1.00  0.00    -0.154 N 
HETATM   13  O1  UNL     1       8.465 -23.075  -0.221  1.00  0.00    -0.265 OA
HETATM   14  C1  UNL     1       5.841 -22.540   2.071  1.00  0.00     0.680 A 
ATOM     15  H2  UNL     1       7.076 -21.340   0.978  1.00  0.00     0.187 HD
HETATM   16  N13 UNL     1       5.521 -23.812   2.362  1.00  0.00    -0.174 N 
ATOM     17  H13 UNL     1       4.768 -24.008   3.021  1.00  0.00     0.186 HD
HETATM   18  N12 UNL     1       5.889 -26.122   2.061  1.00  0.00    -0.348 N 
HETATM   19  C16 UNL     1       6.562 -27.131   1.482  1.00  0.00     0.114 A 
ATOM     20  H12 UNL     1       5.138 -26.329   2.720  1.00  0.00     0.167 HD
BRANCH  14  21
HETATM   21  N1  UNL     1       5.193 -21.548   2.630  1.00  0.00    -0.234 N 
ATOM     22  H12 UNL     1       4.672 -20.883   2.058  1.00  0.00     0.174 HD
ATOM     23  H11 UNL     1       5.199 -21.425   3.643  1.00  0.00     0.174 HD
ENDBRANCH  14  21
ENDBRANCH   5   6
ENDBRANCH   4   5
BRANCH   4  24
HETATM   24  N4  UNL     1       7.879 -30.398  -0.556  1.00  0.00    -0.066 N 
ATOM     25  H43 UNL     1       8.478 -30.530   0.259  1.00  0.00     0.275 HD
ATOM     26  H42 UNL     1       7.189 -31.117  -0.339  1.00  0.00     0.275 HD
ATOM     27  H41 UNL     1       8.367 -30.575  -1.434  1.00  0.00     0.275 HD
ENDBRANCH   4  24
ENDBRANCH   1   4
BRANCH   3  28
HETATM   28  O3  UNL     1       4.934 -30.132  -1.890  1.00  0.00    -0.269 OA
ATOM     29  H3  UNL     1       4.007 -30.212  -2.081  1.00  0.00     0.246 HD
ENDBRANCH   3  28
BRANCH   3  30
HETATM   30  N6  UNL     1       5.362 -28.936  -3.898  1.00  0.00    -0.139 NA
HETATM   31  C8  UNL     1       3.950 -28.580  -3.846  1.00  0.00     0.324 C 
HETATM   32  N7  UNL     1       3.264 -29.883  -3.846  1.00  0.00    -0.320 N 
HETATM   33  C9  UNL     1       4.185 -30.848  -4.267  1.00  0.00     0.242 C 
ATOM     34  H7  UNL     1       2.292 -30.051  -3.587  1.00  0.00     0.166 HD
HETATM   35  O5  UNL     1       3.942 -32.097  -4.262  1.00  0.00    -0.272 OA
HETATM   36  C10 UNL     1       5.413 -30.158  -4.686  1.00  0.00     0.197 C 
BRANCH  31  37
HETATM   37  O4  UNL     1       3.589 -27.932  -2.683  1.00  0.00    -0.362 OA
ATOM     38  H4  UNL     1       3.829 -28.407  -1.895  1.00  0.00     0.213 HD
ENDBRANCH  31  37
BRANCH  36  39
HETATM   39  C11 UNL     1       5.357 -29.894  -6.164  1.00  0.00     0.169 C 
BRANCH  39  40
HETATM   40  N8  UNL     1       4.337 -30.652  -6.808  1.00  0.00    -0.224 N 
ATOM     41  H8  UNL     1       4.093 -31.573  -6.442  1.00  0.00     0.177 HD
BRANCH  40  42
HETATM   42  C12 UNL     1       3.717 -30.203  -7.840  1.00  0.00     0.682 A 
HETATM   43  N9  UNL     1       4.290 -30.276  -9.074  1.00  0.00    -0.179 N 
HETATM   44  C13 UNL     1       3.639 -29.807 -10.139  1.00  0.00     0.137 A 
ATOM     45  H9  UNL     1       5.217 -30.689  -9.183  1.00  0.00     0.185 HD
HETATM   46  N10 UNL     1       4.200 -29.863 -11.437  1.00  0.00    -0.082 NA
HETATM   47  C14 UNL     1       2.385 -29.249  -9.977  1.00  0.00     0.120 A 
HETATM   48  C15 UNL     1       1.825 -29.187  -8.715  1.00  0.00     0.262 A 
HETATM   49  O6  UNL     1       0.685 -28.682  -8.563  1.00  0.00    -0.268 OA
HETATM   50  N11 UNL     1       2.502 -29.665  -7.672  1.00  0.00    -0.156 N 
ATOM     51  H11 UNL     1       2.092 -29.621  -6.738  1.00  0.00     0.187 HD
ENDBRANCH  40  42
ENDBRANCH  39  40
ENDBRANCH  36  39
ENDBRANCH   3  30
TORSDOF 11
ENDMDL
MODEL 3
REMARK VINA RESULT: -8.439625765      1.731     10.241
REMARK  11 active torsions:
REMARK  status: ('A' for Active; 'I' for Inactive)
REMARK    1  A    between atoms: N1_1  and  C1_4 
REMARK    2  A    between atoms: C4_12  and  C5_13 
REMARK    3  A    between atoms: C5_13  and  C6_14 
REMARK    4  A    between atoms: C6_14  and  N4_15 
REMARK    5  A    between atoms: C6_14  and  C7_19 
REMARK       I    between atoms: C7_19  and  N5_21 
REMARK    6  A    between atoms: N5_21  and  O3_22 
REMARK    7  A    between atoms: N5_21  and  N6_24 
REMARK    8  A    between atoms: C8_25  and  O4_26 
REMARK    9  A    between atoms: C10_32  and  C11_33 
REMARK   10  A    between atoms: C11_33  and  N8_34 
REMARK   11  A    between atoms: N8_34  and  C12_36 
ROOT
HETATM    1  C7  UNL     1       6.861 -28.748  -1.921  1.00  0.00     0.289 C 
HETATM    2  O2  UNL     1       7.599 -27.969  -2.584  1.00  0.00    -0.267 OA
HETATM    3  N5  UNL     1       5.705 -29.290  -2.533  1.00  0.00    -0.141 N 
ENDROOT
BRANCH   1   4
HETATM    4  C6  UNL     1       7.219 -29.073  -0.538  1.00  0.00     0.284 C 
BRANCH   4   5
HETATM    5  C5  UNL     1       8.244 -28.100   0.058  1.00  0.00     0.101 C 
BRANCH   5   6
HETATM    6  C4  UNL     1       7.551 -26.917   0.637  1.00  0.00     0.028 A 
HETATM    7  N3  UNL     1       7.875 -25.651   0.317  1.00  0.00    -0.351 N 
HETATM    8  C3  UNL     1       7.201 -24.619   0.884  1.00  0.00     0.147 A 
ATOM      9  H3  UNL     1       8.626 -25.467  -0.349  1.00  0.00     0.166 HD
HETATM   10  C2  UNL     1       7.532 -23.319   0.558  1.00  0.00     0.290 A 
HETATM   11  C17 UNL     1       6.179 -24.803   1.790  1.00  0.00     0.153 A 
HETATM   12  N2  UNL     1       6.847 -22.297   1.134  1.00  0.00    -0.154 N 
HETATM   13  O1  UNL     1       8.462 -23.125  -0.268  1.00  0.00    -0.265 OA
HETATM   14  C1  UNL     1       5.853 -22.493   2.016  1.00  0.00     0.680 A 
ATOM     15  H2  UNL     1       7.099 -21.340   0.886  1.00  0.00     0.187 HD
HETATM   16  N13 UNL     1       5.519 -23.753   2.344  1.00  0.00    -0.174 N 
ATOM     17  H13 UNL     1       4.766 -23.921   3.011  1.00  0.00     0.186 HD
HETATM   18  N12 UNL     1       5.857 -26.075   2.107  1.00  0.00    -0.348 N 
HETATM   19  C16 UNL     1       6.516 -27.108   1.555  1.00  0.00     0.114 A 
ATOM     20  H12 UNL     1       5.106 -26.254   2.774  1.00  0.00     0.167 HD
BRANCH  14  21
HETATM   21  N1  UNL     1       5.219 -21.479   2.549  1.00  0.00    -0.234 N 
ATOM     22  H12 UNL     1       4.854 -20.730   1.960  1.00  0.00     0.174 HD
ATOM     23  H11 UNL     1       5.081 -21.420   3.559  1.00  0.00     0.174 HD
ENDBRANCH  14  21
ENDBRANCH   5   6
ENDBRANCH   4   5
BRANCH   4  24
HETATM   24  N4  UNL     1       7.766 -30.432  -0.449  1.00  0.00    -0.066 N 
ATOM     25  H43 UNL     1       8.301 -30.694  -1.276  1.00  0.00     0.275 HD
ATOM     26  H42 UNL     1       8.520 -30.507   0.234  1.00  0.00     0.275 HD
ATOM     27  H41 UNL     1       6.998 -31.075  -0.258  1.00  0.00     0.275 HD
ENDBRANCH   4  24
ENDBRANCH   1   4
BRANCH   3  28
HETATM   28  O3  UNL     1       4.884 -30.131  -1.873  1.00  0.00    -0.269 OA
ATOM     29  H3  UNL     1       4.405 -29.855  -1.101  1.00  0.00     0.246 HD
ENDBRANCH   3  28
BRANCH   3  30
HETATM   30  N6  UNL     1       5.386 -28.954  -3.876  1.00  0.00    -0.139 NA
HETATM   31  C8  UNL     1       3.977 -28.585  -3.868  1.00  0.00     0.324 C 
HETATM   32  N7  UNL     1       3.278 -29.881  -3.882  1.00  0.00    -0.320 N 
HETATM   33  C9  UNL     1       4.202 -30.857  -4.268  1.00  0.00     0.242 C 
ATOM     34  H7  UNL     1       2.297 -30.038  -3.651  1.00  0.00     0.166 HD
HETATM   35  O5  UNL     1       3.947 -32.103  -4.264  1.00  0.00    -0.272 OA
HETATM   36  C10 UNL     1       5.449 -30.181  -4.654  1.00  0.00     0.197 C 
BRANCH  31  37
HETATM   37  O4  UNL     1       3.588 -27.926  -2.720  1.00  0.00    -0.362 OA
ATOM     38  H4  UNL     1       2.747 -28.215  -2.385  1.00  0.00     0.213 HD
ENDBRANCH  31  37
BRANCH  36  39
HETATM   39  C11 UNL     1       5.440 -29.926  -6.135  1.00  0.00     0.169 C 
BRANCH  39  40
HETATM   40  N8  UNL     1       4.452 -30.701  -6.810  1.00  0.00    -0.224 N 
ATOM     41  H8  UNL     1       4.223 -31.631  -6.458  1.00  0.00     0.177 HD
BRANCH  40  42
HETATM   42  C12 UNL     1       3.844 -30.256  -7.850  1.00  0.00     0.682 A 
HETATM   43  N9  UNL     1       2.630 -29.647  -7.730  1.00  0.00    -0.179 N 
HETATM   44  C13 UNL     1       2.007 -29.189  -8.815  1.00  0.00     0.137 A 
ATOM     45  H9  UNL     1       2.199 -29.543  -6.811  1.00  0.00     0.185 HD
HETATM   46  N10 UNL     1       0.745 -28.552  -8.734  1.00  0.00    -0.082 NA
HETATM   47  C14 UNL     1       2.600 -29.336 -10.054  1.00  0.00     0.120 A 
HETATM   48  C15 UNL     1       3.832 -29.957 -10.149  1.00  0.00     0.262 A 
HETATM   49  O6  UNL     1       4.377 -30.093 -11.273  1.00  0.00    -0.268 OA
HETATM   50  N11 UNL     1       4.429 -30.404  -9.045  1.00  0.00    -0.156 N 
ATOM     51  H11 UNL     1       5.338 -30.862  -9.110  1.00  0.00     0.187 HD
ENDBRANCH  40  42
ENDBRANCH  39  40
ENDBRANCH  36  39
ENDBRANCH   3  30
TORSDOF 11
ENDMDL
MODEL 4
REMARK VINA RESULT: -8.431812497      0.960      1.366
REMARK  11 active torsions:
REMARK  status: ('A' for Active; 'I' for Inactive)
REMARK    1  A    between atoms: N1_1  and  C1_4 
REMARK    2  A    between atoms: C4_12  and  C5_13 
REMARK    3  A    between atoms: C5_13  and  C6_14 
REMARK    4  A    between atoms: C6_14  and  N4_15 
REMARK    5  A    between atoms: C6_14  and  C7_19 
REMARK       I    between atoms: C7_19  and  N5_21 
REMARK    6  A    between atoms: N5_21  and  O3_22 
REMARK    7  A    between atoms: N5_21  and  N6_24 
REMARK    8  A    between atoms: C8_25  and  O4_26 
REMARK    9  A    between atoms: C10_32  and  C11_33 
REMARK   10  A    between atoms: C11_33  and  N8_34 
REMARK   11  A    between atoms: N8_34  and  C12_36 
ROOT
HETATM    1  C7  UNL     1       5.552 -29.173  -3.626  1.00  0.00     0.289 C 
HETATM    2  O2  UNL     1       6.277 -28.173  -3.887  1.00  0.00    -0.267 OA
HETATM    3  N5  UNL     1       5.766 -29.884  -2.421  1.00  0.00    -0.141 N 
ENDROOT
BRANCH   1   4
HETATM    4  C6  UNL     1       4.509 -29.570  -4.575  1.00  0.00     0.284 C 
BRANCH   4   5
HETATM    5  C5  UNL     1       4.274 -28.528  -5.675  1.00  0.00     0.101 C 
BRANCH   5   6
HETATM    6  C4  UNL     1       4.200 -29.193  -7.005  1.00  0.00     0.028 A 
HETATM    7  N3  UNL     1       3.188 -28.989  -7.869  1.00  0.00    -0.351 N 
HETATM    8  C3  UNL     1       3.184 -29.629  -9.065  1.00  0.00     0.147 A 
ATOM      9  H3  UNL     1       2.426 -28.355  -7.625  1.00  0.00     0.166 HD
HETATM   10  C2  UNL     1       2.148 -29.422  -9.953  1.00  0.00     0.290 A 
HETATM   11  C17 UNL     1       4.184 -30.496  -9.450  1.00  0.00     0.153 A 
HETATM   12  N2  UNL     1       2.160 -30.071 -11.146  1.00  0.00    -0.154 N 
HETATM   13  O1  UNL     1       1.223 -28.634  -9.624  1.00  0.00    -0.265 OA
HETATM   14  C1  UNL     1       3.141 -30.914 -11.507  1.00  0.00     0.680 A 
ATOM     15  H2  UNL     1       1.390 -29.910 -11.796  1.00  0.00     0.187 HD
HETATM   16  N13 UNL     1       4.157 -31.126 -10.654  1.00  0.00    -0.174 N 
ATOM     17  H13 UNL     1       4.912 -31.762 -10.912  1.00  0.00     0.186 HD
HETATM   18  N12 UNL     1       5.196 -30.697  -8.580  1.00  0.00    -0.348 N 
HETATM   19  C16 UNL     1       5.214 -30.071  -7.391  1.00  0.00     0.114 A 
ATOM     20  H12 UNL     1       5.956 -31.332  -8.828  1.00  0.00     0.167 HD
BRANCH  14  21
HETATM   21  N1  UNL     1       3.112 -31.519 -12.668  1.00  0.00    -0.234 N 
ATOM     22  H12 UNL     1       2.400 -32.222 -12.867  1.00  0.00     0.174 HD
ATOM     23  H11 UNL     1       3.800 -31.300 -13.390  1.00  0.00     0.174 HD
ENDBRANCH  14  21
ENDBRANCH   5   6
ENDBRANCH   4   5
BRANCH   4  24
HETATM   24  N4  UNL     1       3.238 -29.804  -3.881  1.00  0.00    -0.066 N 
ATOM     25  H43 UNL     1       2.940 -30.778  -3.924  1.00  0.00     0.275 HD
ATOM     26  H42 UNL     1       3.325 -29.729  -2.868  1.00  0.00     0.275 HD
ATOM     27  H41 UNL     1       2.541 -29.164  -4.263  1.00  0.00     0.275 HD
ENDBRANCH   4  24
ENDBRANCH   1   4
BRANCH   3  28
HETATM   28  O3  UNL     1       5.019 -30.955  -2.091  1.00  0.00    -0.269 OA
ATOM     29  H3  UNL     1       5.181 -31.450  -1.296  1.00  0.00     0.246 HD
ENDBRANCH   3  28
BRANCH   3  30
HETATM   30  N6  UNL     1       6.787 -29.473  -1.523  1.00  0.00    -0.139 NA
HETATM   31  C8  UNL     1       6.851 -30.503  -0.496  1.00  0.00     0.324 C 
HETATM   32  N7  UNL     1       5.734 -30.167   0.403  1.00  0.00    -0.320 N 
HETATM   33  C9  UNL     1       5.347 -28.851   0.125  1.00  0.00     0.242 C 
ATOM     34  H7  UNL     1       5.319 -30.782   1.102  1.00  0.00     0.166 HD
HETATM   35  O5  UNL     1       4.328 -28.297   0.647  1.00  0.00    -0.272 OA
HETATM   36  C10 UNL     1       6.304 -28.285  -0.836  1.00  0.00     0.197 C 
BRANCH  31  37
HETATM   37  O4  UNL     1       6.615 -31.775  -0.978  1.00  0.00    -0.362 OA
ATOM     38  H4  UNL     1       5.808 -32.158  -0.654  1.00  0.00     0.213 HD
ENDBRANCH  31  37
BRANCH  36  39
HETATM   39  C11 UNL     1       7.394 -27.567  -0.090  1.00  0.00     0.169 C 
BRANCH  39  40
HETATM   40  N8  UNL     1       6.909 -26.923   1.085  1.00  0.00    -0.224 N 
ATOM     41  H8  UNL     1       6.493 -27.487   1.827  1.00  0.00     0.177 HD
BRANCH  40  42
HETATM   42  C12 UNL     1       6.983 -25.649   1.231  1.00  0.00     0.682 A 
HETATM   43  N9  UNL     1       7.821 -24.913   0.447  1.00  0.00    -0.179 N 
HETATM   44  C13 UNL     1       7.892 -23.592   0.606  1.00  0.00     0.137 A 
ATOM     45  H9  UNL     1       8.393 -25.374  -0.261  1.00  0.00     0.185 HD
HETATM   46  N10 UNL     1       8.749 -22.792  -0.187  1.00  0.00    -0.082 NA
HETATM   47  C14 UNL     1       7.112 -22.981   1.569  1.00  0.00     0.120 A 
HETATM   48  C15 UNL     1       6.270 -23.749   2.352  1.00  0.00     0.262 A 
HETATM   49  O6  UNL     1       5.558 -23.198   3.228  1.00  0.00    -0.268 OA
HETATM   50  N11 UNL     1       6.223 -25.067   2.167  1.00  0.00    -0.156 N 
ATOM     51  H11 UNL     1       5.603 -25.638   2.742  1.00  0.00     0.187 HD
ENDBRANCH  40  42
ENDBRANCH  39  40
ENDBRANCH  36  39
ENDBRANCH   3  30
TORSDOF 11
ENDMDL
MODEL 5
REMARK VINA RESULT: -8.318652603      4.253     12.962
REMARK  11 active torsions:
REMARK  status: ('A' for Active; 'I' for Inactive)
REMARK    1  A    between atoms: N1_1  and  C1_4 
REMARK    2  A    between atoms: C4_12  and  C5_13 
REMARK    3  A    between atoms: C5_13  and  C6_14 
REMARK    4  A    between atoms: C6_14  and  N4_15 
REMARK    5  A    between atoms: C6_14  and  C7_19 
REMARK       I    between atoms: C7_19  and  N5_21 
REMARK    6  A    between atoms: N5_21  and  O3_22 
REMARK    7  A    between atoms: N5_21  and  N6_24 
REMARK    8  A    between atoms: C8_25  and  O4_26 
REMARK    9  A    between atoms: C10_32  and  C11_33 
REMARK   10  A    between atoms: C11_33  and  N8_34 
REMARK   11  A    between atoms: N8_34  and  C12_36 
ROOT
HETATM    1  C7  UNL     1       3.353 -30.962  -9.994  1.00  0.00     0.289 C 
HETATM    2  O2  UNL     1       2.967 -32.163 -10.004  1.00  0.00    -0.267 OA
HETATM    3  N5  UNL     1       4.115 -30.474 -11.082  1.00  0.00    -0.141 N 
ENDROOT
BRANCH   1   4
HETATM    4  C6  UNL     1       3.002 -30.104  -8.859  1.00  0.00     0.284 C 
BRANCH   4   5
HETATM    5  C5  UNL     1       2.213 -30.845  -7.772  1.00  0.00     0.101 C 
BRANCH   5   6
HETATM    6  C4  UNL     1       2.889 -30.691  -6.455  1.00  0.00     0.028 A 
HETATM    7  N3  UNL     1       3.758 -29.698  -6.190  1.00  0.00    -0.351 N 
HETATM    8  C3  UNL     1       4.338 -29.618  -4.966  1.00  0.00     0.147 A 
ATOM      9  H3  UNL     1       3.981 -29.008  -6.908  1.00  0.00     0.166 HD
HETATM   10  C2  UNL     1       5.229 -28.601  -4.692  1.00  0.00     0.290 A 
HETATM   11  C17 UNL     1       4.077 -30.520  -3.957  1.00  0.00     0.153 A 
HETATM   12  N2  UNL     1       5.801 -28.536  -3.461  1.00  0.00    -0.154 N 
HETATM   13  O1  UNL     1       5.483 -27.765  -5.598  1.00  0.00    -0.265 OA
HETATM   14  C1  UNL     1       5.537 -29.423  -2.488  1.00  0.00     0.680 A 
ATOM     15  H2  UNL     1       6.458 -27.780  -3.269  1.00  0.00     0.187 HD
HETATM   16  N13 UNL     1       4.670 -30.419  -2.739  1.00  0.00    -0.174 N 
ATOM     17  H13 UNL     1       4.457 -31.101  -2.011  1.00  0.00     0.186 HD
HETATM   18  N12 UNL     1       3.204 -31.514  -4.227  1.00  0.00    -0.348 N 
HETATM   19  C16 UNL     1       2.622 -31.607  -5.435  1.00  0.00     0.114 A 
ATOM     20  H12 UNL     1       2.984 -32.202  -3.506  1.00  0.00     0.167 HD
BRANCH  14  21
HETATM   21  N1  UNL     1       6.111 -29.323  -1.315  1.00  0.00    -0.234 N 
ATOM     22  H12 UNL     1       7.118 -29.454  -1.220  1.00  0.00     0.174 HD
ATOM     23  H11 UNL     1       5.563 -29.113  -0.481  1.00  0.00     0.174 HD
ENDBRANCH  14  21
ENDBRANCH   5   6
ENDBRANCH   4   5
BRANCH   4  24
HETATM   24  N4  UNL     1       2.206 -28.954  -9.304  1.00  0.00    -0.066 N 
ATOM     25  H43 UNL     1       1.351 -28.835  -8.762  1.00  0.00     0.275 HD
ATOM     26  H42 UNL     1       2.643 -28.062  -9.073  1.00  0.00     0.275 HD
ATOM     27  H41 UNL     1       2.027 -29.056 -10.303  1.00  0.00     0.275 HD
ENDBRANCH   4  24
ENDBRANCH   1   4
BRANCH   3  28
HETATM   28  O3  UNL     1       4.550 -29.199 -11.126  1.00  0.00    -0.269 OA
ATOM     29  H3  UNL     1       5.350 -28.960 -11.579  1.00  0.00     0.246 HD
ENDBRANCH   3  28
BRANCH   3  30
HETATM   30  N6  UNL     1       4.440 -31.332 -12.166  1.00  0.00    -0.139 NA
HETATM   31  C8  UNL     1       5.825 -31.730 -11.957  1.00  0.00     0.324 C 
HETATM   32  N7  UNL     1       6.596 -30.580 -12.458  1.00  0.00    -0.320 N 
HETATM   33  C9  UNL     1       5.736 -29.799 -13.237  1.00  0.00     0.242 C 
ATOM     34  H7  UNL     1       7.580 -30.387 -12.270  1.00  0.00     0.166 HD
HETATM   35  O5  UNL     1       6.061 -28.667 -13.719  1.00  0.00    -0.272 OA
HETATM   36  C10 UNL     1       4.460 -30.516 -13.371  1.00  0.00     0.197 C 
BRANCH  31  37
HETATM   37  O4  UNL     1       6.156 -31.892 -10.627  1.00  0.00    -0.362 OA
ATOM     38  H4  UNL     1       6.890 -31.355 -10.352  1.00  0.00     0.213 HD
ENDBRANCH  31  37
BRANCH  36  39
HETATM   39  C11 UNL     1       4.482 -31.343 -14.626  1.00  0.00     0.169 C 
BRANCH  39  40
HETATM   40  N8  UNL     1       5.339 -30.788 -15.621  1.00  0.00    -0.224 N 
ATOM     41  H8  UNL     1       6.180 -30.287 -15.332  1.00  0.00     0.177 HD
BRANCH  40  42
HETATM   42  C12 UNL     1       5.077 -30.904 -16.873  1.00  0.00     0.682 A 
HETATM   43  N9  UNL     1       4.447 -32.017 -17.345  1.00  0.00    -0.179 N 
HETATM   44  C13 UNL     1       4.179 -32.128 -18.646  1.00  0.00     0.137 A 
ATOM     45  H9  UNL     1       4.181 -32.764 -16.703  1.00  0.00     0.185 HD
HETATM   46  N10 UNL     1       3.528 -33.268 -19.176  1.00  0.00    -0.082 NA
HETATM   47  C14 UNL     1       4.545 -31.109 -19.505  1.00  0.00     0.120 A 
HETATM   48  C15 UNL     1       5.182 -29.990 -19.002  1.00  0.00     0.262 A 
HETATM   49  O6  UNL     1       5.516 -29.061 -19.778  1.00  0.00    -0.268 OA
HETATM   50  N11 UNL     1       5.435 -29.910 -17.696  1.00  0.00    -0.156 N 
ATOM     51  H11 UNL     1       5.905 -29.086 -17.321  1.00  0.00     0.187 HD
ENDBRANCH  40  42
ENDBRANCH  39  40
ENDBRANCH  36  39
ENDBRANCH   3  30
TORSDOF 11
ENDMDL
