MODEL 1
REMARK VINA RESULT: -5.726462125      0.000      0.000
REMARK  13 active torsions:
REMARK  status: ('A' for Active; 'I' for Inactive)
REMARK    1  A    between atoms: N1_1  and  C1_5 
REMARK    2  A    between atoms: C1_5  and  C2_6 
REMARK       I    between atoms: C2_6  and  N2_8 
REMARK    3  A    between atoms: N2_8  and  C3_10 
REMARK    4  A    between atoms: C5_12  and  C6_13 
REMARK    5  A    between atoms: C6_13  and  O2_14 
REMARK    6  A    between atoms: C6_13  and  C7_16 
REMARK    7  A    between atoms: C7_16  and  N3_17 
REMARK    8  A    between atoms: N3_17  and  N4_18 
REMARK    9  A    between atoms: C12_26  and  S1_27 
REMARK   10  A    between atoms: S1_27  and  N6_28 
REMARK   11  A    between atoms: C15_37  and  C16_38 
REMARK   12  A    between atoms: C15_37  and  N9_43 
REMARK   13  A    between atoms: C16_38  and  N8_39 
REMARK       I    between atoms: N9_43  and  C17_45 
ROOT
HETATM    1  C3  UNL     1       5.902 -31.199  -6.886  1.00  0.00     0.103 C 
HETATM    2  C4  UNL     1       5.135 -29.920  -7.253  1.00  0.00     0.033 C 
HETATM    3  C5  UNL     1       3.874 -29.975  -6.481  1.00  0.00     0.019 C 
HETATM    4  C8  UNL     1       3.884 -31.235  -5.666  1.00  0.00     0.030 C 
HETATM    5  C9  UNL     1       5.328 -31.668  -5.641  1.00  0.00     0.072 A 
HETATM    6  C10 UNL     1       5.953 -31.148  -4.387  1.00  0.00     0.058 A 
HETATM    7  C11 UNL     1       6.324 -30.071  -3.631  1.00  0.00     0.093 A 
HETATM    8  N5  UNL     1       6.120 -28.701  -4.007  1.00  0.00    -0.099 NA
HETATM    9  C12 UNL     1       6.939 -30.283  -2.415  1.00  0.00     0.110 A 
HETATM   10  C13 UNL     1       7.171 -31.567  -1.982  1.00  0.00     0.102 A 
HETATM   11  C14 UNL     1       6.772 -32.616  -2.795  1.00  0.00     0.251 A 
HETATM   12  O5  UNL     1       6.994 -33.784  -2.373  1.00  0.00    -0.268 OA
HETATM   13  N7  UNL     1       6.160 -32.409  -4.003  1.00  0.00    -0.285 N 
HETATM   14  C15 UNL     1       5.585 -33.082  -5.136  1.00  0.00     0.156 A 
ENDROOT
BRANCH   1  15
HETATM   15  N2  UNL     1       7.320 -30.850  -6.835  1.00  0.00    -0.354 N 
HETATM   16  C2  UNL     1       8.319 -31.508  -7.558  1.00  0.00     0.243 C 
HETATM   17  O1  UNL     1       8.018 -32.460  -8.307  1.00  0.00    -0.272 OA
ATOM     18  H2  UNL     1       7.599 -30.075  -6.233  1.00  0.00     0.162 HD
BRANCH  16  19
HETATM   19  C1  UNL     1       9.729 -31.094  -7.450  1.00  0.00     0.332 C 
BRANCH  19  20
HETATM   20  N1  UNL     1      10.001 -29.979  -8.365  1.00  0.00    -0.071 N 
ATOM     21  H13 UNL     1       9.839 -30.237  -9.339  1.00  0.00     0.274 HD
ATOM     22  H12 UNL     1       9.300 -29.242  -8.287  1.00  0.00     0.274 HD
ATOM     23  H11 UNL     1      10.946 -29.623  -8.217  1.00  0.00     0.274 HD
ENDBRANCH  19  20
ENDBRANCH  16  19
ENDBRANCH   1  15
BRANCH  14  24
HETATM   24  C16 UNL     1       4.205 -33.695  -4.909  1.00  0.00     0.285 C 
BRANCH  24  25
HETATM   25  N8  UNL     1       4.186 -34.960  -4.269  1.00  0.00    -0.075 N 
ATOM     26  H83 UNL     1       4.393 -35.694  -4.946  1.00  0.00     0.274 HD
ATOM     27  H82 UNL     1       4.993 -35.048  -3.651  1.00  0.00     0.274 HD
ATOM     28  H81 UNL     1       3.334 -35.189  -3.758  1.00  0.00     0.274 HD
ENDBRANCH  24  25
ENDBRANCH  14  24
BRANCH  14  29
HETATM   29  N9  UNL     1       6.468 -33.851  -5.934  1.00  0.00    -0.316 N 
HETATM   30  C17 UNL     1       7.052 -35.084  -5.753  1.00  0.00     0.330 C 
HETATM   31  N10 UNL     1       7.926 -35.597  -6.792  1.00  0.00    -0.040 NA
HETATM   32  O6  UNL     1       6.935 -35.846  -4.794  1.00  0.00    -0.251 OA
ATOM     33  H9  UNL     1       6.719 -33.403  -6.815  1.00  0.00     0.166 HD
ENDBRANCH  14  29
BRANCH   3  34
HETATM   34  C6  UNL     1       2.687 -30.066  -7.444  1.00  0.00     0.138 C 
BRANCH  34  35
HETATM   35  O2  UNL     1       2.556 -31.330  -7.984  1.00  0.00    -0.394 OA
ATOM     36  H2  UNL     1       1.861 -31.370  -8.631  1.00  0.00     0.210 HD
ENDBRANCH  34  35
BRANCH  34  37
HETATM   37  C7  UNL     1       2.941 -29.095  -8.571  1.00  0.00     0.166 C 
BRANCH  37  38
HETATM   38  N3  UNL     1       1.772 -28.248  -8.753  1.00  0.00    -0.146 NA
BRANCH  38  39
HETATM   39  N4  UNL     1       0.592 -28.980  -8.719  1.00  0.00    -0.348 N 
ATOM     40  H42 UNL     1       0.568 -29.999  -8.699  1.00  0.00     0.172 HD
ATOM     41  H41 UNL     1      -0.229 -28.376  -8.720  1.00  0.00     0.172 HD
ENDBRANCH  38  39
ENDBRANCH  37  38
ENDBRANCH  34  37
ENDBRANCH   3  34
BRANCH   9  42
HETATM   42  S1  UNL     1       7.441 -28.954  -1.395  1.00  0.00     0.258 S 
HETATM   43  O3  UNL     1       8.258 -29.519  -0.239  1.00  0.00    -0.201 OA
HETATM   44  O4  UNL     1       6.255 -28.217  -0.844  1.00  0.00    -0.201 OA
BRANCH  42  45
HETATM   45  N6  UNL     1       8.420 -27.841  -2.239  1.00  0.00    -0.324 N 
ATOM     46  H62 UNL     1       8.160 -27.438  -3.139  1.00  0.00     0.169 HD
ATOM     47  H61 UNL     1       9.282 -27.636  -1.734  1.00  0.00     0.169 HD
ENDBRANCH  42  45
ENDBRANCH   9  42
TORSDOF 13
ENDMDL
MODEL 2
REMARK VINA RESULT: -5.589539805      2.947      6.493
REMARK  13 active torsions:
REMARK  status: ('A' for Active; 'I' for Inactive)
REMARK    1  A    between atoms: N1_1  and  C1_5 
REMARK    2  A    between atoms: C1_5  and  C2_6 
REMARK       I    between atoms: C2_6  and  N2_8 
REMARK    3  A    between atoms: N2_8  and  C3_10 
REMARK    4  A    between atoms: C5_12  and  C6_13 
REMARK    5  A    between atoms: C6_13  and  O2_14 
REMARK    6  A    between atoms: C6_13  and  C7_16 
REMARK    7  A    between atoms: C7_16  and  N3_17 
REMARK    8  A    between atoms: N3_17  and  N4_18 
REMARK    9  A    between atoms: C12_26  and  S1_27 
REMARK   10  A    between atoms: S1_27  and  N6_28 
REMARK   11  A    between atoms: C15_37  and  C16_38 
REMARK   12  A    between atoms: C15_37  and  N9_43 
REMARK   13  A    between atoms: C16_38  and  N8_39 
REMARK       I    between atoms: N9_43  and  C17_45 
ROOT
HETATM    1  C3  UNL     1       7.660 -32.148  -5.766  1.00  0.00     0.103 C 
HETATM    2  C4  UNL     1       7.861 -33.564  -6.327  1.00  0.00     0.033 C 
HETATM    3  C5  UNL     1       6.586 -34.275  -6.083  1.00  0.00     0.019 C 
HETATM    4  C8  UNL     1       5.646 -33.320  -5.408  1.00  0.00     0.030 C 
HETATM    5  C9  UNL     1       6.228 -31.954  -5.667  1.00  0.00     0.072 A 
HETATM    6  C10 UNL     1       5.556 -31.377  -6.870  1.00  0.00     0.058 A 
HETATM    7  C11 UNL     1       5.297 -31.456  -8.211  1.00  0.00     0.093 A 
HETATM    8  N5  UNL     1       5.792 -32.488  -9.078  1.00  0.00    -0.099 NA
HETATM    9  C12 UNL     1       4.509 -30.492  -8.803  1.00  0.00     0.110 A 
HETATM   10  C13 UNL     1       3.996 -29.468  -8.041  1.00  0.00     0.102 A 
HETATM   11  C14 UNL     1       4.294 -29.443  -6.688  1.00  0.00     0.251 A 
HETATM   12  O5  UNL     1       3.810 -28.495  -6.012  1.00  0.00    -0.268 OA
HETATM   13  N7  UNL     1       5.077 -30.400  -6.097  1.00  0.00    -0.285 N 
HETATM   14  C15 UNL     1       5.640 -30.817  -4.842  1.00  0.00     0.156 A 
ENDROOT
BRANCH   1  15
HETATM   15  N2  UNL     1       8.363 -31.229  -6.657  1.00  0.00    -0.354 N 
HETATM   16  C2  UNL     1       9.754 -31.162  -6.782  1.00  0.00     0.243 C 
HETATM   17  O1  UNL     1      10.475 -31.924  -6.106  1.00  0.00    -0.272 OA
ATOM     18  H2  UNL     1       7.803 -30.593  -7.225  1.00  0.00     0.162 HD
BRANCH  16  19
HETATM   19  C1  UNL     1      10.386 -30.203  -7.705  1.00  0.00     0.332 C 
BRANCH  19  20
HETATM   20  N1  UNL     1       9.402 -29.709  -8.675  1.00  0.00    -0.071 N 
ATOM     21  H13 UNL     1       8.453 -29.997  -8.435  1.00  0.00     0.274 HD
ATOM     22  H12 UNL     1       9.274 -28.699  -8.608  1.00  0.00     0.274 HD
ATOM     23  H11 UNL     1       9.660 -29.998  -9.619  1.00  0.00     0.274 HD
ENDBRANCH  19  20
ENDBRANCH  16  19
ENDBRANCH   1  15
BRANCH  14  24
HETATM   24  C16 UNL     1       4.665 -31.477  -3.869  1.00  0.00     0.285 C 
BRANCH  24  25
HETATM   25  N8  UNL     1       3.437 -30.799  -3.667  1.00  0.00    -0.075 N 
ATOM     26  H83 UNL     1       3.172 -30.301  -4.517  1.00  0.00     0.274 HD
ATOM     27  H82 UNL     1       2.674 -31.474  -3.605  1.00  0.00     0.274 HD
ATOM     28  H81 UNL     1       3.404 -30.165  -2.869  1.00  0.00     0.274 HD
ENDBRANCH  24  25
ENDBRANCH  14  24
BRANCH  14  29
HETATM   29  N9  UNL     1       6.593 -29.950  -4.253  1.00  0.00    -0.316 N 
HETATM   30  C17 UNL     1       6.480 -28.914  -3.354  1.00  0.00     0.330 C 
HETATM   31  N10 UNL     1       7.685 -28.215  -2.944  1.00  0.00    -0.040 NA
HETATM   32  O6  UNL     1       5.458 -28.475  -2.827  1.00  0.00    -0.251 OA
ATOM     33  H9  UNL     1       7.551 -30.129  -4.554  1.00  0.00     0.166 HD
ENDBRANCH  14  29
BRANCH   3  34
HETATM   34  C6  UNL     1       6.826 -35.436  -5.115  1.00  0.00     0.138 C 
BRANCH  34  35
HETATM   35  O2  UNL     1       6.967 -36.640  -5.777  1.00  0.00    -0.394 OA
ATOM     36  H2  UNL     1       7.695 -36.628  -6.387  1.00  0.00     0.210 HD
ENDBRANCH  34  35
BRANCH  34  37
HETATM   37  C7  UNL     1       5.620 -35.532  -4.213  1.00  0.00     0.166 C 
BRANCH  37  38
HETATM   38  N3  UNL     1       5.964 -36.300  -3.025  1.00  0.00    -0.146 NA
BRANCH  38  39
HETATM   39  N4  UNL     1       5.530 -37.616  -3.116  1.00  0.00    -0.348 N 
ATOM     40  H42 UNL     1       4.573 -37.904  -2.910  1.00  0.00     0.172 HD
ATOM     41  H41 UNL     1       6.278 -38.244  -3.409  1.00  0.00     0.172 HD
ENDBRANCH  38  39
ENDBRANCH  37  38
ENDBRANCH  34  37
ENDBRANCH   3  34
BRANCH   9  42
HETATM   42  S1  UNL     1       4.137 -30.529 -10.511  1.00  0.00     0.258 S 
HETATM   43  O3  UNL     1       3.299 -29.301 -10.846  1.00  0.00    -0.201 OA
HETATM   44  O4  UNL     1       3.363 -31.765 -10.870  1.00  0.00    -0.201 OA
BRANCH  42  45
HETATM   45  N6  UNL     1       5.548 -30.482 -11.468  1.00  0.00    -0.324 N 
ATOM     46  H62 UNL     1       6.489 -30.551 -11.081  1.00  0.00     0.169 HD
ATOM     47  H61 UNL     1       5.330 -30.380 -12.459  1.00  0.00     0.169 HD
ENDBRANCH  42  45
ENDBRANCH   9  42
TORSDOF 13
ENDMDL
MODEL 3
REMARK VINA RESULT: -5.535913848      2.348      5.086
REMARK  13 active torsions:
REMARK  status: ('A' for Active; 'I' for Inactive)
REMARK    1  A    between atoms: N1_1  and  C1_5 
REMARK    2  A    between atoms: C1_5  and  C2_6 
REMARK       I    between atoms: C2_6  and  N2_8 
REMARK    3  A    between atoms: N2_8  and  C3_10 
REMARK    4  A    between atoms: C5_12  and  C6_13 
REMARK    5  A    between atoms: C6_13  and  O2_14 
REMARK    6  A    between atoms: C6_13  and  C7_16 
REMARK    7  A    between atoms: C7_16  and  N3_17 
REMARK    8  A    between atoms: N3_17  and  N4_18 
REMARK    9  A    between atoms: C12_26  and  S1_27 
REMARK   10  A    between atoms: S1_27  and  N6_28 
REMARK   11  A    between atoms: C15_37  and  C16_38 
REMARK   12  A    between atoms: C15_37  and  N9_43 
REMARK   13  A    between atoms: C16_38  and  N8_39 
REMARK       I    between atoms: N9_43  and  C17_45 
ROOT
HETATM    1  C3  UNL     1       5.791 -29.793  -6.593  1.00  0.00     0.103 C 
HETATM    2  C4  UNL     1       4.297 -29.564  -6.324  1.00  0.00     0.033 C 
HETATM    3  C5  UNL     1       3.580 -30.363  -7.343  1.00  0.00     0.019 C 
HETATM    4  C8  UNL     1       4.605 -31.058  -8.190  1.00  0.00     0.030 C 
HETATM    5  C9  UNL     1       5.876 -31.005  -7.383  1.00  0.00     0.072 A 
HETATM    6  C10 UNL     1       6.002 -32.284  -6.620  1.00  0.00     0.058 A 
HETATM    7  C11 UNL     1       5.501 -33.125  -5.665  1.00  0.00     0.093 A 
HETATM    8  N5  UNL     1       4.305 -32.881  -4.909  1.00  0.00    -0.099 NA
HETATM    9  C12 UNL     1       6.168 -34.299  -5.386  1.00  0.00     0.110 A 
HETATM   10  C13 UNL     1       7.322 -34.607  -6.066  1.00  0.00     0.102 A 
HETATM   11  C14 UNL     1       7.779 -33.713  -7.022  1.00  0.00     0.251 A 
HETATM   12  O5  UNL     1       8.839 -34.020  -7.633  1.00  0.00    -0.268 OA
HETATM   13  N7  UNL     1       7.119 -32.546  -7.303  1.00  0.00    -0.285 N 
HETATM   14  C15 UNL     1       7.151 -31.372  -8.132  1.00  0.00     0.156 A 
ENDROOT
BRANCH   1  15
HETATM   15  N2  UNL     1       6.460 -29.837  -5.295  1.00  0.00    -0.354 N 
HETATM   16  C2  UNL     1       6.144 -29.003  -4.219  1.00  0.00     0.243 C 
HETATM   17  O1  UNL     1       5.236 -28.156  -4.335  1.00  0.00    -0.272 OA
ATOM     18  H2  UNL     1       7.207 -30.520  -5.166  1.00  0.00     0.162 HD
BRANCH  16  19
HETATM   19  C1  UNL     1       6.869 -29.111  -2.940  1.00  0.00     0.332 C 
BRANCH  19  20
HETATM   20  N1  UNL     1       6.096 -28.478  -1.864  1.00  0.00    -0.071 N 
ATOM     21  H13 UNL     1       5.419 -27.806  -2.227  1.00  0.00     0.274 HD
ATOM     22  H12 UNL     1       5.443 -29.129  -1.430  1.00  0.00     0.274 HD
ATOM     23  H11 UNL     1       6.724 -28.055  -1.181  1.00  0.00     0.274 HD
ENDBRANCH  19  20
ENDBRANCH  16  19
ENDBRANCH   1  15
BRANCH  14  24
HETATM   24  C16 UNL     1       6.728 -31.580  -9.585  1.00  0.00     0.285 C 
BRANCH  24  25
HETATM   25  N8  UNL     1       7.507 -30.907 -10.559  1.00  0.00    -0.075 N 
ATOM     26  H83 UNL     1       8.492 -30.936 -10.295  1.00  0.00     0.274 HD
ATOM     27  H82 UNL     1       7.533 -31.453 -11.420  1.00  0.00     0.274 HD
ATOM     28  H81 UNL     1       7.231 -29.948 -10.766  1.00  0.00     0.274 HD
ENDBRANCH  24  25
ENDBRANCH  14  24
BRANCH  14  29
HETATM   29  N9  UNL     1       8.237 -30.484  -7.936  1.00  0.00    -0.316 N 
HETATM   30  C17 UNL     1       9.560 -30.534  -8.310  1.00  0.00     0.330 C 
HETATM   31  N10 UNL     1      10.428 -29.430  -7.943  1.00  0.00    -0.040 NA
HETATM   32  O6  UNL     1      10.138 -31.421  -8.938  1.00  0.00    -0.251 OA
ATOM     33  H9  UNL     1       7.989 -29.643  -7.416  1.00  0.00     0.166 HD
ENDBRANCH  14  29
BRANCH   3  34
HETATM   34  C6  UNL     1       2.789 -29.428  -8.262  1.00  0.00     0.138 C 
BRANCH  34  35
HETATM   35  O2  UNL     1       1.453 -29.769  -8.322  1.00  0.00    -0.394 OA
ATOM     36  H2  UNL     1       0.890 -29.005  -8.330  1.00  0.00     0.210 HD
ENDBRANCH  34  35
BRANCH  34  37
HETATM   37  C7  UNL     1       3.372 -29.554  -9.649  1.00  0.00     0.166 C 
BRANCH  37  38
HETATM   38  N3  UNL     1       2.305 -29.450 -10.633  1.00  0.00    -0.146 NA
BRANCH  38  39
HETATM   39  N4  UNL     1       2.170 -30.616 -11.375  1.00  0.00    -0.348 N 
ATOM     40  H42 UNL     1       1.716 -31.456 -11.018  1.00  0.00     0.172 HD
ATOM     41  H41 UNL     1       2.577 -30.523 -12.306  1.00  0.00     0.172 HD
ENDBRANCH  38  39
ENDBRANCH  37  38
ENDBRANCH  34  37
ENDBRANCH   3  34
BRANCH   9  42
HETATM   42  S1  UNL     1       5.586 -35.422  -4.179  1.00  0.00     0.258 S 
HETATM   43  O3  UNL     1       5.847 -34.824  -2.801  1.00  0.00    -0.201 OA
HETATM   44  O4  UNL     1       6.292 -36.743  -4.283  1.00  0.00    -0.201 OA
BRANCH  42  45
HETATM   45  N6  UNL     1       3.908 -35.697  -4.326  1.00  0.00    -0.324 N 
ATOM     46  H62 UNL     1       3.338 -35.294  -5.069  1.00  0.00     0.169 HD
ATOM     47  H61 UNL     1       3.559 -36.307  -3.586  1.00  0.00     0.169 HD
ENDBRANCH  42  45
ENDBRANCH   9  42
TORSDOF 13
ENDMDL
MODEL 4
REMARK VINA RESULT: -5.473158686      2.505      6.109
REMARK  13 active torsions:
REMARK  status: ('A' for Active; 'I' for Inactive)
REMARK    1  A    between atoms: N1_1  and  C1_5 
REMARK    2  A    between atoms: C1_5  and  C2_6 
REMARK       I    between atoms: C2_6  and  N2_8 
REMARK    3  A    between atoms: N2_8  and  C3_10 
REMARK    4  A    between atoms: C5_12  and  C6_13 
REMARK    5  A    between atoms: C6_13  and  O2_14 
REMARK    6  A    between atoms: C6_13  and  C7_16 
REMARK    7  A    between atoms: C7_16  and  N3_17 
REMARK    8  A    between atoms: N3_17  and  N4_18 
REMARK    9  A    between atoms: C12_26  and  S1_27 
REMARK   10  A    between atoms: S1_27  and  N6_28 
REMARK   11  A    between atoms: C15_37  and  C16_38 
REMARK   12  A    between atoms: C15_37  and  N9_43 
REMARK   13  A    between atoms: C16_38  and  N8_39 
REMARK       I    between atoms: N9_43  and  C17_45 
ROOT
HETATM    1  C3  UNL     1       7.471 -30.863  -5.160  1.00  0.00     0.103 C 
HETATM    2  C4  UNL     1       8.659 -30.922  -4.188  1.00  0.00     0.033 C 
HETATM    3  C5  UNL     1       8.076 -30.774  -2.835  1.00  0.00     0.019 C 
HETATM    4  C8  UNL     1       6.589 -30.642  -2.985  1.00  0.00     0.030 C 
HETATM    5  C9  UNL     1       6.291 -31.153  -4.371  1.00  0.00     0.072 A 
HETATM    6  C10 UNL     1       5.903 -32.592  -4.267  1.00  0.00     0.058 A 
HETATM    7  C11 UNL     1       6.251 -33.872  -3.934  1.00  0.00     0.093 A 
HETATM    8  N5  UNL     1       7.534 -34.260  -3.418  1.00  0.00    -0.099 NA
HETATM    9  C12 UNL     1       5.328 -34.884  -4.091  1.00  0.00     0.110 A 
HETATM   10  C13 UNL     1       4.075 -34.595  -4.580  1.00  0.00     0.102 A 
HETATM   11  C14 UNL     1       3.783 -33.278  -4.900  1.00  0.00     0.251 A 
HETATM   12  O5  UNL     1       2.628 -33.040  -5.344  1.00  0.00    -0.268 OA
HETATM   13  N7  UNL     1       4.699 -32.271  -4.744  1.00  0.00    -0.285 N 
HETATM   14  C15 UNL     1       4.894 -30.855  -4.900  1.00  0.00     0.156 A 
ENDROOT
BRANCH   1  15
HETATM   15  N2  UNL     1       7.755 -31.803  -6.242  1.00  0.00    -0.354 N 
HETATM   16  C2  UNL     1       8.349 -31.449  -7.456  1.00  0.00     0.243 C 
HETATM   17  O1  UNL     1       8.675 -30.263  -7.666  1.00  0.00    -0.272 OA
ATOM     18  H2  UNL     1       7.502 -32.782  -6.102  1.00  0.00     0.162 HD
BRANCH  16  19
HETATM   19  C1  UNL     1       8.600 -32.460  -8.499  1.00  0.00     0.332 C 
BRANCH  19  20
HETATM   20  N1  UNL     1       7.516 -33.449  -8.518  1.00  0.00    -0.071 N 
ATOM     21  H13 UNL     1       7.844 -34.368  -8.818  1.00  0.00     0.274 HD
ATOM     22  H12 UNL     1       7.211 -33.699  -7.577  1.00  0.00     0.274 HD
ATOM     23  H11 UNL     1       6.743 -33.114  -9.093  1.00  0.00     0.274 HD
ENDBRANCH  19  20
ENDBRANCH  16  19
ENDBRANCH   1  15
BRANCH  14  24
HETATM   24  C16 UNL     1       4.232 -29.977  -3.840  1.00  0.00     0.285 C 
BRANCH  24  25
HETATM   25  N8  UNL     1       2.818 -29.899  -3.896  1.00  0.00    -0.075 N 
ATOM     26  H83 UNL     1       2.477 -30.374  -4.732  1.00  0.00     0.274 HD
ATOM     27  H82 UNL     1       2.409 -30.488  -3.171  1.00  0.00     0.274 HD
ATOM     28  H81 UNL     1       2.421 -28.961  -3.844  1.00  0.00     0.274 HD
ENDBRANCH  24  25
ENDBRANCH  14  24
BRANCH  14  29
HETATM   29  N9  UNL     1       4.850 -30.349  -6.222  1.00  0.00    -0.316 N 
HETATM   30  C17 UNL     1       3.811 -30.072  -7.080  1.00  0.00     0.330 C 
HETATM   31  N10 UNL     1       4.119 -29.546  -8.398  1.00  0.00    -0.040 NA
HETATM   32  O6  UNL     1       2.605 -30.213  -6.881  1.00  0.00    -0.251 OA
ATOM     33  H9  UNL     1       5.770 -30.150  -6.615  1.00  0.00     0.166 HD
ENDBRANCH  14  29
BRANCH   3  34
HETATM   34  C6  UNL     1       8.586 -29.478  -2.198  1.00  0.00     0.138 C 
BRANCH  34  35
HETATM   35  O2  UNL     1       8.067 -28.359  -2.818  1.00  0.00    -0.394 OA
ATOM     36  H2  UNL     1       8.318 -27.558  -2.373  1.00  0.00     0.210 HD
ENDBRANCH  34  35
BRANCH  34  37
HETATM   37  C7  UNL     1      10.087 -29.454  -2.358  1.00  0.00     0.166 C 
BRANCH  37  38
HETATM   38  N3  UNL     1      10.514 -28.107  -2.706  1.00  0.00    -0.146 NA
BRANCH  38  39
HETATM   39  N4  UNL     1      10.511 -27.262  -1.604  1.00  0.00    -0.348 N 
ATOM     40  H42 UNL     1      11.353 -27.023  -1.081  1.00  0.00     0.172 HD
ATOM     41  H41 UNL     1       9.575 -26.918  -1.391  1.00  0.00     0.172 HD
ENDBRANCH  38  39
ENDBRANCH  37  38
ENDBRANCH  34  37
ENDBRANCH   3  34
BRANCH   9  42
HETATM   42  S1  UNL     1       5.703 -36.543  -3.685  1.00  0.00     0.258 S 
HETATM   43  O3  UNL     1       6.388 -37.187  -4.885  1.00  0.00    -0.201 OA
HETATM   44  O4  UNL     1       4.458 -37.315  -3.357  1.00  0.00    -0.201 OA
BRANCH  42  45
HETATM   45  N6  UNL     1       6.765 -36.645  -2.354  1.00  0.00    -0.324 N 
ATOM     46  H62 UNL     1       7.285 -35.846  -1.991  1.00  0.00     0.169 HD
ATOM     47  H61 UNL     1       6.808 -37.591  -1.976  1.00  0.00     0.169 HD
ENDBRANCH  42  45
ENDBRANCH   9  42
TORSDOF 13
ENDMDL
MODEL 5
REMARK VINA RESULT: -5.417124424      2.935      6.831
REMARK  13 active torsions:
REMARK  status: ('A' for Active; 'I' for Inactive)
REMARK    1  A    between atoms: N1_1  and  C1_5 
REMARK    2  A    between atoms: C1_5  and  C2_6 
REMARK       I    between atoms: C2_6  and  N2_8 
REMARK    3  A    between atoms: N2_8  and  C3_10 
REMARK    4  A    between atoms: C5_12  and  C6_13 
REMARK    5  A    between atoms: C6_13  and  O2_14 
REMARK    6  A    between atoms: C6_13  and  C7_16 
REMARK    7  A    between atoms: C7_16  and  N3_17 
REMARK    8  A    between atoms: N3_17  and  N4_18 
REMARK    9  A    between atoms: C12_26  and  S1_27 
REMARK   10  A    between atoms: S1_27  and  N6_28 
REMARK   11  A    between atoms: C15_37  and  C16_38 
REMARK   12  A    between atoms: C15_37  and  N9_43 
REMARK   13  A    between atoms: C16_38  and  N8_39 
REMARK       I    between atoms: N9_43  and  C17_45 
ROOT
HETATM    1  C3  UNL     1       6.446 -33.073  -3.758  1.00  0.00     0.103 C 
HETATM    2  C4  UNL     1       6.853 -34.552  -3.838  1.00  0.00     0.033 C 
HETATM    3  C5  UNL     1       5.715 -35.246  -4.481  1.00  0.00     0.019 C 
HETATM    4  C8  UNL     1       4.663 -34.221  -4.788  1.00  0.00     0.030 C 
HETATM    5  C9  UNL     1       5.380 -32.897  -4.723  1.00  0.00     0.072 A 
HETATM    6  C10 UNL     1       5.798 -32.520  -6.108  1.00  0.00     0.058 A 
HETATM    7  C11 UNL     1       6.546 -32.804  -7.217  1.00  0.00     0.093 A 
HETATM    8  N5  UNL     1       7.410 -33.944  -7.349  1.00  0.00    -0.099 NA
HETATM    9  C12 UNL     1       6.489 -31.956  -8.303  1.00  0.00     0.110 A 
HETATM   10  C13 UNL     1       5.684 -30.842  -8.257  1.00  0.00     0.102 A 
HETATM   11  C14 UNL     1       4.951 -30.609  -7.104  1.00  0.00     0.251 A 
HETATM   12  O5  UNL     1       4.220 -29.581  -7.088  1.00  0.00    -0.268 OA
HETATM   13  N7  UNL     1       5.005 -31.450  -6.023  1.00  0.00    -0.285 N 
HETATM   14  C15 UNL     1       4.488 -31.663  -4.699  1.00  0.00     0.156 A 
ENDROOT
BRANCH   1  15
HETATM   15  N2  UNL     1       7.651 -32.282  -3.996  1.00  0.00    -0.354 N 
HETATM   16  C2  UNL     1       8.125 -31.291  -3.132  1.00  0.00     0.243 C 
HETATM   17  O1  UNL     1       7.506 -31.038  -2.078  1.00  0.00    -0.272 OA
ATOM     18  H2  UNL     1       8.181 -32.464  -4.848  1.00  0.00     0.162 HD
BRANCH  16  19
HETATM   19  C1  UNL     1       9.350 -30.535  -3.446  1.00  0.00     0.332 C 
BRANCH  19  20
HETATM   20  N1  UNL     1       9.589 -29.509  -2.424  1.00  0.00    -0.071 N 
ATOM     21  H13 UNL     1       9.102 -28.638  -2.638  1.00  0.00     0.274 HD
ATOM     22  H12 UNL     1       9.122 -29.729  -1.545  1.00  0.00     0.274 HD
ATOM     23  H11 UNL     1      10.591 -29.364  -2.297  1.00  0.00     0.274 HD
ENDBRANCH  19  20
ENDBRANCH  16  19
ENDBRANCH   1  15
BRANCH  14  24
HETATM   24  C16 UNL     1       3.057 -32.191  -4.627  1.00  0.00     0.285 C 
BRANCH  24  25
HETATM   25  N8  UNL     1       2.065 -31.246  -4.263  1.00  0.00    -0.075 N 
ATOM     26  H83 UNL     1       2.294 -30.334  -4.659  1.00  0.00     0.274 HD
ATOM     27  H82 UNL     1       1.196 -31.447  -4.758  1.00  0.00     0.274 HD
ATOM     28  H81 UNL     1       1.881 -31.155  -3.265  1.00  0.00     0.274 HD
ENDBRANCH  24  25
ENDBRANCH  14  24
BRANCH  14  29
HETATM   29  N9  UNL     1       4.829 -30.697  -3.720  1.00  0.00    -0.316 N 
HETATM   30  C17 UNL     1       4.425 -29.398  -3.512  1.00  0.00     0.330 C 
HETATM   31  N10 UNL     1       4.981 -28.670  -2.386  1.00  0.00    -0.040 NA
HETATM   32  O6  UNL     1       3.625 -28.737  -4.173  1.00  0.00    -0.251 OA
ATOM     33  H9  UNL     1       5.508 -31.030  -3.035  1.00  0.00     0.166 HD
ENDBRANCH  14  29
BRANCH   3  34
HETATM   34  C6  UNL     1       5.103 -36.245  -3.495  1.00  0.00     0.138 C 
BRANCH  34  35
HETATM   35  O2  UNL     1       5.971 -36.555  -2.468  1.00  0.00    -0.394 OA
ATOM     36  H2  UNL     1       5.636 -37.254  -1.918  1.00  0.00     0.210 HD
ENDBRANCH  34  35
BRANCH  34  37
HETATM   37  C7  UNL     1       4.803 -37.511  -4.260  1.00  0.00     0.166 C 
BRANCH  37  38
HETATM   38  N3  UNL     1       5.572 -38.610  -3.695  1.00  0.00    -0.146 NA
BRANCH  38  39
HETATM   39  N4  UNL     1       4.794 -39.419  -2.877  1.00  0.00    -0.348 N 
ATOM     40  H42 UNL     1       3.824 -39.209  -2.643  1.00  0.00     0.172 HD
ATOM     41  H41 UNL     1       5.312 -40.234  -2.546  1.00  0.00     0.172 HD
ENDBRANCH  38  39
ENDBRANCH  37  38
ENDBRANCH  34  37
ENDBRANCH   3  34
BRANCH   9  42
HETATM   42  S1  UNL     1       7.417 -32.256  -9.754  1.00  0.00     0.258 S 
HETATM   43  O3  UNL     1       8.881 -31.953  -9.458  1.00  0.00    -0.201 OA
HETATM   44  O4  UNL     1       6.953 -31.383 -10.883  1.00  0.00    -0.201 OA
BRANCH  42  45
HETATM   45  N6  UNL     1       7.305 -33.884 -10.252  1.00  0.00    -0.324 N 
ATOM     46  H62 UNL     1       6.726 -34.191 -11.034  1.00  0.00     0.169 HD
ATOM     47  H61 UNL     1       7.883 -34.497  -9.678  1.00  0.00     0.169 HD
ENDBRANCH  42  45
ENDBRANCH   9  42
TORSDOF 13
ENDMDL
