MODEL 1
REMARK VINA RESULT: -7.376034704      0.000      0.000
REMARK  4 active torsions:
REMARK  status: ('A' for Active; 'I' for Inactive)
REMARK    1  A    between atoms: N1_1  and  C1_4 
REMARK    2  A    between atoms: C2_9  and  C3_10 
REMARK    3  A    between atoms: C4_11  and  C5_12 
REMARK    4  A    between atoms: N4_16  and  N5_17 
ROOT
HETATM    1  C1  UNL     1     -14.556   2.791  38.232  1.00  0.00     0.693 A 
HETATM    2  N2  UNL     1     -13.350   2.894  37.650  1.00  0.00    -0.132 N 
ATOM      3  H2  UNL     1     -12.625   2.219  37.895  1.00  0.00     0.205 HD
HETATM    4  N3  UNL     1     -13.074   3.833  36.777  1.00  0.00    -0.281 N 
ATOM      5  H3  UNL     1     -12.145   3.878  36.358  1.00  0.00     0.187 HD
HETATM    6  C2  UNL     1     -14.020   4.752  36.427  1.00  0.00     0.117 A 
HETATM    7  C10 UNL     1     -15.245   4.678  36.993  1.00  0.00     0.287 A 
HETATM    8  O2  UNL     1     -16.193   5.431  36.777  1.00  0.00    -0.265 OA
HETATM    9  N6  UNL     1     -15.498   3.681  37.903  1.00  0.00    -0.153 N 
ATOM     10  H6  UNL     1     -16.420   3.618  38.336  1.00  0.00     0.187 HD
ENDROOT
BRANCH   6  11
HETATM   11  C3  UNL     1     -13.619   5.754  35.451  1.00  0.00     0.038 C 
HETATM   12  C4  UNL     1     -13.455   7.029  35.653  1.00  0.00     0.019 C 
BRANCH  12  13
HETATM   13  C5  UNL     1     -13.056   8.025  34.682  1.00  0.00     0.034 A 
HETATM   14  C6  UNL     1     -11.692   8.382  34.672  1.00  0.00     0.018 A 
HETATM   15  C7  UNL     1     -11.283   9.322  33.763  1.00  0.00     0.020 A 
HETATM   16  C8  UNL     1     -12.182   9.892  32.892  1.00  0.00     0.119 A 
HETATM   17  N4  UNL     1     -13.481   9.575  32.877  1.00  0.00    -0.238 N 
HETATM   18  C9  UNL     1     -13.895   8.630  33.790  1.00  0.00     0.275 A 
HETATM   19  O1  UNL     1     -15.136   8.381  33.715  1.00  0.00    -0.265 OA
BRANCH  17  20
HETATM   20  N5  UNL     1     -14.381  10.166  31.983  1.00  0.00    -0.336 N 
ATOM     21  H52 UNL     1     -14.112  10.966  31.409  1.00  0.00     0.177 HD
ATOM     22  H51 UNL     1     -15.335   9.825  31.869  1.00  0.00     0.177 HD
ENDBRANCH  17  20
ENDBRANCH  12  13
ENDBRANCH   6  11
BRANCH   1  23
HETATM   23  N1  UNL     1     -14.829   1.855  39.101  1.00  0.00    -0.233 N 
ATOM     24  H12 UNL     1     -14.653   0.879  38.860  1.00  0.00     0.174 HD
ATOM     25  H11 UNL     1     -15.216   2.066  40.021  1.00  0.00     0.174 HD
ENDBRANCH   1  23
TORSDOF 4
ENDMDL
MODEL 2
REMARK VINA RESULT: -7.376027346      2.040      2.926
REMARK  4 active torsions:
REMARK  status: ('A' for Active; 'I' for Inactive)
REMARK    1  A    between atoms: N1_1  and  C1_4 
REMARK    2  A    between atoms: C2_9  and  C3_10 
REMARK    3  A    between atoms: C4_11  and  C5_12 
REMARK    4  A    between atoms: N4_16  and  N5_17 
ROOT
HETATM    1  C1  UNL     1     -17.774   1.876  38.704  1.00  0.00     0.693 A 
HETATM    2  N2  UNL     1     -18.088   2.821  37.803  1.00  0.00    -0.132 N 
ATOM      3  H2  UNL     1     -19.058   2.915  37.504  1.00  0.00     0.205 HD
HETATM    4  N3  UNL     1     -17.187   3.628  37.295  1.00  0.00    -0.281 N 
ATOM      5  H3  UNL     1     -17.465   4.333  36.613  1.00  0.00     0.187 HD
HETATM    6  C2  UNL     1     -15.879   3.530  37.672  1.00  0.00     0.117 A 
HETATM    7  C10 UNL     1     -15.528   2.590  38.578  1.00  0.00     0.287 A 
HETATM    8  O2  UNL     1     -14.396   2.385  39.011  1.00  0.00    -0.265 OA
HETATM    9  N6  UNL     1     -16.499   1.763  39.088  1.00  0.00    -0.153 N 
ATOM     10  H6  UNL     1     -16.242   1.050  39.772  1.00  0.00     0.187 HD
ENDROOT
BRANCH   6  11
HETATM   11  C3  UNL     1     -14.955   4.469  37.054  1.00  0.00     0.038 C 
HETATM   12  C4  UNL     1     -15.254   5.502  36.323  1.00  0.00     0.019 C 
BRANCH  12  13
HETATM   13  C5  UNL     1     -14.334   6.436  35.709  1.00  0.00     0.034 A 
HETATM   14  C6  UNL     1     -12.987   6.352  36.120  1.00  0.00     0.018 A 
HETATM   15  C7  UNL     1     -12.091   7.222  35.556  1.00  0.00     0.020 A 
HETATM   16  C8  UNL     1     -12.502   8.142  34.621  1.00  0.00     0.119 A 
HETATM   17  N4  UNL     1     -13.770   8.246  34.211  1.00  0.00    -0.238 N 
HETATM   18  C9  UNL     1     -14.673   7.373  34.775  1.00  0.00     0.275 A 
HETATM   19  O1  UNL     1     -15.853   7.531  34.338  1.00  0.00    -0.265 OA
BRANCH  17  20
HETATM   20  N5  UNL     1     -14.169   9.190  33.257  1.00  0.00    -0.336 N 
ATOM     21  H52 UNL     1     -13.697  10.091  33.170  1.00  0.00     0.177 HD
ATOM     22  H51 UNL     1     -14.942   9.018  32.614  1.00  0.00     0.177 HD
ENDBRANCH  17  20
ENDBRANCH  12  13
ENDBRANCH   6  11
BRANCH   1  23
HETATM   23  N1  UNL     1     -18.673   1.075  39.209  1.00  0.00    -0.233 N 
ATOM     24  H12 UNL     1     -19.424   0.724  38.615  1.00  0.00     0.174 HD
ATOM     25  H11 UNL     1     -18.651   0.783  40.186  1.00  0.00     0.174 HD
ENDBRANCH   1  23
TORSDOF 4
ENDMDL
MODEL 3
REMARK VINA RESULT: -7.164817609      2.561      3.662
REMARK  4 active torsions:
REMARK  status: ('A' for Active; 'I' for Inactive)
REMARK    1  A    between atoms: N1_1  and  C1_4 
REMARK    2  A    between atoms: C2_9  and  C3_10 
REMARK    3  A    between atoms: C4_11  and  C5_12 
REMARK    4  A    between atoms: N4_16  and  N5_17 
ROOT
HETATM    1  C1  UNL     1     -18.451   1.653  39.455  1.00  0.00     0.693 A 
HETATM    2  N2  UNL     1     -18.017   2.812  39.975  1.00  0.00    -0.132 N 
ATOM      3  H2  UNL     1     -18.427   3.146  40.847  1.00  0.00     0.205 HD
HETATM    4  N3  UNL     1     -17.082   3.529  39.398  1.00  0.00    -0.281 N 
ATOM      5  H3  UNL     1     -16.780   4.405  39.825  1.00  0.00     0.187 HD
HETATM    6  C2  UNL     1     -16.512   3.113  38.231  1.00  0.00     0.117 A 
HETATM    7  C10 UNL     1     -16.924   1.950  37.679  1.00  0.00     0.287 A 
HETATM    8  O2  UNL     1     -16.505   1.450  36.637  1.00  0.00    -0.265 OA
HETATM    9  N6  UNL     1     -17.906   1.226  38.311  1.00  0.00    -0.153 N 
ATOM     10  H6  UNL     1     -18.223   0.347  37.902  1.00  0.00     0.187 HD
ENDROOT
BRANCH   6  11
HETATM   11  C3  UNL     1     -15.484   3.976  37.668  1.00  0.00     0.038 C 
HETATM   12  C4  UNL     1     -15.659   5.015  36.905  1.00  0.00     0.019 C 
BRANCH  12  13
HETATM   13  C5  UNL     1     -14.636   5.873  36.346  1.00  0.00     0.034 A 
HETATM   14  C6  UNL     1     -13.391   5.881  37.012  1.00  0.00     0.018 A 
HETATM   15  C7  UNL     1     -12.402   6.683  36.506  1.00  0.00     0.020 A 
HETATM   16  C8  UNL     1     -12.625   7.449  35.386  1.00  0.00     0.119 A 
HETATM   17  N4  UNL     1     -13.792   7.463  34.734  1.00  0.00    -0.238 N 
HETATM   18  C9  UNL     1     -14.788   6.658  35.240  1.00  0.00     0.275 A 
HETATM   19  O1  UNL     1     -15.863   6.723  34.570  1.00  0.00    -0.265 OA
BRANCH  17  20
HETATM   20  N5  UNL     1     -13.999   8.250  33.596  1.00  0.00    -0.336 N 
ATOM     21  H52 UNL     1     -13.946   9.269  33.637  1.00  0.00     0.177 HD
ATOM     22  H51 UNL     1     -14.211   7.842  32.686  1.00  0.00     0.177 HD
ENDBRANCH  17  20
ENDBRANCH  12  13
ENDBRANCH   6  11
BRANCH   1  23
HETATM   23  N1  UNL     1     -19.382   0.940  40.031  1.00  0.00    -0.233 N 
ATOM     24  H12 UNL     1     -19.287  -0.074  40.068  1.00  0.00     0.174 HD
ATOM     25  H11 UNL     1     -20.209   1.366  40.449  1.00  0.00     0.174 HD
ENDBRANCH   1  23
TORSDOF 4
ENDMDL
MODEL 4
REMARK VINA RESULT: -7.149920054      1.469      1.793
REMARK  4 active torsions:
REMARK  status: ('A' for Active; 'I' for Inactive)
REMARK    1  A    between atoms: N1_1  and  C1_4 
REMARK    2  A    between atoms: C2_9  and  C3_10 
REMARK    3  A    between atoms: C4_11  and  C5_12 
REMARK    4  A    between atoms: N4_16  and  N5_17 
ROOT
HETATM    1  C1  UNL     1     -16.375   3.100  38.539  1.00  0.00     0.693 A 
HETATM    2  N2  UNL     1     -16.861   3.871  37.553  1.00  0.00    -0.132 N 
ATOM      3  H2  UNL     1     -17.854   3.815  37.327  1.00  0.00     0.205 HD
HETATM    4  N3  UNL     1     -16.101   4.695  36.872  1.00  0.00    -0.281 N 
ATOM      5  H3  UNL     1     -16.509   5.264  36.130  1.00  0.00     0.187 HD
HETATM    6  C2  UNL     1     -14.769   4.795  37.147  1.00  0.00     0.117 A 
HETATM    7  C10 UNL     1     -14.245   4.034  38.134  1.00  0.00     0.287 A 
HETATM    8  O2  UNL     1     -13.069   4.016  38.493  1.00  0.00    -0.265 OA
HETATM    9  N6  UNL     1     -15.072   3.183  38.826  1.00  0.00    -0.153 N 
ATOM     10  H6  UNL     1     -14.685   2.604  39.572  1.00  0.00     0.187 HD
ENDROOT
BRANCH   6  11
HETATM   11  C3  UNL     1     -14.009   5.736  36.338  1.00  0.00     0.038 C 
HETATM   12  C4  UNL     1     -14.480   6.696  35.597  1.00  0.00     0.019 C 
BRANCH  12  13
HETATM   13  C5  UNL     1     -13.723   7.632  34.792  1.00  0.00     0.034 A 
HETATM   14  C6  UNL     1     -12.364   7.796  35.132  1.00  0.00     0.018 A 
HETATM   15  C7  UNL     1     -11.621   8.675  34.388  1.00  0.00     0.020 A 
HETATM   16  C8  UNL     1     -12.191   9.368  33.347  1.00  0.00     0.119 A 
HETATM   17  N4  UNL     1     -13.475   9.234  33.000  1.00  0.00    -0.238 N 
HETATM   18  C9  UNL     1     -14.225   8.352  33.746  1.00  0.00     0.275 A 
HETATM   19  O1  UNL     1     -15.430   8.278  33.359  1.00  0.00    -0.265 OA
BRANCH  17  20
HETATM   20  N5  UNL     1     -14.038   9.949  31.936  1.00  0.00    -0.336 N 
ATOM     21  H52 UNL     1     -13.766   9.765  30.970  1.00  0.00     0.177 HD
ATOM     22  H51 UNL     1     -14.736  10.678  32.081  1.00  0.00     0.177 HD
ENDBRANCH  17  20
ENDBRANCH  12  13
ENDBRANCH   6  11
BRANCH   1  23
HETATM   23  N1  UNL     1     -17.134   2.281  39.217  1.00  0.00    -0.233 N 
ATOM     24  H12 UNL     1     -16.928   2.103  40.200  1.00  0.00     0.174 HD
ATOM     25  H11 UNL     1     -17.932   1.808  38.794  1.00  0.00     0.174 HD
ENDBRANCH   1  23
TORSDOF 4
ENDMDL
MODEL 5
REMARK VINA RESULT: -7.119873348      1.985      7.025
REMARK  4 active torsions:
REMARK  status: ('A' for Active; 'I' for Inactive)
REMARK    1  A    between atoms: N1_1  and  C1_4 
REMARK    2  A    between atoms: C2_9  and  C3_10 
REMARK    3  A    between atoms: C4_11  and  C5_12 
REMARK    4  A    between atoms: N4_16  and  N5_17 
ROOT
HETATM    1  C1  UNL     1     -13.030   9.694  32.161  1.00  0.00     0.693 A 
HETATM    2  N2  UNL     1     -14.035   9.016  32.737  1.00  0.00    -0.132 N 
ATOM      3  H2  UNL     1     -14.963   9.058  32.316  1.00  0.00     0.205 HD
HETATM    4  N3  UNL     1     -13.862   8.299  33.822  1.00  0.00    -0.281 N 
ATOM      5  H3  UNL     1     -14.652   7.798  34.229  1.00  0.00     0.187 HD
HETATM    6  C2  UNL     1     -12.635   8.220  34.412  1.00  0.00     0.117 A 
HETATM    7  C10 UNL     1     -11.599   8.891  33.859  1.00  0.00     0.287 A 
HETATM    8  O2  UNL     1     -10.442   8.914  34.275  1.00  0.00    -0.265 OA
HETATM    9  N6  UNL     1     -11.817   9.631  32.722  1.00  0.00    -0.153 N 
ATOM     10  H6  UNL     1     -11.042  10.141  32.299  1.00  0.00     0.187 HD
ENDROOT
BRANCH   6  11
HETATM   11  C3  UNL     1     -12.543   7.401  35.611  1.00  0.00     0.038 C 
HETATM   12  C4  UNL     1     -13.454   6.608  36.094  1.00  0.00     0.019 C 
BRANCH  12  13
HETATM   13  C5  UNL     1     -13.362   5.793  37.287  1.00  0.00     0.034 A 
HETATM   14  C6  UNL     1     -12.483   6.249  38.292  1.00  0.00     0.018 A 
HETATM   15  C7  UNL     1     -12.374   5.499  39.433  1.00  0.00     0.020 A 
HETATM   16  C8  UNL     1     -13.102   4.343  39.585  1.00  0.00     0.119 A 
HETATM   17  N4  UNL     1     -13.943   3.885  38.651  1.00  0.00    -0.238 N 
HETATM   18  C9  UNL     1     -14.055   4.637  37.502  1.00  0.00     0.275 A 
HETATM   19  O1  UNL     1     -14.869   4.141  36.666  1.00  0.00    -0.265 OA
BRANCH  17  20
HETATM   20  N5  UNL     1     -14.676   2.705  38.824  1.00  0.00    -0.336 N 
ATOM     21  H52 UNL     1     -14.622   1.943  38.148  1.00  0.00     0.177 HD
ATOM     22  H51 UNL     1     -15.290   2.561  39.625  1.00  0.00     0.177 HD
ENDBRANCH  17  20
ENDBRANCH  12  13
ENDBRANCH   6  11
BRANCH   1  23
HETATM   23  N1  UNL     1     -13.204  10.407  31.081  1.00  0.00    -0.233 N 
ATOM     24  H12 UNL     1     -12.591  10.261  30.279  1.00  0.00     0.174 HD
ATOM     25  H11 UNL     1     -13.937  11.112  31.009  1.00  0.00     0.174 HD
ENDBRANCH   1  23
TORSDOF 4
ENDMDL
