MODEL 1
REMARK VINA RESULT: -7.565088512      0.000      0.000
REMARK  10 active torsions:
REMARK  status: ('A' for Active; 'I' for Inactive)
REMARK    1  A    between atoms: C2_2  and  C3_3 
REMARK    2  A    between atoms: C2_2  and  N3_9 
REMARK    3  A    between atoms: C3_3  and  C4_4 
REMARK    4  A    between atoms: N3_9  and  C5_11 
REMARK    5  A    between atoms: C5_11  and  C10_28 
REMARK       I    between atoms: N4_12  and  C6_14 
REMARK    6  A    between atoms: C6_14  and  C7_16 
REMARK    7  A    between atoms: C7_16  and  N5_17 
REMARK    8  A    between atoms: C7_16  and  C8_21 
REMARK    9  A    between atoms: C8_21  and  N6_22 
REMARK   10  A    between atoms: C8_21  and  C9_26 
REMARK       I    between atoms: C10_28  and  N7_30 
ROOT
HETATM    1  C5  UNL     1     -15.125   7.513  34.518  1.00  0.00     0.173 C 
HETATM    2  N4  UNL     1     -15.043   7.122  35.718  1.00  0.00    -0.307 N 
ATOM      3  H4  UNL     1     -14.173   7.397  36.176  1.00  0.00     0.170 HD
HETATM    4  C6  UNL     1     -15.894   6.394  36.539  1.00  0.00     0.256 C 
HETATM    5  O1  UNL     1     -16.956   6.965  36.951  1.00  0.00    -0.271 OA
ENDROOT
BRANCH   1   6
HETATM    6  N3  UNL     1     -13.980   8.265  34.046  1.00  0.00    -0.367 N 
ATOM      7  H3  UNL     1     -13.586   8.052  33.129  1.00  0.00     0.161 HD
BRANCH   6   8
HETATM    8  C2  UNL     1     -13.384   9.312  34.845  1.00  0.00     0.085 C 
HETATM    9  C1  UNL     1     -13.619  10.627  34.187  1.00  0.00     0.032 C 
BRANCH   8  10
HETATM   10  C3  UNL     1     -11.954   9.011  35.136  1.00  0.00     0.097 C 
BRANCH  10  11
HETATM   11  C4  UNL     1     -11.038   9.329  34.029  1.00  0.00     0.088 C 
HETATM   12  N1  UNL     1      -9.999  10.057  34.256  1.00  0.00    -0.391 N 
ATOM     13  H12 UNL     1      -9.850  10.389  35.209  1.00  0.00     0.157 HD
ATOM     14  H11 UNL     1      -9.365  10.278  33.489  1.00  0.00     0.157 HD
HETATM   15  N2  UNL     1     -11.244   8.870  32.714  1.00  0.00    -0.088 NA
ENDBRANCH  10  11
ENDBRANCH   8  10
ENDBRANCH   6   8
ENDBRANCH   1   6
BRANCH   1  16
HETATM   16  C10 UNL     1     -16.239   7.270  33.660  1.00  0.00     0.287 C 
HETATM   17  O2  UNL     1     -16.265   6.105  33.107  1.00  0.00    -0.264 OA
HETATM   18  N7  UNL     1     -17.290   8.155  33.364  1.00  0.00    -0.345 N 
HETATM   19  C11 UNL     1     -17.490   9.487  33.849  1.00  0.00     0.132 C 
HETATM   20  C15 UNL     1     -18.333   7.662  32.439  1.00  0.00     0.132 C 
HETATM   21  C12 UNL     1     -18.638  10.133  33.058  1.00  0.00     0.099 C 
HETATM   22  C13 UNL     1     -19.898   9.354  33.394  1.00  0.00     0.246 C 
HETATM   23  F2  UNL     1     -20.066   9.426  34.764  1.00  0.00    -0.206 F 
HETATM   24  F3  UNL     1     -20.951   9.942  32.757  1.00  0.00    -0.206 F 
HETATM   25  C14 UNL     1     -19.719   7.894  33.015  1.00  0.00     0.099 C 
ENDBRANCH   1  16
BRANCH   4  26
HETATM   26  C7  UNL     1     -15.596   4.990  36.939  1.00  0.00     0.307 C 
BRANCH  26  27
HETATM   27  N5  UNL     1     -16.704   4.381  37.596  1.00  0.00    -0.064 N 
ATOM     28  H53 UNL     1     -16.434   4.004  38.505  1.00  0.00     0.275 HD
ATOM     29  H52 UNL     1     -17.381   5.078  37.906  1.00  0.00     0.275 HD
ATOM     30  H51 UNL     1     -17.143   3.669  37.014  1.00  0.00     0.275 HD
ENDBRANCH  26  27
BRANCH  26  31
HETATM   31  C8  UNL     1     -14.345   4.829  37.730  1.00  0.00     0.251 C 
BRANCH  31  32
HETATM   32  N6  UNL     1     -13.323   4.076  37.013  1.00  0.00    -0.070 N 
ATOM     33  H63 UNL     1     -12.642   4.701  36.581  1.00  0.00     0.274 HD
ATOM     34  H62 UNL     1     -12.708   3.585  37.660  1.00  0.00     0.274 HD
ATOM     35  H61 UNL     1     -13.720   3.435  36.326  1.00  0.00     0.274 HD
ENDBRANCH  31  32
BRANCH  31  36
HETATM   36  C9  UNL     1     -14.640   4.040  38.982  1.00  0.00     0.257 C 
HETATM   37  F1  UNL     1     -13.536   3.978  39.778  1.00  0.00    -0.253 F 
ENDBRANCH  31  36
ENDBRANCH  26  31
ENDBRANCH   4  26
TORSDOF 10
ENDMDL
MODEL 2
REMARK VINA RESULT: -7.365856410      2.707      5.196
REMARK  10 active torsions:
REMARK  status: ('A' for Active; 'I' for Inactive)
REMARK    1  A    between atoms: C2_2  and  C3_3 
REMARK    2  A    between atoms: C2_2  and  N3_9 
REMARK    3  A    between atoms: C3_3  and  C4_4 
REMARK    4  A    between atoms: N3_9  and  C5_11 
REMARK    5  A    between atoms: C5_11  and  C10_28 
REMARK       I    between atoms: N4_12  and  C6_14 
REMARK    6  A    between atoms: C6_14  and  C7_16 
REMARK    7  A    between atoms: C7_16  and  N5_17 
REMARK    8  A    between atoms: C7_16  and  C8_21 
REMARK    9  A    between atoms: C8_21  and  N6_22 
REMARK   10  A    between atoms: C8_21  and  C9_26 
REMARK       I    between atoms: C10_28  and  N7_30 
ROOT
HETATM    1  C5  UNL     1     -16.480   6.934  35.904  1.00  0.00     0.173 C 
HETATM    2  N4  UNL     1     -16.281   6.122  36.854  1.00  0.00    -0.307 N 
ATOM      3  H4  UNL     1     -16.990   6.172  37.585  1.00  0.00     0.170 HD
HETATM    4  C6  UNL     1     -15.294   5.178  37.103  1.00  0.00     0.256 C 
HETATM    5  O1  UNL     1     -15.288   4.122  36.391  1.00  0.00    -0.271 OA
ENDROOT
BRANCH   1   6
HETATM    6  N3  UNL     1     -17.664   7.758  36.049  1.00  0.00    -0.367 N 
ATOM      7  H3  UNL     1     -18.283   7.606  36.844  1.00  0.00     0.161 HD
BRANCH   6   8
HETATM    8  C2  UNL     1     -17.986   8.791  35.089  1.00  0.00     0.085 C 
HETATM    9  C1  UNL     1     -17.618  10.118  35.655  1.00  0.00     0.032 C 
BRANCH   8  10
HETATM   10  C3  UNL     1     -19.402   8.678  34.641  1.00  0.00     0.097 C 
BRANCH  10  11
HETATM   11  C4  UNL     1     -19.560   8.126  33.287  1.00  0.00     0.088 C 
HETATM   12  N1  UNL     1     -18.536   7.621  32.687  1.00  0.00    -0.391 N 
ATOM     13  H12 UNL     1     -17.645   7.624  33.182  1.00  0.00     0.157 HD
ATOM     14  H11 UNL     1     -18.646   7.239  31.748  1.00  0.00     0.157 HD
HETATM   15  N2  UNL     1     -20.790   8.122  32.603  1.00  0.00    -0.088 NA
ENDBRANCH  10  11
ENDBRANCH   8  10
ENDBRANCH   6   8
ENDBRANCH   1   6
BRANCH   1  16
HETATM   16  C10 UNL     1     -15.643   7.060  34.755  1.00  0.00     0.287 C 
HETATM   17  O2  UNL     1     -15.985   6.335  33.744  1.00  0.00    -0.264 OA
HETATM   18  N7  UNL     1     -14.508   7.877  34.617  1.00  0.00    -0.345 N 
HETATM   19  C11 UNL     1     -13.935   8.767  35.581  1.00  0.00     0.132 C 
HETATM   20  C15 UNL     1     -13.808   7.828  33.316  1.00  0.00     0.132 C 
HETATM   21  C12 UNL     1     -12.574   9.251  35.057  1.00  0.00     0.099 C 
HETATM   22  C13 UNL     1     -12.849  10.077  33.812  1.00  0.00     0.246 C 
HETATM   23  F2  UNL     1     -13.691  11.107  34.186  1.00  0.00    -0.206 F 
HETATM   24  F3  UNL     1     -11.665  10.577  33.357  1.00  0.00    -0.206 F 
HETATM   25  C14 UNL     1     -13.568   9.229  32.778  1.00  0.00     0.099 C 
ENDBRANCH   1  16
BRANCH   4  26
HETATM   26  C7  UNL     1     -14.266   5.373  38.164  1.00  0.00     0.307 C 
BRANCH  26  27
HETATM   27  N5  UNL     1     -13.273   6.317  37.771  1.00  0.00    -0.064 N 
ATOM     28  H53 UNL     1     -13.467   6.696  36.844  1.00  0.00     0.275 HD
ATOM     29  H52 UNL     1     -13.343   7.177  38.314  1.00  0.00     0.275 HD
ATOM     30  H51 UNL     1     -12.335   5.921  37.821  1.00  0.00     0.275 HD
ENDBRANCH  26  27
BRANCH  26  31
HETATM   31  C8  UNL     1     -13.646   4.113  38.658  1.00  0.00     0.251 C 
BRANCH  31  32
HETATM   32  N6  UNL     1     -14.627   3.186  39.209  1.00  0.00    -0.070 N 
ATOM     33  H63 UNL     1     -14.221   2.261  39.345  1.00  0.00     0.274 HD
ATOM     34  H62 UNL     1     -14.844   3.415  40.179  1.00  0.00     0.274 HD
ATOM     35  H61 UNL     1     -15.476   3.135  38.646  1.00  0.00     0.274 HD
ENDBRANCH  31  32
BRANCH  31  36
HETATM   36  C9  UNL     1     -12.695   4.429  39.786  1.00  0.00     0.257 C 
HETATM   37  F1  UNL     1     -13.326   5.149  40.755  1.00  0.00    -0.253 F 
ENDBRANCH  31  36
ENDBRANCH  26  31
ENDBRANCH   4  26
TORSDOF 10
ENDMDL
MODEL 3
REMARK VINA RESULT: -7.356455923      2.287      2.801
REMARK  10 active torsions:
REMARK  status: ('A' for Active; 'I' for Inactive)
REMARK    1  A    between atoms: C2_2  and  C3_3 
REMARK    2  A    between atoms: C2_2  and  N3_9 
REMARK    3  A    between atoms: C3_3  and  C4_4 
REMARK    4  A    between atoms: N3_9  and  C5_11 
REMARK    5  A    between atoms: C5_11  and  C10_28 
REMARK       I    between atoms: N4_12  and  C6_14 
REMARK    6  A    between atoms: C6_14  and  C7_16 
REMARK    7  A    between atoms: C7_16  and  N5_17 
REMARK    8  A    between atoms: C7_16  and  C8_21 
REMARK    9  A    between atoms: C8_21  and  N6_22 
REMARK   10  A    between atoms: C8_21  and  C9_26 
REMARK       I    between atoms: C10_28  and  N7_30 
ROOT
HETATM    1  C5  UNL     1     -14.969   6.945  36.276  1.00  0.00     0.173 C 
HETATM    2  N4  UNL     1     -14.864   5.953  37.054  1.00  0.00    -0.307 N 
ATOM      3  H4  UNL     1     -13.978   5.923  37.558  1.00  0.00     0.170 HD
HETATM    4  C6  UNL     1     -15.711   4.896  37.360  1.00  0.00     0.256 C 
HETATM    5  O1  UNL     1     -16.749   5.147  38.055  1.00  0.00    -0.271 OA
ENDROOT
BRANCH   1   6
HETATM    6  N3  UNL     1     -13.819   7.828  36.264  1.00  0.00    -0.367 N 
ATOM      7  H3  UNL     1     -13.657   8.448  37.057  1.00  0.00     0.161 HD
BRANCH   6   8
HETATM    8  C2  UNL     1     -12.897   7.850  35.150  1.00  0.00     0.085 C 
HETATM    9  C1  UNL     1     -12.071   6.611  35.172  1.00  0.00     0.032 C 
BRANCH   8  10
HETATM   10  C3  UNL     1     -12.113   9.117  35.132  1.00  0.00     0.097 C 
BRANCH  10  11
HETATM   11  C4  UNL     1     -11.292   9.296  33.925  1.00  0.00     0.088 C 
HETATM   12  N1  UNL     1     -10.037   9.565  34.048  1.00  0.00    -0.391 N 
ATOM     13  H12 UNL     1      -9.657   9.645  34.991  1.00  0.00     0.157 HD
ATOM     14  H11 UNL     1      -9.468   9.690  33.211  1.00  0.00     0.157 HD
HETATM   15  N2  UNL     1     -11.815   9.185  32.623  1.00  0.00    -0.088 NA
ENDBRANCH  10  11
ENDBRANCH   8  10
ENDBRANCH   6   8
ENDBRANCH   1   6
BRANCH   1  16
HETATM   16  C10 UNL     1     -16.109   7.226  35.466  1.00  0.00     0.287 C 
HETATM   17  O2  UNL     1     -17.129   7.702  36.097  1.00  0.00    -0.264 OA
HETATM   18  N7  UNL     1     -16.229   7.039  34.078  1.00  0.00    -0.345 N 
HETATM   19  C11 UNL     1     -15.250   6.536  33.164  1.00  0.00     0.132 C 
HETATM   20  C15 UNL     1     -17.524   7.409  33.468  1.00  0.00     0.132 C 
HETATM   21  C12 UNL     1     -15.925   6.289  31.805  1.00  0.00     0.099 C 
HETATM   22  C13 UNL     1     -16.359   7.645  31.275  1.00  0.00     0.246 C 
HETATM   23  F2  UNL     1     -15.224   8.429  31.191  1.00  0.00    -0.206 F 
HETATM   24  F3  UNL     1     -16.905   7.469  30.038  1.00  0.00    -0.206 F 
HETATM   25  C14 UNL     1     -17.316   8.300  32.256  1.00  0.00     0.099 C 
ENDBRANCH   1  16
BRANCH   4  26
HETATM   26  C7  UNL     1     -15.434   3.506  36.903  1.00  0.00     0.307 C 
BRANCH  26  27
HETATM   27  N5  UNL     1     -16.560   2.652  37.092  1.00  0.00    -0.064 N 
ATOM     28  H53 UNL     1     -16.750   2.503  38.083  1.00  0.00     0.275 HD
ATOM     29  H52 UNL     1     -17.428   3.119  36.830  1.00  0.00     0.275 HD
ATOM     30  H51 UNL     1     -16.451   1.767  36.598  1.00  0.00     0.275 HD
ENDBRANCH  26  27
BRANCH  26  31
HETATM   31  C8  UNL     1     -14.200   2.904  37.478  1.00  0.00     0.251 C 
BRANCH  31  32
HETATM   32  N6  UNL     1     -14.084   1.480  37.186  1.00  0.00    -0.070 N 
ATOM     33  H63 UNL     1     -14.633   1.229  36.364  1.00  0.00     0.274 HD
ATOM     34  H62 UNL     1     -13.153   1.252  36.838  1.00  0.00     0.274 HD
ATOM     35  H61 UNL     1     -14.330   0.896  37.985  1.00  0.00     0.274 HD
ENDBRANCH  31  32
BRANCH  31  36
HETATM   36  C9  UNL     1     -14.239   3.017  38.983  1.00  0.00     0.257 C 
HETATM   37  F1  UNL     1     -13.191   3.761  39.433  1.00  0.00    -0.253 F 
ENDBRANCH  31  36
ENDBRANCH  26  31
ENDBRANCH   4  26
TORSDOF 10
ENDMDL
MODEL 4
REMARK VINA RESULT: -7.340710038      2.325      6.028
REMARK  10 active torsions:
REMARK  status: ('A' for Active; 'I' for Inactive)
REMARK    1  A    between atoms: C2_2  and  C3_3 
REMARK    2  A    between atoms: C2_2  and  N3_9 
REMARK    3  A    between atoms: C3_3  and  C4_4 
REMARK    4  A    between atoms: N3_9  and  C5_11 
REMARK    5  A    between atoms: C5_11  and  C10_28 
REMARK       I    between atoms: N4_12  and  C6_14 
REMARK    6  A    between atoms: C6_14  and  C7_16 
REMARK    7  A    between atoms: C7_16  and  N5_17 
REMARK    8  A    between atoms: C7_16  and  C8_21 
REMARK    9  A    between atoms: C8_21  and  N6_22 
REMARK   10  A    between atoms: C8_21  and  C9_26 
REMARK       I    between atoms: C10_28  and  N7_30 
ROOT
HETATM    1  C5  UNL     1     -14.250   8.688  34.563  1.00  0.00     0.173 C 
HETATM    2  N4  UNL     1     -14.423   8.449  33.332  1.00  0.00    -0.307 N 
ATOM      3  H4  UNL     1     -13.788   8.967  32.725  1.00  0.00     0.170 HD
HETATM    4  C6  UNL     1     -15.302   7.626  32.641  1.00  0.00     0.256 C 
HETATM    5  O1  UNL     1     -15.118   6.367  32.710  1.00  0.00    -0.271 OA
ENDROOT
BRANCH   1   6
HETATM    6  N3  UNL     1     -13.194   9.638  34.853  1.00  0.00    -0.367 N 
ATOM      7  H3  UNL     1     -13.164  10.086  35.768  1.00  0.00     0.161 HD
BRANCH   6   8
HETATM    8  C2  UNL     1     -12.181   9.962  33.873  1.00  0.00     0.085 C 
HETATM    9  C1  UNL     1     -10.834   9.748  34.470  1.00  0.00     0.032 C 
BRANCH   8  10
HETATM   10  C3  UNL     1     -12.401  11.324  33.311  1.00  0.00     0.097 C 
BRANCH  10  11
HETATM   11  C4  UNL     1     -12.640  11.342  31.860  1.00  0.00     0.088 C 
HETATM   12  N1  UNL     1     -12.433  12.428  31.198  1.00  0.00    -0.391 N 
ATOM     13  H12 UNL     1     -12.106  13.245  31.713  1.00  0.00     0.157 HD
ATOM     14  H11 UNL     1     -12.599  12.440  30.191  1.00  0.00     0.157 HD
HETATM   15  N2  UNL     1     -13.092  10.214  31.148  1.00  0.00    -0.088 NA
ENDBRANCH  10  11
ENDBRANCH   8  10
ENDBRANCH   6   8
ENDBRANCH   1   6
BRANCH   1  16
HETATM   16  C10 UNL     1     -14.998   8.088  35.619  1.00  0.00     0.287 C 
HETATM   17  O2  UNL     1     -16.236   8.447  35.690  1.00  0.00    -0.264 OA
HETATM   18  N7  UNL     1     -14.532   7.164  36.570  1.00  0.00    -0.345 N 
HETATM   19  C11 UNL     1     -13.218   6.612  36.698  1.00  0.00     0.132 C 
HETATM   20  C15 UNL     1     -15.512   6.688  37.569  1.00  0.00     0.132 C 
HETATM   21  C12 UNL     1     -13.134   5.842  38.025  1.00  0.00     0.099 C 
HETATM   22  C13 UNL     1     -14.090   4.667  37.915  1.00  0.00     0.246 C 
HETATM   23  F2  UNL     1     -13.693   3.922  36.822  1.00  0.00    -0.206 F 
HETATM   24  F3  UNL     1     -13.993   3.924  39.054  1.00  0.00    -0.206 F 
HETATM   25  C14 UNL     1     -15.500   5.171  37.658  1.00  0.00     0.099 C 
ENDBRANCH   1  16
BRANCH   4  26
HETATM   26  C7  UNL     1     -16.429   8.175  31.837  1.00  0.00     0.307 C 
BRANCH  26  27
HETATM   27  N5  UNL     1     -16.250   9.560  31.552  1.00  0.00    -0.064 N 
ATOM     28  H53 UNL     1     -17.067  10.105  31.830  1.00  0.00     0.275 HD
ATOM     29  H52 UNL     1     -15.558   9.980  32.172  1.00  0.00     0.275 HD
ATOM     30  H51 UNL     1     -16.015   9.717  30.572  1.00  0.00     0.275 HD
ENDBRANCH  26  27
BRANCH  26  31
HETATM   31  C8  UNL     1     -17.778   7.914  32.410  1.00  0.00     0.251 C 
BRANCH  31  32
HETATM   32  N6  UNL     1     -17.719   7.164  33.659  1.00  0.00    -0.070 N 
ATOM     33  H63 UNL     1     -17.399   6.209  33.498  1.00  0.00     0.274 HD
ATOM     34  H62 UNL     1     -16.958   7.495  34.250  1.00  0.00     0.274 HD
ATOM     35  H61 UNL     1     -18.605   7.174  34.163  1.00  0.00     0.274 HD
ENDBRANCH  31  32
BRANCH  31  36
HETATM   36  C9  UNL     1     -18.575   7.062  31.452  1.00  0.00     0.257 C 
HETATM   37  F1  UNL     1     -18.012   5.828  31.329  1.00  0.00    -0.253 F 
ENDBRANCH  31  36
ENDBRANCH  26  31
ENDBRANCH   4  26
TORSDOF 10
ENDMDL
MODEL 5
REMARK VINA RESULT: -7.336602422      3.703      6.473
REMARK  10 active torsions:
REMARK  status: ('A' for Active; 'I' for Inactive)
REMARK    1  A    between atoms: C2_2  and  C3_3 
REMARK    2  A    between atoms: C2_2  and  N3_9 
REMARK    3  A    between atoms: C3_3  and  C4_4 
REMARK    4  A    between atoms: N3_9  and  C5_11 
REMARK    5  A    between atoms: C5_11  and  C10_28 
REMARK       I    between atoms: N4_12  and  C6_14 
REMARK    6  A    between atoms: C6_14  and  C7_16 
REMARK    7  A    between atoms: C7_16  and  N5_17 
REMARK    8  A    between atoms: C7_16  and  C8_21 
REMARK    9  A    between atoms: C8_21  and  N6_22 
REMARK   10  A    between atoms: C8_21  and  C9_26 
REMARK       I    between atoms: C10_28  and  N7_30 
ROOT
HETATM    1  C5  UNL     1     -15.982   6.947  33.807  1.00  0.00     0.173 C 
HETATM    2  N4  UNL     1     -16.474   6.137  32.969  1.00  0.00    -0.307 N 
ATOM      3  H4  UNL     1     -16.382   5.159  33.246  1.00  0.00     0.170 HD
HETATM    4  C6  UNL     1     -17.114   6.308  31.749  1.00  0.00     0.256 C 
HETATM    5  O1  UNL     1     -18.293   6.789  31.757  1.00  0.00    -0.271 OA
ENDROOT
BRANCH   1   6
HETATM    6  N3  UNL     1     -15.397   6.326  34.978  1.00  0.00    -0.367 N 
ATOM      7  H3  UNL     1     -15.242   5.318  34.984  1.00  0.00     0.161 HD
BRANCH   6   8
HETATM    8  C2  UNL     1     -15.026   7.104  36.139  1.00  0.00     0.085 C 
HETATM    9  C1  UNL     1     -13.546   7.263  36.171  1.00  0.00     0.032 C 
BRANCH   8  10
HETATM   10  C3  UNL     1     -15.614   6.524  37.379  1.00  0.00     0.097 C 
BRANCH  10  11
HETATM   11  C4  UNL     1     -15.794   5.065  37.330  1.00  0.00     0.088 C 
HETATM   12  N1  UNL     1     -16.974   4.567  37.485  1.00  0.00    -0.391 N 
ATOM     13  H12 UNL     1     -17.747   5.214  37.637  1.00  0.00     0.157 HD
ATOM     14  H11 UNL     1     -17.098   3.556  37.451  1.00  0.00     0.157 HD
HETATM   15  N2  UNL     1     -14.727   4.171  37.120  1.00  0.00    -0.088 NA
ENDBRANCH  10  11
ENDBRANCH   8  10
ENDBRANCH   6   8
ENDBRANCH   1   6
BRANCH   1  16
HETATM   16  C10 UNL     1     -15.989   8.366  33.664  1.00  0.00     0.287 C 
HETATM   17  O2  UNL     1     -17.109   8.943  33.947  1.00  0.00    -0.264 OA
HETATM   18  N7  UNL     1     -14.921   9.183  33.256  1.00  0.00    -0.345 N 
HETATM   19  C11 UNL     1     -13.593   8.790  32.896  1.00  0.00     0.132 C 
HETATM   20  C15 UNL     1     -15.184  10.637  33.188  1.00  0.00     0.132 C 
HETATM   21  C12 UNL     1     -12.866  10.001  32.291  1.00  0.00     0.099 C 
HETATM   22  C13 UNL     1     -12.729  11.032  33.398  1.00  0.00     0.246 C 
HETATM   23  F2  UNL     1     -12.031  10.431  34.428  1.00  0.00    -0.206 F 
HETATM   24  F3  UNL     1     -12.031  12.097  32.912  1.00  0.00    -0.206 F 
HETATM   25  C14 UNL     1     -14.104  11.416  33.919  1.00  0.00     0.099 C 
ENDBRANCH   1  16
BRANCH   4  26
HETATM   26  C7  UNL     1     -16.462   5.945  30.459  1.00  0.00     0.307 C 
BRANCH  26  27
HETATM   27  N5  UNL     1     -15.907   7.086  29.808  1.00  0.00    -0.064 N 
ATOM     28  H53 UNL     1     -16.178   7.121  28.825  1.00  0.00     0.275 HD
ATOM     29  H52 UNL     1     -16.350   7.948  30.127  1.00  0.00     0.275 HD
ATOM     30  H51 UNL     1     -14.894   7.127  29.916  1.00  0.00     0.275 HD
ENDBRANCH  26  27
BRANCH  26  31
HETATM   31  C8  UNL     1     -17.325   5.163  29.532  1.00  0.00     0.251 C 
BRANCH  31  32
HETATM   32  N6  UNL     1     -18.297   4.337  30.237  1.00  0.00    -0.070 N 
ATOM     33  H63 UNL     1     -18.473   4.698  31.175  1.00  0.00     0.274 HD
ATOM     34  H62 UNL     1     -19.230   4.450  29.841  1.00  0.00     0.274 HD
ATOM     35  H61 UNL     1     -18.028   3.354  30.266  1.00  0.00     0.274 HD
ENDBRANCH  31  32
BRANCH  31  36
HETATM   36  C9  UNL     1     -16.470   4.209  28.734  1.00  0.00     0.257 C 
HETATM   37  F1  UNL     1     -15.260   4.035  29.335  1.00  0.00    -0.253 F 
ENDBRANCH  31  36
ENDBRANCH  26  31
ENDBRANCH   4  26
TORSDOF 10
ENDMDL
