MODEL 1
REMARK VINA RESULT: -7.582839254      0.000      0.000
REMARK  8 active torsions:
REMARK  status: ('A' for Active; 'I' for Inactive)
REMARK    1  A    between atoms: C1_2  and  C2_4 
REMARK    2  A    between atoms: C2_4  and  N2_5 
REMARK    3  A    between atoms: C2_4  and  C13_28 
REMARK       I    between atoms: N2_5  and  C3_7 
REMARK    4  A    between atoms: C3_7  and  C4_9 
REMARK    5  A    between atoms: C6_11  and  N3_12 
REMARK       I    between atoms: N3_12  and  C7_14 
REMARK    6  A    between atoms: C7_14  and  C8_16 
REMARK    7  A    between atoms: C8_16  and  C9_17 
REMARK       I    between atoms: C9_17  and  N4_19 
REMARK    8  A    between atoms: N4_19  and  C10_21 
ROOT
HETATM    1  C4  UNL     1     -12.895   6.778  36.625  1.00  0.00     0.081 C 
HETATM    2  C5  UNL     1     -13.514   6.171  37.851  1.00  0.00     0.039 C 
HETATM    3  C6  UNL     1     -13.090   4.810  37.349  1.00  0.00     0.086 C 
HETATM    4  C12 UNL     1     -13.025   5.410  35.954  1.00  0.00     0.039 C 
ENDROOT
BRANCH   3   5
HETATM    5  N3  UNL     1     -14.068   3.774  37.475  1.00  0.00    -0.356 N 
HETATM    6  C7  UNL     1     -13.859   2.739  38.432  1.00  0.00     0.226 C 
HETATM    7  O3  UNL     1     -12.831   2.752  39.143  1.00  0.00    -0.273 OA
ATOM      8  H3  UNL     1     -14.903   3.777  36.888  1.00  0.00     0.162 HD
BRANCH   6   9
HETATM    9  C8  UNL     1     -14.904   1.696  38.517  1.00  0.00     0.205 C 
BRANCH   9  10
HETATM   10  C9  UNL     1     -16.214   2.259  38.903  1.00  0.00     0.230 C 
HETATM   11  O4  UNL     1     -16.270   3.398  39.415  1.00  0.00    -0.273 OA
HETATM   12  N4  UNL     1     -17.402   1.526  38.700  1.00  0.00    -0.300 N 
ATOM     13  H4  UNL     1     -17.356   0.598  38.282  1.00  0.00     0.167 HD
BRANCH  12  14
HETATM   14  C10 UNL     1     -18.667   2.070  39.073  1.00  0.00     0.366 A 
HETATM   15  F1  UNL     1     -19.264   2.999  38.211  1.00  0.00    -0.184 F 
HETATM   16  C11 UNL     1     -19.590   1.337  39.957  1.00  0.00     0.336 A 
HETATM   17  N5  UNL     1     -18.774   2.390  40.498  1.00  0.00    -0.011 N 
ATOM     18  H52 UNL     1     -18.107   2.452  41.268  1.00  0.00     0.283 HD
ATOM     19  H51 UNL     1     -18.964   3.241  41.027  1.00  0.00     0.283 HD
ENDBRANCH  12  14
ENDBRANCH   9  10
ENDBRANCH   6   9
ENDBRANCH   3   5
BRANCH   1  20
HETATM   20  C3  UNL     1     -13.724   7.782  35.928  1.00  0.00     0.222 C 
HETATM   21  N2  UNL     1     -15.087   7.472  35.673  1.00  0.00    -0.345 N 
ATOM     22  H2  UNL     1     -15.448   6.568  35.979  1.00  0.00     0.163 HD
HETATM   23  O2  UNL     1     -13.195   8.868  35.589  1.00  0.00    -0.273 OA
BRANCH  21  24
HETATM   24  C2  UNL     1     -15.981   8.382  35.001  1.00  0.00     0.206 C 
BRANCH  24  25
HETATM   25  C1  UNL     1     -17.305   8.295  35.596  1.00  0.00     0.256 C 
HETATM   26  N1  UNL     1     -18.457   8.759  34.914  1.00  0.00    -0.060 NA
HETATM   27  O1  UNL     1     -17.457   7.803  36.735  1.00  0.00    -0.274 OA
ENDBRANCH  24  25
BRANCH  24  28
HETATM   28  C13 UNL     1     -15.961   8.078  33.521  1.00  0.00     0.209 C 
HETATM   29 CL1  UNL     1     -14.821   9.059  32.621  1.00  0.00    -0.105 Cl
HETATM   30 CL2  UNL     1     -15.682   6.374  33.180  1.00  0.00    -0.105 Cl
ENDBRANCH  24  28
ENDBRANCH  21  24
ENDBRANCH   1  20
TORSDOF 8
ENDMDL
MODEL 2
REMARK VINA RESULT: -7.537467630      2.174      2.929
REMARK  8 active torsions:
REMARK  status: ('A' for Active; 'I' for Inactive)
REMARK    1  A    between atoms: C1_2  and  C2_4 
REMARK    2  A    between atoms: C2_4  and  N2_5 
REMARK    3  A    between atoms: C2_4  and  C13_28 
REMARK       I    between atoms: N2_5  and  C3_7 
REMARK    4  A    between atoms: C3_7  and  C4_9 
REMARK    5  A    between atoms: C6_11  and  N3_12 
REMARK       I    between atoms: N3_12  and  C7_14 
REMARK    6  A    between atoms: C7_14  and  C8_16 
REMARK    7  A    between atoms: C8_16  and  C9_17 
REMARK       I    between atoms: C9_17  and  N4_19 
REMARK    8  A    between atoms: N4_19  and  C10_21 
ROOT
HETATM    1  C4  UNL     1     -12.829   6.872  36.445  1.00  0.00     0.081 C 
HETATM    2  C5  UNL     1     -13.668   6.411  37.601  1.00  0.00     0.039 C 
HETATM    3  C6  UNL     1     -13.131   5.014  37.389  1.00  0.00     0.086 C 
HETATM    4  C12 UNL     1     -12.802   5.422  35.962  1.00  0.00     0.039 C 
ENDROOT
BRANCH   3   5
HETATM    5  N3  UNL     1     -14.098   3.964  37.469  1.00  0.00    -0.356 N 
HETATM    6  C7  UNL     1     -13.868   2.879  38.365  1.00  0.00     0.226 C 
HETATM    7  O3  UNL     1     -12.832   2.863  39.063  1.00  0.00    -0.273 OA
ATOM      8  H3  UNL     1     -14.940   3.990  36.892  1.00  0.00     0.162 HD
BRANCH   6   9
HETATM    9  C8  UNL     1     -14.902   1.823  38.404  1.00  0.00     0.205 C 
BRANCH   9  10
HETATM   10  C9  UNL     1     -16.212   2.351  38.838  1.00  0.00     0.230 C 
HETATM   11  O4  UNL     1     -16.277   3.477  39.377  1.00  0.00    -0.273 OA
HETATM   12  N4  UNL     1     -17.390   1.598  38.651  1.00  0.00    -0.300 N 
ATOM     13  H4  UNL     1     -17.337   0.680  38.211  1.00  0.00     0.167 HD
BRANCH  12  14
HETATM   14  C10 UNL     1     -18.655   2.108  39.071  1.00  0.00     0.366 A 
HETATM   15  F1  UNL     1     -19.301   3.032  38.239  1.00  0.00    -0.184 F 
HETATM   16  C11 UNL     1     -19.532   1.343  39.975  1.00  0.00     0.336 A 
HETATM   17  N5  UNL     1     -18.724   2.409  40.502  1.00  0.00    -0.011 N 
ATOM     18  H52 UNL     1     -18.034   2.479  41.251  1.00  0.00     0.283 HD
ATOM     19  H51 UNL     1     -18.916   3.250  41.047  1.00  0.00     0.283 HD
ENDBRANCH  12  14
ENDBRANCH   9  10
ENDBRANCH   6   9
ENDBRANCH   3   5
BRANCH   1  20
HETATM   20  C3  UNL     1     -13.520   7.736  35.465  1.00  0.00     0.222 C 
HETATM   21  N2  UNL     1     -12.731   8.467  34.538  1.00  0.00    -0.345 N 
ATOM     22  H2  UNL     1     -11.716   8.374  34.578  1.00  0.00     0.163 HD
HETATM   23  O2  UNL     1     -14.772   7.789  35.490  1.00  0.00    -0.273 OA
BRANCH  21  24
HETATM   24  C2  UNL     1     -13.306   9.337  33.542  1.00  0.00     0.206 C 
BRANCH  24  25
HETATM   25  C1  UNL     1     -12.538   9.244  32.310  1.00  0.00     0.256 C 
HETATM   26  N1  UNL     1     -13.085   9.637  31.063  1.00  0.00    -0.060 NA
HETATM   27  O1  UNL     1     -11.366   8.809  32.325  1.00  0.00    -0.274 OA
ENDBRANCH  24  25
BRANCH  24  28
HETATM   28  C13 UNL     1     -13.379  10.738  34.104  1.00  0.00     0.209 C 
HETATM   29 CL1  UNL     1     -12.243  11.848  33.362  1.00  0.00    -0.105 Cl
HETATM   30 CL2  UNL     1     -15.003  11.413  34.038  1.00  0.00    -0.105 Cl
ENDBRANCH  24  28
ENDBRANCH  21  24
ENDBRANCH   1  20
TORSDOF 8
ENDMDL
MODEL 3
REMARK VINA RESULT: -7.501118269      2.522      3.408
REMARK  8 active torsions:
REMARK  status: ('A' for Active; 'I' for Inactive)
REMARK    1  A    between atoms: C1_2  and  C2_4 
REMARK    2  A    between atoms: C2_4  and  N2_5 
REMARK    3  A    between atoms: C2_4  and  C13_28 
REMARK       I    between atoms: N2_5  and  C3_7 
REMARK    4  A    between atoms: C3_7  and  C4_9 
REMARK    5  A    between atoms: C6_11  and  N3_12 
REMARK       I    between atoms: N3_12  and  C7_14 
REMARK    6  A    between atoms: C7_14  and  C8_16 
REMARK    7  A    between atoms: C8_16  and  C9_17 
REMARK       I    between atoms: C9_17  and  N4_19 
REMARK    8  A    between atoms: N4_19  and  C10_21 
ROOT
HETATM    1  C4  UNL     1     -13.975   8.029  35.941  1.00  0.00     0.081 C 
HETATM    2  C5  UNL     1     -14.955   7.196  36.716  1.00  0.00     0.039 C 
HETATM    3  C6  UNL     1     -13.793   6.588  37.467  1.00  0.00     0.086 C 
HETATM    4  C12 UNL     1     -12.904   6.999  36.305  1.00  0.00     0.039 C 
ENDROOT
BRANCH   3   5
HETATM    5  N3  UNL     1     -13.856   5.172  37.658  1.00  0.00    -0.356 N 
HETATM    6  C7  UNL     1     -13.325   4.613  38.857  1.00  0.00     0.226 C 
HETATM    7  O3  UNL     1     -12.817   5.362  39.718  1.00  0.00    -0.273 OA
ATOM      8  H3  UNL     1     -14.274   4.572  36.946  1.00  0.00     0.162 HD
BRANCH   6   9
HETATM    9  C8  UNL     1     -13.418   3.143  38.998  1.00  0.00     0.205 C 
BRANCH   9  10
HETATM   10  C9  UNL     1     -14.672   2.614  38.424  1.00  0.00     0.230 C 
HETATM   11  O4  UNL     1     -14.716   2.306  37.213  1.00  0.00    -0.273 OA
HETATM   12  N4  UNL     1     -15.821   2.451  39.226  1.00  0.00    -0.300 N 
ATOM     13  H4  UNL     1     -15.785   2.702  40.214  1.00  0.00     0.167 HD
BRANCH  12  14
HETATM   14  C10 UNL     1     -17.032   1.940  38.672  1.00  0.00     0.366 A 
HETATM   15  F1  UNL     1     -17.010   0.654  38.118  1.00  0.00    -0.184 F 
HETATM   16  C11 UNL     1     -18.349   2.413  39.132  1.00  0.00     0.336 A 
HETATM   17  N5  UNL     1     -17.795   2.930  37.910  1.00  0.00    -0.011 N 
ATOM     18  H52 UNL     1     -17.597   3.866  37.555  1.00  0.00     0.283 HD
ATOM     19  H51 UNL     1     -18.123   2.991  36.946  1.00  0.00     0.283 HD
ENDBRANCH  12  14
ENDBRANCH   9  10
ENDBRANCH   6   9
ENDBRANCH   3   5
BRANCH   1  20
HETATM   20  C3  UNL     1     -14.189   8.065  34.480  1.00  0.00     0.222 C 
HETATM   21  N2  UNL     1     -13.861   9.257  33.781  1.00  0.00    -0.345 N 
ATOM     22  H2  UNL     1     -13.490  10.047  34.308  1.00  0.00     0.163 HD
HETATM   23  O2  UNL     1     -14.650   7.045  33.915  1.00  0.00    -0.273 OA
BRANCH  21  24
HETATM   24  C2  UNL     1     -14.032   9.396  32.356  1.00  0.00     0.206 C 
BRANCH  24  25
HETATM   25  C1  UNL     1     -12.781   9.828  31.754  1.00  0.00     0.256 C 
HETATM   26  N1  UNL     1     -12.673  11.067  31.074  1.00  0.00    -0.060 NA
HETATM   27  O1  UNL     1     -11.761   9.107  31.824  1.00  0.00    -0.274 OA
ENDBRANCH  24  25
BRANCH  24  28
HETATM   28  C13 UNL     1     -15.186  10.337  32.094  1.00  0.00     0.209 C 
HETATM   29 CL1  UNL     1     -16.708   9.514  31.813  1.00  0.00    -0.105 Cl
HETATM   30 CL2  UNL     1     -15.383  11.541  33.361  1.00  0.00    -0.105 Cl
ENDBRANCH  24  28
ENDBRANCH  21  24
ENDBRANCH   1  20
TORSDOF 8
ENDMDL
MODEL 4
REMARK VINA RESULT: -7.363813440      4.680      8.959
REMARK  8 active torsions:
REMARK  status: ('A' for Active; 'I' for Inactive)
REMARK    1  A    between atoms: C1_2  and  C2_4 
REMARK    2  A    between atoms: C2_4  and  N2_5 
REMARK    3  A    between atoms: C2_4  and  C13_28 
REMARK       I    between atoms: N2_5  and  C3_7 
REMARK    4  A    between atoms: C3_7  and  C4_9 
REMARK    5  A    between atoms: C6_11  and  N3_12 
REMARK       I    between atoms: N3_12  and  C7_14 
REMARK    6  A    between atoms: C7_14  and  C8_16 
REMARK    7  A    between atoms: C8_16  and  C9_17 
REMARK       I    between atoms: C9_17  and  N4_19 
REMARK    8  A    between atoms: N4_19  and  C10_21 
ROOT
HETATM    1  C4  UNL     1     -15.423   6.143  35.738  1.00  0.00     0.081 C 
HETATM    2  C5  UNL     1     -15.399   7.643  35.662  1.00  0.00     0.039 C 
HETATM    3  C6  UNL     1     -14.182   7.544  34.771  1.00  0.00     0.086 C 
HETATM    4  C12 UNL     1     -13.943   6.160  35.351  1.00  0.00     0.039 C 
ENDROOT
BRANCH   3   5
HETATM    5  N3  UNL     1     -13.129   8.468  35.061  1.00  0.00    -0.356 N 
HETATM    6  C7  UNL     1     -12.423   9.072  33.980  1.00  0.00     0.226 C 
HETATM    7  O3  UNL     1     -12.732   8.788  32.803  1.00  0.00    -0.273 OA
ATOM      8  H3  UNL     1     -12.888   8.690  36.027  1.00  0.00     0.162 HD
BRANCH   6   9
HETATM    9  C8  UNL     1     -11.345  10.018  34.341  1.00  0.00     0.205 C 
BRANCH   9  10
HETATM   10  C9  UNL     1     -11.567  11.355  33.753  1.00  0.00     0.230 C 
HETATM   11  O4  UNL     1     -10.628  12.180  33.720  1.00  0.00    -0.273 OA
HETATM   12  N4  UNL     1     -12.827  11.712  33.229  1.00  0.00    -0.300 N 
ATOM     13  H4  UNL     1     -13.593  11.039  33.255  1.00  0.00     0.167 HD
BRANCH  12  14
HETATM   14  C10 UNL     1     -13.042  13.003  32.661  1.00  0.00     0.366 A 
HETATM   15  F1  UNL     1     -12.428  13.293  31.436  1.00  0.00    -0.184 F 
HETATM   16  C11 UNL     1     -14.248  13.790  32.971  1.00  0.00     0.336 A 
HETATM   17  N5  UNL     1     -13.011  14.090  33.642  1.00  0.00    -0.011 N 
ATOM     18  H52 UNL     1     -12.728  14.163  34.619  1.00  0.00     0.283 HD
ATOM     19  H51 UNL     1     -12.448  14.932  33.757  1.00  0.00     0.283 HD
ENDBRANCH  12  14
ENDBRANCH   9  10
ENDBRANCH   6   9
ENDBRANCH   3   5
BRANCH   1  20
HETATM   20  C3  UNL     1     -15.602   5.580  37.092  1.00  0.00     0.222 C 
HETATM   21  N2  UNL     1     -14.711   4.562  37.522  1.00  0.00    -0.345 N 
ATOM     22  H2  UNL     1     -13.977   4.252  36.884  1.00  0.00     0.163 HD
HETATM   23  O2  UNL     1     -16.532   6.023  37.808  1.00  0.00    -0.273 OA
BRANCH  21  24
HETATM   24  C2  UNL     1     -14.799   3.947  38.823  1.00  0.00     0.206 C 
BRANCH  24  25
HETATM   25  C1  UNL     1     -13.463   3.742  39.358  1.00  0.00     0.256 C 
HETATM   26  N1  UNL     1     -12.719   4.806  39.925  1.00  0.00    -0.060 NA
HETATM   27  O1  UNL     1     -12.935   2.609  39.328  1.00  0.00    -0.274 OA
ENDBRANCH  24  25
BRANCH  24  28
HETATM   28  C13 UNL     1     -15.606   2.674  38.706  1.00  0.00     0.209 C 
HETATM   29 CL1  UNL     1     -17.287   2.869  39.162  1.00  0.00    -0.105 Cl
HETATM   30 CL2  UNL     1     -15.501   1.948  37.106  1.00  0.00    -0.105 Cl
ENDBRANCH  24  28
ENDBRANCH  21  24
ENDBRANCH   1  20
TORSDOF 8
ENDMDL
MODEL 5
REMARK VINA RESULT: -7.358684108      2.601      3.426
REMARK  8 active torsions:
REMARK  status: ('A' for Active; 'I' for Inactive)
REMARK    1  A    between atoms: C1_2  and  C2_4 
REMARK    2  A    between atoms: C2_4  and  N2_5 
REMARK    3  A    between atoms: C2_4  and  C13_28 
REMARK       I    between atoms: N2_5  and  C3_7 
REMARK    4  A    between atoms: C3_7  and  C4_9 
REMARK    5  A    between atoms: C6_11  and  N3_12 
REMARK       I    between atoms: N3_12  and  C7_14 
REMARK    6  A    between atoms: C7_14  and  C8_16 
REMARK    7  A    between atoms: C8_16  and  C9_17 
REMARK       I    between atoms: C9_17  and  N4_19 
REMARK    8  A    between atoms: N4_19  and  C10_21 
ROOT
HETATM    1  C4  UNL     1     -13.831   8.006  35.711  1.00  0.00     0.081 C 
HETATM    2  C5  UNL     1     -14.829   7.223  36.515  1.00  0.00     0.039 C 
HETATM    3  C6  UNL     1     -13.682   6.646  37.313  1.00  0.00     0.086 C 
HETATM    4  C12 UNL     1     -12.774   6.988  36.142  1.00  0.00     0.039 C 
ENDROOT
BRANCH   3   5
HETATM    5  N3  UNL     1     -13.759   5.243  37.576  1.00  0.00    -0.356 N 
HETATM    6  C7  UNL     1     -13.311   4.752  38.838  1.00  0.00     0.226 C 
HETATM    7  O3  UNL     1     -12.860   5.549  39.687  1.00  0.00    -0.273 OA
ATOM      8  H3  UNL     1     -14.130   4.603  36.873  1.00  0.00     0.162 HD
BRANCH   6   9
HETATM    9  C8  UNL     1     -13.415   3.292  39.053  1.00  0.00     0.205 C 
BRANCH   9  10
HETATM   10  C9  UNL     1     -14.644   2.734  38.453  1.00  0.00     0.230 C 
HETATM   11  O4  UNL     1     -14.659   2.435  37.239  1.00  0.00    -0.273 OA
HETATM   12  N4  UNL     1     -15.801   2.533  39.235  1.00  0.00    -0.300 N 
ATOM     13  H4  UNL     1     -15.789   2.776  40.225  1.00  0.00     0.167 HD
BRANCH  12  14
HETATM   14  C10 UNL     1     -16.988   1.994  38.655  1.00  0.00     0.366 A 
HETATM   15  F1  UNL     1     -16.919   0.719  38.080  1.00  0.00    -0.184 F 
HETATM   16  C11 UNL     1     -18.326   2.418  39.105  1.00  0.00     0.336 A 
HETATM   17  N5  UNL     1     -17.772   2.973  37.899  1.00  0.00    -0.011 N 
ATOM     18  H52 UNL     1     -17.598   3.920  37.563  1.00  0.00     0.283 HD
ATOM     19  H51 UNL     1     -18.089   3.040  36.933  1.00  0.00     0.283 HD
ENDBRANCH  12  14
ENDBRANCH   9  10
ENDBRANCH   6   9
ENDBRANCH   3   5
BRANCH   1  20
HETATM   20  C3  UNL     1     -14.027   7.967  34.247  1.00  0.00     0.222 C 
HETATM   21  N2  UNL     1     -13.776   9.150  33.502  1.00  0.00    -0.345 N 
ATOM     22  H2  UNL     1     -13.471   9.986  34.000  1.00  0.00     0.163 HD
HETATM   23  O2  UNL     1     -14.405   6.894  33.720  1.00  0.00    -0.273 OA
BRANCH  21  24
HETATM   24  C2  UNL     1     -13.936   9.217  32.070  1.00  0.00     0.206 C 
BRANCH  24  25
HETATM   25  C1  UNL     1     -13.002  10.187  31.520  1.00  0.00     0.256 C 
HETATM   26  N1  UNL     1     -12.294  11.090  32.352  1.00  0.00    -0.060 NA
HETATM   27  O1  UNL     1     -12.803  10.247  30.287  1.00  0.00    -0.274 OA
ENDBRANCH  24  25
BRANCH  24  28
HETATM   28  C13 UNL     1     -15.382   9.525  31.757  1.00  0.00     0.209 C 
HETATM   29 CL1  UNL     1     -15.752  11.239  31.781  1.00  0.00    -0.105 Cl
HETATM   30 CL2  UNL     1     -15.913   8.821  30.234  1.00  0.00    -0.105 Cl
ENDBRANCH  24  28
ENDBRANCH  21  24
ENDBRANCH   1  20
TORSDOF 8
ENDMDL
